MODEL 1
REMARK VINA RESULT:     -10.4      0.000      0.000
REMARK SMILES CCCO[C@@H]1CCC[N@@H+]([C@@H]2CC[C@]([NH2+]C)(C(=O)OCCOC(=O)c3ccc(-c4c5nc(c(-c6c(F)cccc6F)c6ccc([nH]6)c(-c6c(F)cccc6F)c6nc(c(-c7c(F)cccc7F)c7ccc4[nH]7)C=C6)C=C5)cc3)C2)C1
REMARK SMILES IDX 19 1 18 2 16 3 17 4 13 5 10 6 11 7 78 8 12 9 9 10 5 11 6 12
REMARK SMILES IDX 79 13 7 14 8 15 4 17 3 18 2 19 1 20 14 21 15 22 20 25 21 26
REMARK SMILES IDX 22 27 23 28 24 29 25 30 77 31 26 32 76 33 27 34 28 35 29 36
REMARK SMILES IDX 70 37 30 38 75 39 69 40 71 41 31 42 74 43 68 44 67 45 32 47
REMARK SMILES IDX 58 48 41 49 57 50 42 51 45 52 56 53 72 54 43 55 44 56 55 58
REMARK SMILES IDX 73 59 46 60 33 61 34 62 39 63 35 64 36 65 38 66 40 67 37 68
REMARK SMILES IDX 59 69 60 70 65 71 61 72 62 73 64 74 66 75 63 76 47 77 48 78
REMARK SMILES IDX 53 79 49 80 50 81 52 82 54 83 51 84
REMARK H PARENT 9 16 14 23 14 24 71 46 45 57
REMARK Flexibility Score: inf
ROOT
ATOM      1  C   UNL A   1      32.458  30.072  27.090  1.00  0.00     0.274 C 
ENDROOT
BRANCH   1   2
ATOM      2  O   UNL A   1      32.959  28.782  26.691  1.00  0.00    -0.457 OA
BRANCH   2   3
ATOM      3  C   UNL A   1      32.061  27.756  26.719  1.00  0.00     0.368 C 
ATOM      4  O   UNL A   1      31.240  27.598  27.616  1.00  0.00    -0.245 OA
BRANCH   3   5
ATOM      5  C   UNL A   1      32.149  26.863  25.445  1.00  0.00     0.200 C 
ATOM      6  C   UNL A   1      32.843  24.735  24.525  1.00  0.00     0.191 C 
ATOM      7  C   UNL A   1      34.018  25.673  24.290  1.00  0.00     0.072 C 
ATOM      8  C   UNL A   1      32.092  25.348  25.713  1.00  0.00     0.146 C 
ATOM      9  C   UNL A   1      33.565  27.027  24.834  1.00  0.00     0.087 C 
BRANCH   6  10
ATOM     10  N   UNL A   1      33.133  23.320  24.696  1.00  0.00    -0.330 N 
ATOM     11  C   UNL A   1      34.104  21.609  26.154  1.00  0.00     0.173 C 
ATOM     12  C   UNL A   1      33.261  20.519  25.475  1.00  0.00     0.044 C 
ATOM     13  C   UNL A   1      33.286  22.919  26.100  1.00  0.00     0.294 C 
ATOM     14  C   UNL A   1      32.879  20.941  24.048  1.00  0.00     0.064 C 
ATOM     15  C   UNL A   1      32.286  22.357  23.984  1.00  0.00     0.262 C 
ATOM     16  H   UNL A   1      34.034  23.261  24.221  1.00  0.00     0.348 HD
BRANCH  11  17
ATOM     17  O   UNL A   1      35.355  21.638  25.441  1.00  0.00    -0.372 OA
BRANCH  17  18
ATOM     18  C   UNL A   1      36.373  22.492  25.938  1.00  0.00     0.160 C 
BRANCH  18  19
ATOM     19  C   UNL A   1      36.890  23.420  24.832  1.00  0.00     0.025 C 
ATOM     20  C   UNL A   1      36.601  22.954  23.412  1.00  0.00     0.006 C 
ENDBRANCH  18  19
ENDBRANCH  17  18
ENDBRANCH  11  17
ENDBRANCH   6  10
BRANCH   5  21
ATOM     21  N   UNL A   1      31.168  27.315  24.415  1.00  0.00    -0.334 N 
ATOM     22  C   UNL A   1      29.880  26.637  24.464  1.00  0.00     0.331 C 
ATOM     23  H   UNL A   1      31.578  27.152  23.495  1.00  0.00     0.347 HD
ATOM     24  H   UNL A   1      30.985  28.300  24.605  1.00  0.00     0.347 HD
ENDBRANCH   5  21
ENDBRANCH   3   5
ENDBRANCH   2   3
ENDBRANCH   1   2
BRANCH   1  25
ATOM     25  C   UNL A   1      33.592  30.945  27.617  1.00  0.00     0.275 C 
BRANCH  25  26
ATOM     26  O   UNL A   1      34.769  30.142  27.811  1.00  0.00    -0.458 OA
BRANCH  26  27
ATOM     27  C   UNL A   1      35.642  30.589  28.736  1.00  0.00     0.338 C 
ATOM     28  O   UNL A   1      35.448  31.454  29.583  1.00  0.00    -0.246 OA
BRANCH  27  29
ATOM     29  C   UNL A   1      36.923  29.873  28.622  1.00  0.00     0.060 A 
ATOM     30  C   UNL A   1      37.525  29.314  29.749  1.00  0.00     0.016 A 
ATOM     31  C   UNL A   1      37.604  29.890  27.405  1.00  0.00     0.016 A 
ATOM     32  C   UNL A   1      38.848  28.887  29.694  1.00  0.00     0.010 A 
ATOM     33  C   UNL A   1      38.889  29.348  27.325  1.00  0.00     0.010 A 
ATOM     34  C   UNL A   1      39.544  28.880  28.478  1.00  0.00    -0.014 A 
BRANCH  34  35
ATOM     35  C   UNL A   1      40.956  28.417  28.408  1.00  0.00     0.031 A 
ATOM     36  C   UNL A   1      42.082  29.385  28.660  1.00  0.00     0.074 A 
ATOM     37  C   UNL A   1      41.240  27.133  28.118  1.00  0.00     0.049 A 
ATOM     38  N   UNL A   1      43.363  29.245  28.425  1.00  0.00    -0.248 NA
ATOM     39  C   UNL A   1      41.718  30.689  29.238  1.00  0.00     0.031 C 
ATOM     40  C   UNL A   1      40.256  26.070  27.903  1.00  0.00     0.029 A 
ATOM     41  N   UNL A   1      42.448  26.500  27.958  1.00  0.00    -0.354 N 
ATOM     42  C   UNL A   1      43.945  30.461  28.758  1.00  0.00     0.074 A 
ATOM     43  C   UNL A   1      42.882  31.326  29.227  1.00  0.00     0.031 C 
ATOM     44  C   UNL A   1      40.897  24.914  27.678  1.00  0.00     0.029 A 
ATOM     45  C   UNL A   1      42.332  25.169  27.641  1.00  0.00     0.049 A 
ATOM     46  H   UNL A   1      43.314  26.958  28.059  1.00  0.00     0.167 HD
ATOM     47  C   UNL A   1      45.247  30.826  28.672  1.00  0.00     0.037 A 
ATOM     48  C   UNL A   1      43.268  24.261  27.310  1.00  0.00     0.037 A 
ATOM     49  C   UNL A   1      46.311  29.945  28.268  1.00  0.00     0.049 A 
ATOM     50  C   UNL A   1      44.702  24.687  27.214  1.00  0.00     0.074 A 
ATOM     51  C   UNL A   1      47.662  30.218  28.151  1.00  0.00     0.029 A 
ATOM     52  N   UNL A   1      46.142  28.608  27.939  1.00  0.00    -0.354 N 
ATOM     53  N   UNL A   1      45.229  25.865  27.442  1.00  0.00    -0.248 NA
ATOM     54  C   UNL A   1      45.668  23.667  26.784  1.00  0.00     0.031 C 
ATOM     55  C   UNL A   1      48.311  29.049  27.735  1.00  0.00     0.029 A 
ATOM     56  C   UNL A   1      47.365  28.044  27.618  1.00  0.00     0.049 A 
ATOM     57  H   UNL A   1      45.281  28.132  27.934  1.00  0.00     0.167 HD
ATOM     58  C   UNL A   1      46.585  25.730  27.181  1.00  0.00     0.074 A 
ATOM     59  C   UNL A   1      46.804  24.350  26.800  1.00  0.00     0.031 C 
ATOM     60  C   UNL A   1      47.560  26.669  27.241  1.00  0.00     0.037 A 
BRANCH  47  61
ATOM     61  C   UNL A   1      45.587  32.251  28.987  1.00  0.00     0.057 A 
ATOM     62  C   UNL A   1      45.436  33.278  28.049  1.00  0.00     0.134 A 
ATOM     63  C   UNL A   1      46.044  32.601  30.265  1.00  0.00     0.134 A 
ATOM     64  F   UNL A   1      45.019  33.005  26.804  1.00  0.00    -0.206 F 
ATOM     65  C   UNL A   1      45.744  34.604  28.365  1.00  0.00     0.040 A 
ATOM     66  C   UNL A   1      46.336  33.924  30.599  1.00  0.00     0.040 A 
ATOM     67  F   UNL A   1      46.208  31.663  31.211  1.00  0.00    -0.206 F 
ATOM     68  C   UNL A   1      46.189  34.930  29.645  1.00  0.00     0.006 A 
ENDBRANCH  47  61
BRANCH  48  69
ATOM     69  C   UNL A   1      42.863  22.870  26.998  1.00  0.00     0.057 A 
ATOM     70  C   UNL A   1      42.556  21.963  28.017  1.00  0.00     0.134 A 
ATOM     71  C   UNL A   1      42.749  22.423  25.675  1.00  0.00     0.134 A 
ATOM     72  F   UNL A   1      42.670  22.329  29.302  1.00  0.00    -0.206 F 
ATOM     73  C   UNL A   1      42.149  20.659  27.734  1.00  0.00     0.040 A 
ATOM     74  C   UNL A   1      42.321  21.130  25.377  1.00  0.00     0.040 A 
ATOM     75  F   UNL A   1      43.028  23.248  24.655  1.00  0.00    -0.206 F 
ATOM     76  C   UNL A   1      42.022  20.242  26.409  1.00  0.00     0.006 A 
ENDBRANCH  48  69
BRANCH  60  77
ATOM     77  C   UNL A   1      48.947  26.223  26.901  1.00  0.00     0.057 A 
ATOM     78  C   UNL A   1      49.464  26.364  25.607  1.00  0.00     0.134 A 
ATOM     79  C   UNL A   1      49.779  25.666  27.879  1.00  0.00     0.134 A 
ATOM     80  F   UNL A   1      48.706  26.878  24.626  1.00  0.00    -0.206 F 
ATOM     81  C   UNL A   1      50.759  25.953  25.294  1.00  0.00     0.040 A 
ATOM     82  C   UNL A   1      51.082  25.265  27.581  1.00  0.00     0.040 A 
ATOM     83  F   UNL A   1      49.340  25.507  29.136  1.00  0.00    -0.206 F 
ATOM     84  C   UNL A   1      51.573  25.404  26.283  1.00  0.00     0.006 A 
ENDBRANCH  60  77
ENDBRANCH  34  35
ENDBRANCH  27  29
ENDBRANCH  26  27
ENDBRANCH  25  26
ENDBRANCH   1  25
TORSDOF 16
ENDMDL
MODEL 2
REMARK VINA RESULT:     -10.3      2.491      7.205
REMARK SMILES CCCO[C@@H]1CCC[N@@H+]([C@@H]2CC[C@]([NH2+]C)(C(=O)OCCOC(=O)c3ccc(-c4c5nc(c(-c6c(F)cccc6F)c6ccc([nH]6)c(-c6c(F)cccc6F)c6nc(c(-c7c(F)cccc7F)c7ccc4[nH]7)C=C6)C=C5)cc3)C2)C1
REMARK SMILES IDX 19 1 18 2 16 3 17 4 13 5 10 6 11 7 78 8 12 9 9 10 5 11 6 12
REMARK SMILES IDX 79 13 7 14 8 15 4 17 3 18 2 19 1 20 14 21 15 22 20 25 21 26
REMARK SMILES IDX 22 27 23 28 24 29 25 30 77 31 26 32 76 33 27 34 28 35 29 36
REMARK SMILES IDX 70 37 30 38 75 39 69 40 71 41 31 42 74 43 68 44 67 45 32 47
REMARK SMILES IDX 58 48 41 49 57 50 42 51 45 52 56 53 72 54 43 55 44 56 55 58
REMARK SMILES IDX 73 59 46 60 33 61 34 62 39 63 35 64 36 65 38 66 40 67 37 68
REMARK SMILES IDX 59 69 60 70 65 71 61 72 62 73 64 74 66 75 63 76 47 77 48 78
REMARK SMILES IDX 53 79 49 80 50 81 52 82 54 83 51 84
REMARK H PARENT 9 16 14 23 14 24 71 46 45 57
REMARK Flexibility Score: inf
ROOT
ATOM      1  C   UNL A   1      34.568  21.335  24.721  1.00  0.00     0.274 C 
ENDROOT
BRANCH   1   2
ATOM      2  O   UNL A   1      33.620  21.696  25.744  1.00  0.00    -0.457 OA
BRANCH   2   3
ATOM      3  C   UNL A   1      32.303  21.548  25.419  1.00  0.00     0.368 C 
ATOM      4  O   UNL A   1      31.799  20.473  25.112  1.00  0.00    -0.245 OA
BRANCH   3   5
ATOM      5  C   UNL A   1      31.510  22.880  25.562  1.00  0.00     0.200 C 
ATOM      6  C   UNL A   1      31.430  25.240  25.030  1.00  0.00     0.191 C 
ATOM      7  C   UNL A   1      32.090  25.162  26.399  1.00  0.00     0.072 C 
ATOM      8  C   UNL A   1      31.694  23.869  24.397  1.00  0.00     0.146 C 
ATOM      9  C   UNL A   1      32.104  23.675  26.753  1.00  0.00     0.087 C 
BRANCH   6  10
ATOM     10  N   UNL A   1      31.794  26.353  24.168  1.00  0.00    -0.330 N 
ATOM     11  C   UNL A   1      31.567  28.756  23.752  1.00  0.00     0.173 C 
ATOM     12  C   UNL A   1      32.870  28.762  22.939  1.00  0.00     0.044 C 
ATOM     13  C   UNL A   1      31.708  27.660  24.833  1.00  0.00     0.294 C 
ATOM     14  C   UNL A   1      33.152  27.367  22.359  1.00  0.00     0.064 C 
ATOM     15  C   UNL A   1      33.046  26.252  23.411  1.00  0.00     0.262 C 
ATOM     16  H   UNL A   1      31.065  26.280  23.459  1.00  0.00     0.348 HD
BRANCH  11  17
ATOM     17  O   UNL A   1      30.510  28.544  22.798  1.00  0.00    -0.372 OA
BRANCH  17  18
ATOM     18  C   UNL A   1      29.979  29.685  22.144  1.00  0.00     0.160 C 
BRANCH  18  19
ATOM     19  C   UNL A   1      28.445  29.646  22.145  1.00  0.00     0.025 C 
ATOM     20  C   UNL A   1      27.775  30.635  23.088  1.00  0.00     0.006 C 
ENDBRANCH  18  19
ENDBRANCH  17  18
ENDBRANCH  11  17
ENDBRANCH   6  10
BRANCH   5  21
ATOM     21  N   UNL A   1      30.077  22.610  25.881  1.00  0.00    -0.334 N 
ATOM     22  C   UNL A   1      29.711  22.831  27.273  1.00  0.00     0.331 C 
ATOM     23  H   UNL A   1      29.880  21.635  25.651  1.00  0.00     0.347 HD
ATOM     24  H   UNL A   1      29.530  23.271  25.330  1.00  0.00     0.347 HD
ENDBRANCH   5  21
ENDBRANCH   3   5
ENDBRANCH   2   3
ENDBRANCH   1   2
BRANCH   1  25
ATOM     25  C   UNL A   1      35.847  20.789  25.348  1.00  0.00     0.275 C 
BRANCH  25  26
ATOM     26  O   UNL A   1      36.945  21.669  25.047  1.00  0.00    -0.458 OA
BRANCH  26  27
ATOM     27  C   UNL A   1      38.148  21.294  25.526  1.00  0.00     0.338 C 
ATOM     28  O   UNL A   1      38.678  20.192  25.424  1.00  0.00    -0.246 OA
BRANCH  27  29
ATOM     29  C   UNL A   1      38.802  22.420  26.211  1.00  0.00     0.060 A 
ATOM     30  C   UNL A   1      38.304  23.716  26.078  1.00  0.00     0.016 A 
ATOM     31  C   UNL A   1      40.012  22.204  26.871  1.00  0.00     0.016 A 
ATOM     32  C   UNL A   1      39.068  24.804  26.488  1.00  0.00     0.010 A 
ATOM     33  C   UNL A   1      40.718  23.291  27.391  1.00  0.00     0.010 A 
ATOM     34  C   UNL A   1      40.278  24.607  27.168  1.00  0.00    -0.014 A 
BRANCH  34  35
ATOM     35  C   UNL A   1      41.097  25.764  27.618  1.00  0.00     0.031 A 
ATOM     36  C   UNL A   1      40.493  26.816  28.510  1.00  0.00     0.074 A 
ATOM     37  C   UNL A   1      42.382  25.884  27.231  1.00  0.00     0.049 A 
ATOM     38  N   UNL A   1      40.953  28.002  28.822  1.00  0.00    -0.248 NA
ATOM     39  C   UNL A   1      39.193  26.499  29.122  1.00  0.00     0.031 C 
ATOM     40  C   UNL A   1      43.118  24.918  26.412  1.00  0.00     0.029 A 
ATOM     41  N   UNL A   1      43.301  26.873  27.481  1.00  0.00    -0.354 N 
ATOM     42  C   UNL A   1      39.971  28.596  29.604  1.00  0.00     0.074 A 
ATOM     43  C   UNL A   1      38.894  27.637  29.734  1.00  0.00     0.031 C 
ATOM     44  C   UNL A   1      44.382  25.341  26.261  1.00  0.00     0.029 A 
ATOM     45  C   UNL A   1      44.521  26.649  26.890  1.00  0.00     0.049 A 
ATOM     46  H   UNL A   1      43.105  27.666  28.030  1.00  0.00     0.167 HD
ATOM     47  C   UNL A   1      39.965  29.834  30.155  1.00  0.00     0.037 A 
ATOM     48  C   UNL A   1      45.616  27.426  26.819  1.00  0.00     0.037 A 
ATOM     49  C   UNL A   1      41.064  30.761  30.079  1.00  0.00     0.049 A 
ATOM     50  C   UNL A   1      45.586  28.795  27.430  1.00  0.00     0.074 A 
ATOM     51  C   UNL A   1      41.156  32.037  30.607  1.00  0.00     0.029 A 
ATOM     52  N   UNL A   1      42.273  30.497  29.454  1.00  0.00    -0.354 N 
ATOM     53  N   UNL A   1      44.618  29.383  28.087  1.00  0.00    -0.248 NA
ATOM     54  C   UNL A   1      46.790  29.621  27.262  1.00  0.00     0.031 C 
ATOM     55  C   UNL A   1      42.418  32.552  30.286  1.00  0.00     0.029 A 
ATOM     56  C   UNL A   1      43.117  31.587  29.583  1.00  0.00     0.049 A 
ATOM     57  H   UNL A   1      42.497  29.659  28.989  1.00  0.00     0.167 HD
ATOM     58  C   UNL A   1      45.091  30.647  28.410  1.00  0.00     0.074 A 
ATOM     59  C   UNL A   1      46.443  30.732  27.896  1.00  0.00     0.031 C 
ATOM     60  C   UNL A   1      44.458  31.651  29.063  1.00  0.00     0.037 A 
BRANCH  47  61
ATOM     61  C   UNL A   1      38.716  30.271  30.859  1.00  0.00     0.057 A 
ATOM     62  C   UNL A   1      37.674  30.923  30.191  1.00  0.00     0.134 A 
ATOM     63  C   UNL A   1      38.544  30.003  32.224  1.00  0.00     0.134 A 
ATOM     64  F   UNL A   1      37.784  31.222  28.888  1.00  0.00    -0.206 F 
ATOM     65  C   UNL A   1      36.509  31.309  30.859  1.00  0.00     0.040 A 
ATOM     66  C   UNL A   1      37.378  30.366  32.898  1.00  0.00     0.040 A 
ATOM     67  F   UNL A   1      39.505  29.378  32.921  1.00  0.00    -0.206 F 
ATOM     68  C   UNL A   1      36.357  31.025  32.215  1.00  0.00     0.006 A 
ENDBRANCH  47  61
BRANCH  48  69
ATOM     69  C   UNL A   1      46.816  26.939  26.097  1.00  0.00     0.057 A 
ATOM     70  C   UNL A   1      46.997  27.208  24.737  1.00  0.00     0.134 A 
ATOM     71  C   UNL A   1      47.820  26.217  26.755  1.00  0.00     0.134 A 
ATOM     72  F   UNL A   1      46.058  27.876  24.052  1.00  0.00    -0.206 F 
ATOM     73  C   UNL A   1      48.134  26.776  24.054  1.00  0.00     0.040 A 
ATOM     74  C   UNL A   1      48.972  25.799  26.090  1.00  0.00     0.040 A 
ATOM     75  F   UNL A   1      47.703  25.930  28.060  1.00  0.00    -0.206 F 
ATOM     76  C   UNL A   1      49.130  26.077  24.734  1.00  0.00     0.006 A 
ENDBRANCH  48  69
BRANCH  60  77
ATOM     77  C   UNL A   1      45.231  32.916  29.267  1.00  0.00     0.057 A 
ATOM     78  C   UNL A   1      45.162  33.971  28.350  1.00  0.00     0.134 A 
ATOM     79  C   UNL A   1      46.035  33.087  30.400  1.00  0.00     0.134 A 
ATOM     80  F   UNL A   1      44.418  33.857  27.238  1.00  0.00    -0.206 F 
ATOM     81  C   UNL A   1      45.880  35.150  28.545  1.00  0.00     0.040 A 
ATOM     82  C   UNL A   1      46.746  34.268  30.613  1.00  0.00     0.040 A 
ATOM     83  F   UNL A   1      46.140  32.111  31.314  1.00  0.00    -0.206 F 
ATOM     84  C   UNL A   1      46.672  35.302  29.681  1.00  0.00     0.006 A 
ENDBRANCH  60  77
ENDBRANCH  34  35
ENDBRANCH  27  29
ENDBRANCH  26  27
ENDBRANCH  25  26
ENDBRANCH   1  25
TORSDOF 16
ENDMDL
MODEL 3
REMARK VINA RESULT:     -10.2      4.279      7.764
REMARK SMILES CCCO[C@@H]1CCC[N@@H+]([C@@H]2CC[C@]([NH2+]C)(C(=O)OCCOC(=O)c3ccc(-c4c5nc(c(-c6c(F)cccc6F)c6ccc([nH]6)c(-c6c(F)cccc6F)c6nc(c(-c7c(F)cccc7F)c7ccc4[nH]7)C=C6)C=C5)cc3)C2)C1
REMARK SMILES IDX 19 1 18 2 16 3 17 4 13 5 10 6 11 7 78 8 12 9 9 10 5 11 6 12
REMARK SMILES IDX 79 13 7 14 8 15 4 17 3 18 2 19 1 20 14 21 15 22 20 25 21 26
REMARK SMILES IDX 22 27 23 28 24 29 25 30 77 31 26 32 76 33 27 34 28 35 29 36
REMARK SMILES IDX 70 37 30 38 75 39 69 40 71 41 31 42 74 43 68 44 67 45 32 47
REMARK SMILES IDX 58 48 41 49 57 50 42 51 45 52 56 53 72 54 43 55 44 56 55 58
REMARK SMILES IDX 73 59 46 60 33 61 34 62 39 63 35 64 36 65 38 66 40 67 37 68
REMARK SMILES IDX 59 69 60 70 65 71 61 72 62 73 64 74 66 75 63 76 47 77 48 78
REMARK SMILES IDX 53 79 49 80 50 81 52 82 54 83 51 84
REMARK H PARENT 9 16 14 23 14 24 71 46 45 57
REMARK Flexibility Score: inf
ROOT
ATOM      1  C   UNL A   1      31.016  29.195  24.774  1.00  0.00     0.274 C 
ENDROOT
BRANCH   1   2
ATOM      2  O   UNL A   1      31.876  28.116  25.189  1.00  0.00    -0.457 OA
BRANCH   2   3
ATOM      3  C   UNL A   1      31.336  27.226  26.071  1.00  0.00     0.368 C 
ATOM      4  O   UNL A   1      31.033  27.516  27.224  1.00  0.00    -0.245 OA
BRANCH   3   5
ATOM      5  C   UNL A   1      31.079  25.835  25.420  1.00  0.00     0.200 C 
ATOM      6  C   UNL A   1      32.002  23.659  24.896  1.00  0.00     0.191 C 
ATOM      7  C   UNL A   1      32.247  24.506  23.655  1.00  0.00     0.072 C 
ATOM      8  C   UNL A   1      31.881  24.675  26.038  1.00  0.00     0.146 C 
ATOM      9  C   UNL A   1      31.629  25.867  23.970  1.00  0.00     0.087 C 
BRANCH   6  10
ATOM     10  N   UNL A   1      32.940  22.585  25.176  1.00  0.00    -0.330 N 
ATOM     11  C   UNL A   1      33.960  20.515  24.355  1.00  0.00     0.173 C 
ATOM     12  C   UNL A   1      35.165  20.712  25.288  1.00  0.00     0.044 C 
ATOM     13  C   UNL A   1      33.448  21.922  23.968  1.00  0.00     0.294 C 
ATOM     14  C   UNL A   1      34.777  21.573  26.499  1.00  0.00     0.064 C 
ATOM     15  C   UNL A   1      34.043  22.864  26.102  1.00  0.00     0.262 C 
ATOM     16  H   UNL A   1      32.336  21.945  25.692  1.00  0.00     0.348 HD
BRANCH  11  17
ATOM     17  O   UNL A   1      33.025  19.702  25.088  1.00  0.00    -0.372 OA
BRANCH  17  18
ATOM     18  C   UNL A   1      32.528  18.537  24.449  1.00  0.00     0.160 C 
BRANCH  18  19
ATOM     19  C   UNL A   1      33.527  17.380  24.579  1.00  0.00     0.025 C 
ATOM     20  C   UNL A   1      34.027  16.808  23.261  1.00  0.00     0.006 C 
ENDBRANCH  18  19
ENDBRANCH  17  18
ENDBRANCH  11  17
ENDBRANCH   6  10
BRANCH   5  21
ATOM     21  N   UNL A   1      29.616  25.555  25.332  1.00  0.00    -0.334 N 
ATOM     22  C   UNL A   1      28.929  26.241  24.247  1.00  0.00     0.331 C 
ATOM     23  H   UNL A   1      29.186  25.841  26.212  1.00  0.00     0.347 HD
ATOM     24  H   UNL A   1      29.525  24.556  25.147  1.00  0.00     0.347 HD
ENDBRANCH   5  21
ENDBRANCH   3   5
ENDBRANCH   2   3
ENDBRANCH   1   2
BRANCH   1  25
ATOM     25  C   UNL A   1      31.396  30.486  25.493  1.00  0.00     0.275 C 
BRANCH  25  26
ATOM     26  O   UNL A   1      32.717  30.357  26.049  1.00  0.00    -0.458 OA
BRANCH  26  27
ATOM     27  C   UNL A   1      33.085  31.317  26.921  1.00  0.00     0.338 C 
ATOM     28  O   UNL A   1      32.436  32.301  27.259  1.00  0.00    -0.246 OA
BRANCH  27  29
ATOM     29  C   UNL A   1      34.422  31.031  27.465  1.00  0.00     0.060 A 
ATOM     30  C   UNL A   1      34.856  29.715  27.623  1.00  0.00     0.016 A 
ATOM     31  C   UNL A   1      35.192  32.082  27.962  1.00  0.00     0.016 A 
ATOM     32  C   UNL A   1      35.988  29.439  28.385  1.00  0.00     0.010 A 
ATOM     33  C   UNL A   1      36.393  31.807  28.620  1.00  0.00     0.010 A 
ATOM     34  C   UNL A   1      36.784  30.482  28.879  1.00  0.00    -0.014 A 
BRANCH  34  35
ATOM     35  C   UNL A   1      38.001  30.197  29.685  1.00  0.00     0.031 A 
ATOM     36  C   UNL A   1      39.108  29.354  29.110  1.00  0.00     0.074 A 
ATOM     37  C   UNL A   1      38.122  30.685  30.935  1.00  0.00     0.049 A 
ATOM     38  N   UNL A   1      40.130  28.803  29.716  1.00  0.00    -0.248 NA
ATOM     39  C   UNL A   1      39.052  29.083  27.664  1.00  0.00     0.031 C 
ATOM     40  C   UNL A   1      37.156  31.558  31.606  1.00  0.00     0.029 A 
ATOM     41  N   UNL A   1      39.116  30.516  31.866  1.00  0.00    -0.354 N 
ATOM     42  C   UNL A   1      40.794  28.065  28.744  1.00  0.00     0.074 A 
ATOM     43  C   UNL A   1      40.071  28.250  27.503  1.00  0.00     0.031 C 
ATOM     44  C   UNL A   1      37.623  31.880  32.821  1.00  0.00     0.029 A 
ATOM     45  C   UNL A   1      38.872  31.164  33.053  1.00  0.00     0.049 A 
ATOM     46  H   UNL A   1      39.927  29.982  31.700  1.00  0.00     0.167 HD
ATOM     47  C   UNL A   1      41.903  27.298  28.878  1.00  0.00     0.037 A 
ATOM     48  C   UNL A   1      39.548  31.149  34.215  1.00  0.00     0.037 A 
ATOM     49  C   UNL A   1      42.657  27.167  30.097  1.00  0.00     0.049 A 
ATOM     50  C   UNL A   1      40.767  30.286  34.345  1.00  0.00     0.074 A 
ATOM     51  C   UNL A   1      43.795  26.416  30.334  1.00  0.00     0.029 A 
ATOM     52  N   UNL A   1      42.360  27.829  31.280  1.00  0.00    -0.354 N 
ATOM     53  N   UNL A   1      41.334  29.520  33.446  1.00  0.00    -0.248 NA
ATOM     54  C   UNL A   1      41.423  30.261  35.659  1.00  0.00     0.031 C 
ATOM     55  C   UNL A   1      44.178  26.610  31.667  1.00  0.00     0.029 A 
ATOM     56  C   UNL A   1      43.293  27.502  32.249  1.00  0.00     0.049 A 
ATOM     57  H   UNL A   1      41.599  28.439  31.409  1.00  0.00     0.167 HD
ATOM     58  C   UNL A   1      42.410  28.920  34.083  1.00  0.00     0.074 A 
ATOM     59  C   UNL A   1      42.431  29.429  35.439  1.00  0.00     0.031 C 
ATOM     60  C   UNL A   1      43.295  28.019  33.592  1.00  0.00     0.037 A 
BRANCH  47  61
ATOM     61  C   UNL A   1      42.344  26.508  27.684  1.00  0.00     0.057 A 
ATOM     62  C   UNL A   1      41.901  25.202  27.448  1.00  0.00     0.134 A 
ATOM     63  C   UNL A   1      43.205  27.081  26.737  1.00  0.00     0.134 A 
ATOM     64  F   UNL A   1      41.089  24.592  28.324  1.00  0.00    -0.206 F 
ATOM     65  C   UNL A   1      42.311  24.486  26.320  1.00  0.00     0.040 A 
ATOM     66  C   UNL A   1      43.605  26.384  25.597  1.00  0.00     0.040 A 
ATOM     67  F   UNL A   1      43.663  28.331  26.903  1.00  0.00    -0.206 F 
ATOM     68  C   UNL A   1      43.160  25.080  25.388  1.00  0.00     0.006 A 
ENDBRANCH  47  61
BRANCH  48  69
ATOM     69  C   UNL A   1      39.050  31.943  35.364  1.00  0.00     0.057 A 
ATOM     70  C   UNL A   1      38.233  31.364  36.340  1.00  0.00     0.134 A 
ATOM     71  C   UNL A   1      39.399  33.290  35.525  1.00  0.00     0.134 A 
ATOM     72  F   UNL A   1      37.848  30.085  36.225  1.00  0.00    -0.206 F 
ATOM     73  C   UNL A   1      37.779  32.096  37.438  1.00  0.00     0.040 A 
ATOM     74  C   UNL A   1      38.972  34.027  36.629  1.00  0.00     0.040 A 
ATOM     75  F   UNL A   1      40.182  33.899  34.622  1.00  0.00    -0.206 F 
ATOM     76  C   UNL A   1      38.157  33.430  37.589  1.00  0.00     0.006 A 
ENDBRANCH  48  69
BRANCH  60  77
ATOM     77  C   UNL A   1      44.363  27.544  34.527  1.00  0.00     0.057 A 
ATOM     78  C   UNL A   1      45.575  28.232  34.661  1.00  0.00     0.134 A 
ATOM     79  C   UNL A   1      44.168  26.403  35.313  1.00  0.00     0.134 A 
ATOM     80  F   UNL A   1      45.822  29.324  33.923  1.00  0.00    -0.206 F 
ATOM     81  C   UNL A   1      46.566  27.790  35.537  1.00  0.00     0.040 A 
ATOM     82  C   UNL A   1      45.147  25.960  36.203  1.00  0.00     0.040 A 
ATOM     83  F   UNL A   1      43.027  25.704  35.228  1.00  0.00    -0.206 F 
ATOM     84  C   UNL A   1      46.352  26.652  36.314  1.00  0.00     0.006 A 
ENDBRANCH  60  77
ENDBRANCH  34  35
ENDBRANCH  27  29
ENDBRANCH  26  27
ENDBRANCH  25  26
ENDBRANCH   1  25
TORSDOF 16
ENDMDL
