MODEL 1
REMARK VINA RESULT:     -12.7      0.000      0.000
REMARK SMILES O=C(OCCOC(=O)[C@@H]1[C@@H](C(=O)N2CCN(c3cccc(Cl)c3)CC2)[C@H]2CC[C@@H]1O2)c1ccc(-c2c3nc(c(-c4c(F)cccc4F)c4ccc([nH]4)c(-c4c(F)cccc4F)c4nc(c(-c5c(F)cccc5F)c5ccc2[nH]5)C=C4)C=C3)cc1
REMARK SMILES IDX 4 1 3 2 2 3 1 4 31 5 32 6 84 7 33 8 83 9 34 10 35 11 36 12
REMARK SMILES IDX 77 13 37 14 82 15 76 16 78 17 38 18 81 19 75 20 74 21 39 23
REMARK SMILES IDX 65 24 48 25 64 26 49 27 52 28 63 29 79 30 50 31 51 32 62 34
REMARK SMILES IDX 80 35 53 36 40 37 41 38 46 39 42 40 43 41 45 42 47 43 44 44
REMARK SMILES IDX 66 45 67 46 72 47 68 48 69 49 71 50 73 51 70 52 54 53 55 54
REMARK SMILES IDX 60 55 56 56 57 57 59 58 61 59 58 60 5 61 6 62 7 63 8 64 9 65
REMARK SMILES IDX 10 66 29 67 26 68 28 69 30 70 27 71 11 72 12 73 13 74 14 75
REMARK SMILES IDX 25 76 15 77 24 78 16 79 17 80 18 81 23 82 19 83 21 84 20 85
REMARK SMILES IDX 22 86
REMARK H PARENT 78 22 52 33
REMARK Flexibility Score: inf
ROOT
ATOM      1  C   UNL A   1      31.383  32.270  26.888  1.00  0.00     0.275 C 
ENDROOT
BRANCH   1   2
ATOM      2  O   UNL A   1      32.199  33.450  26.974  1.00  0.00    -0.458 OA
BRANCH   2   3
ATOM      3  C   UNL A   1      32.943  33.921  28.001  1.00  0.00     0.338 C 
ATOM      4  O   UNL A   1      32.585  34.966  28.545  1.00  0.00    -0.246 OA
BRANCH   3   5
ATOM      5  C   UNL A   1      34.256  33.337  28.438  1.00  0.00     0.060 A 
ATOM      6  C   UNL A   1      35.538  33.815  28.139  1.00  0.00     0.016 A 
ATOM      7  C   UNL A   1      34.167  32.204  29.264  1.00  0.00     0.016 A 
ATOM      8  C   UNL A   1      36.685  33.281  28.753  1.00  0.00     0.010 A 
ATOM      9  C   UNL A   1      35.303  31.666  29.872  1.00  0.00     0.010 A 
ATOM     10  C   UNL A   1      36.574  32.232  29.663  1.00  0.00    -0.014 A 
BRANCH  10  11
ATOM     11  C   UNL A   1      37.750  31.662  30.376  1.00  0.00     0.031 A 
ATOM     12  C   UNL A   1      38.434  30.487  29.756  1.00  0.00     0.074 A 
ATOM     13  C   UNL A   1      38.145  32.099  31.594  1.00  0.00     0.049 A 
ATOM     14  N   UNL A   1      39.421  29.772  30.223  1.00  0.00    -0.248 NA
ATOM     15  C   UNL A   1      37.961  30.072  28.424  1.00  0.00     0.031 C 
ATOM     16  C   UNL A   1      37.629  33.268  32.295  1.00  0.00     0.029 A 
ATOM     17  N   UNL A   1      39.021  31.553  32.506  1.00  0.00    -0.354 N 
ATOM     18  C   UNL A   1      39.740  28.890  29.207  1.00  0.00     0.074 A 
ATOM     19  C   UNL A   1      38.743  29.038  28.172  1.00  0.00     0.031 C 
ATOM     20  C   UNL A   1      38.047  33.257  33.573  1.00  0.00     0.029 A 
ATOM     21  C   UNL A   1      38.947  32.130  33.758  1.00  0.00     0.049 A 
ATOM     22  H   UNL A   1      39.641  30.821  32.286  1.00  0.00     0.167 HD
ATOM     23  C   UNL A   1      40.835  28.107  29.100  1.00  0.00     0.037 A 
ATOM     24  C   UNL A   1      39.548  31.794  34.917  1.00  0.00     0.037 A 
ATOM     25  C   UNL A   1      41.814  27.964  30.138  1.00  0.00     0.049 A 
ATOM     26  C   UNL A   1      40.634  30.757  34.861  1.00  0.00     0.074 A 
ATOM     27  C   UNL A   1      42.989  27.238  30.122  1.00  0.00     0.029 A 
ATOM     28  N   UNL A   1      41.714  28.549  31.391  1.00  0.00    -0.354 N 
ATOM     29  N   UNL A   1      41.030  30.040  33.837  1.00  0.00    -0.248 NA
ATOM     30  C   UNL A   1      41.423  30.546  36.082  1.00  0.00     0.031 C 
ATOM     31  C   UNL A   1      43.572  27.338  31.390  1.00  0.00     0.029 A 
ATOM     32  C   UNL A   1      42.786  28.166  32.177  1.00  0.00     0.049 A 
ATOM     33  H   UNL A   1      40.988  29.147  31.680  1.00  0.00     0.167 HD
ATOM     34  C   UNL A   1      42.172  29.375  34.257  1.00  0.00     0.074 A 
ATOM     35  C   UNL A   1      42.383  29.745  35.642  1.00  0.00     0.031 C 
ATOM     36  C   UNL A   1      42.991  28.564  33.546  1.00  0.00     0.037 A 
BRANCH  23  37
ATOM     37  C   UNL A   1      41.022  27.413  27.791  1.00  0.00     0.057 A 
ATOM     38  C   UNL A   1      40.550  26.106  27.592  1.00  0.00     0.134 A 
ATOM     39  C   UNL A   1      41.722  28.019  26.743  1.00  0.00     0.134 A 
ATOM     40  F   UNL A   1      39.897  25.461  28.572  1.00  0.00    -0.206 F 
ATOM     41  C   UNL A   1      40.800  25.412  26.409  1.00  0.00     0.040 A 
ATOM     42  C   UNL A   1      41.956  27.343  25.546  1.00  0.00     0.040 A 
ATOM     43  F   UNL A   1      42.207  29.261  26.878  1.00  0.00    -0.206 F 
ATOM     44  C   UNL A   1      41.505  26.034  25.380  1.00  0.00     0.006 A 
ENDBRANCH  23  37
BRANCH  24  45
ATOM     45  C   UNL A   1      39.234  32.484  36.200  1.00  0.00     0.057 A 
ATOM     46  C   UNL A   1      38.289  31.969  37.096  1.00  0.00     0.134 A 
ATOM     47  C   UNL A   1      39.796  33.729  36.511  1.00  0.00     0.134 A 
ATOM     48  F   UNL A   1      37.696  30.793  36.845  1.00  0.00    -0.206 F 
ATOM     49  C   UNL A   1      37.878  32.684  38.225  1.00  0.00     0.040 A 
ATOM     50  C   UNL A   1      39.408  34.447  37.649  1.00  0.00     0.040 A 
ATOM     51  F   UNL A   1      40.705  34.286  35.697  1.00  0.00    -0.206 F 
ATOM     52  C   UNL A   1      38.435  33.930  38.501  1.00  0.00     0.006 A 
ENDBRANCH  24  45
BRANCH  36  53
ATOM     53  C   UNL A   1      44.231  28.074  34.228  1.00  0.00     0.057 A 
ATOM     54  C   UNL A   1      44.276  26.840  34.889  1.00  0.00     0.134 A 
ATOM     55  C   UNL A   1      45.414  28.821  34.161  1.00  0.00     0.134 A 
ATOM     56  F   UNL A   1      43.172  26.088  35.002  1.00  0.00    -0.206 F 
ATOM     57  C   UNL A   1      45.454  26.375  35.471  1.00  0.00     0.040 A 
ATOM     58  C   UNL A   1      46.605  28.350  34.710  1.00  0.00     0.040 A 
ATOM     59  F   UNL A   1      45.436  30.009  33.536  1.00  0.00    -0.206 F 
ATOM     60  C   UNL A   1      46.626  27.124  35.372  1.00  0.00     0.006 A 
ENDBRANCH  36  53
ENDBRANCH  10  11
ENDBRANCH   3   5
ENDBRANCH   2   3
ENDBRANCH   1   2
BRANCH   1  61
ATOM     61  C   UNL A   1      32.121  31.030  26.378  1.00  0.00     0.274 C 
BRANCH  61  62
ATOM     62  O   UNL A   1      31.800  29.853  27.137  1.00  0.00    -0.462 OA
BRANCH  62  63
ATOM     63  C   UNL A   1      32.359  28.674  26.749  1.00  0.00     0.312 C 
ATOM     64  O   UNL A   1      33.449  28.258  27.140  1.00  0.00    -0.252 OA
BRANCH  63  65
ATOM     65  C   UNL A   1      31.416  27.842  25.901  1.00  0.00     0.143 C 
ATOM     66  C   UNL A   1      31.996  26.452  25.540  1.00  0.00     0.124 C 
ATOM     67  C   UNL A   1      31.189  28.419  24.517  1.00  0.00     0.133 C 
ATOM     68  C   UNL A   1      32.035  26.501  24.004  1.00  0.00     0.132 C 
ATOM     69  C   UNL A   1      30.014  27.723  23.825  1.00  0.00     0.036 C 
ATOM     70  O   UNL A   1      32.332  27.899  23.806  1.00  0.00    -0.373 OA
ATOM     71  C   UNL A   1      30.652  26.427  23.350  1.00  0.00     0.035 C 
BRANCH  66  72
ATOM     72  C   UNL A   1      31.209  25.234  25.973  1.00  0.00     0.229 C 
ATOM     73  O   UNL A   1      30.103  25.316  26.500  1.00  0.00    -0.274 OA
ATOM     74  N   UNL A   1      31.836  24.041  25.751  1.00  0.00    -0.339 N 
ATOM     75  C   UNL A   1      31.548  23.276  24.546  1.00  0.00     0.141 C 
ATOM     76  C   UNL A   1      32.439  23.276  26.840  1.00  0.00     0.141 C 
ATOM     77  C   UNL A   1      32.824  22.595  24.021  1.00  0.00     0.138 C 
ATOM     78  C   UNL A   1      33.746  22.623  26.361  1.00  0.00     0.138 C 
ATOM     79  N   UNL A   1      33.494  21.872  25.120  1.00  0.00    -0.368 N 
BRANCH  79  80
ATOM     80  C   UNL A   1      34.086  20.645  24.922  1.00  0.00     0.038 A 
ATOM     81  C   UNL A   1      35.481  20.512  25.009  1.00  0.00     0.026 A 
ATOM     82  C   UNL A   1      33.341  19.487  24.669  1.00  0.00     0.046 A 
ATOM     83  C   UNL A   1      36.113  19.277  24.867  1.00  0.00     0.004 A 
ATOM     84  C   UNL A   1      33.969  18.250  24.525  1.00  0.00     0.043 A 
ATOM     85  C   UNL A   1      35.353  18.139  24.627  1.00  0.00     0.020 A 
ATOM     86  Cl  UNL A   1      33.024  16.841  24.229  1.00  0.00    -0.084 Cl
ENDBRANCH  79  80
ENDBRANCH  66  72
ENDBRANCH  63  65
ENDBRANCH  62  63
ENDBRANCH  61  62
ENDBRANCH   1  61
TORSDOF 13
ENDMDL
MODEL 2
REMARK VINA RESULT:     -12.6      0.650      6.082
REMARK SMILES O=C(OCCOC(=O)[C@@H]1[C@@H](C(=O)N2CCN(c3cccc(Cl)c3)CC2)[C@H]2CC[C@@H]1O2)c1ccc(-c2c3nc(c(-c4c(F)cccc4F)c4ccc([nH]4)c(-c4c(F)cccc4F)c4nc(c(-c5c(F)cccc5F)c5ccc2[nH]5)C=C4)C=C3)cc1
REMARK SMILES IDX 4 1 3 2 2 3 1 4 31 5 32 6 84 7 33 8 83 9 34 10 35 11 36 12
REMARK SMILES IDX 77 13 37 14 82 15 76 16 78 17 38 18 81 19 75 20 74 21 39 23
REMARK SMILES IDX 65 24 48 25 64 26 49 27 52 28 63 29 79 30 50 31 51 32 62 34
REMARK SMILES IDX 80 35 53 36 40 37 41 38 46 39 42 40 43 41 45 42 47 43 44 44
REMARK SMILES IDX 66 45 67 46 72 47 68 48 69 49 71 50 73 51 70 52 54 53 55 54
REMARK SMILES IDX 60 55 56 56 57 57 59 58 61 59 58 60 5 61 6 62 7 63 8 64 9 65
REMARK SMILES IDX 10 66 29 67 26 68 28 69 30 70 27 71 11 72 12 73 13 74 14 75
REMARK SMILES IDX 25 76 15 77 24 78 16 79 17 80 18 81 23 82 19 83 21 84 20 85
REMARK SMILES IDX 22 86
REMARK H PARENT 78 22 52 33
REMARK Flexibility Score: inf
ROOT
ATOM      1  C   UNL A   1      32.006  32.885  26.551  1.00  0.00     0.275 C 
ENDROOT
BRANCH   1   2
ATOM      2  O   UNL A   1      32.138  33.810  27.644  1.00  0.00    -0.458 OA
BRANCH   2   3
ATOM      3  C   UNL A   1      33.248  34.306  28.234  1.00  0.00     0.338 C 
ATOM      4  O   UNL A   1      33.322  35.524  28.401  1.00  0.00    -0.246 OA
BRANCH   3   5
ATOM      5  C   UNL A   1      34.464  33.494  28.577  1.00  0.00     0.060 A 
ATOM      6  C   UNL A   1      35.785  33.735  28.176  1.00  0.00     0.016 A 
ATOM      7  C   UNL A   1      34.237  32.395  29.421  1.00  0.00     0.016 A 
ATOM      8  C   UNL A   1      36.861  33.001  28.708  1.00  0.00     0.010 A 
ATOM      9  C   UNL A   1      35.302  31.660  29.948  1.00  0.00     0.010 A 
ATOM     10  C   UNL A   1      36.634  31.988  29.636  1.00  0.00    -0.014 A 
BRANCH  10  11
ATOM     11  C   UNL A   1      37.740  31.214  30.265  1.00  0.00     0.031 A 
ATOM     12  C   UNL A   1      38.209  31.650  31.615  1.00  0.00     0.074 A 
ATOM     13  C   UNL A   1      38.390  30.219  29.621  1.00  0.00     0.049 A 
ATOM     14  N   UNL A   1      39.203  31.190  32.326  1.00  0.00    -0.248 NA
ATOM     15  C   UNL A   1      37.447  32.732  32.264  1.00  0.00     0.031 C 
ATOM     16  C   UNL A   1      38.013  29.637  28.338  1.00  0.00     0.029 A 
ATOM     17  N   UNL A   1      39.569  29.573  29.919  1.00  0.00    -0.354 N 
ATOM     18  C   UNL A   1      39.125  31.862  33.532  1.00  0.00     0.074 A 
ATOM     19  C   UNL A   1      38.104  32.876  33.402  1.00  0.00     0.031 C 
ATOM     20  C   UNL A   1      39.013  28.866  27.875  1.00  0.00     0.029 A 
ATOM     21  C   UNL A   1      40.066  28.817  28.875  1.00  0.00     0.049 A 
ATOM     22  H   UNL A   1      40.016  29.643  30.794  1.00  0.00     0.167 HD
ATOM     23  C   UNL A   1      39.771  31.580  34.683  1.00  0.00     0.037 A 
ATOM     24  C   UNL A   1      41.231  28.151  28.750  1.00  0.00     0.037 A 
ATOM     25  C   UNL A   1      40.788  30.576  34.798  1.00  0.00     0.049 A 
ATOM     26  C   UNL A   1      42.084  28.007  29.979  1.00  0.00     0.074 A 
ATOM     27  C   UNL A   1      41.476  30.168  35.924  1.00  0.00     0.029 A 
ATOM     28  N   UNL A   1      41.275  29.833  33.732  1.00  0.00    -0.354 N 
ATOM     29  N   UNL A   1      41.903  28.529  31.168  1.00  0.00    -0.248 NA
ATOM     30  C   UNL A   1      43.244  27.109  29.888  1.00  0.00     0.031 C 
ATOM     31  C   UNL A   1      42.424  29.218  35.527  1.00  0.00     0.029 A 
ATOM     32  C   UNL A   1      42.289  28.998  34.165  1.00  0.00     0.049 A 
ATOM     33  H   UNL A   1      40.949  29.892  32.806  1.00  0.00     0.167 HD
ATOM     34  C   UNL A   1      42.857  27.946  31.988  1.00  0.00     0.074 A 
ATOM     35  C   UNL A   1      43.639  27.059  31.151  1.00  0.00     0.031 C 
ATOM     36  C   UNL A   1      43.040  28.104  33.321  1.00  0.00     0.037 A 
BRANCH  23  37
ATOM     37  C   UNL A   1      39.333  32.345  35.889  1.00  0.00     0.057 A 
ATOM     38  C   UNL A   1      38.368  31.822  36.764  1.00  0.00     0.134 A 
ATOM     39  C   UNL A   1      39.825  33.626  36.152  1.00  0.00     0.134 A 
ATOM     40  F   UNL A   1      37.836  30.609  36.546  1.00  0.00    -0.206 F 
ATOM     41  C   UNL A   1      37.880  32.564  37.840  1.00  0.00     0.040 A 
ATOM     42  C   UNL A   1      39.363  34.367  37.240  1.00  0.00     0.040 A 
ATOM     43  F   UNL A   1      40.739  34.183  35.346  1.00  0.00    -0.206 F 
ATOM     44  C   UNL A   1      38.382  33.841  38.080  1.00  0.00     0.006 A 
ENDBRANCH  23  37
BRANCH  24  45
ATOM     45  C   UNL A   1      41.631  27.489  27.476  1.00  0.00     0.057 A 
ATOM     46  C   UNL A   1      41.410  26.123  27.260  1.00  0.00     0.134 A 
ATOM     47  C   UNL A   1      42.338  28.186  26.487  1.00  0.00     0.134 A 
ATOM     48  F   UNL A   1      40.759  25.394  28.179  1.00  0.00    -0.206 F 
ATOM     49  C   UNL A   1      41.916  25.464  26.136  1.00  0.00     0.040 A 
ATOM     50  C   UNL A   1      42.833  27.542  25.348  1.00  0.00     0.040 A 
ATOM     51  F   UNL A   1      42.591  29.495  26.628  1.00  0.00    -0.206 F 
ATOM     52  C   UNL A   1      42.635  26.173  25.177  1.00  0.00     0.006 A 
ENDBRANCH  24  45
BRANCH  36  53
ATOM     53  C   UNL A   1      44.082  27.251  33.976  1.00  0.00     0.057 A 
ATOM     54  C   UNL A   1      45.426  27.637  34.039  1.00  0.00     0.134 A 
ATOM     55  C   UNL A   1      43.717  26.056  34.610  1.00  0.00     0.134 A 
ATOM     56  F   UNL A   1      45.840  28.761  33.435  1.00  0.00    -0.206 F 
ATOM     57  C   UNL A   1      46.373  26.856  34.700  1.00  0.00     0.040 A 
ATOM     58  C   UNL A   1      44.649  25.285  35.303  1.00  0.00     0.040 A 
ATOM     59  F   UNL A   1      42.443  25.634  34.590  1.00  0.00    -0.206 F 
ATOM     60  C   UNL A   1      45.983  25.684  35.345  1.00  0.00     0.006 A 
ENDBRANCH  36  53
ENDBRANCH  10  11
ENDBRANCH   3   5
ENDBRANCH   2   3
ENDBRANCH   1   2
BRANCH   1  61
ATOM     61  C   UNL A   1      31.819  31.427  26.980  1.00  0.00     0.274 C 
BRANCH  61  62
ATOM     62  O   UNL A   1      32.428  30.506  26.060  1.00  0.00    -0.462 OA
BRANCH  62  63
ATOM     63  C   UNL A   1      32.427  29.185  26.391  1.00  0.00     0.312 C 
ATOM     64  O   UNL A   1      33.083  28.697  27.309  1.00  0.00    -0.252 OA
BRANCH  63  65
ATOM     65  C   UNL A   1      31.398  28.396  25.603  1.00  0.00     0.143 C 
ATOM     66  C   UNL A   1      31.899  26.988  25.198  1.00  0.00     0.124 C 
ATOM     67  C   UNL A   1      31.103  28.992  24.240  1.00  0.00     0.133 C 
ATOM     68  C   UNL A   1      31.837  27.046  23.663  1.00  0.00     0.132 C 
ATOM     69  C   UNL A   1      29.858  28.345  23.624  1.00  0.00     0.036 C 
ATOM     70  O   UNL A   1      32.175  28.433  23.452  1.00  0.00    -0.373 OA
ATOM     71  C   UNL A   1      30.413  27.029  23.102  1.00  0.00     0.035 C 
BRANCH  66  72
ATOM     72  C   UNL A   1      31.095  25.797  25.676  1.00  0.00     0.229 C 
ATOM     73  O   UNL A   1      29.992  25.915  26.201  1.00  0.00    -0.274 OA
ATOM     74  N   UNL A   1      31.705  24.588  25.497  1.00  0.00    -0.339 N 
ATOM     75  C   UNL A   1      31.403  23.784  24.322  1.00  0.00     0.141 C 
ATOM     76  C   UNL A   1      32.299  23.855  26.613  1.00  0.00     0.141 C 
ATOM     77  C   UNL A   1      32.669  23.065  23.820  1.00  0.00     0.138 C 
ATOM     78  C   UNL A   1      33.595  23.166  26.156  1.00  0.00     0.138 C 
ATOM     79  N   UNL A   1      33.330  22.374  24.943  1.00  0.00    -0.368 N 
BRANCH  79  80
ATOM     80  C   UNL A   1      33.905  21.132  24.789  1.00  0.00     0.038 A 
ATOM     81  C   UNL A   1      35.279  20.957  25.017  1.00  0.00     0.026 A 
ATOM     82  C   UNL A   1      33.156  20.000  24.447  1.00  0.00     0.046 A 
ATOM     83  C   UNL A   1      35.887  19.705  24.922  1.00  0.00     0.004 A 
ATOM     84  C   UNL A   1      33.761  18.746  24.350  1.00  0.00     0.043 A 
ATOM     85  C   UNL A   1      35.123  18.593  24.590  1.00  0.00     0.020 A 
ATOM     86  Cl  UNL A   1      32.811  17.369  23.940  1.00  0.00    -0.084 Cl
ENDBRANCH  79  80
ENDBRANCH  66  72
ENDBRANCH  63  65
ENDBRANCH  62  63
ENDBRANCH  61  62
ENDBRANCH   1  61
TORSDOF 13
ENDMDL
MODEL 3
REMARK VINA RESULT:     -12.5      4.822      8.720
REMARK SMILES O=C(OCCOC(=O)[C@@H]1[C@@H](C(=O)N2CCN(c3cccc(Cl)c3)CC2)[C@H]2CC[C@@H]1O2)c1ccc(-c2c3nc(c(-c4c(F)cccc4F)c4ccc([nH]4)c(-c4c(F)cccc4F)c4nc(c(-c5c(F)cccc5F)c5ccc2[nH]5)C=C4)C=C3)cc1
REMARK SMILES IDX 4 1 3 2 2 3 1 4 31 5 32 6 84 7 33 8 83 9 34 10 35 11 36 12
REMARK SMILES IDX 77 13 37 14 82 15 76 16 78 17 38 18 81 19 75 20 74 21 39 23
REMARK SMILES IDX 65 24 48 25 64 26 49 27 52 28 63 29 79 30 50 31 51 32 62 34
REMARK SMILES IDX 80 35 53 36 40 37 41 38 46 39 42 40 43 41 45 42 47 43 44 44
REMARK SMILES IDX 66 45 67 46 72 47 68 48 69 49 71 50 73 51 70 52 54 53 55 54
REMARK SMILES IDX 60 55 56 56 57 57 59 58 61 59 58 60 5 61 6 62 7 63 8 64 9 65
REMARK SMILES IDX 10 66 29 67 26 68 28 69 30 70 27 71 11 72 12 73 13 74 14 75
REMARK SMILES IDX 25 76 15 77 24 78 16 79 17 80 18 81 23 82 19 83 21 84 20 85
REMARK SMILES IDX 22 86
REMARK H PARENT 78 22 52 33
REMARK Flexibility Score: inf
ROOT
ATOM      1  C   UNL A   1      38.845  19.314  25.785  1.00  0.00     0.275 C 
ENDROOT
BRANCH   1   2
ATOM      2  O   UNL A   1      40.257  19.121  25.594  1.00  0.00    -0.458 OA
BRANCH   2   3
ATOM      3  C   UNL A   1      41.304  19.608  26.296  1.00  0.00     0.338 C 
ATOM      4  O   UNL A   1      42.162  18.815  26.685  1.00  0.00    -0.246 OA
BRANCH   3   5
ATOM      5  C   UNL A   1      41.430  21.032  26.758  1.00  0.00     0.060 A 
ATOM      6  C   UNL A   1      41.706  21.480  28.057  1.00  0.00     0.016 A 
ATOM      7  C   UNL A   1      41.283  22.006  25.757  1.00  0.00     0.016 A 
ATOM      8  C   UNL A   1      41.971  22.835  28.327  1.00  0.00     0.010 A 
ATOM      9  C   UNL A   1      41.540  23.353  26.022  1.00  0.00     0.010 A 
ATOM     10  C   UNL A   1      41.938  23.778  27.302  1.00  0.00    -0.014 A 
BRANCH  10  11
ATOM     11  C   UNL A   1      42.258  25.215  27.526  1.00  0.00     0.031 A 
ATOM     12  C   UNL A   1      43.668  25.655  27.292  1.00  0.00     0.074 A 
ATOM     13  C   UNL A   1      41.359  26.093  28.024  1.00  0.00     0.049 A 
ATOM     14  N   UNL A   1      44.205  26.827  27.495  1.00  0.00    -0.248 NA
ATOM     15  C   UNL A   1      44.592  24.651  26.737  1.00  0.00     0.031 C 
ATOM     16  C   UNL A   1      39.939  25.837  28.239  1.00  0.00     0.029 A 
ATOM     17  N   UNL A   1      41.524  27.363  28.529  1.00  0.00    -0.354 N 
ATOM     18  C   UNL A   1      45.495  26.721  27.009  1.00  0.00     0.074 A 
ATOM     19  C   UNL A   1      45.718  25.337  26.661  1.00  0.00     0.031 C 
ATOM     20  C   UNL A   1      39.405  26.823  28.981  1.00  0.00     0.029 A 
ATOM     21  C   UNL A   1      40.422  27.835  29.214  1.00  0.00     0.049 A 
ATOM     22  H   UNL A   1      42.350  27.886  28.412  1.00  0.00     0.167 HD
ATOM     23  C   UNL A   1      46.376  27.716  26.769  1.00  0.00     0.037 A 
ATOM     24  C   UNL A   1      40.251  28.961  29.934  1.00  0.00     0.037 A 
ATOM     25  C   UNL A   1      46.146  29.085  27.126  1.00  0.00     0.049 A 
ATOM     26  C   UNL A   1      41.329  30.006  29.855  1.00  0.00     0.074 A 
ATOM     27  C   UNL A   1      46.945  30.186  26.887  1.00  0.00     0.029 A 
ATOM     28  N   UNL A   1      45.032  29.534  27.821  1.00  0.00    -0.354 N 
ATOM     29  N   UNL A   1      42.489  29.942  29.248  1.00  0.00    -0.248 NA
ATOM     30  C   UNL A   1      41.045  31.309  30.472  1.00  0.00     0.031 C 
ATOM     31  C   UNL A   1      46.340  31.294  27.491  1.00  0.00     0.029 A 
ATOM     32  C   UNL A   1      45.142  30.891  28.060  1.00  0.00     0.049 A 
ATOM     33  H   UNL A   1      44.276  28.969  28.102  1.00  0.00     0.167 HD
ATOM     34  C   UNL A   1      43.025  31.218  29.318  1.00  0.00     0.074 A 
ATOM     35  C   UNL A   1      42.080  32.027  30.060  1.00  0.00     0.031 C 
ATOM     36  C   UNL A   1      44.178  31.684  28.780  1.00  0.00     0.037 A 
BRANCH  23  37
ATOM     37  C   UNL A   1      47.623  27.329  26.042  1.00  0.00     0.057 A 
ATOM     38  C   UNL A   1      47.671  27.335  24.639  1.00  0.00     0.134 A 
ATOM     39  C   UNL A   1      48.759  26.897  26.731  1.00  0.00     0.134 A 
ATOM     40  F   UNL A   1      46.601  27.711  23.922  1.00  0.00    -0.206 F 
ATOM     41  C   UNL A   1      48.795  26.886  23.946  1.00  0.00     0.040 A 
ATOM     42  C   UNL A   1      49.898  26.471  26.049  1.00  0.00     0.040 A 
ATOM     43  F   UNL A   1      48.769  26.859  28.071  1.00  0.00    -0.206 F 
ATOM     44  C   UNL A   1      49.915  26.454  24.654  1.00  0.00     0.006 A 
ENDBRANCH  23  37
BRANCH  24  45
ATOM     45  C   UNL A   1      39.004  29.226  30.705  1.00  0.00     0.057 A 
ATOM     46  C   UNL A   1      37.933  29.935  30.145  1.00  0.00     0.134 A 
ATOM     47  C   UNL A   1      38.894  28.867  32.055  1.00  0.00     0.134 A 
ATOM     48  F   UNL A   1      37.984  30.328  28.864  1.00  0.00    -0.206 F 
ATOM     49  C   UNL A   1      36.825  30.318  30.906  1.00  0.00     0.040 A 
ATOM     50  C   UNL A   1      37.782  29.228  32.823  1.00  0.00     0.040 A 
ATOM     51  F   UNL A   1      39.883  28.191  32.659  1.00  0.00    -0.206 F 
ATOM     52  C   UNL A   1      36.750  29.969  32.252  1.00  0.00     0.006 A 
ENDBRANCH  24  45
BRANCH  36  53
ATOM     53  C   UNL A   1      44.453  33.150  28.912  1.00  0.00     0.057 A 
ATOM     54  C   UNL A   1      45.071  33.690  30.047  1.00  0.00     0.134 A 
ATOM     55  C   UNL A   1      44.153  34.021  27.856  1.00  0.00     0.134 A 
ATOM     56  F   UNL A   1      45.365  32.911  31.097  1.00  0.00    -0.206 F 
ATOM     57  C   UNL A   1      45.369  35.050  30.130  1.00  0.00     0.040 A 
ATOM     58  C   UNL A   1      44.477  35.375  27.915  1.00  0.00     0.040 A 
ATOM     59  F   UNL A   1      43.566  33.562  26.740  1.00  0.00    -0.206 F 
ATOM     60  C   UNL A   1      45.083  35.893  29.057  1.00  0.00     0.006 A 
ENDBRANCH  36  53
ENDBRANCH  10  11
ENDBRANCH   3   5
ENDBRANCH   2   3
ENDBRANCH   1   2
BRANCH   1  61
ATOM     61  C   UNL A   1      38.168  20.134  24.684  1.00  0.00     0.274 C 
BRANCH  61  62
ATOM     62  O   UNL A   1      37.634  21.373  25.178  1.00  0.00    -0.462 OA
BRANCH  62  63
ATOM     63  C   UNL A   1      36.709  22.016  24.413  1.00  0.00     0.312 C 
ATOM     64  O   UNL A   1      36.966  22.630  23.378  1.00  0.00    -0.252 OA
BRANCH  63  65
ATOM     65  C   UNL A   1      35.291  21.758  24.886  1.00  0.00     0.143 C 
ATOM     66  C   UNL A   1      34.348  22.964  24.654  1.00  0.00     0.124 C 
ATOM     67  C   UNL A   1      35.182  21.600  26.390  1.00  0.00     0.133 C 
ATOM     68  C   UNL A   1      33.898  23.307  26.083  1.00  0.00     0.132 C 
ATOM     69  C   UNL A   1      33.808  21.046  26.779  1.00  0.00     0.036 C 
ATOM     70  O   UNL A   1      35.100  22.978  26.810  1.00  0.00    -0.373 OA
ATOM     71  C   UNL A   1      32.931  22.285  26.688  1.00  0.00     0.035 C 
BRANCH  66  72
ATOM     72  C   UNL A   1      33.123  22.736  23.794  1.00  0.00     0.229 C 
ATOM     73  O   UNL A   1      32.832  21.634  23.340  1.00  0.00    -0.274 OA
ATOM     74  N   UNL A   1      32.383  23.858  23.548  1.00  0.00    -0.339 N 
ATOM     75  C   UNL A   1      31.225  24.166  24.375  1.00  0.00     0.141 C 
ATOM     76  C   UNL A   1      32.413  24.527  22.249  1.00  0.00     0.141 C 
ATOM     77  C   UNL A   1      31.113  25.685  24.601  1.00  0.00     0.138 C 
ATOM     78  C   UNL A   1      32.352  26.051  22.444  1.00  0.00     0.138 C 
ATOM     79  N   UNL A   1      31.211  26.392  23.310  1.00  0.00    -0.368 N 
BRANCH  79  80
ATOM     80  C   UNL A   1      30.435  27.494  23.028  1.00  0.00     0.038 A 
ATOM     81  C   UNL A   1      30.993  28.600  22.369  1.00  0.00     0.026 A 
ATOM     82  C   UNL A   1      29.071  27.547  23.342  1.00  0.00     0.046 A 
ATOM     83  C   UNL A   1      30.226  29.713  22.020  1.00  0.00     0.004 A 
ATOM     84  C   UNL A   1      28.301  28.658  22.996  1.00  0.00     0.043 A 
ATOM     85  C   UNL A   1      28.872  29.740  22.332  1.00  0.00     0.020 A 
ATOM     86  Cl  UNL A   1      26.624  28.688  23.383  1.00  0.00    -0.084 Cl
ENDBRANCH  79  80
ENDBRANCH  66  72
ENDBRANCH  63  65
ENDBRANCH  62  63
ENDBRANCH  61  62
ENDBRANCH   1  61
TORSDOF 13
ENDMDL
