MODEL 1
REMARK VINA RESULT:     -10.4      0.000      0.000
REMARK SMILES CCC(CC)(NC(=O)CC1([NH3+])CCCC1)C(=O)OCCOC(=O)c1ccc(-c2c3nc(c(-c4c(F)cccc4F)c4ccc([nH]4)c(-c4c(F)cccc4F)c4nc(c(-c5c(F)cccc5F)c5ccc2[nH]5)C=C4)C=C3)cc1
REMARK SMILES IDX 19 1 18 2 16 3 17 4 3 5 2 6 1 7 4 8 5 9 6 10 7 11 8 13 9 14
REMARK SMILES IDX 10 15 12 16 15 17 13 18 14 19 11 20 20 24 21 25 22 26 23 27
REMARK SMILES IDX 24 28 25 29 77 30 26 31 76 32 27 33 28 34 29 35 70 36 30 37
REMARK SMILES IDX 75 38 69 39 71 40 31 41 74 42 68 43 67 44 32 46 58 47 41 48
REMARK SMILES IDX 57 49 42 50 45 51 56 52 72 53 43 54 44 55 55 57 73 58 46 59
REMARK SMILES IDX 33 60 34 61 39 62 35 63 36 64 38 65 40 66 37 67 59 68 60 69
REMARK SMILES IDX 65 70 61 71 62 72 64 73 66 74 63 75 47 76 48 77 53 78 49 79
REMARK SMILES IDX 50 80 52 81 54 82 51 83
REMARK H PARENT 6 12 11 21 11 22 11 23 71 45 45 56
REMARK Flexibility Score: inf
ROOT
ATOM      1  C   UNL A   1      32.375  29.955  27.237  1.00  0.00     0.274 C 
ENDROOT
BRANCH   1   2
ATOM      2  O   UNL A   1      31.689  29.230  26.179  1.00  0.00    -0.460 OA
BRANCH   2   3
ATOM      3  C   UNL A   1      31.424  27.925  26.452  1.00  0.00     0.331 C 
ATOM      4  O   UNL A   1      31.053  27.555  27.567  1.00  0.00    -0.249 OA
BRANCH   3   5
ATOM      5  C   UNL A   1      31.555  26.905  25.259  1.00  0.00     0.137 C 
BRANCH   5   6
ATOM      6  C   UNL A   1      30.503  25.770  25.465  1.00  0.00     0.037 C 
ATOM      7  C   UNL A   1      30.826  24.399  24.861  1.00  0.00     0.007 C 
ENDBRANCH   5   6
BRANCH   5   8
ATOM      8  C   UNL A   1      33.014  26.316  25.419  1.00  0.00     0.037 C 
ATOM      9  C   UNL A   1      33.762  25.971  24.125  1.00  0.00     0.007 C 
ENDBRANCH   5   8
BRANCH   5  10
ATOM     10  N   UNL A   1      31.501  27.362  23.822  1.00  0.00    -0.340 N 
ATOM     11  C   UNL A   1      30.570  27.657  22.890  1.00  0.00     0.227 C 
ATOM     12  H   UNL A   1      32.409  27.481  23.459  1.00  0.00     0.164 HD
ATOM     13  O   UNL A   1      30.850  27.318  21.732  1.00  0.00    -0.275 OA
BRANCH  11  14
ATOM     14  C   UNL A   1      29.335  28.480  23.128  1.00  0.00     0.168 C 
BRANCH  14  15
ATOM     15  C   UNL A   1      29.362  29.892  22.564  1.00  0.00     0.103 C 
ATOM     16  C   UNL A   1      28.228  30.137  21.554  1.00  0.00     0.069 C 
ATOM     17  C   UNL A   1      29.136  31.056  23.533  1.00  0.00     0.069 C 
ATOM     18  C   UNL A   1      28.253  31.646  21.317  1.00  0.00     0.007 C 
ATOM     19  C   UNL A   1      28.796  32.247  22.619  1.00  0.00     0.007 C 
BRANCH  15  20
ATOM     20  N   UNL A   1      30.647  30.085  21.917  1.00  0.00    -0.352 N 
ATOM     21  H   UNL A   1      30.506  30.245  20.920  1.00  0.00     0.344 HD
ATOM     22  H   UNL A   1      31.224  29.254  22.050  1.00  0.00     0.344 HD
ATOM     23  H   UNL A   1      31.117  30.893  22.327  1.00  0.00     0.344 HD
ENDBRANCH  15  20
ENDBRANCH  14  15
ENDBRANCH  11  14
ENDBRANCH   5  10
ENDBRANCH   3   5
ENDBRANCH   2   3
ENDBRANCH   1   2
BRANCH   1  24
ATOM     24  C   UNL A   1      33.884  29.661  27.277  1.00  0.00     0.275 C 
BRANCH  24  25
ATOM     25  O   UNL A   1      34.697  30.847  27.412  1.00  0.00    -0.458 OA
BRANCH  25  26
ATOM     26  C   UNL A   1      35.214  31.123  28.638  1.00  0.00     0.338 C 
ATOM     27  O   UNL A   1      34.801  31.922  29.445  1.00  0.00    -0.246 OA
BRANCH  26  28
ATOM     28  C   UNL A   1      36.501  30.391  28.747  1.00  0.00     0.060 A 
ATOM     29  C   UNL A   1      37.330  30.393  27.627  1.00  0.00     0.016 A 
ATOM     30  C   UNL A   1      36.890  29.695  29.891  1.00  0.00     0.016 A 
ATOM     31  C   UNL A   1      38.527  29.672  27.628  1.00  0.00     0.010 A 
ATOM     32  C   UNL A   1      38.152  29.064  29.930  1.00  0.00     0.010 A 
ATOM     33  C   UNL A   1      39.002  29.078  28.810  1.00  0.00    -0.014 A 
BRANCH  33  34
ATOM     34  C   UNL A   1      40.456  28.730  28.913  1.00  0.00     0.031 A 
ATOM     35  C   UNL A   1      41.526  29.695  29.352  1.00  0.00     0.074 A 
ATOM     36  C   UNL A   1      40.822  27.473  28.573  1.00  0.00     0.049 A 
ATOM     37  N   UNL A   1      42.828  29.527  29.360  1.00  0.00    -0.248 NA
ATOM     38  C   UNL A   1      41.092  31.005  29.850  1.00  0.00     0.031 C 
ATOM     39  C   UNL A   1      39.902  26.419  28.133  1.00  0.00     0.029 A 
ATOM     40  N   UNL A   1      42.052  26.863  28.545  1.00  0.00    -0.354 N 
ATOM     41  C   UNL A   1      43.372  30.706  29.854  1.00  0.00     0.074 A 
ATOM     42  C   UNL A   1      42.254  31.587  30.134  1.00  0.00     0.031 C 
ATOM     43  C   UNL A   1      40.588  25.290  27.922  1.00  0.00     0.029 A 
ATOM     44  C   UNL A   1      42.006  25.561  28.105  1.00  0.00     0.049 A 
ATOM     45  H   UNL A   1      42.885  27.314  28.812  1.00  0.00     0.167 HD
ATOM     46  C   UNL A   1      44.678  31.026  30.049  1.00  0.00     0.037 A 
ATOM     47  C   UNL A   1      42.982  24.682  27.818  1.00  0.00     0.037 A 
ATOM     48  C   UNL A   1      45.799  30.159  29.764  1.00  0.00     0.049 A 
ATOM     49  C   UNL A   1      44.414  25.087  27.974  1.00  0.00     0.074 A 
ATOM     50  C   UNL A   1      47.153  30.422  29.915  1.00  0.00     0.029 A 
ATOM     51  N   UNL A   1      45.705  28.865  29.273  1.00  0.00    -0.354 N 
ATOM     52  N   UNL A   1      44.906  26.226  28.393  1.00  0.00    -0.248 NA
ATOM     53  C   UNL A   1      45.425  24.091  27.596  1.00  0.00     0.031 C 
ATOM     54  C   UNL A   1      47.877  29.304  29.482  1.00  0.00     0.029 A 
ATOM     55  C   UNL A   1      46.974  28.327  29.100  1.00  0.00     0.049 A 
ATOM     56  H   UNL A   1      44.862  28.398  29.076  1.00  0.00     0.167 HD
ATOM     57  C   UNL A   1      46.284  26.086  28.325  1.00  0.00     0.074 A 
ATOM     58  C   UNL A   1      46.549  24.742  27.858  1.00  0.00     0.031 C 
ATOM     59  C   UNL A   1      47.240  26.999  28.615  1.00  0.00     0.037 A 
BRANCH  46  60
ATOM     60  C   UNL A   1      44.996  32.395  30.581  1.00  0.00     0.057 A 
ATOM     61  C   UNL A   1      45.126  33.501  29.735  1.00  0.00     0.134 A 
ATOM     62  C   UNL A   1      45.057  32.626  31.962  1.00  0.00     0.134 A 
ATOM     63  F   UNL A   1      45.077  33.348  28.403  1.00  0.00    -0.206 F 
ATOM     64  C   UNL A   1      45.311  34.790  30.242  1.00  0.00     0.040 A 
ATOM     65  C   UNL A   1      45.222  33.912  32.481  1.00  0.00     0.040 A 
ATOM     66  F   UNL A   1      44.922  31.611  32.828  1.00  0.00    -0.206 F 
ATOM     67  C   UNL A   1      45.350  34.999  31.620  1.00  0.00     0.006 A 
ENDBRANCH  46  60
BRANCH  47  68
ATOM     68  C   UNL A   1      42.625  23.348  27.279  1.00  0.00     0.057 A 
ATOM     69  C   UNL A   1      42.236  22.303  28.122  1.00  0.00     0.134 A 
ATOM     70  C   UNL A   1      42.650  23.096  25.900  1.00  0.00     0.134 A 
ATOM     71  F   UNL A   1      42.216  22.480  29.452  1.00  0.00    -0.206 F 
ATOM     72  C   UNL A   1      41.887  21.051  27.615  1.00  0.00     0.040 A 
ATOM     73  C   UNL A   1      42.274  21.860  25.378  1.00  0.00     0.040 A 
ATOM     74  F   UNL A   1      43.010  24.061  25.042  1.00  0.00    -0.206 F 
ATOM     75  C   UNL A   1      41.896  20.831  26.238  1.00  0.00     0.006 A 
ENDBRANCH  47  68
BRANCH  59  76
ATOM     76  C   UNL A   1      48.662  26.559  28.433  1.00  0.00     0.057 A 
ATOM     77  C   UNL A   1      49.349  26.772  27.231  1.00  0.00     0.134 A 
ATOM     78  C   UNL A   1      49.341  25.885  29.455  1.00  0.00     0.134 A 
ATOM     79  F   UNL A   1      48.745  27.393  26.205  1.00  0.00    -0.206 F 
ATOM     80  C   UNL A   1      50.650  26.302  27.040  1.00  0.00     0.040 A 
ATOM     81  C   UNL A   1      50.649  25.430  29.285  1.00  0.00     0.040 A 
ATOM     82  F   UNL A   1      48.741  25.650  30.633  1.00  0.00    -0.206 F 
ATOM     83  C   UNL A   1      51.304  25.629  28.070  1.00  0.00     0.006 A 
ENDBRANCH  59  76
ENDBRANCH  33  34
ENDBRANCH  26  28
ENDBRANCH  25  26
ENDBRANCH  24  25
ENDBRANCH   1  24
TORSDOF 17
ENDMDL
MODEL 2
REMARK VINA RESULT:     -10.4      3.852      7.633
REMARK SMILES CCC(CC)(NC(=O)CC1([NH3+])CCCC1)C(=O)OCCOC(=O)c1ccc(-c2c3nc(c(-c4c(F)cccc4F)c4ccc([nH]4)c(-c4c(F)cccc4F)c4nc(c(-c5c(F)cccc5F)c5ccc2[nH]5)C=C4)C=C3)cc1
REMARK SMILES IDX 19 1 18 2 16 3 17 4 3 5 2 6 1 7 4 8 5 9 6 10 7 11 8 13 9 14
REMARK SMILES IDX 10 15 12 16 15 17 13 18 14 19 11 20 20 24 21 25 22 26 23 27
REMARK SMILES IDX 24 28 25 29 77 30 26 31 76 32 27 33 28 34 29 35 70 36 30 37
REMARK SMILES IDX 75 38 69 39 71 40 31 41 74 42 68 43 67 44 32 46 58 47 41 48
REMARK SMILES IDX 57 49 42 50 45 51 56 52 72 53 43 54 44 55 55 57 73 58 46 59
REMARK SMILES IDX 33 60 34 61 39 62 35 63 36 64 38 65 40 66 37 67 59 68 60 69
REMARK SMILES IDX 65 70 61 71 62 72 64 73 66 74 63 75 47 76 48 77 53 78 49 79
REMARK SMILES IDX 50 80 52 81 54 82 51 83
REMARK H PARENT 6 12 11 21 11 22 11 23 71 45 45 56
REMARK Flexibility Score: inf
ROOT
ATOM      1  C   UNL A   1      36.871  22.274  23.854  1.00  0.00     0.274 C 
ENDROOT
BRANCH   1   2
ATOM      2  O   UNL A   1      35.722  22.930  24.458  1.00  0.00    -0.460 OA
BRANCH   2   3
ATOM      3  C   UNL A   1      34.751  23.311  23.586  1.00  0.00     0.331 C 
ATOM      4  O   UNL A   1      34.942  23.337  22.369  1.00  0.00    -0.249 OA
BRANCH   3   5
ATOM      5  C   UNL A   1      33.342  23.665  24.196  1.00  0.00     0.137 C 
BRANCH   5   6
ATOM      6  C   UNL A   1      32.364  23.983  23.021  1.00  0.00     0.037 C 
ATOM      7  C   UNL A   1      30.869  24.046  23.353  1.00  0.00     0.007 C 
ENDBRANCH   5   6
BRANCH   5   8
ATOM      8  C   UNL A   1      33.611  24.977  25.038  1.00  0.00     0.037 C 
ATOM      9  C   UNL A   1      33.761  26.283  24.247  1.00  0.00     0.007 C 
ENDBRANCH   5   8
BRANCH   5  10
ATOM     10  N   UNL A   1      32.650  22.742  25.168  1.00  0.00    -0.340 N 
ATOM     11  C   UNL A   1      32.544  21.417  25.401  1.00  0.00     0.227 C 
ATOM     12  H   UNL A   1      32.124  23.256  25.823  1.00  0.00     0.164 HD
ATOM     13  O   UNL A   1      31.429  21.029  25.777  1.00  0.00    -0.275 OA
BRANCH  11  14
ATOM     14  C   UNL A   1      33.687  20.440  25.391  1.00  0.00     0.168 C 
BRANCH  14  15
ATOM     15  C   UNL A   1      33.389  19.079  24.781  1.00  0.00     0.103 C 
ATOM     16  C   UNL A   1      32.674  19.193  23.424  1.00  0.00     0.069 C 
ATOM     17  C   UNL A   1      34.574  18.186  24.404  1.00  0.00     0.069 C 
ATOM     18  C   UNL A   1      32.710  17.774  22.858  1.00  0.00     0.007 C 
ATOM     19  C   UNL A   1      33.969  17.136  23.456  1.00  0.00     0.007 C 
BRANCH  15  20
ATOM     20  N   UNL A   1      32.553  18.349  25.717  1.00  0.00    -0.352 N 
ATOM     21  H   UNL A   1      32.995  17.460  25.947  1.00  0.00     0.344 HD
ATOM     22  H   UNL A   1      31.640  18.178  25.296  1.00  0.00     0.344 HD
ATOM     23  H   UNL A   1      32.435  18.900  26.569  1.00  0.00     0.344 HD
ENDBRANCH  15  20
ENDBRANCH  14  15
ENDBRANCH  11  14
ENDBRANCH   5  10
ENDBRANCH   3   5
ENDBRANCH   2   3
ENDBRANCH   1   2
BRANCH   1  24
ATOM     24  C   UNL A   1      37.368  21.071  24.674  1.00  0.00     0.275 C 
BRANCH  24  25
ATOM     25  O   UNL A   1      37.890  21.436  25.970  1.00  0.00    -0.458 OA
BRANCH  25  26
ATOM     26  C   UNL A   1      39.235  21.371  26.151  1.00  0.00     0.338 C 
ATOM     27  O   UNL A   1      39.944  20.399  26.038  1.00  0.00    -0.246 OA
BRANCH  26  28
ATOM     28  C   UNL A   1      39.670  22.682  26.695  1.00  0.00     0.060 A 
ATOM     29  C   UNL A   1      40.768  22.681  27.552  1.00  0.00     0.016 A 
ATOM     30  C   UNL A   1      39.019  23.882  26.409  1.00  0.00     0.016 A 
ATOM     31  C   UNL A   1      41.198  23.866  28.157  1.00  0.00     0.010 A 
ATOM     32  C   UNL A   1      39.524  25.092  26.929  1.00  0.00     0.010 A 
ATOM     33  C   UNL A   1      40.644  25.102  27.779  1.00  0.00    -0.014 A 
BRANCH  33  34
ATOM     34  C   UNL A   1      41.408  26.358  28.071  1.00  0.00     0.031 A 
ATOM     35  C   UNL A   1      40.843  27.533  28.824  1.00  0.00     0.074 A 
ATOM     36  C   UNL A   1      42.676  26.438  27.609  1.00  0.00     0.049 A 
ATOM     37  N   UNL A   1      41.381  28.714  29.025  1.00  0.00    -0.248 NA
ATOM     38  C   UNL A   1      39.518  27.371  29.436  1.00  0.00     0.031 C 
ATOM     39  C   UNL A   1      43.370  25.381  26.866  1.00  0.00     0.029 A 
ATOM     40  N   UNL A   1      43.611  27.441  27.696  1.00  0.00    -0.354 N 
ATOM     41  C   UNL A   1      40.465  29.439  29.777  1.00  0.00     0.074 A 
ATOM     42  C   UNL A   1      39.329  28.563  29.996  1.00  0.00     0.031 C 
ATOM     43  C   UNL A   1      44.623  25.770  26.604  1.00  0.00     0.029 A 
ATOM     44  C   UNL A   1      44.794  27.141  27.062  1.00  0.00     0.049 A 
ATOM     45  H   UNL A   1      43.449  28.291  28.164  1.00  0.00     0.167 HD
ATOM     46  C   UNL A   1      40.558  30.715  30.235  1.00  0.00     0.037 A 
ATOM     47  C   UNL A   1      45.886  27.886  26.812  1.00  0.00     0.037 A 
ATOM     48  C   UNL A   1      41.681  31.599  30.013  1.00  0.00     0.049 A 
ATOM     49  C   UNL A   1      45.930  29.311  27.266  1.00  0.00     0.074 A 
ATOM     50  C   UNL A   1      41.838  32.913  30.428  1.00  0.00     0.029 A 
ATOM     51  N   UNL A   1      42.836  31.266  29.323  1.00  0.00    -0.354 N 
ATOM     52  N   UNL A   1      45.030  29.991  27.930  1.00  0.00    -0.248 NA
ATOM     53  C   UNL A   1      47.134  30.076  26.916  1.00  0.00     0.031 C 
ATOM     54  C   UNL A   1      43.069  33.387  29.957  1.00  0.00     0.029 A 
ATOM     55  C   UNL A   1      43.700  32.354  29.286  1.00  0.00     0.049 A 
ATOM     56  H   UNL A   1      43.018  30.388  28.918  1.00  0.00     0.167 HD
ATOM     57  C   UNL A   1      45.556  31.266  28.074  1.00  0.00     0.074 A 
ATOM     58  C   UNL A   1      46.867  31.254  27.459  1.00  0.00     0.031 C 
ATOM     59  C   UNL A   1      44.993  32.351  28.655  1.00  0.00     0.037 A 
BRANCH  46  60
ATOM     60  C   UNL A   1      39.400  31.270  31.014  1.00  0.00     0.057 A 
ATOM     61  C   UNL A   1      39.370  31.237  32.412  1.00  0.00     0.134 A 
ATOM     62  C   UNL A   1      38.361  31.948  30.361  1.00  0.00     0.134 A 
ATOM     63  F   UNL A   1      40.335  30.605  33.098  1.00  0.00    -0.206 F 
ATOM     64  C   UNL A   1      38.345  31.854  33.136  1.00  0.00     0.040 A 
ATOM     65  C   UNL A   1      37.342  32.584  31.074  1.00  0.00     0.040 A 
ATOM     66  F   UNL A   1      38.340  32.032  29.023  1.00  0.00    -0.206 F 
ATOM     67  C   UNL A   1      37.332  32.538  32.465  1.00  0.00     0.006 A 
ENDBRANCH  46  60
BRANCH  47  68
ATOM     68  C   UNL A   1      46.999  27.304  26.024  1.00  0.00     0.057 A 
ATOM     69  C   UNL A   1      47.063  27.454  24.636  1.00  0.00     0.134 A 
ATOM     70  C   UNL A   1      48.035  26.599  26.650  1.00  0.00     0.134 A 
ATOM     71  F   UNL A   1      46.087  28.099  23.980  1.00  0.00    -0.206 F 
ATOM     72  C   UNL A   1      48.117  26.918  23.895  1.00  0.00     0.040 A 
ATOM     73  C   UNL A   1      49.110  26.086  25.927  1.00  0.00     0.040 A 
ATOM     74  F   UNL A   1      48.031  26.428  27.981  1.00  0.00    -0.206 F 
ATOM     75  C   UNL A   1      49.149  26.240  24.543  1.00  0.00     0.006 A 
ENDBRANCH  47  68
BRANCH  59  76
ATOM     76  C   UNL A   1      45.806  33.610  28.650  1.00  0.00     0.057 A 
ATOM     77  C   UNL A   1      46.706  33.908  29.683  1.00  0.00     0.134 A 
ATOM     78  C   UNL A   1      45.666  34.552  27.624  1.00  0.00     0.134 A 
ATOM     79  F   UNL A   1      46.869  33.056  30.707  1.00  0.00    -0.206 F 
ATOM     80  C   UNL A   1      47.413  35.112  29.711  1.00  0.00     0.040 A 
ATOM     81  C   UNL A   1      46.383  35.749  27.629  1.00  0.00     0.040 A 
ATOM     82  F   UNL A   1      44.822  34.328  26.604  1.00  0.00    -0.206 F 
ATOM     83  C   UNL A   1      47.252  36.036  28.681  1.00  0.00     0.006 A 
ENDBRANCH  59  76
ENDBRANCH  33  34
ENDBRANCH  26  28
ENDBRANCH  25  26
ENDBRANCH  24  25
ENDBRANCH   1  24
TORSDOF 17
ENDMDL
MODEL 3
REMARK VINA RESULT:     -10.3      4.233      8.794
REMARK SMILES CCC(CC)(NC(=O)CC1([NH3+])CCCC1)C(=O)OCCOC(=O)c1ccc(-c2c3nc(c(-c4c(F)cccc4F)c4ccc([nH]4)c(-c4c(F)cccc4F)c4nc(c(-c5c(F)cccc5F)c5ccc2[nH]5)C=C4)C=C3)cc1
REMARK SMILES IDX 19 1 18 2 16 3 17 4 3 5 2 6 1 7 4 8 5 9 6 10 7 11 8 13 9 14
REMARK SMILES IDX 10 15 12 16 15 17 13 18 14 19 11 20 20 24 21 25 22 26 23 27
REMARK SMILES IDX 24 28 25 29 77 30 26 31 76 32 27 33 28 34 29 35 70 36 30 37
REMARK SMILES IDX 75 38 69 39 71 40 31 41 74 42 68 43 67 44 32 46 58 47 41 48
REMARK SMILES IDX 57 49 42 50 45 51 56 52 72 53 43 54 44 55 55 57 73 58 46 59
REMARK SMILES IDX 33 60 34 61 39 62 35 63 36 64 38 65 40 66 37 67 59 68 60 69
REMARK SMILES IDX 65 70 61 71 62 72 64 73 66 74 63 75 47 76 48 77 53 78 49 79
REMARK SMILES IDX 50 80 52 81 54 82 51 83
REMARK H PARENT 6 12 11 21 11 22 11 23 71 45 45 56
REMARK Flexibility Score: inf
ROOT
ATOM      1  C   UNL A   1      37.933  19.915  24.727  1.00  0.00     0.274 C 
ENDROOT
BRANCH   1   2
ATOM      2  O   UNL A   1      36.766  20.528  25.342  1.00  0.00    -0.460 OA
BRANCH   2   3
ATOM      3  C   UNL A   1      36.313  21.652  24.725  1.00  0.00     0.331 C 
ATOM      4  O   UNL A   1      36.921  22.171  23.787  1.00  0.00    -0.249 OA
BRANCH   3   5
ATOM      5  C   UNL A   1      34.937  22.235  25.224  1.00  0.00     0.137 C 
BRANCH   5   6
ATOM      6  C   UNL A   1      35.087  23.780  25.385  1.00  0.00     0.037 C 
ATOM      7  C   UNL A   1      34.069  24.662  24.653  1.00  0.00     0.007 C 
ENDBRANCH   5   6
BRANCH   5   8
ATOM      8  C   UNL A   1      34.734  21.567  26.644  1.00  0.00     0.037 C 
ATOM      9  C   UNL A   1      33.781  22.283  27.610  1.00  0.00     0.007 C 
ENDBRANCH   5   8
BRANCH   5  10
ATOM     10  N   UNL A   1      33.648  21.945  24.496  1.00  0.00    -0.340 N 
ATOM     11  C   UNL A   1      32.887  20.876  24.179  1.00  0.00     0.227 C 
ATOM     12  H   UNL A   1      33.245  22.775  24.153  1.00  0.00     0.164 HD
ATOM     13  O   UNL A   1      32.347  20.918  23.064  1.00  0.00    -0.275 OA
BRANCH  11  14
ATOM     14  C   UNL A   1      32.533  19.755  25.115  1.00  0.00     0.168 C 
BRANCH  14  15
ATOM     15  C   UNL A   1      32.852  18.353  24.619  1.00  0.00     0.103 C 
ATOM     16  C   UNL A   1      34.356  18.154  24.363  1.00  0.00     0.069 C 
ATOM     17  C   UNL A   1      32.566  17.177  25.557  1.00  0.00     0.069 C 
ATOM     18  C   UNL A   1      34.506  16.650  24.146  1.00  0.00     0.007 C 
ATOM     19  C   UNL A   1      33.374  16.012  24.960  1.00  0.00     0.007 C 
BRANCH  15  20
ATOM     20  N   UNL A   1      32.112  18.140  23.388  1.00  0.00    -0.352 N 
ATOM     21  H   UNL A   1      31.647  17.233  23.422  1.00  0.00     0.344 HD
ATOM     22  H   UNL A   1      32.755  18.164  22.596  1.00  0.00     0.344 HD
ATOM     23  H   UNL A   1      31.414  18.876  23.280  1.00  0.00     0.344 HD
ENDBRANCH  15  20
ENDBRANCH  14  15
ENDBRANCH  11  14
ENDBRANCH   5  10
ENDBRANCH   3   5
ENDBRANCH   2   3
ENDBRANCH   1   2
BRANCH   1  24
ATOM     24  C   UNL A   1      38.882  19.278  25.756  1.00  0.00     0.275 C 
BRANCH  24  25
ATOM     25  O   UNL A   1      40.181  19.908  25.808  1.00  0.00    -0.458 OA
BRANCH  25  26
ATOM     26  C   UNL A   1      40.759  20.064  27.028  1.00  0.00     0.338 C 
ATOM     27  O   UNL A   1      40.989  19.205  27.845  1.00  0.00    -0.246 OA
BRANCH  26  28
ATOM     28  C   UNL A   1      40.900  21.523  27.263  1.00  0.00     0.060 A 
ATOM     29  C   UNL A   1      41.762  21.921  28.283  1.00  0.00     0.016 A 
ATOM     30  C   UNL A   1      40.199  22.486  26.538  1.00  0.00     0.016 A 
ATOM     31  C   UNL A   1      41.899  23.273  28.610  1.00  0.00     0.010 A 
ATOM     32  C   UNL A   1      40.426  23.855  26.792  1.00  0.00     0.010 A 
ATOM     33  C   UNL A   1      41.309  24.265  27.807  1.00  0.00    -0.014 A 
BRANCH  33  34
ATOM     34  C   UNL A   1      41.834  25.667  27.884  1.00  0.00     0.031 A 
ATOM     35  C   UNL A   1      43.183  26.093  27.366  1.00  0.00     0.074 A 
ATOM     36  C   UNL A   1      41.047  26.595  28.473  1.00  0.00     0.049 A 
ATOM     37  N   UNL A   1      43.779  27.256  27.492  1.00  0.00    -0.248 NA
ATOM     38  C   UNL A   1      43.959  25.104  26.608  1.00  0.00     0.031 C 
ATOM     39  C   UNL A   1      39.710  26.342  29.020  1.00  0.00     0.029 A 
ATOM     40  N   UNL A   1      41.245  27.934  28.708  1.00  0.00    -0.354 N 
ATOM     41  C   UNL A   1      45.000  27.142  26.839  1.00  0.00     0.074 A 
ATOM     42  C   UNL A   1      45.062  25.789  26.318  1.00  0.00     0.031 C 
ATOM     43  C   UNL A   1      39.195  27.485  29.483  1.00  0.00     0.029 A 
ATOM     44  C   UNL A   1      40.198  28.533  29.368  1.00  0.00     0.049 A 
ATOM     45  H   UNL A   1      42.057  28.417  28.431  1.00  0.00     0.167 HD
ATOM     46  C   UNL A   1      45.979  28.073  26.695  1.00  0.00     0.037 A 
ATOM     47  C   UNL A   1      40.059  29.767  29.886  1.00  0.00     0.037 A 
ATOM     48  C   UNL A   1      45.931  29.419  27.219  1.00  0.00     0.049 A 
ATOM     49  C   UNL A   1      41.183  30.748  29.774  1.00  0.00     0.074 A 
ATOM     50  C   UNL A   1      46.895  30.414  27.131  1.00  0.00     0.029 A 
ATOM     51  N   UNL A   1      44.870  29.965  27.925  1.00  0.00    -0.354 N 
ATOM     52  N   UNL A   1      42.349  30.601  29.198  1.00  0.00    -0.248 NA
ATOM     53  C   UNL A   1      40.977  32.059  30.404  1.00  0.00     0.031 C 
ATOM     54  C   UNL A   1      46.434  31.546  27.815  1.00  0.00     0.029 A 
ATOM     55  C   UNL A   1      45.164  31.273  28.292  1.00  0.00     0.049 A 
ATOM     56  H   UNL A   1      44.032  29.495  28.135  1.00  0.00     0.167 HD
ATOM     57  C   UNL A   1      43.019  31.798  29.399  1.00  0.00     0.074 A 
ATOM     58  C   UNL A   1      42.117  32.672  30.120  1.00  0.00     0.031 C 
ATOM     59  C   UNL A   1      44.277  32.135  29.028  1.00  0.00     0.037 A 
BRANCH  46  60
ATOM     60  C   UNL A   1      47.224  27.677  25.953  1.00  0.00     0.057 A 
ATOM     61  C   UNL A   1      48.334  27.138  26.613  1.00  0.00     0.134 A 
ATOM     62  C   UNL A   1      47.266  27.727  24.552  1.00  0.00     0.134 A 
ATOM     63  F   UNL A   1      48.357  27.061  27.952  1.00  0.00    -0.206 F 
ATOM     64  C   UNL A   1      49.445  26.668  25.907  1.00  0.00     0.040 A 
ATOM     65  C   UNL A   1      48.363  27.243  23.836  1.00  0.00     0.040 A 
ATOM     66  F   UNL A   1      46.228  28.216  23.858  1.00  0.00    -0.206 F 
ATOM     67  C   UNL A   1      49.457  26.711  24.514  1.00  0.00     0.006 A 
ENDBRANCH  46  60
BRANCH  47  68
ATOM     68  C   UNL A   1      38.821  30.111  30.625  1.00  0.00     0.057 A 
ATOM     69  C   UNL A   1      38.683  29.821  31.986  1.00  0.00     0.134 A 
ATOM     70  C   UNL A   1      37.754  30.756  29.986  1.00  0.00     0.134 A 
ATOM     71  F   UNL A   1      39.662  29.184  32.644  1.00  0.00    -0.206 F 
ATOM     72  C   UNL A   1      37.523  30.156  32.686  1.00  0.00     0.040 A 
ATOM     73  C   UNL A   1      36.603  31.124  30.679  1.00  0.00     0.040 A 
ATOM     74  F   UNL A   1      37.832  31.065  28.683  1.00  0.00    -0.206 F 
ATOM     75  C   UNL A   1      36.483  30.818  32.033  1.00  0.00     0.006 A 
ENDBRANCH  47  68
BRANCH  59  76
ATOM     76  C   UNL A   1      44.738  33.512  29.398  1.00  0.00     0.057 A 
ATOM     77  C   UNL A   1      44.518  34.611  28.556  1.00  0.00     0.134 A 
ATOM     78  C   UNL A   1      45.438  33.740  30.588  1.00  0.00     0.134 A 
ATOM     79  F   UNL A   1      43.872  34.455  27.390  1.00  0.00    -0.206 F 
ATOM     80  C   UNL A   1      45.006  35.881  28.870  1.00  0.00     0.040 A 
ATOM     81  C   UNL A   1      45.913  35.009  30.924  1.00  0.00     0.040 A 
ATOM     82  F   UNL A   1      45.682  32.731  31.439  1.00  0.00    -0.206 F 
ATOM     83  C   UNL A   1      45.706  36.082  30.059  1.00  0.00     0.006 A 
ENDBRANCH  59  76
ENDBRANCH  33  34
ENDBRANCH  26  28
ENDBRANCH  25  26
ENDBRANCH  24  25
ENDBRANCH   1  24
TORSDOF 17
ENDMDL
