MODEL 1
REMARK VINA RESULT:     -10.4      0.000      0.000
REMARK SMILES O=C(CCCCCn1cc(Cl)c(I)n1)OCCOC(=O)c1ccc(-c2c3nc(c(-c4c(F)cccc4F)c4ccc([nH]4)c(-c4c(F)cccc4F)c4nc(c(-c5c(F)cccc5F)c5ccc2[nH]5)C=C4)C=C3)cc1
REMARK SMILES IDX 15 1 2 2 1 3 3 4 4 5 5 6 6 7 7 8 8 9 9 10 14 11 10 12 12 13
REMARK SMILES IDX 11 14 13 15 16 16 17 17 18 18 19 19 20 20 21 21 22 22 74 23
REMARK SMILES IDX 23 24 73 25 24 26 25 27 26 28 67 29 27 30 72 31 66 32 68 33
REMARK SMILES IDX 28 34 71 35 65 36 64 37 29 39 55 40 38 41 54 42 39 43 42 44
REMARK SMILES IDX 53 45 69 46 40 47 41 48 52 50 70 51 43 52 30 53 31 54 36 55
REMARK SMILES IDX 32 56 33 57 35 58 37 59 34 60 56 61 57 62 62 63 58 64 59 65
REMARK SMILES IDX 61 66 63 67 60 68 44 69 45 70 50 71 46 72 47 73 49 74 51 75
REMARK SMILES IDX 48 76
REMARK H PARENT 68 38 42 49
REMARK Flexibility Score: inf
ROOT
ATOM      1  O   UNL A   1      41.518  19.933  26.039  1.00  0.00    -0.462 OA
ENDROOT
BRANCH   1   2
ATOM      2  C   UNL A   1      40.643  20.744  26.672  1.00  0.00     0.305 C 
ATOM      3  O   UNL A   1      40.706  20.869  27.895  1.00  0.00    -0.252 OA
BRANCH   2   4
ATOM      4  C   UNL A   1      39.553  21.467  25.910  1.00  0.00     0.123 C 
BRANCH   4   5
ATOM      5  C   UNL A   1      38.491  20.559  25.304  1.00  0.00     0.012 C 
BRANCH   5   6
ATOM      6  C   UNL A   1      37.116  21.217  25.196  1.00  0.00     0.002 C 
BRANCH   6   7
ATOM      7  C   UNL A   1      37.055  22.473  24.304  1.00  0.00     0.024 C 
BRANCH   7   8
ATOM      8  C   UNL A   1      35.717  22.762  23.617  1.00  0.00     0.144 C 
BRANCH   8   9
ATOM      9  N   UNL A   1      34.765  23.460  24.459  1.00  0.00    -0.270 N 
ATOM     10  C   UNL A   1      34.899  24.704  25.002  1.00  0.00     0.130 A 
ATOM     11  N   UNL A   1      33.594  22.870  24.766  1.00  0.00    -0.165 NA
ATOM     12  C   UNL A   1      33.683  25.008  25.563  1.00  0.00     0.092 A 
ATOM     13  C   UNL A   1      32.935  23.821  25.439  1.00  0.00     0.141 A 
ATOM     14  Cl  UNL A   1      33.243  26.491  26.251  1.00  0.00    -0.080 Cl
ATOM     15  I   UNL A   1      31.066  23.504  26.194  1.00  0.00    -0.018 I 
ENDBRANCH   8   9
ENDBRANCH   7   8
ENDBRANCH   6   7
ENDBRANCH   5   6
ENDBRANCH   4   5
ENDBRANCH   2   4
ENDBRANCH   1   2
BRANCH   1  16
ATOM     16  C   UNL A   1      42.376  18.914  26.590  1.00  0.00     0.274 C 
BRANCH  16  17
ATOM     17  C   UNL A   1      43.567  18.551  25.723  1.00  0.00     0.275 C 
BRANCH  17  18
ATOM     18  O   UNL A   1      43.627  19.367  24.564  1.00  0.00    -0.458 OA
BRANCH  18  19
ATOM     19  C   UNL A   1      44.875  19.748  24.189  1.00  0.00     0.338 C 
ATOM     20  O   UNL A   1      45.776  19.044  23.805  1.00  0.00    -0.246 OA
BRANCH  19  21
ATOM     21  C   UNL A   1      44.991  21.181  24.491  1.00  0.00     0.060 A 
ATOM     22  C   UNL A   1      45.874  21.531  25.510  1.00  0.00     0.016 A 
ATOM     23  C   UNL A   1      44.059  22.094  23.967  1.00  0.00     0.016 A 
ATOM     24  C   UNL A   1      45.664  22.723  26.165  1.00  0.00     0.010 A 
ATOM     25  C   UNL A   1      43.835  23.273  24.634  1.00  0.00     0.010 A 
ATOM     26  C   UNL A   1      44.585  23.530  25.775  1.00  0.00    -0.014 A 
BRANCH  26  27
ATOM     27  C   UNL A   1      44.344  24.742  26.522  1.00  0.00     0.031 A 
ATOM     28  C   UNL A   1      45.450  25.706  26.368  1.00  0.00     0.074 A 
ATOM     29  C   UNL A   1      43.223  24.972  27.230  1.00  0.00     0.049 A 
ATOM     30  N   UNL A   1      46.372  25.959  27.232  1.00  0.00    -0.248 NA
ATOM     31  C   UNL A   1      45.689  26.289  25.039  1.00  0.00     0.031 C 
ATOM     32  C   UNL A   1      41.971  24.216  27.235  1.00  0.00     0.029 A 
ATOM     33  N   UNL A   1      42.957  26.008  28.070  1.00  0.00    -0.354 N 
ATOM     34  C   UNL A   1      47.180  26.919  26.640  1.00  0.00     0.074 A 
ATOM     35  C   UNL A   1      46.848  26.920  25.241  1.00  0.00     0.031 C 
ATOM     36  C   UNL A   1      41.015  24.940  27.866  1.00  0.00     0.029 A 
ATOM     37  C   UNL A   1      41.621  26.136  28.429  1.00  0.00     0.049 A 
ATOM     38  H   UNL A   1      43.656  26.620  28.397  1.00  0.00     0.167 HD
ATOM     39  C   UNL A   1      47.836  27.825  27.412  1.00  0.00     0.037 A 
ATOM     40  C   UNL A   1      41.071  27.183  29.099  1.00  0.00     0.037 A 
ATOM     41  C   UNL A   1      47.902  27.376  28.783  1.00  0.00     0.049 A 
ATOM     42  C   UNL A   1      42.177  27.898  29.787  1.00  0.00     0.074 A 
ATOM     43  C   UNL A   1      48.430  26.269  29.421  1.00  0.00     0.029 A 
ATOM     44  N   UNL A   1      47.014  27.934  29.668  1.00  0.00    -0.354 N 
ATOM     45  N   UNL A   1      42.832  27.411  30.802  1.00  0.00    -0.248 NA
ATOM     46  C   UNL A   1      42.860  28.952  29.052  1.00  0.00     0.031 C 
ATOM     47  C   UNL A   1      47.501  25.959  30.458  1.00  0.00     0.029 A 
ATOM     48  C   UNL A   1      46.500  26.931  30.447  1.00  0.00     0.049 A 
ATOM     49  H   UNL A   1      46.785  28.889  29.733  1.00  0.00     0.167 HD
ATOM     50  C   UNL A   1      44.154  27.751  30.561  1.00  0.00     0.074 A 
ATOM     51  C   UNL A   1      44.100  28.775  29.519  1.00  0.00     0.031 C 
ATOM     52  C   UNL A   1      45.171  26.961  31.013  1.00  0.00     0.037 A 
BRANCH  39  53
ATOM     53  C   UNL A   1      48.005  29.278  27.038  1.00  0.00     0.057 A 
ATOM     54  C   UNL A   1      49.276  29.864  27.183  1.00  0.00     0.134 A 
ATOM     55  C   UNL A   1      46.946  30.189  26.847  1.00  0.00     0.134 A 
ATOM     56  F   UNL A   1      50.366  29.106  27.377  1.00  0.00    -0.206 F 
ATOM     57  C   UNL A   1      49.460  31.249  27.239  1.00  0.00     0.040 A 
ATOM     58  C   UNL A   1      47.128  31.573  26.848  1.00  0.00     0.040 A 
ATOM     59  F   UNL A   1      45.668  29.810  26.754  1.00  0.00    -0.206 F 
ATOM     60  C   UNL A   1      48.382  32.109  27.082  1.00  0.00     0.006 A 
ENDBRANCH  39  53
BRANCH  40  61
ATOM     61  C   UNL A   1      39.730  27.798  28.959  1.00  0.00     0.057 A 
ATOM     62  C   UNL A   1      38.849  27.869  30.051  1.00  0.00     0.134 A 
ATOM     63  C   UNL A   1      39.401  28.597  27.851  1.00  0.00     0.134 A 
ATOM     64  F   UNL A   1      39.095  27.174  31.171  1.00  0.00    -0.206 F 
ATOM     65  C   UNL A   1      37.730  28.713  30.056  1.00  0.00     0.040 A 
ATOM     66  C   UNL A   1      38.284  29.441  27.842  1.00  0.00     0.040 A 
ATOM     67  F   UNL A   1      40.204  28.659  26.779  1.00  0.00    -0.206 F 
ATOM     68  C   UNL A   1      37.453  29.514  28.953  1.00  0.00     0.006 A 
ENDBRANCH  40  61
BRANCH  52  69
ATOM     69  C   UNL A   1      44.842  25.896  32.023  1.00  0.00     0.057 A 
ATOM     70  C   UNL A   1      44.481  24.578  31.705  1.00  0.00     0.134 A 
ATOM     71  C   UNL A   1      45.037  26.190  33.377  1.00  0.00     0.134 A 
ATOM     72  F   UNL A   1      44.364  24.174  30.433  1.00  0.00    -0.206 F 
ATOM     73  C   UNL A   1      44.282  23.611  32.698  1.00  0.00     0.040 A 
ATOM     74  C   UNL A   1      44.879  25.226  34.374  1.00  0.00     0.040 A 
ATOM     75  F   UNL A   1      45.432  27.418  33.751  1.00  0.00    -0.206 F 
ATOM     76  C   UNL A   1      44.489  23.933  34.037  1.00  0.00     0.006 A 
ENDBRANCH  52  69
ENDBRANCH  26  27
ENDBRANCH  19  21
ENDBRANCH  18  19
ENDBRANCH  17  18
ENDBRANCH  16  17
ENDBRANCH   1  16
TORSDOF 16
ENDMDL
MODEL 2
REMARK VINA RESULT:     -10.3      6.601     11.370
REMARK SMILES O=C(CCCCCn1cc(Cl)c(I)n1)OCCOC(=O)c1ccc(-c2c3nc(c(-c4c(F)cccc4F)c4ccc([nH]4)c(-c4c(F)cccc4F)c4nc(c(-c5c(F)cccc5F)c5ccc2[nH]5)C=C4)C=C3)cc1
REMARK SMILES IDX 15 1 2 2 1 3 3 4 4 5 5 6 6 7 7 8 8 9 9 10 14 11 10 12 12 13
REMARK SMILES IDX 11 14 13 15 16 16 17 17 18 18 19 19 20 20 21 21 22 22 74 23
REMARK SMILES IDX 23 24 73 25 24 26 25 27 26 28 67 29 27 30 72 31 66 32 68 33
REMARK SMILES IDX 28 34 71 35 65 36 64 37 29 39 55 40 38 41 54 42 39 43 42 44
REMARK SMILES IDX 53 45 69 46 40 47 41 48 52 50 70 51 43 52 30 53 31 54 36 55
REMARK SMILES IDX 32 56 33 57 35 58 37 59 34 60 56 61 57 62 62 63 58 64 59 65
REMARK SMILES IDX 61 66 63 67 60 68 44 69 45 70 50 71 46 72 47 73 49 74 51 75
REMARK SMILES IDX 48 76
REMARK H PARENT 68 38 42 49
REMARK Flexibility Score: inf
ROOT
ATOM      1  O   UNL A   1      33.856  34.120  29.014  1.00  0.00    -0.462 OA
ENDROOT
BRANCH   1   2
ATOM      2  C   UNL A   1      33.357  33.287  28.075  1.00  0.00     0.305 C 
ATOM      3  O   UNL A   1      32.324  33.592  27.479  1.00  0.00    -0.252 OA
BRANCH   2   4
ATOM      4  C   UNL A   1      34.020  31.960  27.773  1.00  0.00     0.123 C 
BRANCH   4   5
ATOM      5  C   UNL A   1      33.091  30.903  27.191  1.00  0.00     0.012 C 
BRANCH   5   6
ATOM      6  C   UNL A   1      33.561  29.472  27.444  1.00  0.00     0.002 C 
BRANCH   6   7
ATOM      7  C   UNL A   1      32.447  28.405  27.462  1.00  0.00     0.024 C 
BRANCH   7   8
ATOM      8  C   UNL A   1      32.664  27.173  26.579  1.00  0.00     0.144 C 
BRANCH   8   9
ATOM      9  N   UNL A   1      32.193  27.338  25.218  1.00  0.00    -0.270 N 
ATOM     10  C   UNL A   1      32.561  26.615  24.122  1.00  0.00     0.130 A 
ATOM     11  N   UNL A   1      31.281  28.291  24.943  1.00  0.00    -0.165 NA
ATOM     12  C   UNL A   1      31.727  27.011  23.106  1.00  0.00     0.092 A 
ATOM     13  C   UNL A   1      30.997  28.085  23.652  1.00  0.00     0.141 A 
ATOM     14  Cl  UNL A   1      31.648  26.333  21.557  1.00  0.00    -0.080 Cl
ATOM     15  I   UNL A   1      29.663  29.255  22.645  1.00  0.00    -0.018 I 
ENDBRANCH   8   9
ENDBRANCH   7   8
ENDBRANCH   6   7
ENDBRANCH   5   6
ENDBRANCH   4   5
ENDBRANCH   2   4
ENDBRANCH   1   2
BRANCH   1  16
ATOM     16  C   UNL A   1      33.864  35.561  29.039  1.00  0.00     0.274 C 
BRANCH  16  17
ATOM     17  C   UNL A   1      32.851  36.184  29.982  1.00  0.00     0.275 C 
BRANCH  17  18
ATOM     18  O   UNL A   1      32.508  35.293  31.031  1.00  0.00    -0.458 OA
BRANCH  18  19
ATOM     19  C   UNL A   1      32.864  35.699  32.275  1.00  0.00     0.338 C 
ATOM     20  O   UNL A   1      32.430  36.637  32.898  1.00  0.00    -0.246 OA
BRANCH  19  21
ATOM     21  C   UNL A   1      34.011  34.874  32.680  1.00  0.00     0.060 A 
ATOM     22  C   UNL A   1      35.235  35.529  32.799  1.00  0.00     0.016 A 
ATOM     23  C   UNL A   1      33.915  33.472  32.671  1.00  0.00     0.016 A 
ATOM     24  C   UNL A   1      36.383  34.780  32.672  1.00  0.00     0.010 A 
ATOM     25  C   UNL A   1      35.058  32.728  32.520  1.00  0.00     0.010 A 
ATOM     26  C   UNL A   1      36.270  33.402  32.438  1.00  0.00    -0.014 A 
BRANCH  26  27
ATOM     27  C   UNL A   1      37.487  32.650  32.239  1.00  0.00     0.031 A 
ATOM     28  C   UNL A   1      38.298  32.589  33.470  1.00  0.00     0.074 A 
ATOM     29  C   UNL A   1      37.808  32.044  31.082  1.00  0.00     0.049 A 
ATOM     30  N   UNL A   1      39.361  33.272  33.722  1.00  0.00    -0.248 NA
ATOM     31  C   UNL A   1      37.756  31.863  34.629  1.00  0.00     0.031 C 
ATOM     32  C   UNL A   1      36.972  31.815  29.903  1.00  0.00     0.029 A 
ATOM     33  N   UNL A   1      38.977  31.433  30.749  1.00  0.00    -0.354 N 
ATOM     34  C   UNL A   1      39.759  32.881  34.991  1.00  0.00     0.074 A 
ATOM     35  C   UNL A   1      38.638  32.194  35.573  1.00  0.00     0.031 C 
ATOM     36  C   UNL A   1      37.590  30.931  29.082  1.00  0.00     0.029 A 
ATOM     37  C   UNL A   1      38.917  30.647  29.605  1.00  0.00     0.049 A 
ATOM     38  H   UNL A   1      39.801  31.539  31.277  1.00  0.00     0.167 HD
ATOM     39  C   UNL A   1      41.076  32.905  35.328  1.00  0.00     0.037 A 
ATOM     40  C   UNL A   1      39.883  29.796  29.169  1.00  0.00     0.037 A 
ATOM     41  C   UNL A   1      41.823  33.737  34.413  1.00  0.00     0.049 A 
ATOM     42  C   UNL A   1      41.157  30.202  29.818  1.00  0.00     0.074 A 
ATOM     43  C   UNL A   1      41.769  35.067  34.042  1.00  0.00     0.029 A 
ATOM     44  N   UNL A   1      42.545  33.100  33.435  1.00  0.00    -0.354 N 
ATOM     45  N   UNL A   1      41.796  31.300  29.530  1.00  0.00    -0.248 NA
ATOM     46  C   UNL A   1      41.471  29.618  31.114  1.00  0.00     0.031 C 
ATOM     47  C   UNL A   1      42.058  35.075  32.646  1.00  0.00     0.029 A 
ATOM     48  C   UNL A   1      42.345  33.767  32.255  1.00  0.00     0.049 A 
ATOM     49  H   UNL A   1      43.109  32.303  33.559  1.00  0.00     0.167 HD
ATOM     50  C   UNL A   1      42.226  31.786  30.755  1.00  0.00     0.074 A 
ATOM     51  C   UNL A   1      42.076  30.665  31.683  1.00  0.00     0.031 C 
ATOM     52  C   UNL A   1      42.377  33.126  30.961  1.00  0.00     0.037 A 
BRANCH  39  53
ATOM     53  C   UNL A   1      41.744  31.846  36.173  1.00  0.00     0.057 A 
ATOM     54  C   UNL A   1      42.583  32.258  37.224  1.00  0.00     0.134 A 
ATOM     55  C   UNL A   1      41.855  30.485  35.820  1.00  0.00     0.134 A 
ATOM     56  F   UNL A   1      42.578  33.530  37.650  1.00  0.00    -0.206 F 
ATOM     57  C   UNL A   1      43.529  31.408  37.806  1.00  0.00     0.040 A 
ATOM     58  C   UNL A   1      42.759  29.615  36.431  1.00  0.00     0.040 A 
ATOM     59  F   UNL A   1      41.179  29.940  34.803  1.00  0.00    -0.206 F 
ATOM     60  C   UNL A   1      43.627  30.083  37.402  1.00  0.00     0.006 A 
ENDBRANCH  39  53
BRANCH  40  61
ATOM     61  C   UNL A   1      39.754  28.489  28.483  1.00  0.00     0.057 A 
ATOM     62  C   UNL A   1      40.357  28.265  27.234  1.00  0.00     0.134 A 
ATOM     63  C   UNL A   1      39.307  27.343  29.164  1.00  0.00     0.134 A 
ATOM     64  F   UNL A   1      40.851  29.288  26.523  1.00  0.00    -0.206 F 
ATOM     65  C   UNL A   1      40.539  26.977  26.711  1.00  0.00     0.040 A 
ATOM     66  C   UNL A   1      39.478  26.053  28.650  1.00  0.00     0.040 A 
ATOM     67  F   UNL A   1      38.776  27.431  30.392  1.00  0.00    -0.206 F 
ATOM     68  C   UNL A   1      40.111  25.864  27.427  1.00  0.00     0.006 A 
ENDBRANCH  40  61
BRANCH  52  69
ATOM     69  C   UNL A   1      42.363  34.030  29.758  1.00  0.00     0.057 A 
ATOM     70  C   UNL A   1      41.240  34.738  29.304  1.00  0.00     0.134 A 
ATOM     71  C   UNL A   1      43.580  34.296  29.121  1.00  0.00     0.134 A 
ATOM     72  F   UNL A   1      40.051  34.625  29.911  1.00  0.00    -0.206 F 
ATOM     73  C   UNL A   1      41.323  35.638  28.234  1.00  0.00     0.040 A 
ATOM     74  C   UNL A   1      43.683  35.218  28.078  1.00  0.00     0.040 A 
ATOM     75  F   UNL A   1      44.706  33.692  29.535  1.00  0.00    -0.206 F 
ATOM     76  C   UNL A   1      42.549  35.886  27.624  1.00  0.00     0.006 A 
ENDBRANCH  52  69
ENDBRANCH  26  27
ENDBRANCH  19  21
ENDBRANCH  18  19
ENDBRANCH  17  18
ENDBRANCH  16  17
ENDBRANCH   1  16
TORSDOF 16
ENDMDL
MODEL 3
REMARK VINA RESULT:      -9.7      5.498     10.524
REMARK SMILES O=C(CCCCCn1cc(Cl)c(I)n1)OCCOC(=O)c1ccc(-c2c3nc(c(-c4c(F)cccc4F)c4ccc([nH]4)c(-c4c(F)cccc4F)c4nc(c(-c5c(F)cccc5F)c5ccc2[nH]5)C=C4)C=C3)cc1
REMARK SMILES IDX 15 1 2 2 1 3 3 4 4 5 5 6 6 7 7 8 8 9 9 10 14 11 10 12 12 13
REMARK SMILES IDX 11 14 13 15 16 16 17 17 18 18 19 19 20 20 21 21 22 22 74 23
REMARK SMILES IDX 23 24 73 25 24 26 25 27 26 28 67 29 27 30 72 31 66 32 68 33
REMARK SMILES IDX 28 34 71 35 65 36 64 37 29 39 55 40 38 41 54 42 39 43 42 44
REMARK SMILES IDX 53 45 69 46 40 47 41 48 52 50 70 51 43 52 30 53 31 54 36 55
REMARK SMILES IDX 32 56 33 57 35 58 37 59 34 60 56 61 57 62 62 63 58 64 59 65
REMARK SMILES IDX 61 66 63 67 60 68 44 69 45 70 50 71 46 72 47 73 49 74 51 75
REMARK SMILES IDX 48 76
REMARK H PARENT 68 38 42 49
REMARK Flexibility Score: inf
ROOT
ATOM      1  O   UNL A   1      34.985  33.837  30.939  1.00  0.00    -0.462 OA
ENDROOT
BRANCH   1   2
ATOM      2  C   UNL A   1      34.907  32.962  31.966  1.00  0.00     0.305 C 
ATOM      3  O   UNL A   1      33.920  32.976  32.702  1.00  0.00    -0.252 OA
BRANCH   2   4
ATOM      4  C   UNL A   1      36.034  31.994  32.258  1.00  0.00     0.123 C 
BRANCH   4   5
ATOM      5  C   UNL A   1      37.127  32.547  33.164  1.00  0.00     0.012 C 
BRANCH   5   6
ATOM      6  C   UNL A   1      38.449  31.788  33.056  1.00  0.00     0.002 C 
BRANCH   6   7
ATOM      7  C   UNL A   1      39.644  32.617  32.541  1.00  0.00     0.024 C 
BRANCH   7   8
ATOM      8  C   UNL A   1      39.310  33.898  31.771  1.00  0.00     0.144 C 
BRANCH   8   9
ATOM      9  N   UNL A   1      40.316  34.275  30.798  1.00  0.00    -0.270 N 
ATOM     10  C   UNL A   1      40.111  34.819  29.565  1.00  0.00     0.130 A 
ATOM     11  N   UNL A   1      41.620  34.103  31.091  1.00  0.00    -0.165 NA
ATOM     12  C   UNL A   1      41.350  35.169  29.091  1.00  0.00     0.092 A 
ATOM     13  C   UNL A   1      42.247  34.653  30.046  1.00  0.00     0.141 A 
ATOM     14  Cl  UNL A   1      41.670  36.016  27.660  1.00  0.00    -0.080 Cl
ATOM     15  I   UNL A   1      44.283  34.681  29.908  1.00  0.00    -0.018 I 
ENDBRANCH   8   9
ENDBRANCH   7   8
ENDBRANCH   6   7
ENDBRANCH   5   6
ENDBRANCH   4   5
ENDBRANCH   2   4
ENDBRANCH   1   2
BRANCH   1  16
ATOM     16  C   UNL A   1      34.022  34.108  29.902  1.00  0.00     0.274 C 
BRANCH  16  17
ATOM     17  C   UNL A   1      34.626  34.454  28.553  1.00  0.00     0.275 C 
BRANCH  17  18
ATOM     18  O   UNL A   1      35.739  33.626  28.259  1.00  0.00    -0.458 OA
BRANCH  18  19
ATOM     19  C   UNL A   1      35.437  32.343  27.937  1.00  0.00     0.338 C 
ATOM     20  O   UNL A   1      34.501  31.946  27.287  1.00  0.00    -0.246 OA
BRANCH  19  21
ATOM     21  C   UNL A   1      36.382  31.487  28.668  1.00  0.00     0.060 A 
ATOM     22  C   UNL A   1      37.555  32.095  29.110  1.00  0.00     0.016 A 
ATOM     23  C   UNL A   1      36.221  30.090  28.666  1.00  0.00     0.016 A 
ATOM     24  C   UNL A   1      38.653  31.294  29.329  1.00  0.00     0.010 A 
ATOM     25  C   UNL A   1      37.322  29.294  28.862  1.00  0.00     0.010 A 
ATOM     26  C   UNL A   1      38.541  29.914  29.107  1.00  0.00    -0.014 A 
BRANCH  26  27
ATOM     27  C   UNL A   1      39.725  29.105  29.278  1.00  0.00     0.031 A 
ATOM     28  C   UNL A   1      40.019  28.861  30.702  1.00  0.00     0.074 A 
ATOM     29  C   UNL A   1      40.438  28.602  28.253  1.00  0.00     0.049 A 
ATOM     30  N   UNL A   1      40.929  29.441  31.407  1.00  0.00    -0.248 NA
ATOM     31  C   UNL A   1      39.067  28.058  31.484  1.00  0.00     0.031 C 
ATOM     32  C   UNL A   1      40.094  28.556  26.832  1.00  0.00     0.029 A 
ATOM     33  N   UNL A   1      41.631  27.951  28.299  1.00  0.00    -0.354 N 
ATOM     34  C   UNL A   1      40.818  28.892  32.676  1.00  0.00     0.074 A 
ATOM     35  C   UNL A   1      39.544  28.227  32.719  1.00  0.00     0.031 C 
ATOM     36  C   UNL A   1      40.951  27.722  26.192  1.00  0.00     0.029 A 
ATOM     37  C   UNL A   1      41.981  27.295  27.125  1.00  0.00     0.049 A 
ATOM     38  H   UNL A   1      42.203  27.945  29.101  1.00  0.00     0.167 HD
ATOM     39  C   UNL A   1      41.916  28.791  33.472  1.00  0.00     0.037 A 
ATOM     40  C   UNL A   1      43.018  26.430  26.973  1.00  0.00     0.037 A 
ATOM     41  C   UNL A   1      42.969  29.661  33.003  1.00  0.00     0.049 A 
ATOM     42  C   UNL A   1      43.969  26.678  28.088  1.00  0.00     0.074 A 
ATOM     43  C   UNL A   1      43.091  31.023  32.803  1.00  0.00     0.029 A 
ATOM     44  N   UNL A   1      43.987  29.082  32.286  1.00  0.00    -0.354 N 
ATOM     45  N   UNL A   1      44.697  27.754  28.190  1.00  0.00    -0.248 NA
ATOM     46  C   UNL A   1      43.765  25.942  29.327  1.00  0.00     0.031 C 
ATOM     47  C   UNL A   1      43.877  31.157  31.621  1.00  0.00     0.029 A 
ATOM     48  C   UNL A   1      44.256  29.880  31.206  1.00  0.00     0.049 A 
ATOM     49  H   UNL A   1      44.444  28.240  32.510  1.00  0.00     0.167 HD
ATOM     50  C   UNL A   1      44.653  28.079  29.537  1.00  0.00     0.074 A 
ATOM     51  C   UNL A   1      44.142  26.880  30.202  1.00  0.00     0.031 C 
ATOM     52  C   UNL A   1      44.750  29.377  29.945  1.00  0.00     0.037 A 
BRANCH  39  53
ATOM     53  C   UNL A   1      42.195  27.607  34.366  1.00  0.00     0.057 A 
ATOM     54  C   UNL A   1      41.911  27.722  35.739  1.00  0.00     0.134 A 
ATOM     55  C   UNL A   1      43.001  26.504  34.014  1.00  0.00     0.134 A 
ATOM     56  F   UNL A   1      41.161  28.732  36.204  1.00  0.00    -0.206 F 
ATOM     57  C   UNL A   1      42.470  26.867  36.695  1.00  0.00     0.040 A 
ATOM     58  C   UNL A   1      43.520  25.614  34.956  1.00  0.00     0.040 A 
ATOM     59  F   UNL A   1      43.419  26.278  32.765  1.00  0.00    -0.206 F 
ATOM     60  C   UNL A   1      43.287  25.814  36.305  1.00  0.00     0.006 A 
ENDBRANCH  39  53
BRANCH  40  61
ATOM     61  C   UNL A   1      43.121  25.213  26.134  1.00  0.00     0.057 A 
ATOM     62  C   UNL A   1      44.165  25.060  25.206  1.00  0.00     0.134 A 
ATOM     63  C   UNL A   1      42.390  24.051  26.433  1.00  0.00     0.134 A 
ATOM     64  F   UNL A   1      44.946  26.100  24.882  1.00  0.00    -0.206 F 
ATOM     65  C   UNL A   1      44.487  23.819  24.640  1.00  0.00     0.040 A 
ATOM     66  C   UNL A   1      42.699  22.807  25.870  1.00  0.00     0.040 A 
ATOM     67  F   UNL A   1      41.415  24.064  27.353  1.00  0.00    -0.206 F 
ATOM     68  C   UNL A   1      43.761  22.683  24.983  1.00  0.00     0.006 A 
ENDBRANCH  40  61
BRANCH  52  69
ATOM     69  C   UNL A   1      45.207  30.400  28.941  1.00  0.00     0.057 A 
ATOM     70  C   UNL A   1      46.548  30.718  28.679  1.00  0.00     0.134 A 
ATOM     71  C   UNL A   1      44.244  30.983  28.111  1.00  0.00     0.134 A 
ATOM     72  F   UNL A   1      47.548  30.137  29.356  1.00  0.00    -0.206 F 
ATOM     73  C   UNL A   1      46.906  31.610  27.661  1.00  0.00     0.040 A 
ATOM     74  C   UNL A   1      44.589  31.845  27.069  1.00  0.00     0.040 A 
ATOM     75  F   UNL A   1      42.944  30.686  28.272  1.00  0.00    -0.206 F 
ATOM     76  C   UNL A   1      45.925  32.170  26.848  1.00  0.00     0.006 A 
ENDBRANCH  52  69
ENDBRANCH  26  27
ENDBRANCH  19  21
ENDBRANCH  18  19
ENDBRANCH  17  18
ENDBRANCH  16  17
ENDBRANCH   1  16
TORSDOF 16
ENDMDL
