MODEL 1
REMARK VINA RESULT:     -11.4      0.000      0.000
REMARK SMILES CSc1ccc(NS(=O)(=O)c2ccc(C(=O)OCCOC(=O)c3ccc(-c4c5nc(c(-c6c(F)cccc6F)c6ccc([nH]6)c(-c6c(F)cccc6F)c6nc(c(-c7c(F)cccc7F)c7ccc4[nH]7)C=C6)C=C5)cc3)cc2)cc1
REMARK SMILES IDX 18 1 17 2 15 3 16 4 14 5 11 6 12 7 78 8 13 9 77 10 8 11 9 12
REMARK SMILES IDX 10 13 7 14 6 16 3 17 4 18 80 19 5 20 79 21 2 22 1 23 19 24
REMARK SMILES IDX 20 25 21 26 22 27 23 28 24 29 76 30 25 31 75 32 26 33 27 34
REMARK SMILES IDX 28 35 69 36 29 37 74 38 68 39 70 40 30 41 73 42 67 43 66 44
REMARK SMILES IDX 31 46 57 47 40 48 56 49 41 50 44 51 55 52 71 53 42 54 43 55
REMARK SMILES IDX 54 57 72 58 45 59 32 60 33 61 38 62 34 63 35 64 37 65 39 66
REMARK SMILES IDX 36 67 58 68 59 69 64 70 60 71 61 72 63 73 65 74 62 75 46 76
REMARK SMILES IDX 47 77 52 78 48 79 49 80 51 81 53 82 50 83
REMARK H PARENT 7 15 70 45 44 56
REMARK Flexibility Score: inf
ROOT
ATOM      1  C   UNL A   1      42.267  20.686  26.492  1.00  0.00     0.275 C 
ENDROOT
BRANCH   1   2
ATOM      2  O   UNL A   1      40.908  21.140  26.328  1.00  0.00    -0.458 OA
BRANCH   2   3
ATOM      3  C   UNL A   1      40.034  20.223  25.839  1.00  0.00     0.338 C 
ATOM      4  O   UNL A   1      40.242  19.030  25.690  1.00  0.00    -0.246 OA
BRANCH   3   5
ATOM      5  C   UNL A   1      38.698  20.836  25.624  1.00  0.00     0.060 A 
ATOM      6  C   UNL A   1      36.334  22.168  24.972  1.00  0.00     0.087 A 
ATOM      7  C   UNL A   1      37.397  22.882  25.535  1.00  0.00     0.023 A 
ATOM      8  C   UNL A   1      36.408  20.778  24.817  1.00  0.00     0.023 A 
ATOM      9  C   UNL A   1      38.568  22.211  25.879  1.00  0.00     0.017 A 
ATOM     10  C   UNL A   1      37.602  20.114  25.130  1.00  0.00     0.017 A 
BRANCH   6  11
ATOM     11  S   UNL A   1      35.006  23.090  24.228  1.00  0.00     0.261 S 
ATOM     12  O   UNL A   1      33.756  22.512  24.664  1.00  0.00    -0.201 OA
ATOM     13  O   UNL A   1      35.331  23.218  22.823  1.00  0.00    -0.201 OA
BRANCH  11  14
ATOM     14  N   UNL A   1      35.120  24.631  24.880  1.00  0.00    -0.280 N 
ATOM     15  H   UNL A   1      35.976  24.888  25.292  1.00  0.00     0.180 HD
BRANCH  14  16
ATOM     16  C   UNL A   1      34.070  25.598  24.883  1.00  0.00     0.049 A 
ATOM     17  C   UNL A   1      32.404  27.887  24.984  1.00  0.00     0.007 A 
ATOM     18  C   UNL A   1      32.457  26.995  26.052  1.00  0.00     0.017 A 
ATOM     19  C   UNL A   1      33.145  27.587  23.836  1.00  0.00     0.017 A 
ATOM     20  C   UNL A   1      33.274  25.859  25.996  1.00  0.00     0.028 A 
ATOM     21  C   UNL A   1      33.985  26.464  23.792  1.00  0.00     0.028 A 
BRANCH  17  22
ATOM     22  S   UNL A   1      31.448  29.395  25.004  1.00  0.00    -0.130 SA
ATOM     23  C   UNL A   1      30.309  29.160  23.606  1.00  0.00     0.091 C 
ENDBRANCH  17  22
ENDBRANCH  14  16
ENDBRANCH  11  14
ENDBRANCH   6  11
ENDBRANCH   3   5
ENDBRANCH   2   3
ENDBRANCH   1   2
BRANCH   1  24
ATOM     24  C   UNL A   1      43.221  21.449  25.572  1.00  0.00     0.275 C 
BRANCH  24  25
ATOM     25  O   UNL A   1      42.593  22.653  25.094  1.00  0.00    -0.458 OA
BRANCH  25  26
ATOM     26  C   UNL A   1      43.356  23.769  25.114  1.00  0.00     0.338 C 
ATOM     27  O   UNL A   1      44.352  24.013  24.456  1.00  0.00    -0.246 OA
BRANCH  26  28
ATOM     28  C   UNL A   1      42.767  24.733  26.054  1.00  0.00     0.060 A 
ATOM     29  C   UNL A   1      43.307  26.016  26.118  1.00  0.00     0.016 A 
ATOM     30  C   UNL A   1      41.780  24.335  26.956  1.00  0.00     0.016 A 
ATOM     31  C   UNL A   1      42.896  26.898  27.117  1.00  0.00     0.010 A 
ATOM     32  C   UNL A   1      41.331  25.240  27.925  1.00  0.00     0.010 A 
ATOM     33  C   UNL A   1      41.906  26.520  28.037  1.00  0.00    -0.014 A 
BRANCH  33  34
ATOM     34  C   UNL A   1      41.530  27.432  29.154  1.00  0.00     0.031 A 
ATOM     35  C   UNL A   1      42.326  27.427  30.434  1.00  0.00     0.074 A 
ATOM     36  C   UNL A   1      40.499  28.290  29.024  1.00  0.00     0.049 A 
ATOM     37  N   UNL A   1      42.083  28.042  31.565  1.00  0.00    -0.248 NA
ATOM     38  C   UNL A   1      43.553  26.615  30.446  1.00  0.00     0.031 C 
ATOM     39  C   UNL A   1      39.666  28.439  27.830  1.00  0.00     0.029 A 
ATOM     40  N   UNL A   1      39.983  29.208  29.906  1.00  0.00    -0.354 N 
ATOM     41  C   UNL A   1      43.096  27.654  32.433  1.00  0.00     0.074 A 
ATOM     42  C   UNL A   1      43.955  26.748  31.702  1.00  0.00     0.031 C 
ATOM     43  C   UNL A   1      38.766  29.413  28.042  1.00  0.00     0.029 A 
ATOM     44  C   UNL A   1      38.912  29.910  29.407  1.00  0.00     0.049 A 
ATOM     45  H   UNL A   1      40.346  29.350  30.810  1.00  0.00     0.167 HD
ATOM     46  C   UNL A   1      43.295  28.022  33.723  1.00  0.00     0.037 A 
ATOM     47  C   UNL A   1      38.115  30.826  29.991  1.00  0.00     0.037 A 
ATOM     48  C   UNL A   1      42.480  28.968  34.439  1.00  0.00     0.049 A 
ATOM     49  C   UNL A   1      38.345  31.206  31.427  1.00  0.00     0.074 A 
ATOM     50  C   UNL A   1      42.613  29.409  35.745  1.00  0.00     0.029 A 
ATOM     51  N   UNL A   1      41.391  29.636  33.901  1.00  0.00    -0.354 N 
ATOM     52  N   UNL A   1      39.273  30.786  32.253  1.00  0.00    -0.248 NA
ATOM     53  C   UNL A   1      37.405  32.170  32.017  1.00  0.00     0.031 C 
ATOM     54  C   UNL A   1      41.589  30.326  36.006  1.00  0.00     0.029 A 
ATOM     55  C   UNL A   1      40.838  30.480  34.851  1.00  0.00     0.049 A 
ATOM     56  H   UNL A   1      41.059  29.527  32.981  1.00  0.00     0.167 HD
ATOM     57  C   UNL A   1      39.033  31.441  33.455  1.00  0.00     0.074 A 
ATOM     58  C   UNL A   1      37.887  32.300  33.246  1.00  0.00     0.031 C 
ATOM     59  C   UNL A   1      39.700  31.331  34.629  1.00  0.00     0.037 A 
BRANCH  46  60
ATOM     60  C   UNL A   1      44.430  27.373  34.460  1.00  0.00     0.057 A 
ATOM     61  C   UNL A   1      45.700  27.956  34.531  1.00  0.00     0.134 A 
ATOM     62  C   UNL A   1      44.233  26.165  35.142  1.00  0.00     0.134 A 
ATOM     63  F   UNL A   1      45.958  29.105  33.890  1.00  0.00    -0.206 F 
ATOM     64  C   UNL A   1      46.741  27.351  35.240  1.00  0.00     0.040 A 
ATOM     65  C   UNL A   1      45.257  25.562  35.872  1.00  0.00     0.040 A 
ATOM     66  F   UNL A   1      43.037  25.558  35.119  1.00  0.00    -0.206 F 
ATOM     67  C   UNL A   1      46.518  26.154  35.918  1.00  0.00     0.006 A 
ENDBRANCH  46  60
BRANCH  47  68
ATOM     68  C   UNL A   1      36.997  31.429  29.223  1.00  0.00     0.057 A 
ATOM     69  C   UNL A   1      37.078  32.737  28.731  1.00  0.00     0.134 A 
ATOM     70  C   UNL A   1      35.819  30.714  28.968  1.00  0.00     0.134 A 
ATOM     71  F   UNL A   1      38.168  33.480  28.967  1.00  0.00    -0.206 F 
ATOM     72  C   UNL A   1      36.026  33.315  28.019  1.00  0.00     0.040 A 
ATOM     73  C   UNL A   1      34.770  31.272  28.237  1.00  0.00     0.040 A 
ATOM     74  F   UNL A   1      35.680  29.458  29.416  1.00  0.00    -0.206 F 
ATOM     75  C   UNL A   1      34.870  32.579  27.764  1.00  0.00     0.006 A 
ENDBRANCH  47  68
BRANCH  59  76
ATOM     76  C   UNL A   1      39.220  32.178  35.769  1.00  0.00     0.057 A 
ATOM     77  C   UNL A   1      38.314  31.687  36.717  1.00  0.00     0.134 A 
ATOM     78  C   UNL A   1      39.692  33.486  35.937  1.00  0.00     0.134 A 
ATOM     79  F   UNL A   1      37.817  30.447  36.604  1.00  0.00    -0.206 F 
ATOM     80  C   UNL A   1      37.879  32.477  37.784  1.00  0.00     0.040 A 
ATOM     81  C   UNL A   1      39.279  34.277  37.010  1.00  0.00     0.040 A 
ATOM     82  F   UNL A   1      40.566  34.011  35.065  1.00  0.00    -0.206 F 
ATOM     83  C   UNL A   1      38.366  33.773  37.934  1.00  0.00     0.006 A 
ENDBRANCH  59  76
ENDBRANCH  33  34
ENDBRANCH  26  28
ENDBRANCH  25  26
ENDBRANCH  24  25
ENDBRANCH   1  24
TORSDOF 15
ENDMDL
MODEL 2
REMARK VINA RESULT:     -11.3      4.923      9.958
REMARK SMILES CSc1ccc(NS(=O)(=O)c2ccc(C(=O)OCCOC(=O)c3ccc(-c4c5nc(c(-c6c(F)cccc6F)c6ccc([nH]6)c(-c6c(F)cccc6F)c6nc(c(-c7c(F)cccc7F)c7ccc4[nH]7)C=C6)C=C5)cc3)cc2)cc1
REMARK SMILES IDX 18 1 17 2 15 3 16 4 14 5 11 6 12 7 78 8 13 9 77 10 8 11 9 12
REMARK SMILES IDX 10 13 7 14 6 16 3 17 4 18 80 19 5 20 79 21 2 22 1 23 19 24
REMARK SMILES IDX 20 25 21 26 22 27 23 28 24 29 76 30 25 31 75 32 26 33 27 34
REMARK SMILES IDX 28 35 69 36 29 37 74 38 68 39 70 40 30 41 73 42 67 43 66 44
REMARK SMILES IDX 31 46 57 47 40 48 56 49 41 50 44 51 55 52 71 53 42 54 43 55
REMARK SMILES IDX 54 57 72 58 45 59 32 60 33 61 38 62 34 63 35 64 37 65 39 66
REMARK SMILES IDX 36 67 58 68 59 69 64 70 60 71 61 72 63 73 65 74 62 75 46 76
REMARK SMILES IDX 47 77 52 78 48 79 49 80 51 81 53 82 50 83
REMARK H PARENT 7 15 70 45 44 56
REMARK Flexibility Score: inf
ROOT
ATOM      1  C   UNL A   1      34.242  33.762  30.063  1.00  0.00     0.275 C 
ENDROOT
BRANCH   1   2
ATOM      2  O   UNL A   1      33.989  32.502  29.408  1.00  0.00    -0.458 OA
BRANCH   2   3
ATOM      3  C   UNL A   1      34.546  32.353  28.180  1.00  0.00     0.338 C 
ATOM      4  O   UNL A   1      35.457  33.016  27.710  1.00  0.00    -0.246 OA
BRANCH   3   5
ATOM      5  C   UNL A   1      33.991  31.156  27.495  1.00  0.00     0.060 A 
ATOM      6  C   UNL A   1      32.995  28.746  26.505  1.00  0.00     0.087 A 
ATOM      7  C   UNL A   1      34.348  28.848  26.842  1.00  0.00     0.023 A 
ATOM      8  C   UNL A   1      32.155  29.864  26.572  1.00  0.00     0.023 A 
ATOM      9  C   UNL A   1      34.848  30.059  27.316  1.00  0.00     0.017 A 
ATOM     10  C   UNL A   1      32.653  31.069  27.085  1.00  0.00     0.017 A 
BRANCH   6  11
ATOM     11  S   UNL A   1      32.316  27.122  26.241  1.00  0.00     0.261 S 
ATOM     12  O   UNL A   1      30.988  27.090  26.809  1.00  0.00    -0.201 OA
ATOM     13  O   UNL A   1      33.336  26.179  26.650  1.00  0.00    -0.201 OA
BRANCH  11  14
ATOM     14  N   UNL A   1      32.172  26.969  24.577  1.00  0.00    -0.280 N 
ATOM     15  H   UNL A   1      32.848  26.425  24.110  1.00  0.00     0.180 HD
BRANCH  14  16
ATOM     16  C   UNL A   1      31.146  27.566  23.786  1.00  0.00     0.049 A 
ATOM     17  C   UNL A   1      29.105  29.147  22.619  1.00  0.00     0.007 A 
ATOM     18  C   UNL A   1      28.799  27.956  23.273  1.00  0.00     0.017 A 
ATOM     19  C   UNL A   1      30.451  29.508  22.499  1.00  0.00     0.017 A 
ATOM     20  C   UNL A   1      29.811  27.171  23.840  1.00  0.00     0.028 A 
ATOM     21  C   UNL A   1      31.461  28.735  23.092  1.00  0.00     0.028 A 
BRANCH  17  22
ATOM     22  S   UNL A   1      27.870  30.242  21.936  1.00  0.00    -0.130 SA
ATOM     23  C   UNL A   1      27.902  31.643  23.096  1.00  0.00     0.091 C 
ENDBRANCH  17  22
ENDBRANCH  14  16
ENDBRANCH  11  14
ENDBRANCH   6  11
ENDBRANCH   3   5
ENDBRANCH   2   3
ENDBRANCH   1   2
BRANCH   1  24
ATOM     24  C   UNL A   1      34.473  33.571  31.563  1.00  0.00     0.275 C 
BRANCH  24  25
ATOM     25  O   UNL A   1      34.847  32.208  31.837  1.00  0.00    -0.458 OA
BRANCH  25  26
ATOM     26  C   UNL A   1      35.917  32.037  32.646  1.00  0.00     0.338 C 
ATOM     27  O   UNL A   1      36.034  32.349  33.818  1.00  0.00    -0.246 OA
BRANCH  26  28
ATOM     28  C   UNL A   1      36.973  31.339  31.899  1.00  0.00     0.060 A 
ATOM     29  C   UNL A   1      37.918  30.602  32.611  1.00  0.00     0.016 A 
ATOM     30  C   UNL A   1      37.107  31.517  30.522  1.00  0.00     0.016 A 
ATOM     31  C   UNL A   1      39.032  30.077  31.957  1.00  0.00     0.010 A 
ATOM     32  C   UNL A   1      38.199  30.945  29.858  1.00  0.00     0.010 A 
ATOM     33  C   UNL A   1      39.190  30.246  30.574  1.00  0.00    -0.014 A 
BRANCH  33  34
ATOM     34  C   UNL A   1      40.422  29.757  29.892  1.00  0.00     0.031 A 
ATOM     35  C   UNL A   1      41.607  30.673  29.725  1.00  0.00     0.074 A 
ATOM     36  C   UNL A   1      40.505  28.487  29.448  1.00  0.00     0.049 A 
ATOM     37  N   UNL A   1      42.713  30.486  29.049  1.00  0.00    -0.248 NA
ATOM     38  C   UNL A   1      41.533  31.978  30.401  1.00  0.00     0.031 C 
ATOM     39  C   UNL A   1      39.457  27.474  29.577  1.00  0.00     0.029 A 
ATOM     40  N   UNL A   1      41.524  27.830  28.803  1.00  0.00    -0.354 N 
ATOM     41  C   UNL A   1      43.442  31.662  29.178  1.00  0.00     0.074 A 
ATOM     42  C   UNL A   1      42.652  32.559  29.993  1.00  0.00     0.031 C 
ATOM     43  C   UNL A   1      39.900  26.317  29.060  1.00  0.00     0.029 A 
ATOM     44  C   UNL A   1      41.233  26.522  28.501  1.00  0.00     0.049 A 
ATOM     45  H   UNL A   1      42.383  28.257  28.578  1.00  0.00     0.167 HD
ATOM     46  C   UNL A   1      44.660  31.966  28.667  1.00  0.00     0.037 A 
ATOM     47  C   UNL A   1      41.943  25.599  27.824  1.00  0.00     0.037 A 
ATOM     48  C   UNL A   1      45.477  31.057  27.906  1.00  0.00     0.049 A 
ATOM     49  C   UNL A   1      43.284  25.964  27.252  1.00  0.00     0.074 A 
ATOM     50  C   UNL A   1      46.730  31.275  27.357  1.00  0.00     0.029 A 
ATOM     51  N   UNL A   1      45.131  29.749  27.604  1.00  0.00    -0.354 N 
ATOM     52  N   UNL A   1      43.935  27.099  27.333  1.00  0.00    -0.248 NA
ATOM     53  C   UNL A   1      43.980  24.926  26.477  1.00  0.00     0.031 C 
ATOM     54  C   UNL A   1      47.131  30.106  26.701  1.00  0.00     0.029 A 
ATOM     55  C   UNL A   1      46.143  29.150  26.871  1.00  0.00     0.049 A 
ATOM     56  H   UNL A   1      44.291  29.310  27.872  1.00  0.00     0.167 HD
ATOM     57  C   UNL A   1      45.117  26.909  26.629  1.00  0.00     0.074 A 
ATOM     58  C   UNL A   1      45.105  25.545  26.145  1.00  0.00     0.031 C 
ATOM     59  C   UNL A   1      46.119  27.792  26.398  1.00  0.00     0.037 A 
BRANCH  46  60
ATOM     60  C   UNL A   1      45.176  33.357  28.890  1.00  0.00     0.057 A 
ATOM     61  C   UNL A   1      44.855  34.416  28.033  1.00  0.00     0.134 A 
ATOM     62  C   UNL A   1      45.973  33.646  30.006  1.00  0.00     0.134 A 
ATOM     63  F   UNL A   1      44.107  34.203  26.941  1.00  0.00    -0.206 F 
ATOM     64  C   UNL A   1      45.325  35.711  28.268  1.00  0.00     0.040 A 
ATOM     65  C   UNL A   1      46.430  34.938  30.264  1.00  0.00     0.040 A 
ATOM     66  F   UNL A   1      46.311  32.676  30.870  1.00  0.00    -0.206 F 
ATOM     67  C   UNL A   1      46.109  35.974  29.390  1.00  0.00     0.006 A 
ENDBRANCH  46  60
BRANCH  47  68
ATOM     68  C   UNL A   1      41.382  24.240  27.619  1.00  0.00     0.057 A 
ATOM     69  C   UNL A   1      40.379  24.005  26.671  1.00  0.00     0.134 A 
ATOM     70  C   UNL A   1      41.831  23.145  28.369  1.00  0.00     0.134 A 
ATOM     71  F   UNL A   1      39.889  25.018  25.942  1.00  0.00    -0.206 F 
ATOM     72  C   UNL A   1      39.838  22.732  26.481  1.00  0.00     0.040 A 
ATOM     73  C   UNL A   1      41.317  21.864  28.171  1.00  0.00     0.040 A 
ATOM     74  F   UNL A   1      42.788  23.307  29.294  1.00  0.00    -0.206 F 
ATOM     75  C   UNL A   1      40.313  21.656  27.228  1.00  0.00     0.006 A 
ENDBRANCH  47  68
BRANCH  59  76
ATOM     76  C   UNL A   1      47.293  27.300  25.607  1.00  0.00     0.057 A 
ATOM     77  C   UNL A   1      47.400  27.534  24.230  1.00  0.00     0.134 A 
ATOM     78  C   UNL A   1      48.341  26.613  26.233  1.00  0.00     0.134 A 
ATOM     79  F   UNL A   1      46.424  28.175  23.572  1.00  0.00    -0.206 F 
ATOM     80  C   UNL A   1      48.502  27.084  23.500  1.00  0.00     0.040 A 
ATOM     81  C   UNL A   1      49.455  26.176  25.516  1.00  0.00     0.040 A 
ATOM     82  F   UNL A   1      48.300  26.362  27.550  1.00  0.00    -0.206 F 
ATOM     83  C   UNL A   1      49.535  26.407  24.144  1.00  0.00     0.006 A 
ENDBRANCH  59  76
ENDBRANCH  33  34
ENDBRANCH  26  28
ENDBRANCH  25  26
ENDBRANCH  24  25
ENDBRANCH   1  24
TORSDOF 15
ENDMDL
MODEL 3
REMARK VINA RESULT:     -11.3      4.923     10.085
REMARK SMILES CSc1ccc(NS(=O)(=O)c2ccc(C(=O)OCCOC(=O)c3ccc(-c4c5nc(c(-c6c(F)cccc6F)c6ccc([nH]6)c(-c6c(F)cccc6F)c6nc(c(-c7c(F)cccc7F)c7ccc4[nH]7)C=C6)C=C5)cc3)cc2)cc1
REMARK SMILES IDX 18 1 17 2 15 3 16 4 14 5 11 6 12 7 78 8 13 9 77 10 8 11 9 12
REMARK SMILES IDX 10 13 7 14 6 16 3 17 4 18 80 19 5 20 79 21 2 22 1 23 19 24
REMARK SMILES IDX 20 25 21 26 22 27 23 28 24 29 76 30 25 31 75 32 26 33 27 34
REMARK SMILES IDX 28 35 69 36 29 37 74 38 68 39 70 40 30 41 73 42 67 43 66 44
REMARK SMILES IDX 31 46 57 47 40 48 56 49 41 50 44 51 55 52 71 53 42 54 43 55
REMARK SMILES IDX 54 57 72 58 45 59 32 60 33 61 38 62 34 63 35 64 37 65 39 66
REMARK SMILES IDX 36 67 58 68 59 69 64 70 60 71 61 72 63 73 65 74 62 75 46 76
REMARK SMILES IDX 47 77 52 78 48 79 49 80 51 81 53 82 50 83
REMARK H PARENT 7 15 70 45 44 56
REMARK Flexibility Score: inf
ROOT
ATOM      1  C   UNL A   1      34.270  34.006  30.102  1.00  0.00     0.275 C 
ENDROOT
BRANCH   1   2
ATOM      2  O   UNL A   1      33.895  32.802  29.402  1.00  0.00    -0.458 OA
BRANCH   2   3
ATOM      3  C   UNL A   1      34.489  32.609  28.197  1.00  0.00     0.338 C 
ATOM      4  O   UNL A   1      35.276  33.362  27.647  1.00  0.00    -0.246 OA
BRANCH   3   5
ATOM      5  C   UNL A   1      34.164  31.261  27.663  1.00  0.00     0.060 A 
ATOM      6  C   UNL A   1      33.548  28.876  26.353  1.00  0.00     0.087 A 
ATOM      7  C   UNL A   1      32.605  29.907  26.391  1.00  0.00     0.023 A 
ATOM      8  C   UNL A   1      34.763  28.992  27.041  1.00  0.00     0.023 A 
ATOM      9  C   UNL A   1      32.906  31.089  27.065  1.00  0.00     0.017 A 
ATOM     10  C   UNL A   1      35.076  30.196  27.685  1.00  0.00     0.017 A 
BRANCH   6  11
ATOM     11  S   UNL A   1      33.283  27.539  25.209  1.00  0.00     0.261 S 
ATOM     12  O   UNL A   1      33.862  27.911  23.938  1.00  0.00    -0.201 OA
ATOM     13  O   UNL A   1      31.889  27.168  25.326  1.00  0.00    -0.201 OA
BRANCH  11  14
ATOM     14  N   UNL A   1      34.167  26.252  25.823  1.00  0.00    -0.280 N 
ATOM     15  H   UNL A   1      34.867  26.456  26.485  1.00  0.00     0.180 HD
BRANCH  14  16
ATOM     16  C   UNL A   1      33.982  24.885  25.459  1.00  0.00     0.049 A 
ATOM     17  C   UNL A   1      34.087  22.085  25.036  1.00  0.00     0.007 A 
ATOM     18  C   UNL A   1      34.446  22.974  24.026  1.00  0.00     0.017 A 
ATOM     19  C   UNL A   1      33.612  22.612  26.241  1.00  0.00     0.017 A 
ATOM     20  C   UNL A   1      34.384  24.357  24.234  1.00  0.00     0.028 A 
ATOM     21  C   UNL A   1      33.577  23.998  26.459  1.00  0.00     0.028 A 
BRANCH  17  22
ATOM     22  S   UNL A   1      34.209  20.311  24.878  1.00  0.00    -0.130 SA
ATOM     23  C   UNL A   1      32.470  19.810  24.695  1.00  0.00     0.091 C 
ENDBRANCH  17  22
ENDBRANCH  14  16
ENDBRANCH  11  14
ENDBRANCH   6  11
ENDBRANCH   3   5
ENDBRANCH   2   3
ENDBRANCH   1   2
BRANCH   1  24
ATOM     24  C   UNL A   1      34.532  33.728  31.583  1.00  0.00     0.275 C 
BRANCH  24  25
ATOM     25  O   UNL A   1      34.847  32.337  31.778  1.00  0.00    -0.458 OA
BRANCH  25  26
ATOM     26  C   UNL A   1      35.875  32.072  32.615  1.00  0.00     0.338 C 
ATOM     27  O   UNL A   1      35.957  32.311  33.807  1.00  0.00    -0.246 OA
BRANCH  26  28
ATOM     28  C   UNL A   1      36.931  31.372  31.870  1.00  0.00     0.060 A 
ATOM     29  C   UNL A   1      37.872  30.632  32.582  1.00  0.00     0.016 A 
ATOM     30  C   UNL A   1      37.067  31.552  30.493  1.00  0.00     0.016 A 
ATOM     31  C   UNL A   1      38.985  30.105  31.929  1.00  0.00     0.010 A 
ATOM     32  C   UNL A   1      38.158  30.977  29.830  1.00  0.00     0.010 A 
ATOM     33  C   UNL A   1      39.146  30.275  30.546  1.00  0.00    -0.014 A 
BRANCH  33  34
ATOM     34  C   UNL A   1      40.378  29.784  29.866  1.00  0.00     0.031 A 
ATOM     35  C   UNL A   1      41.565  30.697  29.699  1.00  0.00     0.074 A 
ATOM     36  C   UNL A   1      40.459  28.514  29.421  1.00  0.00     0.049 A 
ATOM     37  N   UNL A   1      42.671  30.507  29.025  1.00  0.00    -0.248 NA
ATOM     38  C   UNL A   1      41.493  32.002  30.376  1.00  0.00     0.031 C 
ATOM     39  C   UNL A   1      39.409  27.503  29.549  1.00  0.00     0.029 A 
ATOM     40  N   UNL A   1      41.477  27.855  28.777  1.00  0.00    -0.354 N 
ATOM     41  C   UNL A   1      43.402  31.682  29.155  1.00  0.00     0.074 A 
ATOM     42  C   UNL A   1      42.614  32.581  29.969  1.00  0.00     0.031 C 
ATOM     43  C   UNL A   1      39.850  26.345  29.033  1.00  0.00     0.029 A 
ATOM     44  C   UNL A   1      41.184  26.547  28.475  1.00  0.00     0.049 A 
ATOM     45  H   UNL A   1      42.337  28.279  28.553  1.00  0.00     0.167 HD
ATOM     46  C   UNL A   1      44.622  31.983  28.644  1.00  0.00     0.037 A 
ATOM     47  C   UNL A   1      41.892  25.622  27.799  1.00  0.00     0.037 A 
ATOM     48  C   UNL A   1      45.438  31.073  27.884  1.00  0.00     0.049 A 
ATOM     49  C   UNL A   1      43.235  25.985  27.228  1.00  0.00     0.074 A 
ATOM     50  C   UNL A   1      46.691  31.289  27.337  1.00  0.00     0.029 A 
ATOM     51  N   UNL A   1      45.089  29.766  27.582  1.00  0.00    -0.354 N 
ATOM     52  N   UNL A   1      43.888  27.119  27.310  1.00  0.00    -0.248 NA
ATOM     53  C   UNL A   1      43.929  24.945  26.454  1.00  0.00     0.031 C 
ATOM     54  C   UNL A   1      47.091  30.119  26.681  1.00  0.00     0.029 A 
ATOM     55  C   UNL A   1      46.101  29.165  26.850  1.00  0.00     0.049 A 
ATOM     56  H   UNL A   1      44.248  29.329  27.849  1.00  0.00     0.167 HD
ATOM     57  C   UNL A   1      45.070  26.926  26.607  1.00  0.00     0.074 A 
ATOM     58  C   UNL A   1      45.056  25.562  26.123  1.00  0.00     0.031 C 
ATOM     59  C   UNL A   1      46.074  27.807  26.377  1.00  0.00     0.037 A 
BRANCH  46  60
ATOM     60  C   UNL A   1      45.140  33.374  28.868  1.00  0.00     0.057 A 
ATOM     61  C   UNL A   1      45.987  33.689  29.937  1.00  0.00     0.134 A 
ATOM     62  C   UNL A   1      44.818  34.402  27.973  1.00  0.00     0.134 A 
ATOM     63  F   UNL A   1      46.323  32.753  30.836  1.00  0.00    -0.206 F 
ATOM     64  C   UNL A   1      46.480  34.983  30.119  1.00  0.00     0.040 A 
ATOM     65  C   UNL A   1      45.322  35.693  28.130  1.00  0.00     0.040 A 
ATOM     66  F   UNL A   1      44.016  34.164  26.923  1.00  0.00    -0.206 F 
ATOM     67  C   UNL A   1      46.152  35.987  29.209  1.00  0.00     0.006 A 
ENDBRANCH  46  60
BRANCH  47  68
ATOM     68  C   UNL A   1      41.329  24.264  27.593  1.00  0.00     0.057 A 
ATOM     69  C   UNL A   1      41.789  23.169  28.334  1.00  0.00     0.134 A 
ATOM     70  C   UNL A   1      40.324  24.028  26.647  1.00  0.00     0.134 A 
ATOM     71  F   UNL A   1      42.769  23.327  29.235  1.00  0.00    -0.206 F 
ATOM     72  C   UNL A   1      41.272  21.887  28.138  1.00  0.00     0.040 A 
ATOM     73  C   UNL A   1      39.782  22.757  26.458  1.00  0.00     0.040 A 
ATOM     74  F   UNL A   1      39.845  25.036  25.904  1.00  0.00    -0.206 F 
ATOM     75  C   UNL A   1      40.261  21.680  27.202  1.00  0.00     0.006 A 
ENDBRANCH  47  68
BRANCH  59  76
ATOM     76  C   UNL A   1      47.249  27.312  25.587  1.00  0.00     0.057 A 
ATOM     77  C   UNL A   1      47.355  27.542  24.209  1.00  0.00     0.134 A 
ATOM     78  C   UNL A   1      48.296  26.627  26.215  1.00  0.00     0.134 A 
ATOM     79  F   UNL A   1      46.379  28.182  23.550  1.00  0.00    -0.206 F 
ATOM     80  C   UNL A   1      48.457  27.090  23.480  1.00  0.00     0.040 A 
ATOM     81  C   UNL A   1      49.410  26.188  25.499  1.00  0.00     0.040 A 
ATOM     82  F   UNL A   1      48.255  26.381  27.532  1.00  0.00    -0.206 F 
ATOM     83  C   UNL A   1      49.490  26.415  24.126  1.00  0.00     0.006 A 
ENDBRANCH  59  76
ENDBRANCH  33  34
ENDBRANCH  26  28
ENDBRANCH  25  26
ENDBRANCH  24  25
ENDBRANCH   1  24
TORSDOF 15
ENDMDL
