MODEL 1
REMARK VINA RESULT:     -12.3      0.000      0.000
REMARK SMILES O=C(OCCOC(=O)[C@H]1CC=CC[C@H]1C(=O)N[C@@H]1CCN(c2cccc(Cl)c2)C1)c1ccc(-c2c3nc(c(-c4c(F)cccc4F)c4ccc([nH]4)c(-c4c(F)cccc4F)c4nc(c(-c5c(F)cccc5F)c5ccc2[nH]5)C=C4)C=C3)cc1
REMARK SMILES IDX 5 1 4 2 3 3 2 4 1 5 30 6 31 7 83 8 32 9 82 10 33 11 34 12
REMARK SMILES IDX 35 13 76 14 36 15 81 16 75 17 77 18 37 19 80 20 74 21 73 22
REMARK SMILES IDX 38 24 64 25 47 26 63 27 48 28 51 29 62 30 78 31 49 32 50 33
REMARK SMILES IDX 61 35 79 36 52 37 39 38 40 39 45 40 41 41 42 42 44 43 46 44
REMARK SMILES IDX 43 45 65 46 66 47 71 48 67 49 68 50 70 51 72 52 69 53 53 54
REMARK SMILES IDX 54 55 59 56 55 57 56 58 58 59 60 60 57 61 6 62 7 63 8 64
REMARK SMILES IDX 9 65 10 66 14 67 11 68 13 69 12 70 15 71 16 72 17 73 18 75
REMARK SMILES IDX 19 76 29 77 20 78 21 79 22 80 23 81 28 82 24 83 26 84 25 85
REMARK SMILES IDX 27 86
REMARK H PARENT 77 23 51 34 17 74
REMARK Flexibility Score: inf
ROOT
ATOM      1  C   UNL A   1      31.856  28.502  27.128  1.00  0.00     0.274 C 
ENDROOT
BRANCH   1   2
ATOM      2  C   UNL A   1      33.323  28.950  27.145  1.00  0.00     0.275 C 
BRANCH   2   3
ATOM      3  O   UNL A   1      33.612  30.355  27.042  1.00  0.00    -0.458 OA
BRANCH   3   4
ATOM      4  C   UNL A   1      34.449  31.054  27.846  1.00  0.00     0.338 C 
ATOM      5  O   UNL A   1      34.254  32.229  28.137  1.00  0.00    -0.246 OA
BRANCH   4   6
ATOM      6  C   UNL A   1      35.715  30.415  28.253  1.00  0.00     0.060 A 
ATOM      7  C   UNL A   1      35.899  29.882  29.530  1.00  0.00     0.016 A 
ATOM      8  C   UNL A   1      36.751  30.366  27.310  1.00  0.00     0.016 A 
ATOM      9  C   UNL A   1      37.067  29.192  29.830  1.00  0.00     0.010 A 
ATOM     10  C   UNL A   1      37.935  29.699  27.619  1.00  0.00     0.010 A 
ATOM     11  C   UNL A   1      38.090  29.101  28.880  1.00  0.00    -0.014 A 
BRANCH  11  12
ATOM     12  C   UNL A   1      39.408  28.606  29.319  1.00  0.00     0.031 A 
ATOM     13  C   UNL A   1      40.101  29.397  30.382  1.00  0.00     0.074 A 
ATOM     14  C   UNL A   1      39.931  27.451  28.874  1.00  0.00     0.049 A 
ATOM     15  N   UNL A   1      41.110  29.042  31.127  1.00  0.00    -0.248 NA
ATOM     16  C   UNL A   1      39.535  30.719  30.705  1.00  0.00     0.031 C 
ATOM     17  C   UNL A   1      39.307  26.538  27.923  1.00  0.00     0.029 A 
ATOM     18  N   UNL A   1      41.131  26.854  29.158  1.00  0.00    -0.354 N 
ATOM     19  C   UNL A   1      41.202  30.026  32.097  1.00  0.00     0.074 A 
ATOM     20  C   UNL A   1      40.243  31.057  31.769  1.00  0.00     0.031 C 
ATOM     21  C   UNL A   1      40.183  25.576  27.588  1.00  0.00     0.029 A 
ATOM     22  C   UNL A   1      41.390  25.749  28.384  1.00  0.00     0.049 A 
ATOM     23  H   UNL A   1      41.748  27.184  29.849  1.00  0.00     0.167 HD
ATOM     24  C   UNL A   1      41.967  30.019  33.209  1.00  0.00     0.037 A 
ATOM     25  C   UNL A   1      42.470  24.948  28.355  1.00  0.00     0.037 A 
ATOM     26  C   UNL A   1      42.990  29.045  33.458  1.00  0.00     0.049 A 
ATOM     27  C   UNL A   1      43.484  25.103  29.453  1.00  0.00     0.074 A 
ATOM     28  C   UNL A   1      43.879  28.970  34.511  1.00  0.00     0.029 A 
ATOM     29  N   UNL A   1      43.284  27.993  32.600  1.00  0.00    -0.354 N 
ATOM     30  N   UNL A   1      43.496  25.965  30.442  1.00  0.00    -0.248 NA
ATOM     31  C   UNL A   1      44.579  24.127  29.487  1.00  0.00     0.031 C 
ATOM     32  C   UNL A   1      44.748  27.899  34.263  1.00  0.00     0.029 A 
ATOM     33  C   UNL A   1      44.371  27.284  33.078  1.00  0.00     0.049 A 
ATOM     34  H   UNL A   1      42.793  27.783  31.773  1.00  0.00     0.167 HD
ATOM     35  C   UNL A   1      44.554  25.595  31.256  1.00  0.00     0.074 A 
ATOM     36  C   UNL A   1      45.172  24.439  30.632  1.00  0.00     0.031 C 
ATOM     37  C   UNL A   1      44.961  26.139  32.431  1.00  0.00     0.037 A 
BRANCH  24  38
ATOM     38  C   UNL A   1      41.682  31.094  34.207  1.00  0.00     0.057 A 
ATOM     39  C   UNL A   1      42.355  32.324  34.146  1.00  0.00     0.134 A 
ATOM     40  C   UNL A   1      40.791  30.892  35.263  1.00  0.00     0.134 A 
ATOM     41  F   UNL A   1      43.248  32.564  33.173  1.00  0.00    -0.206 F 
ATOM     42  C   UNL A   1      42.166  33.308  35.116  1.00  0.00     0.040 A 
ATOM     43  C   UNL A   1      40.582  31.875  36.233  1.00  0.00     0.040 A 
ATOM     44  F   UNL A   1      40.134  29.729  35.386  1.00  0.00    -0.206 F 
ATOM     45  C   UNL A   1      41.275  33.084  36.163  1.00  0.00     0.006 A 
ENDBRANCH  24  38
BRANCH  25  46
ATOM     46  C   UNL A   1      42.603  23.901  27.314  1.00  0.00     0.057 A 
ATOM     47  C   UNL A   1      42.139  22.596  27.508  1.00  0.00     0.134 A 
ATOM     48  C   UNL A   1      43.226  24.186  26.092  1.00  0.00     0.134 A 
ATOM     49  F   UNL A   1      41.540  22.258  28.659  1.00  0.00    -0.206 F 
ATOM     50  C   UNL A   1      42.313  21.605  26.538  1.00  0.00     0.040 A 
ATOM     51  C   UNL A   1      43.394  23.210  25.107  1.00  0.00     0.040 A 
ATOM     52  F   UNL A   1      43.689  25.420  25.840  1.00  0.00    -0.206 F 
ATOM     53  C   UNL A   1      42.942  21.912  25.333  1.00  0.00     0.006 A 
ENDBRANCH  25  46
BRANCH  37  54
ATOM     54  C   UNL A   1      46.104  25.465  33.123  1.00  0.00     0.057 A 
ATOM     55  C   UNL A   1      45.902  24.418  34.029  1.00  0.00     0.134 A 
ATOM     56  C   UNL A   1      47.423  25.853  32.856  1.00  0.00     0.134 A 
ATOM     57  F   UNL A   1      44.660  24.015  34.337  1.00  0.00    -0.206 F 
ATOM     58  C   UNL A   1      46.975  23.795  34.666  1.00  0.00     0.040 A 
ATOM     59  C   UNL A   1      48.503  25.219  33.466  1.00  0.00     0.040 A 
ATOM     60  F   UNL A   1      47.679  26.846  31.991  1.00  0.00    -0.206 F 
ATOM     61  C   UNL A   1      48.280  24.191  34.379  1.00  0.00     0.006 A 
ENDBRANCH  37  54
ENDBRANCH  11  12
ENDBRANCH   4   6
ENDBRANCH   3   4
ENDBRANCH   2   3
ENDBRANCH   1   2
BRANCH   1  62
ATOM     62  O   UNL A   1      31.264  28.002  25.917  1.00  0.00    -0.462 OA
BRANCH  62  63
ATOM     63  C   UNL A   1      30.937  26.682  25.887  1.00  0.00     0.310 C 
ATOM     64  O   UNL A   1      30.972  25.959  26.873  1.00  0.00    -0.252 OA
BRANCH  63  65
ATOM     65  C   UNL A   1      30.527  26.165  24.510  1.00  0.00     0.115 C 
ATOM     66  C   UNL A   1      29.206  26.735  23.982  1.00  0.00     0.043 C 
ATOM     67  C   UNL A   1      31.631  26.185  23.429  1.00  0.00     0.096 C 
ATOM     68  C   UNL A   1      29.335  27.956  23.129  1.00  0.00    -0.030 C 
ATOM     69  C   UNL A   1      31.655  27.375  22.454  1.00  0.00     0.041 C 
ATOM     70  C   UNL A   1      30.445  28.245  22.447  1.00  0.00    -0.030 C 
BRANCH  67  71
ATOM     71  C   UNL A   1      33.045  25.830  23.890  1.00  0.00     0.224 C 
ATOM     72  O   UNL A   1      33.907  26.713  23.930  1.00  0.00    -0.275 OA
ATOM     73  N   UNL A   1      33.410  24.585  24.302  1.00  0.00    -0.351 N 
ATOM     74  H   UNL A   1      34.295  24.547  24.733  1.00  0.00     0.163 HD
BRANCH  73  75
ATOM     75  C   UNL A   1      32.729  23.299  24.222  1.00  0.00     0.103 C 
ATOM     76  C   UNL A   1      32.050  22.851  25.520  1.00  0.00     0.048 C 
ATOM     77  C   UNL A   1      33.666  22.118  23.870  1.00  0.00     0.141 C 
ATOM     78  C   UNL A   1      32.204  21.329  25.571  1.00  0.00     0.119 C 
ATOM     79  N   UNL A   1      32.875  20.983  24.323  1.00  0.00    -0.369 N 
BRANCH  79  80
ATOM     80  C   UNL A   1      33.077  19.670  23.976  1.00  0.00     0.038 A 
ATOM     81  C   UNL A   1      32.330  19.098  22.930  1.00  0.00     0.026 A 
ATOM     82  C   UNL A   1      34.013  18.853  24.616  1.00  0.00     0.046 A 
ATOM     83  C   UNL A   1      32.484  17.762  22.554  1.00  0.00     0.004 A 
ATOM     84  C   UNL A   1      34.151  17.507  24.262  1.00  0.00     0.043 A 
ATOM     85  C   UNL A   1      33.389  16.957  23.233  1.00  0.00     0.020 A 
ATOM     86  Cl  UNL A   1      35.260  16.506  25.118  1.00  0.00    -0.084 Cl
ENDBRANCH  79  80
ENDBRANCH  73  75
ENDBRANCH  67  71
ENDBRANCH  63  65
ENDBRANCH  62  63
ENDBRANCH   1  62
TORSDOF 14
ENDMDL
MODEL 2
REMARK VINA RESULT:     -12.2      1.357      2.118
REMARK SMILES O=C(OCCOC(=O)[C@H]1CC=CC[C@H]1C(=O)N[C@@H]1CCN(c2cccc(Cl)c2)C1)c1ccc(-c2c3nc(c(-c4c(F)cccc4F)c4ccc([nH]4)c(-c4c(F)cccc4F)c4nc(c(-c5c(F)cccc5F)c5ccc2[nH]5)C=C4)C=C3)cc1
REMARK SMILES IDX 5 1 4 2 3 3 2 4 1 5 30 6 31 7 83 8 32 9 82 10 33 11 34 12
REMARK SMILES IDX 35 13 76 14 36 15 81 16 75 17 77 18 37 19 80 20 74 21 73 22
REMARK SMILES IDX 38 24 64 25 47 26 63 27 48 28 51 29 62 30 78 31 49 32 50 33
REMARK SMILES IDX 61 35 79 36 52 37 39 38 40 39 45 40 41 41 42 42 44 43 46 44
REMARK SMILES IDX 43 45 65 46 66 47 71 48 67 49 68 50 70 51 72 52 69 53 53 54
REMARK SMILES IDX 54 55 59 56 55 57 56 58 58 59 60 60 57 61 6 62 7 63 8 64
REMARK SMILES IDX 9 65 10 66 14 67 11 68 13 69 12 70 15 71 16 72 17 73 18 75
REMARK SMILES IDX 19 76 29 77 20 78 21 79 22 80 23 81 28 82 24 83 26 84 25 85
REMARK SMILES IDX 27 86
REMARK H PARENT 77 23 51 34 17 74
REMARK Flexibility Score: inf
ROOT
ATOM      1  C   UNL A   1      31.724  29.085  27.250  1.00  0.00     0.274 C 
ENDROOT
BRANCH   1   2
ATOM      2  C   UNL A   1      32.391  30.355  26.705  1.00  0.00     0.275 C 
BRANCH   2   3
ATOM      3  O   UNL A   1      33.821  30.473  26.797  1.00  0.00    -0.458 OA
BRANCH   3   4
ATOM      4  C   UNL A   1      34.508  30.996  27.841  1.00  0.00     0.338 C 
ATOM      5  O   UNL A   1      34.192  32.053  28.375  1.00  0.00    -0.246 OA
BRANCH   4   6
ATOM      6  C   UNL A   1      35.768  30.339  28.241  1.00  0.00     0.060 A 
ATOM      7  C   UNL A   1      35.913  29.705  29.476  1.00  0.00     0.016 A 
ATOM      8  C   UNL A   1      36.837  30.381  27.336  1.00  0.00     0.016 A 
ATOM      9  C   UNL A   1      37.079  29.006  29.762  1.00  0.00     0.010 A 
ATOM     10  C   UNL A   1      38.019  29.703  27.633  1.00  0.00     0.010 A 
ATOM     11  C   UNL A   1      38.137  29.005  28.846  1.00  0.00    -0.014 A 
BRANCH  11  12
ATOM     12  C   UNL A   1      39.445  28.491  29.291  1.00  0.00     0.031 A 
ATOM     13  C   UNL A   1      40.152  29.279  30.347  1.00  0.00     0.074 A 
ATOM     14  C   UNL A   1      39.948  27.322  28.858  1.00  0.00     0.049 A 
ATOM     15  N   UNL A   1      41.153  28.913  31.097  1.00  0.00    -0.248 NA
ATOM     16  C   UNL A   1      39.610  30.614  30.656  1.00  0.00     0.031 C 
ATOM     17  C   UNL A   1      39.308  26.412  27.915  1.00  0.00     0.029 A 
ATOM     18  N   UNL A   1      41.136  26.705  29.148  1.00  0.00    -0.354 N 
ATOM     19  C   UNL A   1      41.262  29.905  32.056  1.00  0.00     0.074 A 
ATOM     20  C   UNL A   1      40.323  30.950  31.718  1.00  0.00     0.031 C 
ATOM     21  C   UNL A   1      40.167  25.430  27.590  1.00  0.00     0.029 A 
ATOM     22  C   UNL A   1      41.376  25.589  28.386  1.00  0.00     0.049 A 
ATOM     23  H   UNL A   1      41.759  27.031  29.838  1.00  0.00     0.167 HD
ATOM     24  C   UNL A   1      42.026  29.895  33.170  1.00  0.00     0.037 A 
ATOM     25  C   UNL A   1      42.441  24.768  28.366  1.00  0.00     0.037 A 
ATOM     26  C   UNL A   1      43.031  28.904  33.429  1.00  0.00     0.049 A 
ATOM     27  C   UNL A   1      43.456  24.915  29.463  1.00  0.00     0.074 A 
ATOM     28  C   UNL A   1      43.917  28.823  34.485  1.00  0.00     0.029 A 
ATOM     29  N   UNL A   1      43.307  27.839  32.582  1.00  0.00    -0.354 N 
ATOM     30  N   UNL A   1      43.484  25.786  30.444  1.00  0.00    -0.248 NA
ATOM     31  C   UNL A   1      44.534  23.920  29.509  1.00  0.00     0.031 C 
ATOM     32  C   UNL A   1      44.767  27.735  34.248  1.00  0.00     0.029 A 
ATOM     33  C   UNL A   1      44.379  27.115  33.068  1.00  0.00     0.049 A 
ATOM     34  H   UNL A   1      42.812  27.630  31.757  1.00  0.00     0.167 HD
ATOM     35  C   UNL A   1      44.534  25.405  31.263  1.00  0.00     0.074 A 
ATOM     36  C   UNL A   1      45.131  24.232  30.651  1.00  0.00     0.031 C 
ATOM     37  C   UNL A   1      44.949  25.953  32.432  1.00  0.00     0.037 A 
BRANCH  24  38
ATOM     38  C   UNL A   1      41.759  30.984  34.157  1.00  0.00     0.057 A 
ATOM     39  C   UNL A   1      42.500  32.176  34.125  1.00  0.00     0.134 A 
ATOM     40  C   UNL A   1      40.818  30.831  35.177  1.00  0.00     0.134 A 
ATOM     41  F   UNL A   1      43.442  32.367  33.188  1.00  0.00    -0.206 F 
ATOM     42  C   UNL A   1      42.325  33.170  35.088  1.00  0.00     0.040 A 
ATOM     43  C   UNL A   1      40.624  31.825  36.138  1.00  0.00     0.040 A 
ATOM     44  F   UNL A   1      40.095  29.705  35.272  1.00  0.00    -0.206 F 
ATOM     45  C   UNL A   1      41.382  32.994  36.098  1.00  0.00     0.006 A 
ENDBRANCH  24  38
BRANCH  25  46
ATOM     46  C   UNL A   1      42.556  23.708  27.335  1.00  0.00     0.057 A 
ATOM     47  C   UNL A   1      42.022  22.429  27.520  1.00  0.00     0.134 A 
ATOM     48  C   UNL A   1      43.232  23.955  26.132  1.00  0.00     0.134 A 
ATOM     49  F   UNL A   1      41.370  22.129  28.653  1.00  0.00    -0.206 F 
ATOM     50  C   UNL A   1      42.178  21.425  26.562  1.00  0.00     0.040 A 
ATOM     51  C   UNL A   1      43.383  22.965  25.159  1.00  0.00     0.040 A 
ATOM     52  F   UNL A   1      43.763  25.162  25.890  1.00  0.00    -0.206 F 
ATOM     53  C   UNL A   1      42.861  21.692  25.376  1.00  0.00     0.006 A 
ENDBRANCH  25  46
BRANCH  37  54
ATOM     54  C   UNL A   1      46.079  25.265  33.133  1.00  0.00     0.057 A 
ATOM     55  C   UNL A   1      45.860  24.207  34.022  1.00  0.00     0.134 A 
ATOM     56  C   UNL A   1      47.403  25.651  32.890  1.00  0.00     0.134 A 
ATOM     57  F   UNL A   1      44.612  23.806  34.306  1.00  0.00    -0.206 F 
ATOM     58  C   UNL A   1      46.920  23.571  34.666  1.00  0.00     0.040 A 
ATOM     59  C   UNL A   1      48.472  25.004  33.508  1.00  0.00     0.040 A 
ATOM     60  F   UNL A   1      47.677  26.655  32.043  1.00  0.00    -0.206 F 
ATOM     61  C   UNL A   1      48.231  23.965  34.404  1.00  0.00     0.006 A 
ENDBRANCH  37  54
ENDBRANCH  11  12
ENDBRANCH   4   6
ENDBRANCH   3   4
ENDBRANCH   2   3
ENDBRANCH   1   2
BRANCH   1  62
ATOM     62  O   UNL A   1      32.355  27.805  27.081  1.00  0.00    -0.462 OA
BRANCH  62  63
ATOM     63  C   UNL A   1      32.483  27.340  25.808  1.00  0.00     0.310 C 
ATOM     64  O   UNL A   1      33.515  26.847  25.374  1.00  0.00    -0.252 OA
BRANCH  63  65
ATOM     65  C   UNL A   1      31.228  27.492  24.952  1.00  0.00     0.115 C 
ATOM     66  C   UNL A   1      31.432  28.287  23.658  1.00  0.00     0.043 C 
ATOM     67  C   UNL A   1      30.421  26.197  24.706  1.00  0.00     0.096 C 
ATOM     68  C   UNL A   1      31.764  27.469  22.453  1.00  0.00    -0.030 C 
ATOM     69  C   UNL A   1      30.660  25.446  23.385  1.00  0.00     0.041 C 
ATOM     70  C   UNL A   1      31.420  26.184  22.336  1.00  0.00    -0.030 C 
BRANCH  67  71
ATOM     71  C   UNL A   1      30.324  25.221  25.879  1.00  0.00     0.224 C 
ATOM     72  O   UNL A   1      29.480  25.414  26.759  1.00  0.00    -0.275 OA
ATOM     73  N   UNL A   1      31.102  24.110  25.997  1.00  0.00    -0.351 N 
ATOM     74  H   UNL A   1      30.811  23.488  26.703  1.00  0.00     0.163 HD
BRANCH  73  75
ATOM     75  C   UNL A   1      32.286  23.673  25.267  1.00  0.00     0.103 C 
ATOM     76  C   UNL A   1      32.155  22.305  24.591  1.00  0.00     0.048 C 
ATOM     77  C   UNL A   1      33.546  23.527  26.155  1.00  0.00     0.141 C 
ATOM     78  C   UNL A   1      33.537  21.654  24.690  1.00  0.00     0.119 C 
ATOM     79  N   UNL A   1      34.376  22.662  25.329  1.00  0.00    -0.369 N 
BRANCH  79  80
ATOM     80  C   UNL A   1      35.726  22.459  25.477  1.00  0.00     0.038 A 
ATOM     81  C   UNL A   1      36.554  23.522  25.882  1.00  0.00     0.026 A 
ATOM     82  C   UNL A   1      36.335  21.223  25.248  1.00  0.00     0.046 A 
ATOM     83  C   UNL A   1      37.935  23.372  26.026  1.00  0.00     0.004 A 
ATOM     84  C   UNL A   1      37.722  21.074  25.364  1.00  0.00     0.043 A 
ATOM     85  C   UNL A   1      38.525  22.144  25.751  1.00  0.00     0.020 A 
ATOM     86  Cl  UNL A   1      38.453  19.557  25.004  1.00  0.00    -0.084 Cl
ENDBRANCH  79  80
ENDBRANCH  73  75
ENDBRANCH  67  71
ENDBRANCH  63  65
ENDBRANCH  62  63
ENDBRANCH   1  62
TORSDOF 14
ENDMDL
MODEL 3
REMARK VINA RESULT:     -12.2     11.020     15.383
REMARK SMILES O=C(OCCOC(=O)[C@H]1CC=CC[C@H]1C(=O)N[C@@H]1CCN(c2cccc(Cl)c2)C1)c1ccc(-c2c3nc(c(-c4c(F)cccc4F)c4ccc([nH]4)c(-c4c(F)cccc4F)c4nc(c(-c5c(F)cccc5F)c5ccc2[nH]5)C=C4)C=C3)cc1
REMARK SMILES IDX 5 1 4 2 3 3 2 4 1 5 30 6 31 7 83 8 32 9 82 10 33 11 34 12
REMARK SMILES IDX 35 13 76 14 36 15 81 16 75 17 77 18 37 19 80 20 74 21 73 22
REMARK SMILES IDX 38 24 64 25 47 26 63 27 48 28 51 29 62 30 78 31 49 32 50 33
REMARK SMILES IDX 61 35 79 36 52 37 39 38 40 39 45 40 41 41 42 42 44 43 46 44
REMARK SMILES IDX 43 45 65 46 66 47 71 48 67 49 68 50 70 51 72 52 69 53 53 54
REMARK SMILES IDX 54 55 59 56 55 57 56 58 58 59 60 60 57 61 6 62 7 63 8 64
REMARK SMILES IDX 9 65 10 66 14 67 11 68 13 69 12 70 15 71 16 72 17 73 18 75
REMARK SMILES IDX 19 76 29 77 20 78 21 79 22 80 23 81 28 82 24 83 26 84 25 85
REMARK SMILES IDX 27 86
REMARK H PARENT 77 23 51 34 17 74
REMARK Flexibility Score: inf
ROOT
ATOM      1  C   UNL A   1      44.793  40.634  25.869  1.00  0.00     0.274 C 
ENDROOT
BRANCH   1   2
ATOM      2  C   UNL A   1      45.641  39.383  26.136  1.00  0.00     0.275 C 
BRANCH   2   3
ATOM      3  O   UNL A   1      45.016  38.252  26.766  1.00  0.00    -0.458 OA
BRANCH   3   4
ATOM      4  C   UNL A   1      45.476  37.599  27.860  1.00  0.00     0.338 C 
ATOM      5  O   UNL A   1      46.266  38.107  28.647  1.00  0.00    -0.246 OA
BRANCH   4   6
ATOM      6  C   UNL A   1      45.125  36.174  28.016  1.00  0.00     0.060 A 
ATOM      7  C   UNL A   1      45.787  35.342  28.921  1.00  0.00     0.016 A 
ATOM      8  C   UNL A   1      44.100  35.666  27.207  1.00  0.00     0.016 A 
ATOM      9  C   UNL A   1      45.347  34.038  29.112  1.00  0.00     0.010 A 
ATOM     10  C   UNL A   1      43.676  34.348  27.376  1.00  0.00     0.010 A 
ATOM     11  C   UNL A   1      44.295  33.534  28.339  1.00  0.00    -0.014 A 
BRANCH  11  12
ATOM     12  C   UNL A   1      44.039  32.083  28.371  1.00  0.00     0.031 A 
ATOM     13  C   UNL A   1      42.867  31.626  29.180  1.00  0.00     0.074 A 
ATOM     14  C   UNL A   1      44.747  31.208  27.637  1.00  0.00     0.049 A 
ATOM     15  N   UNL A   1      42.267  30.469  29.155  1.00  0.00    -0.248 NA
ATOM     16  C   UNL A   1      42.240  32.623  30.066  1.00  0.00     0.031 C 
ATOM     17  C   UNL A   1      45.839  31.538  26.729  1.00  0.00     0.029 A 
ATOM     18  N   UNL A   1      44.659  29.843  27.556  1.00  0.00    -0.354 N 
ATOM     19  C   UNL A   1      41.115  30.648  29.902  1.00  0.00     0.074 A 
ATOM     20  C   UNL A   1      41.165  31.972  30.478  1.00  0.00     0.031 C 
ATOM     21  C   UNL A   1      46.417  30.405  26.295  1.00  0.00     0.029 A 
ATOM     22  C   UNL A   1      45.664  29.272  26.814  1.00  0.00     0.049 A 
ATOM     23  H   UNL A   1      43.944  29.322  27.987  1.00  0.00     0.167 HD
ATOM     24  C   UNL A   1      40.070  29.801  30.021  1.00  0.00     0.037 A 
ATOM     25  C   UNL A   1      45.918  27.977  26.556  1.00  0.00     0.037 A 
ATOM     26  C   UNL A   1      40.088  28.452  29.535  1.00  0.00     0.049 A 
ATOM     27  C   UNL A   1      44.865  26.971  26.925  1.00  0.00     0.074 A 
ATOM     28  C   UNL A   1      39.121  27.473  29.656  1.00  0.00     0.029 A 
ATOM     29  N   UNL A   1      41.165  27.881  28.871  1.00  0.00    -0.354 N 
ATOM     30  N   UNL A   1      43.716  27.170  27.527  1.00  0.00    -0.248 NA
ATOM     31  C   UNL A   1      45.096  25.584  26.507  1.00  0.00     0.031 C 
ATOM     32  C   UNL A   1      39.637  26.291  29.107  1.00  0.00     0.029 A 
ATOM     33  C   UNL A   1      40.905  26.548  28.608  1.00  0.00     0.049 A 
ATOM     34  H   UNL A   1      41.992  28.354  28.622  1.00  0.00     0.167 HD
ATOM     35  C   UNL A   1      43.054  25.954  27.496  1.00  0.00     0.074 A 
ATOM     36  C   UNL A   1      43.942  25.017  26.833  1.00  0.00     0.031 C 
ATOM     37  C   UNL A   1      41.812  25.644  27.947  1.00  0.00     0.037 A 
BRANCH  24  38
ATOM     38  C   UNL A   1      38.851  30.354  30.686  1.00  0.00     0.057 A 
ATOM     39  C   UNL A   1      38.619  30.131  32.052  1.00  0.00     0.134 A 
ATOM     40  C   UNL A   1      37.879  31.050  29.965  1.00  0.00     0.134 A 
ATOM     41  F   UNL A   1      39.502  29.440  32.789  1.00  0.00    -0.206 F 
ATOM     42  C   UNL A   1      37.448  30.566  32.673  1.00  0.00     0.040 A 
ATOM     43  C   UNL A   1      36.709  31.503  30.579  1.00  0.00     0.040 A 
ATOM     44  F   UNL A   1      38.035  31.275  28.652  1.00  0.00    -0.206 F 
ATOM     45  C   UNL A   1      36.490  31.256  31.934  1.00  0.00     0.006 A 
ENDBRANCH  24  38
BRANCH  25  46
ATOM     46  C   UNL A   1      47.165  27.578  25.859  1.00  0.00     0.057 A 
ATOM     47  C   UNL A   1      47.256  27.534  24.464  1.00  0.00     0.134 A 
ATOM     48  C   UNL A   1      48.302  27.209  26.590  1.00  0.00     0.134 A 
ATOM     49  F   UNL A   1      46.200  27.869  23.709  1.00  0.00    -0.206 F 
ATOM     50  C   UNL A   1      48.422  27.112  23.820  1.00  0.00     0.040 A 
ATOM     51  C   UNL A   1      49.479  26.799  25.959  1.00  0.00     0.040 A 
ATOM     52  F   UNL A   1      48.283  27.234  27.931  1.00  0.00    -0.206 F 
ATOM     53  C   UNL A   1      49.538  26.742  24.569  1.00  0.00     0.006 A 
ENDBRANCH  25  46
BRANCH  37  54
ATOM     54  C   UNL A   1      41.339  24.245  27.702  1.00  0.00     0.057 A 
ATOM     55  C   UNL A   1      41.801  23.167  28.465  1.00  0.00     0.134 A 
ATOM     56  C   UNL A   1      40.388  23.982  26.708  1.00  0.00     0.134 A 
ATOM     57  F   UNL A   1      42.724  23.355  29.419  1.00  0.00    -0.206 F 
ATOM     58  C   UNL A   1      41.351  21.868  28.230  1.00  0.00     0.040 A 
ATOM     59  C   UNL A   1      39.911  22.692  26.483  1.00  0.00     0.040 A 
ATOM     60  F   UNL A   1      39.903  24.977  25.949  1.00  0.00    -0.206 F 
ATOM     61  C   UNL A   1      40.398  21.629  27.241  1.00  0.00     0.006 A 
ENDBRANCH  37  54
ENDBRANCH  11  12
ENDBRANCH   4   6
ENDBRANCH   3   4
ENDBRANCH   2   3
ENDBRANCH   1   2
BRANCH   1  62
ATOM     62  O   UNL A   1      45.151  41.543  24.815  1.00  0.00    -0.462 OA
BRANCH  62  63
ATOM     63  C   UNL A   1      44.142  42.240  24.228  1.00  0.00     0.310 C 
ATOM     64  O   UNL A   1      43.001  41.810  24.123  1.00  0.00    -0.252 OA
BRANCH  63  65
ATOM     65  C   UNL A   1      44.548  43.611  23.696  1.00  0.00     0.115 C 
ATOM     66  C   UNL A   1      44.991  44.608  24.772  1.00  0.00     0.043 C 
ATOM     67  C   UNL A   1      45.516  43.605  22.490  1.00  0.00     0.096 C 
ATOM     68  C   UNL A   1      46.459  44.637  25.049  1.00  0.00    -0.030 C 
ATOM     69  C   UNL A   1      47.015  43.794  22.778  1.00  0.00     0.041 C 
ATOM     70  C   UNL A   1      47.370  44.262  24.148  1.00  0.00    -0.030 C 
BRANCH  67  71
ATOM     71  C   UNL A   1      45.295  42.513  21.444  1.00  0.00     0.224 C 
ATOM     72  O   UNL A   1      46.031  41.521  21.440  1.00  0.00    -0.275 OA
ATOM     73  N   UNL A   1      44.296  42.548  20.521  1.00  0.00    -0.351 N 
ATOM     74  H   UNL A   1      44.168  41.702  20.032  1.00  0.00     0.163 HD
BRANCH  73  75
ATOM     75  C   UNL A   1      43.378  43.610  20.125  1.00  0.00     0.103 C 
ATOM     76  C   UNL A   1      42.123  43.132  19.388  1.00  0.00     0.048 C 
ATOM     77  C   UNL A   1      44.002  44.644  19.157  1.00  0.00     0.141 C 
ATOM     78  C   UNL A   1      41.807  44.214  18.353  1.00  0.00     0.119 C 
ATOM     79  N   UNL A   1      42.810  45.248  18.580  1.00  0.00    -0.369 N 
BRANCH  79  80
ATOM     80  C   UNL A   1      42.760  46.436  17.895  1.00  0.00     0.038 A 
ATOM     81  C   UNL A   1      41.907  46.571  16.785  1.00  0.00     0.026 A 
ATOM     82  C   UNL A   1      43.526  47.549  18.253  1.00  0.00     0.046 A 
ATOM     83  C   UNL A   1      41.836  47.751  16.042  1.00  0.00     0.004 A 
ATOM     84  C   UNL A   1      43.480  48.725  17.495  1.00  0.00     0.043 A 
ATOM     85  C   UNL A   1      42.639  48.830  16.391  1.00  0.00     0.020 A 
ATOM     86  Cl  UNL A   1      44.489  50.055  17.918  1.00  0.00    -0.084 Cl
ENDBRANCH  79  80
ENDBRANCH  73  75
ENDBRANCH  67  71
ENDBRANCH  63  65
ENDBRANCH  62  63
ENDBRANCH   1  62
TORSDOF 14
ENDMDL
