MODEL 1
REMARK VINA RESULT:     -11.0      0.000      0.000
REMARK SMILES CCC[C@@H]1C[N@@H+](Cc2cc(OC)c3c(c2)OCO3)C[C@H]1C(=O)OCCOC(=O)c1ccc(-c2c3nc(c(-c4c(F)cccc4F)c4ccc([nH]4)c(-c4c(F)cccc4F)c4nc(c(-c5c(F)cccc5F)c5ccc2[nH]5)C=C4)C=C3)cc1
REMARK SMILES IDX 24 1 23 2 21 3 22 4 20 5 4 6 5 7 6 8 19 9 3 11 2 12 1 13
REMARK SMILES IDX 7 14 8 15 9 16 15 17 10 18 14 19 13 20 16 21 18 22 17 23
REMARK SMILES IDX 11 24 12 25 25 26 26 27 27 28 28 29 29 30 30 31 82 32 31 33
REMARK SMILES IDX 81 34 32 35 33 36 34 37 75 38 35 39 80 40 74 41 76 42 36 43
REMARK SMILES IDX 79 44 73 45 72 46 37 48 63 49 46 50 62 51 47 52 50 53 61 54
REMARK SMILES IDX 77 55 48 56 49 57 60 59 78 60 51 61 38 62 39 63 44 64 40 65
REMARK SMILES IDX 41 66 43 67 45 68 42 69 64 70 65 71 70 72 66 73 67 74 69 75
REMARK SMILES IDX 71 76 68 77 52 78 53 79 58 80 54 81 55 82 57 83 59 84 56 85
REMARK H PARENT 6 10 76 47 50 58
REMARK Flexibility Score: inf
ROOT
ATOM      1  C   UNL A   1      31.776  30.905  26.748  1.00  0.00     0.274 C 
ENDROOT
BRANCH   1   2
ATOM      2  O   UNL A   1      31.414  30.485  25.413  1.00  0.00    -0.462 OA
BRANCH   2   3
ATOM      3  C   UNL A   1      31.984  29.347  24.954  1.00  0.00     0.315 C 
ATOM      4  O   UNL A   1      33.149  29.254  24.584  1.00  0.00    -0.252 OA
BRANCH   3   5
ATOM      5  C   UNL A   1      31.023  28.182  24.834  1.00  0.00     0.163 C 
ATOM      6  C   UNL A   1      30.394  27.826  23.480  1.00  0.00     0.064 C 
ATOM      7  C   UNL A   1      30.146  26.329  23.667  1.00  0.00     0.267 C 
ATOM      8  N   UNL A   1      31.307  25.825  24.402  1.00  0.00    -0.330 N 
ATOM      9  C   UNL A   1      31.778  26.919  25.257  1.00  0.00     0.278 C 
ATOM     10  H   UNL A   1      31.028  25.031  24.979  1.00  0.00     0.348 HD
BRANCH   6  11
ATOM     11  C   UNL A   1      29.112  28.597  23.131  1.00  0.00     0.010 C 
BRANCH  11  12
ATOM     12  C   UNL A   1      29.283  29.710  22.088  1.00  0.00    -0.003 C 
ATOM     13  C   UNL A   1      28.116  30.681  22.004  1.00  0.00     0.004 C 
ENDBRANCH  11  12
ENDBRANCH   6  11
BRANCH   8  14
ATOM     14  C   UNL A   1      32.346  25.199  23.568  1.00  0.00     0.299 C 
BRANCH  14  15
ATOM     15  C   UNL A   1      32.883  23.853  24.017  1.00  0.00     0.014 A 
ATOM     16  C   UNL A   1      34.263  23.558  23.961  1.00  0.00     0.060 A 
ATOM     17  C   UNL A   1      31.995  22.851  24.441  1.00  0.00     0.060 A 
ATOM     18  C   UNL A   1      34.760  22.278  24.261  1.00  0.00     0.165 A 
ATOM     19  C   UNL A   1      32.503  21.603  24.733  1.00  0.00     0.170 A 
ATOM     20  C   UNL A   1      33.847  21.312  24.645  1.00  0.00     0.207 A 
ATOM     21  O   UNL A   1      31.751  20.535  25.114  1.00  0.00    -0.453 OA
ATOM     22  O   UNL A   1      34.093  20.015  24.979  1.00  0.00    -0.450 OA
ATOM     23  C   UNL A   1      32.765  19.524  25.236  1.00  0.00     0.468 C 
BRANCH  18  24
ATOM     24  O   UNL A   1      36.112  22.141  24.118  1.00  0.00    -0.493 OA
ATOM     25  C   UNL A   1      36.739  22.940  23.123  1.00  0.00     0.278 C 
ENDBRANCH  18  24
ENDBRANCH  14  15
ENDBRANCH   8  14
ENDBRANCH   3   5
ENDBRANCH   2   3
ENDBRANCH   1   2
BRANCH   1  26
ATOM     26  C   UNL A   1      31.698  32.425  26.877  1.00  0.00     0.275 C 
BRANCH  26  27
ATOM     27  O   UNL A   1      33.023  32.971  26.914  1.00  0.00    -0.458 OA
BRANCH  27  28
ATOM     28  C   UNL A   1      33.274  33.784  27.970  1.00  0.00     0.338 C 
ATOM     29  O   UNL A   1      32.580  34.668  28.418  1.00  0.00    -0.246 OA
BRANCH  28  30
ATOM     30  C   UNL A   1      34.484  33.269  28.619  1.00  0.00     0.060 A 
ATOM     31  C   UNL A   1      34.386  32.084  29.349  1.00  0.00     0.016 A 
ATOM     32  C   UNL A   1      35.702  33.933  28.492  1.00  0.00     0.016 A 
ATOM     33  C   UNL A   1      35.500  31.544  29.970  1.00  0.00     0.010 A 
ATOM     34  C   UNL A   1      36.830  33.385  29.101  1.00  0.00     0.010 A 
ATOM     35  C   UNL A   1      36.728  32.193  29.839  1.00  0.00    -0.014 A 
BRANCH  35  36
ATOM     36  C   UNL A   1      37.908  31.635  30.520  1.00  0.00     0.031 A 
ATOM     37  C   UNL A   1      38.751  30.635  29.798  1.00  0.00     0.074 A 
ATOM     38  C   UNL A   1      38.205  32.041  31.765  1.00  0.00     0.049 A 
ATOM     39  N   UNL A   1      39.749  29.921  30.245  1.00  0.00    -0.248 NA
ATOM     40  C   UNL A   1      38.423  30.402  28.382  1.00  0.00     0.031 C 
ATOM     41  C   UNL A   1      37.477  33.066  32.516  1.00  0.00     0.029 A 
ATOM     42  N   UNL A   1      39.194  31.636  32.618  1.00  0.00    -0.354 N 
ATOM     43  C   UNL A   1      40.148  29.131  29.177  1.00  0.00     0.074 A 
ATOM     44  C   UNL A   1      39.283  29.447  28.061  1.00  0.00     0.031 C 
ATOM     45  C   UNL A   1      38.042  33.203  33.726  1.00  0.00     0.029 A 
ATOM     46  C   UNL A   1      39.134  32.244  33.848  1.00  0.00     0.049 A 
ATOM     47  H   UNL A   1      39.881  30.974  32.375  1.00  0.00     0.167 HD
ATOM     48  C   UNL A   1      41.147  28.219  29.145  1.00  0.00     0.037 A 
ATOM     49  C   UNL A   1      39.863  32.016  34.955  1.00  0.00     0.037 A 
ATOM     50  C   UNL A   1      41.999  27.931  30.266  1.00  0.00     0.049 A 
ATOM     51  C   UNL A   1      40.925  30.953  34.909  1.00  0.00     0.074 A 
ATOM     52  C   UNL A   1      43.046  27.032  30.349  1.00  0.00     0.029 A 
ATOM     53  N   UNL A   1      41.896  28.546  31.508  1.00  0.00    -0.354 N 
ATOM     54  N   UNL A   1      41.290  30.193  33.904  1.00  0.00    -0.248 NA
ATOM     55  C   UNL A   1      41.669  30.709  36.151  1.00  0.00     0.031 C 
ATOM     56  C   UNL A   1      43.551  27.075  31.654  1.00  0.00     0.029 A 
ATOM     57  C   UNL A   1      42.847  28.031  32.370  1.00  0.00     0.049 A 
ATOM     58  H   UNL A   1      41.243  29.244  31.739  1.00  0.00     0.167 HD
ATOM     59  C   UNL A   1      42.320  29.397  34.384  1.00  0.00     0.074 A 
ATOM     60  C   UNL A   1      42.528  29.775  35.767  1.00  0.00     0.031 C 
ATOM     61  C   UNL A   1      43.031  28.438  33.741  1.00  0.00     0.037 A 
BRANCH  48  62
ATOM     62  C   UNL A   1      41.326  27.445  27.873  1.00  0.00     0.057 A 
ATOM     63  C   UNL A   1      40.735  26.192  27.674  1.00  0.00     0.134 A 
ATOM     64  C   UNL A   1      42.109  27.964  26.835  1.00  0.00     0.134 A 
ATOM     65  F   UNL A   1      39.992  25.630  28.639  1.00  0.00    -0.206 F 
ATOM     66  C   UNL A   1      40.936  25.470  26.496  1.00  0.00     0.040 A 
ATOM     67  C   UNL A   1      42.299  27.262  25.643  1.00  0.00     0.040 A 
ATOM     68  F   UNL A   1      42.708  29.157  26.962  1.00  0.00    -0.206 F 
ATOM     69  C   UNL A   1      41.717  26.007  25.474  1.00  0.00     0.006 A 
ENDBRANCH  48  62
BRANCH  49  70
ATOM     70  C   UNL A   1      39.600  32.790  36.193  1.00  0.00     0.057 A 
ATOM     71  C   UNL A   1      38.659  32.352  37.132  1.00  0.00     0.134 A 
ATOM     72  C   UNL A   1      40.280  33.983  36.470  1.00  0.00     0.134 A 
ATOM     73  F   UNL A   1      37.962  31.227  36.913  1.00  0.00    -0.206 F 
ATOM     74  C   UNL A   1      38.396  33.076  38.296  1.00  0.00     0.040 A 
ATOM     75  C   UNL A   1      40.044  34.705  37.641  1.00  0.00     0.040 A 
ATOM     76  F   UNL A   1      41.196  34.456  35.612  1.00  0.00    -0.206 F 
ATOM     77  C   UNL A   1      39.094  34.254  38.555  1.00  0.00     0.006 A 
ENDBRANCH  49  70
BRANCH  61  78
ATOM     78  C   UNL A   1      44.118  27.765  34.521  1.00  0.00     0.057 A 
ATOM     79  C   UNL A   1      45.409  28.300  34.601  1.00  0.00     0.134 A 
ATOM     80  C   UNL A   1      43.856  26.586  35.230  1.00  0.00     0.134 A 
ATOM     81  F   UNL A   1      45.724  29.419  33.931  1.00  0.00    -0.206 F 
ATOM     82  C   UNL A   1      46.409  27.676  35.346  1.00  0.00     0.040 A 
ATOM     83  C   UNL A   1      44.841  25.967  35.999  1.00  0.00     0.040 A 
ATOM     84  F   UNL A   1      42.637  26.029  35.199  1.00  0.00    -0.206 F 
ATOM     85  C   UNL A   1      46.124  26.509  36.054  1.00  0.00     0.006 A 
ENDBRANCH  61  78
ENDBRANCH  35  36
ENDBRANCH  28  30
ENDBRANCH  27  28
ENDBRANCH  26  27
ENDBRANCH   1  26
TORSDOF 16
ENDMDL
MODEL 2
REMARK VINA RESULT:     -11.0      3.908      9.383
REMARK SMILES CCC[C@@H]1C[N@@H+](Cc2cc(OC)c3c(c2)OCO3)C[C@H]1C(=O)OCCOC(=O)c1ccc(-c2c3nc(c(-c4c(F)cccc4F)c4ccc([nH]4)c(-c4c(F)cccc4F)c4nc(c(-c5c(F)cccc5F)c5ccc2[nH]5)C=C4)C=C3)cc1
REMARK SMILES IDX 24 1 23 2 21 3 22 4 20 5 4 6 5 7 6 8 19 9 3 11 2 12 1 13
REMARK SMILES IDX 7 14 8 15 9 16 15 17 10 18 14 19 13 20 16 21 18 22 17 23
REMARK SMILES IDX 11 24 12 25 25 26 26 27 27 28 28 29 29 30 30 31 82 32 31 33
REMARK SMILES IDX 81 34 32 35 33 36 34 37 75 38 35 39 80 40 74 41 76 42 36 43
REMARK SMILES IDX 79 44 73 45 72 46 37 48 63 49 46 50 62 51 47 52 50 53 61 54
REMARK SMILES IDX 77 55 48 56 49 57 60 59 78 60 51 61 38 62 39 63 44 64 40 65
REMARK SMILES IDX 41 66 43 67 45 68 42 69 64 70 65 71 70 72 66 73 67 74 69 75
REMARK SMILES IDX 71 76 68 77 52 78 53 79 58 80 54 81 55 82 57 83 59 84 56 85
REMARK H PARENT 6 10 76 47 50 58
REMARK Flexibility Score: inf
ROOT
ATOM      1  C   UNL A   1      36.220  22.612  23.696  1.00  0.00     0.274 C 
ENDROOT
BRANCH   1   2
ATOM      2  O   UNL A   1      34.941  23.164  24.082  1.00  0.00    -0.462 OA
BRANCH   2   3
ATOM      3  C   UNL A   1      33.915  22.995  23.216  1.00  0.00     0.315 C 
ATOM      4  O   UNL A   1      33.939  23.330  22.036  1.00  0.00    -0.252 OA
BRANCH   3   5
ATOM      5  C   UNL A   1      32.660  22.433  23.851  1.00  0.00     0.163 C 
ATOM      6  C   UNL A   1      32.625  22.102  25.350  1.00  0.00     0.064 C 
ATOM      7  C   UNL A   1      31.136  22.275  25.644  1.00  0.00     0.267 C 
ATOM      8  N   UNL A   1      30.710  23.434  24.859  1.00  0.00    -0.330 N 
ATOM      9  C   UNL A   1      31.545  23.463  23.654  1.00  0.00     0.278 C 
ATOM     10  H   UNL A   1      29.729  23.329  24.597  1.00  0.00     0.348 HD
BRANCH   6  11
ATOM     11  C   UNL A   1      33.142  20.704  25.724  1.00  0.00     0.010 C 
BRANCH  11  12
ATOM     12  C   UNL A   1      32.552  19.549  24.904  1.00  0.00    -0.003 C 
ATOM     13  C   UNL A   1      33.586  18.646  24.251  1.00  0.00     0.004 C 
ENDBRANCH  11  12
ENDBRANCH   6  11
BRANCH   8  14
ATOM     14  C   UNL A   1      30.653  24.704  25.604  1.00  0.00     0.299 C 
BRANCH  14  15
ATOM     15  C   UNL A   1      30.500  25.978  24.797  1.00  0.00     0.014 A 
ATOM     16  C   UNL A   1      31.586  26.863  24.610  1.00  0.00     0.060 A 
ATOM     17  C   UNL A   1      29.246  26.329  24.272  1.00  0.00     0.060 A 
ATOM     18  C   UNL A   1      31.430  28.103  23.967  1.00  0.00     0.165 A 
ATOM     19  C   UNL A   1      29.114  27.549  23.642  1.00  0.00     0.170 A 
ATOM     20  C   UNL A   1      30.170  28.421  23.491  1.00  0.00     0.207 A 
ATOM     21  O   UNL A   1      27.950  28.028  23.126  1.00  0.00    -0.453 OA
ATOM     22  O   UNL A   1      29.783  29.555  22.843  1.00  0.00    -0.450 OA
ATOM     23  C   UNL A   1      28.377  29.315  22.651  1.00  0.00     0.468 C 
BRANCH  18  24
ATOM     24  O   UNL A   1      32.564  28.861  23.903  1.00  0.00    -0.493 OA
ATOM     25  C   UNL A   1      33.486  28.733  24.978  1.00  0.00     0.278 C 
ENDBRANCH  18  24
ENDBRANCH  14  15
ENDBRANCH   8  14
ENDBRANCH   3   5
ENDBRANCH   2   3
ENDBRANCH   1   2
BRANCH   1  26
ATOM     26  C   UNL A   1      36.562  21.391  24.547  1.00  0.00     0.275 C 
BRANCH  26  27
ATOM     27  O   UNL A   1      37.145  21.819  25.785  1.00  0.00    -0.458 OA
BRANCH  27  28
ATOM     28  C   UNL A   1      38.409  21.378  26.000  1.00  0.00     0.338 C 
ATOM     29  O   UNL A   1      38.878  20.291  25.751  1.00  0.00    -0.246 OA
BRANCH  28  30
ATOM     30  C   UNL A   1      39.193  22.542  26.429  1.00  0.00     0.060 A 
ATOM     31  C   UNL A   1      38.758  23.808  26.036  1.00  0.00     0.016 A 
ATOM     32  C   UNL A   1      40.325  22.388  27.224  1.00  0.00     0.016 A 
ATOM     33  C   UNL A   1      39.451  24.942  26.424  1.00  0.00     0.010 A 
ATOM     34  C   UNL A   1      41.017  23.527  27.632  1.00  0.00     0.010 A 
ATOM     35  C   UNL A   1      40.581  24.802  27.231  1.00  0.00    -0.014 A 
BRANCH  35  36
ATOM     36  C   UNL A   1      41.333  26.005  27.624  1.00  0.00     0.031 A 
ATOM     37  C   UNL A   1      40.649  27.046  28.449  1.00  0.00     0.074 A 
ATOM     38  C   UNL A   1      42.614  26.135  27.243  1.00  0.00     0.049 A 
ATOM     39  N   UNL A   1      41.071  28.232  28.795  1.00  0.00    -0.248 NA
ATOM     40  C   UNL A   1      39.306  26.709  28.948  1.00  0.00     0.031 C 
ATOM     41  C   UNL A   1      43.380  25.134  26.498  1.00  0.00     0.029 A 
ATOM     42  N   UNL A   1      43.494  27.166  27.425  1.00  0.00    -0.354 N 
ATOM     43  C   UNL A   1      40.035  28.797  29.523  1.00  0.00     0.074 A 
ATOM     44  C   UNL A   1      38.961  27.828  29.567  1.00  0.00     0.031 C 
ATOM     45  C   UNL A   1      44.618  25.606  26.279  1.00  0.00     0.029 A 
ATOM     46  C   UNL A   1      44.710  26.956  26.823  1.00  0.00     0.049 A 
ATOM     47  H   UNL A   1      43.277  27.978  27.937  1.00  0.00     0.167 HD
ATOM     48  C   UNL A   1      39.992  30.022  30.096  1.00  0.00     0.037 A 
ATOM     49  C   UNL A   1      45.762  27.785  26.701  1.00  0.00     0.037 A 
ATOM     50  C   UNL A   1      41.078  30.963  30.047  1.00  0.00     0.049 A 
ATOM     51  C   UNL A   1      45.663  29.163  27.294  1.00  0.00     0.074 A 
ATOM     52  C   UNL A   1      41.150  32.231  30.594  1.00  0.00     0.029 A 
ATOM     53  N   UNL A   1      42.288  30.730  29.407  1.00  0.00    -0.354 N 
ATOM     54  N   UNL A   1      44.676  29.704  27.967  1.00  0.00    -0.248 NA
ATOM     55  C   UNL A   1      46.818  30.049  27.102  1.00  0.00     0.031 C 
ATOM     56  C   UNL A   1      42.391  32.780  30.251  1.00  0.00     0.029 A 
ATOM     57  C   UNL A   1      43.107  31.839  29.527  1.00  0.00     0.049 A 
ATOM     58  H   UNL A   1      42.528  29.900  28.937  1.00  0.00     0.167 HD
ATOM     59  C   UNL A   1      45.097  30.983  28.299  1.00  0.00     0.074 A 
ATOM     60  C   UNL A   1      46.434  31.133  27.762  1.00  0.00     0.031 C 
ATOM     61  C   UNL A   1      44.439  31.950  28.986  1.00  0.00     0.037 A 
BRANCH  48  62
ATOM     62  C   UNL A   1      38.714  30.416  30.774  1.00  0.00     0.057 A 
ATOM     63  C   UNL A   1      38.475  30.148  32.127  1.00  0.00     0.134 A 
ATOM     64  C   UNL A   1      37.704  31.066  30.055  1.00  0.00     0.134 A 
ATOM     65  F   UNL A   1      39.393  29.506  32.866  1.00  0.00    -0.206 F 
ATOM     66  C   UNL A   1      37.267  30.493  32.736  1.00  0.00     0.040 A 
ATOM     67  C   UNL A   1      36.501  31.438  30.658  1.00  0.00     0.040 A 
ATOM     68  F   UNL A   1      37.867  31.348  28.754  1.00  0.00    -0.206 F 
ATOM     69  C   UNL A   1      36.278  31.145  32.002  1.00  0.00     0.006 A 
ENDBRANCH  48  62
BRANCH  49  70
ATOM     70  C   UNL A   1      46.980  27.343  25.977  1.00  0.00     0.057 A 
ATOM     71  C   UNL A   1      47.088  27.490  24.590  1.00  0.00     0.134 A 
ATOM     72  C   UNL A   1      48.064  26.765  26.651  1.00  0.00     0.134 A 
ATOM     73  F   UNL A   1      46.075  28.018  23.888  1.00  0.00    -0.206 F 
ATOM     74  C   UNL A   1      48.223  27.069  23.897  1.00  0.00     0.040 A 
ATOM     75  C   UNL A   1      49.215  26.361  25.973  1.00  0.00     0.040 A 
ATOM     76  F   UNL A   1      48.024  26.599  27.981  1.00  0.00    -0.206 F 
ATOM     77  C   UNL A   1      49.294  26.507  24.590  1.00  0.00     0.006 A 
ENDBRANCH  49  70
BRANCH  61  78
ATOM     78  C   UNL A   1      45.175  33.233  29.220  1.00  0.00     0.057 A 
ATOM     79  C   UNL A   1      45.059  34.320  28.346  1.00  0.00     0.134 A 
ATOM     80  C   UNL A   1      45.979  33.392  30.356  1.00  0.00     0.134 A 
ATOM     81  F   UNL A   1      44.316  34.221  27.234  1.00  0.00    -0.206 F 
ATOM     82  C   UNL A   1      45.733  35.518  28.584  1.00  0.00     0.040 A 
ATOM     83  C   UNL A   1      46.637  34.593  30.617  1.00  0.00     0.040 A 
ATOM     84  F   UNL A   1      46.123  32.389  31.235  1.00  0.00    -0.206 F 
ATOM     85  C   UNL A   1      46.519  35.659  29.727  1.00  0.00     0.006 A 
ENDBRANCH  61  78
ENDBRANCH  35  36
ENDBRANCH  28  30
ENDBRANCH  27  28
ENDBRANCH  26  27
ENDBRANCH   1  26
TORSDOF 16
ENDMDL
MODEL 3
REMARK VINA RESULT:     -11.0      4.337      9.682
REMARK SMILES CCC[C@@H]1C[N@@H+](Cc2cc(OC)c3c(c2)OCO3)C[C@H]1C(=O)OCCOC(=O)c1ccc(-c2c3nc(c(-c4c(F)cccc4F)c4ccc([nH]4)c(-c4c(F)cccc4F)c4nc(c(-c5c(F)cccc5F)c5ccc2[nH]5)C=C4)C=C3)cc1
REMARK SMILES IDX 24 1 23 2 21 3 22 4 20 5 4 6 5 7 6 8 19 9 3 11 2 12 1 13
REMARK SMILES IDX 7 14 8 15 9 16 15 17 10 18 14 19 13 20 16 21 18 22 17 23
REMARK SMILES IDX 11 24 12 25 25 26 26 27 27 28 28 29 29 30 30 31 82 32 31 33
REMARK SMILES IDX 81 34 32 35 33 36 34 37 75 38 35 39 80 40 74 41 76 42 36 43
REMARK SMILES IDX 79 44 73 45 72 46 37 48 63 49 46 50 62 51 47 52 50 53 61 54
REMARK SMILES IDX 77 55 48 56 49 57 60 59 78 60 51 61 38 62 39 63 44 64 40 65
REMARK SMILES IDX 41 66 43 67 45 68 42 69 64 70 65 71 70 72 66 73 67 74 69 75
REMARK SMILES IDX 71 76 68 77 52 78 53 79 58 80 54 81 55 82 57 83 59 84 56 85
REMARK H PARENT 6 10 76 47 50 58
REMARK Flexibility Score: inf
ROOT
ATOM      1  C   UNL A   1      37.996  20.732  25.129  1.00  0.00     0.274 C 
ENDROOT
BRANCH   1   2
ATOM      2  O   UNL A   1      36.667  20.171  25.034  1.00  0.00    -0.462 OA
BRANCH   2   3
ATOM      3  C   UNL A   1      35.640  20.957  25.433  1.00  0.00     0.315 C 
ATOM      4  O   UNL A   1      35.693  21.746  26.371  1.00  0.00    -0.252 OA
BRANCH   3   5
ATOM      5  C   UNL A   1      34.351  20.716  24.676  1.00  0.00     0.163 C 
ATOM      6  C   UNL A   1      33.222  19.884  25.303  1.00  0.00     0.064 C 
ATOM      7  C   UNL A   1      32.004  20.482  24.599  1.00  0.00     0.267 C 
ATOM      8  N   UNL A   1      32.265  21.919  24.510  1.00  0.00    -0.330 N 
ATOM      9  C   UNL A   1      33.719  22.082  24.399  1.00  0.00     0.278 C 
ATOM     10  H   UNL A   1      31.811  22.299  23.679  1.00  0.00     0.348 HD
BRANCH   6  11
ATOM     11  C   UNL A   1      33.336  18.366  25.097  1.00  0.00     0.010 C 
BRANCH  11  12
ATOM     12  C   UNL A   1      34.414  17.922  24.098  1.00  0.00    -0.003 C 
ATOM     13  C   UNL A   1      33.961  16.855  23.114  1.00  0.00     0.004 C 
ENDBRANCH  11  12
ENDBRANCH   6  11
BRANCH   8  14
ATOM     14  C   UNL A   1      31.629  22.733  25.560  1.00  0.00     0.299 C 
BRANCH  14  15
ATOM     15  C   UNL A   1      31.463  24.216  25.287  1.00  0.00     0.014 A 
ATOM     16  C   UNL A   1      31.393  25.153  26.342  1.00  0.00     0.060 A 
ATOM     17  C   UNL A   1      31.314  24.673  23.967  1.00  0.00     0.060 A 
ATOM     18  C   UNL A   1      31.122  26.512  26.110  1.00  0.00     0.165 A 
ATOM     19  C   UNL A   1      31.051  26.011  23.761  1.00  0.00     0.170 A 
ATOM     20  C   UNL A   1      30.952  26.914  24.797  1.00  0.00     0.207 A 
ATOM     21  O   UNL A   1      30.844  26.576  22.541  1.00  0.00    -0.453 OA
ATOM     22  O   UNL A   1      30.681  28.166  24.334  1.00  0.00    -0.450 OA
ATOM     23  C   UNL A   1      30.578  27.937  22.918  1.00  0.00     0.468 C 
BRANCH  18  24
ATOM     24  O   UNL A   1      31.045  27.280  27.237  1.00  0.00    -0.493 OA
ATOM     25  C   UNL A   1      32.128  28.167  27.487  1.00  0.00     0.278 C 
ENDBRANCH  18  24
ENDBRANCH  14  15
ENDBRANCH   8  14
ENDBRANCH   3   5
ENDBRANCH   2   3
ENDBRANCH   1   2
BRANCH   1  26
ATOM     26  C   UNL A   1      39.054  19.635  25.041  1.00  0.00     0.275 C 
BRANCH  26  27
ATOM     27  O   UNL A   1      39.825  19.616  26.250  1.00  0.00    -0.458 OA
BRANCH  27  28
ATOM     28  C   UNL A   1      41.168  19.670  26.069  1.00  0.00     0.338 C 
ATOM     29  O   UNL A   1      41.873  18.908  25.448  1.00  0.00    -0.246 OA
BRANCH  28  30
ATOM     30  C   UNL A   1      41.614  20.957  26.613  1.00  0.00     0.060 A 
ATOM     31  C   UNL A   1      41.848  22.003  25.719  1.00  0.00     0.016 A 
ATOM     32  C   UNL A   1      41.776  21.137  27.984  1.00  0.00     0.016 A 
ATOM     33  C   UNL A   1      42.256  23.244  26.179  1.00  0.00     0.010 A 
ATOM     34  C   UNL A   1      42.170  22.389  28.454  1.00  0.00     0.010 A 
ATOM     35  C   UNL A   1      42.410  23.440  27.551  1.00  0.00    -0.014 A 
BRANCH  35  36
ATOM     36  C   UNL A   1      42.868  24.751  28.040  1.00  0.00     0.031 A 
ATOM     37  C   UNL A   1      41.850  25.789  28.384  1.00  0.00     0.074 A 
ATOM     38  C   UNL A   1      44.185  24.981  28.174  1.00  0.00     0.049 A 
ATOM     39  N   UNL A   1      42.025  27.042  28.703  1.00  0.00    -0.248 NA
ATOM     40  C   UNL A   1      40.443  25.358  28.360  1.00  0.00     0.031 C 
ATOM     41  C   UNL A   1      45.244  24.001  27.930  1.00  0.00     0.029 A 
ATOM     42  N   UNL A   1      44.854  26.116  28.544  1.00  0.00    -0.354 N 
ATOM     43  C   UNL A   1      40.752  27.561  28.886  1.00  0.00     0.074 A 
ATOM     44  C   UNL A   1      39.811  26.489  28.638  1.00  0.00     0.031 C 
ATOM     45  C   UNL A   1      46.434  24.581  28.149  1.00  0.00     0.029 A 
ATOM     46  C   UNL A   1      46.219  25.981  28.498  1.00  0.00     0.049 A 
ATOM     47  H   UNL A   1      44.401  26.947  28.816  1.00  0.00     0.167 HD
ATOM     48  C   UNL A   1      40.409  28.824  29.225  1.00  0.00     0.037 A 
ATOM     49  C   UNL A   1      47.180  26.904  28.685  1.00  0.00     0.037 A 
ATOM     50  C   UNL A   1      41.364  29.869  29.476  1.00  0.00     0.049 A 
ATOM     51  C   UNL A   1      46.768  28.315  28.999  1.00  0.00     0.074 A 
ATOM     52  C   UNL A   1      41.135  31.185  29.831  1.00  0.00     0.029 A 
ATOM     53  N   UNL A   1      42.742  29.707  29.396  1.00  0.00    -0.354 N 
ATOM     54  N   UNL A   1      45.563  28.809  29.154  1.00  0.00    -0.248 NA
ATOM     55  C   UNL A   1      47.847  29.298  29.155  1.00  0.00     0.031 C 
ATOM     56  C   UNL A   1      42.373  31.830  29.928  1.00  0.00     0.029 A 
ATOM     57  C   UNL A   1      43.375  30.905  29.675  1.00  0.00     0.049 A 
ATOM     58  H   UNL A   1      43.199  28.865  29.174  1.00  0.00     0.167 HD
ATOM     59  C   UNL A   1      45.738  30.153  29.448  1.00  0.00     0.074 A 
ATOM     60  C   UNL A   1      47.166  30.394  29.460  1.00  0.00     0.031 C 
ATOM     61  C   UNL A   1      44.803  31.106  29.686  1.00  0.00     0.037 A 
BRANCH  48  62
ATOM     62  C   UNL A   1      38.945  29.142  29.291  1.00  0.00     0.057 A 
ATOM     63  C   UNL A   1      38.215  29.047  30.482  1.00  0.00     0.134 A 
ATOM     64  C   UNL A   1      38.256  29.541  28.139  1.00  0.00     0.134 A 
ATOM     65  F   UNL A   1      38.811  28.647  31.615  1.00  0.00    -0.206 F 
ATOM     66  C   UNL A   1      36.845  29.316  30.520  1.00  0.00     0.040 A 
ATOM     67  C   UNL A   1      36.892  29.836  28.170  1.00  0.00     0.040 A 
ATOM     68  F   UNL A   1      38.895  29.647  26.965  1.00  0.00    -0.206 F 
ATOM     69  C   UNL A   1      36.181  29.717  29.362  1.00  0.00     0.006 A 
ENDBRANCH  48  62
BRANCH  49  70
ATOM     70  C   UNL A   1      48.610  26.527  28.560  1.00  0.00     0.057 A 
ATOM     71  C   UNL A   1      49.339  26.087  29.669  1.00  0.00     0.134 A 
ATOM     72  C   UNL A   1      49.281  26.597  27.332  1.00  0.00     0.134 A 
ATOM     73  F   UNL A   1      48.756  26.019  30.875  1.00  0.00    -0.206 F 
ATOM     74  C   UNL A   1      50.687  25.740  29.567  1.00  0.00     0.040 A 
ATOM     75  C   UNL A   1      50.622  26.230  27.210  1.00  0.00     0.040 A 
ATOM     76  F   UNL A   1      48.638  27.008  26.230  1.00  0.00    -0.206 F 
ATOM     77  C   UNL A   1      51.331  25.806  28.332  1.00  0.00     0.006 A 
ENDBRANCH  49  70
BRANCH  61  78
ATOM     78  C   UNL A   1      45.304  32.479  30.013  1.00  0.00     0.057 A 
ATOM     79  C   UNL A   1      45.615  32.858  31.324  1.00  0.00     0.134 A 
ATOM     80  C   UNL A   1      45.513  33.419  28.996  1.00  0.00     0.134 A 
ATOM     81  F   UNL A   1      45.421  32.007  32.342  1.00  0.00    -0.206 F 
ATOM     82  C   UNL A   1      46.100  34.133  31.616  1.00  0.00     0.040 A 
ATOM     83  C   UNL A   1      46.021  34.688  29.272  1.00  0.00     0.040 A 
ATOM     84  F   UNL A   1      45.241  33.112  27.719  1.00  0.00    -0.206 F 
ATOM     85  C   UNL A   1      46.311  35.049  30.586  1.00  0.00     0.006 A 
ENDBRANCH  61  78
ENDBRANCH  35  36
ENDBRANCH  28  30
ENDBRANCH  27  28
ENDBRANCH  26  27
ENDBRANCH   1  26
TORSDOF 16
ENDMDL
