MODEL 1
REMARK VINA RESULT:     -10.1      0.000      0.000
REMARK SMILES CC(C)[C@@H](NC(=O)[C@H]1CC[C@@H](C(C)C)CC1)C(=O)OCCOC(=O)c1ccc(-c2c3nc(c(-c4c(F)cccc4F)c4ccc([nH]4)c(-c4c(F)cccc4F)c4nc(c(-c5c(F)cccc5F)c5ccc2[nH]5)C=C4)C=C3)cc1
REMARK SMILES IDX 20 1 19 2 17 3 18 4 4 5 5 6 6 7 7 8 8 10 11 11 15 12 10 13
REMARK SMILES IDX 16 14 9 15 12 16 13 17 14 18 2 19 1 20 3 21 21 22 22 23
REMARK SMILES IDX 23 24 24 25 25 26 26 27 78 28 27 29 77 30 28 31 29 32 30 33
REMARK SMILES IDX 71 34 31 35 76 36 70 37 72 38 32 39 75 40 69 41 68 42 33 44
REMARK SMILES IDX 59 45 42 46 58 47 43 48 46 49 57 50 73 51 44 52 45 53 56 55
REMARK SMILES IDX 74 56 47 57 34 58 35 59 40 60 36 61 37 62 39 63 41 64 38 65
REMARK SMILES IDX 60 66 61 67 66 68 62 69 63 70 65 71 67 72 64 73 48 74 49 75
REMARK SMILES IDX 54 76 50 77 51 78 53 79 55 80 52 81
REMARK H PARENT 5 9 72 43 46 54
REMARK Flexibility Score: inf
ROOT
ATOM      1  C   UNL A   1      33.222  34.050  28.046  1.00  0.00     0.274 C 
ENDROOT
BRANCH   1   2
ATOM      2  O   UNL A   1      32.709  34.327  29.369  1.00  0.00    -0.461 OA
BRANCH   2   3
ATOM      3  C   UNL A   1      33.071  35.528  29.900  1.00  0.00     0.329 C 
ATOM      4  O   UNL A   1      32.784  36.611  29.399  1.00  0.00    -0.250 OA
BRANCH   3   5
ATOM      5  C   UNL A   1      33.934  35.398  31.179  1.00  0.00     0.194 C 
BRANCH   5   6
ATOM      6  N   UNL A   1      34.293  34.016  31.459  1.00  0.00    -0.342 N 
ATOM      7  C   UNL A   1      35.333  33.492  32.152  1.00  0.00     0.223 C 
ATOM      8  O   UNL A   1      35.432  32.259  32.118  1.00  0.00    -0.275 OA
ATOM      9  H   UNL A   1      33.676  33.349  31.082  1.00  0.00     0.164 HD
BRANCH   7  10
ATOM     10  C   UNL A   1      36.387  34.311  32.925  1.00  0.00     0.078 C 
ATOM     11  C   UNL A   1      38.647  33.005  34.517  1.00  0.00    -0.009 C 
ATOM     12  C   UNL A   1      38.882  33.505  33.070  1.00  0.00     0.004 C 
ATOM     13  C   UNL A   1      37.179  33.019  34.979  1.00  0.00     0.004 C 
ATOM     14  C   UNL A   1      37.816  34.374  32.395  1.00  0.00     0.014 C 
ATOM     15  C   UNL A   1      36.326  34.149  34.436  1.00  0.00     0.014 C 
BRANCH  11  16
ATOM     16  C   UNL A   1      39.284  31.583  34.714  1.00  0.00    -0.014 C 
ATOM     17  C   UNL A   1      38.376  30.445  34.237  1.00  0.00     0.007 C 
ATOM     18  C   UNL A   1      40.665  31.425  34.066  1.00  0.00     0.007 C 
ENDBRANCH  11  16
ENDBRANCH   7  10
ENDBRANCH   5   6
BRANCH   5  19
ATOM     19  C   UNL A   1      33.323  36.116  32.409  1.00  0.00     0.017 C 
ATOM     20  C   UNL A   1      33.692  37.604  32.486  1.00  0.00     0.010 C 
ATOM     21  C   UNL A   1      31.786  36.032  32.405  1.00  0.00     0.010 C 
ENDBRANCH   5  19
ENDBRANCH   3   5
ENDBRANCH   2   3
ENDBRANCH   1   2
BRANCH   1  22
ATOM     22  C   UNL A   1      34.555  33.308  28.110  1.00  0.00     0.275 C 
BRANCH  22  23
ATOM     23  O   UNL A   1      34.405  32.149  28.945  1.00  0.00    -0.458 OA
BRANCH  23  24
ATOM     24  C   UNL A   1      34.341  30.955  28.318  1.00  0.00     0.338 C 
ATOM     25  O   UNL A   1      33.376  30.472  27.739  1.00  0.00    -0.246 OA
BRANCH  24  26
ATOM     26  C   UNL A   1      35.664  30.303  28.374  1.00  0.00     0.060 A 
ATOM     27  C   UNL A   1      36.137  29.824  29.593  1.00  0.00     0.016 A 
ATOM     28  C   UNL A   1      36.491  30.268  27.254  1.00  0.00     0.016 A 
ATOM     29  C   UNL A   1      37.446  29.385  29.727  1.00  0.00     0.010 A 
ATOM     30  C   UNL A   1      37.789  29.752  27.370  1.00  0.00     0.010 A 
ATOM     31  C   UNL A   1      38.290  29.339  28.619  1.00  0.00    -0.014 A 
BRANCH  31  32
ATOM     32  C   UNL A   1      39.719  28.987  28.807  1.00  0.00     0.031 A 
ATOM     33  C   UNL A   1      40.636  29.990  29.444  1.00  0.00     0.074 A 
ATOM     34  C   UNL A   1      40.188  27.759  28.511  1.00  0.00     0.049 A 
ATOM     35  N   UNL A   1      41.941  30.007  29.494  1.00  0.00    -0.248 NA
ATOM     36  C   UNL A   1      39.993  31.131  30.117  1.00  0.00     0.031 C 
ATOM     37  C   UNL A   1      39.389  26.632  28.028  1.00  0.00     0.029 A 
ATOM     38  N   UNL A   1      41.460  27.248  28.598  1.00  0.00    -0.354 N 
ATOM     39  C   UNL A   1      42.276  31.194  30.129  1.00  0.00     0.074 A 
ATOM     40  C   UNL A   1      41.040  31.858  30.476  1.00  0.00     0.031 C 
ATOM     41  C   UNL A   1      40.179  25.555  27.899  1.00  0.00     0.029 A 
ATOM     42  C   UNL A   1      41.556  25.941  28.186  1.00  0.00     0.049 A 
ATOM     43  H   UNL A   1      42.229  27.769  28.924  1.00  0.00     0.167 HD
ATOM     44  C   UNL A   1      43.511  31.692  30.377  1.00  0.00     0.037 A 
ATOM     45  C   UNL A   1      42.639  25.163  28.002  1.00  0.00     0.037 A 
ATOM     46  C   UNL A   1      44.732  30.996  30.079  1.00  0.00     0.049 A 
ATOM     47  C   UNL A   1      44.003  25.752  28.221  1.00  0.00     0.074 A 
ATOM     48  C   UNL A   1      46.037  31.427  30.230  1.00  0.00     0.029 A 
ATOM     49  N   UNL A   1      44.791  29.698  29.593  1.00  0.00    -0.354 N 
ATOM     50  N   UNL A   1      44.328  26.943  28.664  1.00  0.00    -0.248 NA
ATOM     51  C   UNL A   1      45.154  24.906  27.871  1.00  0.00     0.031 C 
ATOM     52  C   UNL A   1      46.888  30.394  29.819  1.00  0.00     0.029 A 
ATOM     53  C   UNL A   1      46.111  29.312  29.438  1.00  0.00     0.049 A 
ATOM     54  H   UNL A   1      44.010  29.135  29.390  1.00  0.00     0.167 HD
ATOM     55  C   UNL A   1      45.715  26.994  28.639  1.00  0.00     0.074 A 
ATOM     56  C   UNL A   1      46.172  25.703  28.165  1.00  0.00     0.031 C 
ATOM     57  C   UNL A   1      46.537  28.021  28.966  1.00  0.00     0.037 A 
BRANCH  44  58
ATOM     58  C   UNL A   1      43.585  33.082  30.928  1.00  0.00     0.057 A 
ATOM     59  C   UNL A   1      43.690  33.340  32.299  1.00  0.00     0.134 A 
ATOM     60  C   UNL A   1      43.535  34.182  30.061  1.00  0.00     0.134 A 
ATOM     61  F   UNL A   1      43.714  32.330  33.181  1.00  0.00    -0.206 F 
ATOM     62  C   UNL A   1      43.722  34.646  32.792  1.00  0.00     0.040 A 
ATOM     63  C   UNL A   1      43.587  35.491  30.540  1.00  0.00     0.040 A 
ATOM     64  F   UNL A   1      43.429  33.999  28.737  1.00  0.00    -0.206 F 
ATOM     65  C   UNL A   1      43.674  35.727  31.910  1.00  0.00     0.006 A 
ENDBRANCH  44  58
BRANCH  45  66
ATOM     66  C   UNL A   1      42.481  23.773  27.503  1.00  0.00     0.057 A 
ATOM     67  C   UNL A   1      42.441  23.495  26.132  1.00  0.00     0.134 A 
ATOM     68  C   UNL A   1      42.362  22.691  28.384  1.00  0.00     0.134 A 
ATOM     69  F   UNL A   1      42.522  24.492  25.238  1.00  0.00    -0.206 F 
ATOM     70  C   UNL A   1      42.288  22.191  25.656  1.00  0.00     0.040 A 
ATOM     71  C   UNL A   1      42.234  21.380  27.922  1.00  0.00     0.040 A 
ATOM     72  F   UNL A   1      42.387  22.892  29.710  1.00  0.00    -0.206 F 
ATOM     73  C   UNL A   1      42.192  21.129  26.553  1.00  0.00     0.006 A 
ENDBRANCH  45  66
BRANCH  57  74
ATOM     74  C   UNL A   1      48.007  27.780  28.830  1.00  0.00     0.057 A 
ATOM     75  C   UNL A   1      48.755  27.219  29.873  1.00  0.00     0.134 A 
ATOM     76  C   UNL A   1      48.673  28.075  27.634  1.00  0.00     0.134 A 
ATOM     77  F   UNL A   1      48.174  26.929  31.046  1.00  0.00    -0.206 F 
ATOM     78  C   UNL A   1      50.121  26.972  29.734  1.00  0.00     0.040 A 
ATOM     79  C   UNL A   1      50.034  27.817  27.479  1.00  0.00     0.040 A 
ATOM     80  F   UNL A   1      48.007  28.609  26.599  1.00  0.00    -0.206 F 
ATOM     81  C   UNL A   1      50.763  27.266  28.532  1.00  0.00     0.006 A 
ENDBRANCH  57  74
ENDBRANCH  31  32
ENDBRANCH  24  26
ENDBRANCH  23  24
ENDBRANCH  22  23
ENDBRANCH   1  22
TORSDOF 15
ENDMDL
MODEL 2
REMARK VINA RESULT:     -10.1      4.640      9.395
REMARK SMILES CC(C)[C@@H](NC(=O)[C@H]1CC[C@@H](C(C)C)CC1)C(=O)OCCOC(=O)c1ccc(-c2c3nc(c(-c4c(F)cccc4F)c4ccc([nH]4)c(-c4c(F)cccc4F)c4nc(c(-c5c(F)cccc5F)c5ccc2[nH]5)C=C4)C=C3)cc1
REMARK SMILES IDX 20 1 19 2 17 3 18 4 4 5 5 6 6 7 7 8 8 10 11 11 15 12 10 13
REMARK SMILES IDX 16 14 9 15 12 16 13 17 14 18 2 19 1 20 3 21 21 22 22 23
REMARK SMILES IDX 23 24 24 25 25 26 26 27 78 28 27 29 77 30 28 31 29 32 30 33
REMARK SMILES IDX 71 34 31 35 76 36 70 37 72 38 32 39 75 40 69 41 68 42 33 44
REMARK SMILES IDX 59 45 42 46 58 47 43 48 46 49 57 50 73 51 44 52 45 53 56 55
REMARK SMILES IDX 74 56 47 57 34 58 35 59 40 60 36 61 37 62 39 63 41 64 38 65
REMARK SMILES IDX 60 66 61 67 66 68 62 69 63 70 65 71 67 72 64 73 48 74 49 75
REMARK SMILES IDX 54 76 50 77 51 78 53 79 55 80 52 81
REMARK H PARENT 5 9 72 43 46 54
REMARK Flexibility Score: inf
ROOT
ATOM      1  C   UNL A   1      31.890  28.555  27.445  1.00  0.00     0.274 C 
ENDROOT
BRANCH   1   2
ATOM      2  O   UNL A   1      31.483  27.395  26.687  1.00  0.00    -0.461 OA
BRANCH   2   3
ATOM      3  C   UNL A   1      32.375  26.960  25.752  1.00  0.00     0.329 C 
ATOM      4  O   UNL A   1      33.591  26.978  25.909  1.00  0.00    -0.250 OA
BRANCH   3   5
ATOM      5  C   UNL A   1      31.705  26.485  24.439  1.00  0.00     0.194 C 
BRANCH   5   6
ATOM      6  N   UNL A   1      32.519  26.785  23.270  1.00  0.00    -0.342 N 
ATOM      7  C   UNL A   1      33.286  25.982  22.494  1.00  0.00     0.223 C 
ATOM      8  O   UNL A   1      33.958  26.557  21.629  1.00  0.00    -0.275 OA
ATOM      9  H   UNL A   1      32.510  27.731  22.997  1.00  0.00     0.164 HD
BRANCH   7  10
ATOM     10  C   UNL A   1      33.399  24.451  22.640  1.00  0.00     0.078 C 
ATOM     11  C   UNL A   1      32.975  23.012  25.303  1.00  0.00    -0.009 C 
ATOM     12  C   UNL A   1      31.824  23.129  24.273  1.00  0.00     0.004 C 
ATOM     13  C   UNL A   1      34.228  23.844  24.976  1.00  0.00     0.004 C 
ATOM     14  C   UNL A   1      32.134  23.627  22.858  1.00  0.00     0.014 C 
ATOM     15  C   UNL A   1      34.561  23.985  23.504  1.00  0.00     0.014 C 
BRANCH  11  16
ATOM     16  C   UNL A   1      32.450  23.332  26.749  1.00  0.00    -0.014 C 
ATOM     17  C   UNL A   1      30.921  23.317  26.850  1.00  0.00     0.007 C 
ATOM     18  C   UNL A   1      33.031  22.422  27.837  1.00  0.00     0.007 C 
ENDBRANCH  11  16
ENDBRANCH   7  10
ENDBRANCH   5   6
BRANCH   5  19
ATOM     19  C   UNL A   1      30.241  26.970  24.286  1.00  0.00     0.017 C 
ATOM     20  C   UNL A   1      30.055  27.988  23.153  1.00  0.00     0.010 C 
ATOM     21  C   UNL A   1      29.286  25.797  24.000  1.00  0.00     0.010 C 
ENDBRANCH   5  19
ENDBRANCH   3   5
ENDBRANCH   2   3
ENDBRANCH   1   2
BRANCH   1  22
ATOM     22  C   UNL A   1      31.716  29.838  26.637  1.00  0.00     0.275 C 
BRANCH  22  23
ATOM     23  O   UNL A   1      33.011  30.393  26.356  1.00  0.00    -0.458 OA
BRANCH  23  24
ATOM     24  C   UNL A   1      33.426  31.398  27.158  1.00  0.00     0.338 C 
ATOM     25  O   UNL A   1      32.796  32.398  27.480  1.00  0.00    -0.246 OA
BRANCH  24  26
ATOM     26  C   UNL A   1      34.777  31.091  27.665  1.00  0.00     0.060 A 
ATOM     27  C   UNL A   1      35.100  29.778  27.996  1.00  0.00     0.016 A 
ATOM     28  C   UNL A   1      35.690  32.110  27.929  1.00  0.00     0.016 A 
ATOM     29  C   UNL A   1      36.283  29.478  28.655  1.00  0.00     0.010 A 
ATOM     30  C   UNL A   1      36.920  31.798  28.524  1.00  0.00     0.010 A 
ATOM     31  C   UNL A   1      37.211  30.481  28.926  1.00  0.00    -0.014 A 
BRANCH  31  32
ATOM     32  C   UNL A   1      38.410  30.163  29.741  1.00  0.00     0.031 A 
ATOM     33  C   UNL A   1      39.508  29.343  29.127  1.00  0.00     0.074 A 
ATOM     34  C   UNL A   1      38.578  30.672  30.977  1.00  0.00     0.049 A 
ATOM     35  N   UNL A   1      40.518  28.747  29.703  1.00  0.00    -0.248 NA
ATOM     36  C   UNL A   1      39.460  29.173  27.666  1.00  0.00     0.031 C 
ATOM     37  C   UNL A   1      37.671  31.605  31.648  1.00  0.00     0.029 A 
ATOM     38  N   UNL A   1      39.593  30.489  31.884  1.00  0.00    -0.354 N 
ATOM     39  C   UNL A   1      41.177  28.066  28.689  1.00  0.00     0.074 A 
ATOM     40  C   UNL A   1      40.474  28.347  27.457  1.00  0.00     0.031 C 
ATOM     41  C   UNL A   1      38.190  31.942  32.839  1.00  0.00     0.029 A 
ATOM     42  C   UNL A   1      39.407  31.170  33.062  1.00  0.00     0.049 A 
ATOM     43  H   UNL A   1      40.380  29.924  31.705  1.00  0.00     0.167 HD
ATOM     44  C   UNL A   1      42.260  27.260  28.788  1.00  0.00     0.037 A 
ATOM     45  C   UNL A   1      40.103  31.127  34.213  1.00  0.00     0.037 A 
ATOM     46  C   UNL A   1      42.985  27.035  30.009  1.00  0.00     0.049 A 
ATOM     47  C   UNL A   1      41.264  30.179  34.326  1.00  0.00     0.074 A 
ATOM     48  C   UNL A   1      44.057  26.193  30.240  1.00  0.00     0.029 A 
ATOM     49  N   UNL A   1      42.720  27.688  31.205  1.00  0.00    -0.354 N 
ATOM     50  N   UNL A   1      41.788  29.402  33.408  1.00  0.00    -0.248 NA
ATOM     51  C   UNL A   1      41.902  30.068  35.645  1.00  0.00     0.031 C 
ATOM     52  C   UNL A   1      44.432  26.324  31.583  1.00  0.00     0.029 A 
ATOM     53  C   UNL A   1      43.610  27.268  32.178  1.00  0.00     0.049 A 
ATOM     54  H   UNL A   1      42.007  28.351  31.339  1.00  0.00     0.167 HD
ATOM     55  C   UNL A   1      42.809  28.704  34.038  1.00  0.00     0.074 A 
ATOM     56  C   UNL A   1      42.850  29.172  35.409  1.00  0.00     0.031 C 
ATOM     57  C   UNL A   1      43.630  27.751  33.533  1.00  0.00     0.037 A 
BRANCH  44  58
ATOM     58  C   UNL A   1      42.666  26.512  27.556  1.00  0.00     0.057 A 
ATOM     59  C   UNL A   1      43.574  27.033  26.629  1.00  0.00     0.134 A 
ATOM     60  C   UNL A   1      42.120  25.249  27.294  1.00  0.00     0.134 A 
ATOM     61  F   UNL A   1      44.109  28.249  26.810  1.00  0.00    -0.206 F 
ATOM     62  C   UNL A   1      43.910  26.332  25.469  1.00  0.00     0.040 A 
ATOM     63  C   UNL A   1      42.463  24.529  26.148  1.00  0.00     0.040 A 
ATOM     64  F   UNL A   1      41.240  24.698  28.143  1.00  0.00    -0.206 F 
ATOM     65  C   UNL A   1      43.356  25.073  25.228  1.00  0.00     0.006 A 
ENDBRANCH  44  58
BRANCH  45  66
ATOM     66  C   UNL A   1      39.670  31.941  35.378  1.00  0.00     0.057 A 
ATOM     67  C   UNL A   1      40.252  33.184  35.649  1.00  0.00     0.134 A 
ATOM     68  C   UNL A   1      38.669  31.494  36.248  1.00  0.00     0.134 A 
ATOM     69  F   UNL A   1      41.236  33.654  34.868  1.00  0.00    -0.206 F 
ATOM     70  C   UNL A   1      39.854  33.953  36.745  1.00  0.00     0.040 A 
ATOM     71  C   UNL A   1      38.243  32.263  37.332  1.00  0.00     0.040 A 
ATOM     72  F   UNL A   1      38.076  30.308  36.046  1.00  0.00    -0.206 F 
ATOM     73  C   UNL A   1      38.841  33.495  37.585  1.00  0.00     0.006 A 
ENDBRANCH  45  66
BRANCH  57  74
ATOM     74  C   UNL A   1      44.643  27.167  34.465  1.00  0.00     0.057 A 
ATOM     75  C   UNL A   1      44.375  26.004  35.200  1.00  0.00     0.134 A 
ATOM     76  C   UNL A   1      45.909  27.748  34.601  1.00  0.00     0.134 A 
ATOM     77  F   UNL A   1      43.176  25.412  35.120  1.00  0.00    -0.206 F 
ATOM     78  C   UNL A   1      45.332  25.447  36.049  1.00  0.00     0.040 A 
ATOM     79  C   UNL A   1      46.878  27.191  35.435  1.00  0.00     0.040 A 
ATOM     80  F   UNL A   1      46.224  28.860  33.920  1.00  0.00    -0.206 F 
ATOM     81  C   UNL A   1      46.589  26.038  36.164  1.00  0.00     0.006 A 
ENDBRANCH  57  74
ENDBRANCH  31  32
ENDBRANCH  24  26
ENDBRANCH  23  24
ENDBRANCH  22  23
ENDBRANCH   1  22
TORSDOF 15
ENDMDL
MODEL 3
REMARK VINA RESULT:     -10.1      4.911      9.986
REMARK SMILES CC(C)[C@@H](NC(=O)[C@H]1CC[C@@H](C(C)C)CC1)C(=O)OCCOC(=O)c1ccc(-c2c3nc(c(-c4c(F)cccc4F)c4ccc([nH]4)c(-c4c(F)cccc4F)c4nc(c(-c5c(F)cccc5F)c5ccc2[nH]5)C=C4)C=C3)cc1
REMARK SMILES IDX 20 1 19 2 17 3 18 4 4 5 5 6 6 7 7 8 8 10 11 11 15 12 10 13
REMARK SMILES IDX 16 14 9 15 12 16 13 17 14 18 2 19 1 20 3 21 21 22 22 23
REMARK SMILES IDX 23 24 24 25 25 26 26 27 78 28 27 29 77 30 28 31 29 32 30 33
REMARK SMILES IDX 71 34 31 35 76 36 70 37 72 38 32 39 75 40 69 41 68 42 33 44
REMARK SMILES IDX 59 45 42 46 58 47 43 48 46 49 57 50 73 51 44 52 45 53 56 55
REMARK SMILES IDX 74 56 47 57 34 58 35 59 40 60 36 61 37 62 39 63 41 64 38 65
REMARK SMILES IDX 60 66 61 67 66 68 62 69 63 70 65 71 67 72 64 73 48 74 49 75
REMARK SMILES IDX 54 76 50 77 51 78 53 79 55 80 52 81
REMARK H PARENT 5 9 72 43 46 54
REMARK Flexibility Score: inf
ROOT
ATOM      1  C   UNL A   1      31.768  29.192  24.334  1.00  0.00     0.274 C 
ENDROOT
BRANCH   1   2
ATOM      2  O   UNL A   1      32.617  28.119  24.800  1.00  0.00    -0.461 OA
BRANCH   2   3
ATOM      3  C   UNL A   1      33.013  27.228  23.849  1.00  0.00     0.329 C 
ATOM      4  O   UNL A   1      33.675  27.531  22.862  1.00  0.00    -0.250 OA
BRANCH   3   5
ATOM      5  C   UNL A   1      32.499  25.789  24.104  1.00  0.00     0.194 C 
BRANCH   5   6
ATOM      6  N   UNL A   1      33.068  24.830  23.168  1.00  0.00    -0.342 N 
ATOM      7  C   UNL A   1      33.705  23.654  23.381  1.00  0.00     0.223 C 
ATOM      8  O   UNL A   1      34.181  23.113  22.374  1.00  0.00    -0.275 OA
ATOM      9  H   UNL A   1      32.973  25.079  22.220  1.00  0.00     0.164 HD
BRANCH   7  10
ATOM     10  C   UNL A   1      33.900  22.985  24.757  1.00  0.00     0.078 C 
ATOM     11  C   UNL A   1      33.373  20.012  25.236  1.00  0.00    -0.009 C 
ATOM     12  C   UNL A   1      34.805  20.528  24.949  1.00  0.00     0.004 C 
ATOM     13  C   UNL A   1      32.256  21.054  25.043  1.00  0.00     0.004 C 
ATOM     14  C   UNL A   1      35.075  22.036  24.964  1.00  0.00     0.014 C 
ATOM     15  C   UNL A   1      32.617  22.483  25.400  1.00  0.00     0.014 C 
BRANCH  11  16
ATOM     16  C   UNL A   1      33.081  18.715  24.401  1.00  0.00    -0.014 C 
ATOM     17  C   UNL A   1      32.412  19.004  23.054  1.00  0.00     0.007 C 
ATOM     18  C   UNL A   1      34.316  17.836  24.166  1.00  0.00     0.007 C 
ENDBRANCH  11  16
ENDBRANCH   7  10
ENDBRANCH   5   6
BRANCH   5  19
ATOM     19  C   UNL A   1      30.955  25.694  24.190  1.00  0.00     0.017 C 
ATOM     20  C   UNL A   1      30.370  24.556  23.342  1.00  0.00     0.010 C 
ATOM     21  C   UNL A   1      30.484  25.466  25.638  1.00  0.00     0.010 C 
ENDBRANCH   5  19
ENDBRANCH   3   5
ENDBRANCH   2   3
ENDBRANCH   1   2
BRANCH   1  22
ATOM     22  C   UNL A   1      31.511  30.217  25.436  1.00  0.00     0.275 C 
BRANCH  22  23
ATOM     23  O   UNL A   1      32.515  30.072  26.453  1.00  0.00    -0.458 OA
BRANCH  23  24
ATOM     24  C   UNL A   1      32.981  31.210  27.010  1.00  0.00     0.338 C 
ATOM     25  O   UNL A   1      32.386  32.273  27.135  1.00  0.00    -0.246 OA
BRANCH  24  26
ATOM     26  C   UNL A   1      34.345  30.978  27.525  1.00  0.00     0.060 A 
ATOM     27  C   UNL A   1      34.746  29.681  27.834  1.00  0.00     0.016 A 
ATOM     28  C   UNL A   1      35.190  32.046  27.817  1.00  0.00     0.016 A 
ATOM     29  C   UNL A   1      35.939  29.442  28.499  1.00  0.00     0.010 A 
ATOM     30  C   UNL A   1      36.431  31.800  28.419  1.00  0.00     0.010 A 
ATOM     31  C   UNL A   1      36.800  30.496  28.799  1.00  0.00    -0.014 A 
BRANCH  31  32
ATOM     32  C   UNL A   1      38.009  30.237  29.620  1.00  0.00     0.031 A 
ATOM     33  C   UNL A   1      39.141  29.455  29.018  1.00  0.00     0.074 A 
ATOM     34  C   UNL A   1      38.154  30.768  30.849  1.00  0.00     0.049 A 
ATOM     35  N   UNL A   1      40.173  28.907  29.603  1.00  0.00    -0.248 NA
ATOM     36  C   UNL A   1      39.103  29.264  27.559  1.00  0.00     0.031 C 
ATOM     37  C   UNL A   1      37.209  31.672  31.507  1.00  0.00     0.029 A 
ATOM     38  N   UNL A   1      39.174  30.638  31.760  1.00  0.00    -0.354 N 
ATOM     39  C   UNL A   1      40.861  28.240  28.599  1.00  0.00     0.074 A 
ATOM     40  C   UNL A   1      40.150  28.477  27.363  1.00  0.00     0.031 C 
ATOM     41  C   UNL A   1      37.711  32.045  32.695  1.00  0.00     0.029 A 
ATOM     42  C   UNL A   1      38.958  31.325  32.930  1.00  0.00     0.049 A 
ATOM     43  H   UNL A   1      39.983  30.103  31.590  1.00  0.00     0.167 HD
ATOM     44  C   UNL A   1      41.976  27.480  28.710  1.00  0.00     0.037 A 
ATOM     45  C   UNL A   1      39.653  31.325  34.082  1.00  0.00     0.037 A 
ATOM     46  C   UNL A   1      42.707  27.300  29.935  1.00  0.00     0.049 A 
ATOM     47  C   UNL A   1      40.851  30.427  34.208  1.00  0.00     0.074 A 
ATOM     48  C   UNL A   1      43.812  26.506  30.178  1.00  0.00     0.029 A 
ATOM     49  N   UNL A   1      42.414  27.957  31.121  1.00  0.00    -0.354 N 
ATOM     50  N   UNL A   1      41.408  29.660  33.302  1.00  0.00    -0.248 NA
ATOM     51  C   UNL A   1      41.490  30.358  35.530  1.00  0.00     0.031 C 
ATOM     52  C   UNL A   1      44.179  26.669  31.520  1.00  0.00     0.029 A 
ATOM     53  C   UNL A   1      43.317  27.586  32.101  1.00  0.00     0.049 A 
ATOM     54  H   UNL A   1      41.674  28.593  31.246  1.00  0.00     0.167 HD
ATOM     55  C   UNL A   1      42.455  29.012  33.942  1.00  0.00     0.074 A 
ATOM     56  C   UNL A   1      42.475  29.498  35.307  1.00  0.00     0.031 C 
ATOM     57  C   UNL A   1      43.315  28.087  33.450  1.00  0.00     0.037 A 
BRANCH  44  58
ATOM     58  C   UNL A   1      42.414  26.734  27.488  1.00  0.00     0.057 A 
ATOM     59  C   UNL A   1      43.292  27.285  26.549  1.00  0.00     0.134 A 
ATOM     60  C   UNL A   1      41.931  25.441  27.248  1.00  0.00     0.134 A 
ATOM     61  F   UNL A   1      43.767  28.529  26.709  1.00  0.00    -0.206 F 
ATOM     62  C   UNL A   1      43.659  26.583  25.399  1.00  0.00     0.040 A 
ATOM     63  C   UNL A   1      42.305  24.722  26.112  1.00  0.00     0.040 A 
ATOM     64  F   UNL A   1      41.082  24.861  28.109  1.00  0.00    -0.206 F 
ATOM     65  C   UNL A   1      43.168  25.295  25.180  1.00  0.00     0.006 A 
ENDBRANCH  44  58
BRANCH  45  66
ATOM     66  C   UNL A   1      39.185  32.135  35.235  1.00  0.00     0.057 A 
ATOM     67  C   UNL A   1      38.341  31.590  36.209  1.00  0.00     0.134 A 
ATOM     68  C   UNL A   1      39.565  33.474  35.389  1.00  0.00     0.134 A 
ATOM     69  F   UNL A   1      37.919  30.321  36.103  1.00  0.00    -0.206 F 
ATOM     70  C   UNL A   1      37.892  32.347  37.293  1.00  0.00     0.040 A 
ATOM     71  C   UNL A   1      39.145  34.235  36.480  1.00  0.00     0.040 A 
ATOM     72  F   UNL A   1      40.367  34.057  34.486  1.00  0.00    -0.206 F 
ATOM     73  C   UNL A   1      38.301  33.672  37.434  1.00  0.00     0.006 A 
ENDBRANCH  45  66
BRANCH  57  74
ATOM     74  C   UNL A   1      44.349  27.556  34.391  1.00  0.00     0.057 A 
ATOM     75  C   UNL A   1      45.579  28.204  34.568  1.00  0.00     0.134 A 
ATOM     76  C   UNL A   1      44.099  26.410  35.156  1.00  0.00     0.134 A 
ATOM     77  F   UNL A   1      45.879  29.298  33.853  1.00  0.00    -0.206 F 
ATOM     78  C   UNL A   1      46.531  27.721  35.465  1.00  0.00     0.040 A 
ATOM     79  C   UNL A   1      45.037  25.927  36.068  1.00  0.00     0.040 A 
ATOM     80  F   UNL A   1      42.938  25.750  35.032  1.00  0.00    -0.206 F 
ATOM     81  C   UNL A   1      46.259  26.582  36.223  1.00  0.00     0.006 A 
ENDBRANCH  57  74
ENDBRANCH  31  32
ENDBRANCH  24  26
ENDBRANCH  23  24
ENDBRANCH  22  23
ENDBRANCH   1  22
TORSDOF 15
ENDMDL
