MODEL 1
REMARK VINA RESULT:     -13.0      0.000      0.000
REMARK SMILES O=C(N[C@@H](Cc1c[nH]c2ccccc12)C(=O)N[C@@H](CS)C(=O)N[C@@H](CO)C(=O)OCCOC(=O)c1ccc(-c2c3nc(c(-c4c(F)cccc4F)c4ccc([nH]4)c(-c4c(F)cccc4F)c4nc(c(-c5c(F)cccc5F)c5ccc2[nH]5)C=C4)C=C3)cc1)c1ccc(F)cc1
REMARK SMILES IDX 27 1 28 2 24 3 23 4 21 5 22 6 18 8 17 9 15 10 16 11 4 13
REMARK SMILES IDX 3 14 1 15 2 16 89 18 90 19 95 20 91 21 94 22 92 23 93 24
REMARK SMILES IDX 5 25 6 26 7 27 14 28 8 29 9 30 13 31 10 33 12 34 11 35 19 36
REMARK SMILES IDX 20 37 25 39 26 40 29 42 30 43 31 44 32 45 33 46 34 47 35 48
REMARK SMILES IDX 36 49 88 50 37 51 87 52 38 53 39 54 40 55 81 56 41 57 86 58
REMARK SMILES IDX 80 59 82 60 42 61 85 62 79 63 78 64 43 66 69 67 52 68 68 69
REMARK SMILES IDX 53 70 56 71 67 72 83 73 54 74 55 75 66 77 84 78 57 79 44 80
REMARK SMILES IDX 45 81 50 82 46 83 47 84 49 85 51 86 48 87 70 88 71 89 76 90
REMARK SMILES IDX 72 91 73 92 75 93 77 94 74 95 58 96 59 97 64 98 60 99 61 100
REMARK SMILES IDX 63 101 65 102 62 103
REMARK H PARENT 23 7 17 12 3 17 8 32 20 38 26 41 82 65 56 76
REMARK Flexibility Score: inf
ROOT
ATOM      1  C   UNL A   1      38.031  22.026  25.706  1.00  0.00     0.331 C 
ATOM      2  O   UNL A   1      38.206  23.212  25.977  1.00  0.00    -0.250 OA
ENDROOT
BRANCH   1   3
ATOM      3  C   UNL A   1      36.591  21.426  25.504  1.00  0.00     0.218 C 
BRANCH   3   4
ATOM      4  N   UNL A   1      35.542  21.568  26.546  1.00  0.00    -0.339 N 
ATOM      5  C   UNL A   1      34.217  21.295  26.705  1.00  0.00     0.244 C 
ATOM      6  O   UNL A   1      33.728  21.972  27.636  1.00  0.00    -0.273 OA
ATOM      7  H   UNL A   1      35.912  21.978  27.361  1.00  0.00     0.164 HD
BRANCH   5   8
ATOM      8  C   UNL A   1      33.095  20.252  25.815  1.00  0.00     0.181 C 
BRANCH   8   9
ATOM      9  N   UNL A   1      31.676  21.297  25.907  1.00  0.00    -0.342 N 
ATOM     10  C   UNL A   1      31.286  22.600  25.579  1.00  0.00     0.243 C 
ATOM     11  O   UNL A   1      30.237  22.970  26.134  1.00  0.00    -0.273 OA
ATOM     12  H   UNL A   1      30.923  20.811  26.317  1.00  0.00     0.164 HD
BRANCH  10  13
ATOM     13  C   UNL A   1      32.093  23.731  24.700  1.00  0.00     0.176 C 
BRANCH  13  14
ATOM     14  N   UNL A   1      33.530  24.074  24.995  1.00  0.00    -0.340 N 
ATOM     15  O   UNL A   1      35.443  25.150  25.390  1.00  0.00    -0.269 OA
ATOM     16  C   UNL A   1      34.218  25.152  25.446  1.00  0.00     0.251 C 
ATOM     17  H   UNL A   1      34.129  23.314  24.814  1.00  0.00     0.164 HD
BRANCH  16  18
ATOM     18  C   UNL A   1      33.504  26.338  25.892  1.00  0.00     0.040 A 
ATOM     19  C   UNL A   1      34.105  27.593  25.817  1.00  0.00     0.017 A 
ATOM     20  C   UNL A   1      32.215  26.164  26.406  1.00  0.00     0.017 A 
ATOM     21  C   UNL A   1      33.428  28.687  26.343  1.00  0.00     0.040 A 
ATOM     22  C   UNL A   1      31.548  27.262  26.935  1.00  0.00     0.040 A 
ATOM     23  C   UNL A   1      32.169  28.508  26.914  1.00  0.00     0.123 A 
ATOM     24  F   UNL A   1      31.544  29.558  27.462  1.00  0.00    -0.207 F 
ENDBRANCH  16  18
ENDBRANCH  13  14
BRANCH  13  25
ATOM     25  C   UNL A   1      31.989  23.481  23.196  1.00  0.00     0.072 C 
BRANCH  25  26
ATOM     26  C   UNL A   1      32.136  24.753  22.434  1.00  0.00    -0.020 A 
ATOM     27  C   UNL A   1      33.287  25.197  21.792  1.00  0.00     0.087 A 
ATOM     28  C   UNL A   1      31.222  25.836  22.560  1.00  0.00     0.003 A 
ATOM     29  N   UNL A   1      33.348  26.574  21.631  1.00  0.00    -0.361 N 
ATOM     30  C   UNL A   1      32.314  27.174  22.300  1.00  0.00     0.046 A 
ATOM     31  C   UNL A   1      29.625  26.142  23.411  1.00  0.00     0.010 A 
ATOM     32  H   UNL A   1      34.034  27.052  21.110  1.00  0.00     0.166 HD
ATOM     33  C   UNL A   1      31.966  28.765  22.983  1.00  0.00     0.026 A 
ATOM     34  C   UNL A   1      29.305  27.726  24.184  1.00  0.00     0.001 A 
ATOM     35  C   UNL A   1      30.423  29.034  23.841  1.00  0.00     0.002 A 
ENDBRANCH  25  26
ENDBRANCH  13  25
ENDBRANCH  10  13
ENDBRANCH   8   9
BRANCH   8  36
ATOM     36  C   UNL A   1      33.464  18.699  24.301  1.00  0.00     0.101 C 
BRANCH  36  37
ATOM     37  S   UNL A   1      32.407  18.122  22.584  1.00  0.00    -0.177 SA
ATOM     38  H   UNL A   1      32.056  16.812  22.686  1.00  0.00     0.102 HD
ENDBRANCH  36  37
ENDBRANCH   8  36
ENDBRANCH   5   8
ENDBRANCH   3   4
BRANCH   3  39
ATOM     39  C   UNL A   1      36.034  21.981  24.183  1.00  0.00     0.193 C 
BRANCH  39  40
ATOM     40  O   UNL A   1      36.978  22.863  23.574  1.00  0.00    -0.394 OA
ATOM     41  H   UNL A   1      37.134  22.587  22.657  1.00  0.00     0.210 HD
ENDBRANCH  39  40
ENDBRANCH   3  39
ENDBRANCH   1   3
BRANCH   1  42
ATOM     42  O   UNL A   1      39.063  21.175  25.396  1.00  0.00    -0.460 OA
BRANCH  42  43
ATOM     43  C   UNL A   1      39.986  20.828  26.476  1.00  0.00     0.274 C 
BRANCH  43  44
ATOM     44  C   UNL A   1      41.483  20.882  26.056  1.00  0.00     0.275 C 
BRANCH  44  45
ATOM     45  O   UNL A   1      42.275  21.882  26.770  1.00  0.00    -0.458 OA
BRANCH  45  46
ATOM     46  C   UNL A   1      42.473  23.047  26.059  1.00  0.00     0.338 C 
ATOM     47  O   UNL A   1      43.217  23.140  25.092  1.00  0.00    -0.246 OA
BRANCH  46  48
ATOM     48  C   UNL A   1      41.573  24.180  26.478  1.00  0.00     0.060 A 
ATOM     49  C   UNL A   1      41.618  25.452  25.918  1.00  0.00     0.016 A 
ATOM     50  C   UNL A   1      40.705  24.002  27.564  1.00  0.00     0.016 A 
ATOM     51  C   UNL A   1      41.028  26.550  26.602  1.00  0.00     0.010 A 
ATOM     52  C   UNL A   1      40.141  25.117  28.240  1.00  0.00     0.010 A 
ATOM     53  C   UNL A   1      40.490  26.438  27.906  1.00  0.00    -0.014 A 
BRANCH  53  54
ATOM     54  C   UNL A   1      40.462  27.612  28.938  1.00  0.00     0.031 A 
ATOM     55  C   UNL A   1      41.475  27.748  30.091  1.00  0.00     0.074 A 
ATOM     56  C   UNL A   1      39.756  28.769  28.797  1.00  0.00     0.049 A 
ATOM     57  N   UNL A   1      41.331  28.290  31.285  1.00  0.00    -0.248 NA
ATOM     58  C   UNL A   1      42.844  27.268  29.851  1.00  0.00     0.031 C 
ATOM     59  C   UNL A   1      39.056  29.249  27.606  1.00  0.00     0.029 A 
ATOM     60  N   UNL A   1      39.497  29.776  29.722  1.00  0.00    -0.354 N 
ATOM     61  C   UNL A   1      42.533  28.075  31.968  1.00  0.00     0.074 A 
ATOM     62  C   UNL A   1      43.407  27.382  31.046  1.00  0.00     0.031 C 
ATOM     63  C   UNL A   1      38.318  30.325  27.913  1.00  0.00     0.029 A 
ATOM     64  C   UNL A   1      38.489  30.627  29.327  1.00  0.00     0.049 A 
ATOM     65  H   UNL A   1      39.986  29.869  30.571  1.00  0.00     0.167 HD
ATOM     66  C   UNL A   1      42.884  28.421  33.236  1.00  0.00     0.037 A 
ATOM     67  C   UNL A   1      37.719  31.505  30.005  1.00  0.00     0.037 A 
ATOM     68  C   UNL A   1      42.128  29.318  34.083  1.00  0.00     0.049 A 
ATOM     69  C   UNL A   1      37.962  31.776  31.458  1.00  0.00     0.074 A 
ATOM     70  C   UNL A   1      42.380  29.700  35.393  1.00  0.00     0.029 A 
ATOM     71  N   UNL A   1      41.016  30.035  33.676  1.00  0.00    -0.354 N 
ATOM     72  N   UNL A   1      38.899  31.299  32.237  1.00  0.00    -0.248 NA
ATOM     73  C   UNL A   1      37.043  32.708  32.128  1.00  0.00     0.031 C 
ATOM     74  C   UNL A   1      41.379  30.592  35.798  1.00  0.00     0.029 A 
ATOM     75  C   UNL A   1      40.541  30.819  34.721  1.00  0.00     0.049 A 
ATOM     76  H   UNL A   1      40.618  29.995  32.777  1.00  0.00     0.167 HD
ATOM     77  C   UNL A   1      38.694  31.879  33.482  1.00  0.00     0.074 A 
ATOM     78  C   UNL A   1      37.555  32.761  33.350  1.00  0.00     0.031 C 
ATOM     79  C   UNL A   1      39.396  31.688  34.625  1.00  0.00     0.037 A 
BRANCH  66  80
ATOM     80  C   UNL A   1      44.076  27.727  33.855  1.00  0.00     0.057 A 
ATOM     81  C   UNL A   1      45.373  28.250  33.896  1.00  0.00     0.134 A 
ATOM     82  C   UNL A   1      43.878  26.477  34.470  1.00  0.00     0.134 A 
ATOM     83  F   UNL A   1      45.649  29.440  33.344  1.00  0.00    -0.206 F 
ATOM     84  C   UNL A   1      46.431  27.541  34.478  1.00  0.00     0.040 A 
ATOM     85  C   UNL A   1      44.918  25.778  35.088  1.00  0.00     0.040 A 
ATOM     86  F   UNL A   1      42.659  25.919  34.501  1.00  0.00    -0.206 F 
ATOM     87  C   UNL A   1      46.205  26.303  35.079  1.00  0.00     0.006 A 
ENDBRANCH  66  80
BRANCH  67  88
ATOM     88  C   UNL A   1      36.538  32.097  29.317  1.00  0.00     0.057 A 
ATOM     89  C   UNL A   1      35.382  31.363  29.040  1.00  0.00     0.134 A 
ATOM     90  C   UNL A   1      36.547  33.451  28.943  1.00  0.00     0.134 A 
ATOM     91  F   UNL A   1      35.325  30.055  29.328  1.00  0.00    -0.206 F 
ATOM     92  C   UNL A   1      34.269  31.958  28.438  1.00  0.00     0.040 A 
ATOM     93  C   UNL A   1      35.434  34.063  28.370  1.00  0.00     0.040 A 
ATOM     94  F   UNL A   1      37.635  34.205  29.159  1.00  0.00    -0.206 F 
ATOM     95  C   UNL A   1      34.287  33.315  28.118  1.00  0.00     0.006 A 
ENDBRANCH  67  88
BRANCH  79  96
ATOM     96  C   UNL A   1      38.962  32.474  35.830  1.00  0.00     0.057 A 
ATOM     97  C   UNL A   1      39.390  33.791  36.051  1.00  0.00     0.134 A 
ATOM     98  C   UNL A   1      38.139  31.896  36.807  1.00  0.00     0.134 A 
ATOM     99  F   UNL A   1      40.191  34.402  35.165  1.00  0.00    -0.206 F 
ATOM    100  C   UNL A   1      39.059  34.484  37.219  1.00  0.00     0.040 A 
ATOM    101  C   UNL A   1      37.777  32.589  37.964  1.00  0.00     0.040 A 
ATOM    102  F   UNL A   1      37.682  30.643  36.661  1.00  0.00    -0.206 F 
ATOM    103  C   UNL A   1      38.251  33.882  38.180  1.00  0.00     0.006 A 
ENDBRANCH  79  96
ENDBRANCH  53  54
ENDBRANCH  46  48
ENDBRANCH  45  46
ENDBRANCH  44  45
ENDBRANCH  43  44
ENDBRANCH  42  43
ENDBRANCH   1  42
TORSDOF 23
ENDMDL
MODEL 2
REMARK VINA RESULT:     -11.9      1.225      5.810
REMARK SMILES O=C(N[C@@H](Cc1c[nH]c2ccccc12)C(=O)N[C@@H](CS)C(=O)N[C@@H](CO)C(=O)OCCOC(=O)c1ccc(-c2c3nc(c(-c4c(F)cccc4F)c4ccc([nH]4)c(-c4c(F)cccc4F)c4nc(c(-c5c(F)cccc5F)c5ccc2[nH]5)C=C4)C=C3)cc1)c1ccc(F)cc1
REMARK SMILES IDX 27 1 28 2 24 3 23 4 21 5 22 6 18 8 17 9 15 10 16 11 4 13
REMARK SMILES IDX 3 14 1 15 2 16 89 18 90 19 95 20 91 21 94 22 92 23 93 24
REMARK SMILES IDX 5 25 6 26 7 27 14 28 8 29 9 30 13 31 10 33 12 34 11 35 19 36
REMARK SMILES IDX 20 37 25 39 26 40 29 42 30 43 31 44 32 45 33 46 34 47 35 48
REMARK SMILES IDX 36 49 88 50 37 51 87 52 38 53 39 54 40 55 81 56 41 57 86 58
REMARK SMILES IDX 80 59 82 60 42 61 85 62 79 63 78 64 43 66 69 67 52 68 68 69
REMARK SMILES IDX 53 70 56 71 67 72 83 73 54 74 55 75 66 77 84 78 57 79 44 80
REMARK SMILES IDX 45 81 50 82 46 83 47 84 49 85 51 86 48 87 70 88 71 89 76 90
REMARK SMILES IDX 72 91 73 92 75 93 77 94 74 95 58 96 59 97 64 98 60 99 61 100
REMARK SMILES IDX 63 101 65 102 62 103
REMARK H PARENT 23 7 17 12 3 17 8 32 20 38 26 41 82 65 56 76
REMARK Flexibility Score: inf
ROOT
ATOM      1  C   UNL A   1      37.868  22.390  25.825  1.00  0.00     0.331 C 
ATOM      2  O   UNL A   1      37.940  23.581  26.118  1.00  0.00    -0.250 OA
ENDROOT
BRANCH   1   3
ATOM      3  C   UNL A   1      36.485  21.664  25.636  1.00  0.00     0.218 C 
BRANCH   3   4
ATOM      4  N   UNL A   1      35.447  21.693  26.699  1.00  0.00    -0.339 N 
ATOM      5  C   UNL A   1      34.124  21.401  26.843  1.00  0.00     0.244 C 
ATOM      6  O   UNL A   1      33.645  21.976  27.845  1.00  0.00    -0.273 OA
ATOM      7  H   UNL A   1      35.826  22.018  27.548  1.00  0.00     0.164 HD
BRANCH   5   8
ATOM      8  C   UNL A   1      32.995  20.451  25.863  1.00  0.00     0.181 C 
BRANCH   8   9
ATOM      9  N   UNL A   1      31.571  21.466  26.092  1.00  0.00    -0.342 N 
ATOM     10  C   UNL A   1      31.129  22.764  25.816  1.00  0.00     0.243 C 
ATOM     11  O   UNL A   1      30.125  23.107  26.466  1.00  0.00    -0.273 OA
ATOM     12  H   UNL A   1      30.866  20.961  26.561  1.00  0.00     0.164 HD
BRANCH  10  13
ATOM     13  C   UNL A   1      31.833  23.921  24.883  1.00  0.00     0.176 C 
BRANCH  13  14
ATOM     14  N   UNL A   1      33.287  24.279  25.045  1.00  0.00    -0.340 N 
ATOM     15  O   UNL A   1      35.214  25.374  25.286  1.00  0.00    -0.269 OA
ATOM     16  C   UNL A   1      34.001  25.351  25.466  1.00  0.00     0.251 C 
ATOM     17  H   UNL A   1      33.875  23.537  24.773  1.00  0.00     0.164 HD
BRANCH  16  18
ATOM     18  C   UNL A   1      33.320  26.506  26.030  1.00  0.00     0.040 A 
ATOM     19  C   UNL A   1      31.996  26.408  26.452  1.00  0.00     0.017 A 
ATOM     20  C   UNL A   1      34.038  27.703  26.115  1.00  0.00     0.017 A 
ATOM     21  C   UNL A   1      31.352  27.558  26.895  1.00  0.00     0.040 A 
ATOM     22  C   UNL A   1      33.385  28.849  26.552  1.00  0.00     0.040 A 
ATOM     23  C   UNL A   1      32.045  28.768  26.921  1.00  0.00     0.123 A 
ATOM     24  F   UNL A   1      31.404  29.879  27.302  1.00  0.00    -0.207 F 
ENDBRANCH  16  18
ENDBRANCH  13  14
BRANCH  13  25
ATOM     25  C   UNL A   1      31.587  23.694  23.392  1.00  0.00     0.072 C 
BRANCH  25  26
ATOM     26  C   UNL A   1      31.984  24.891  22.599  1.00  0.00    -0.020 A 
ATOM     27  C   UNL A   1      33.240  25.134  22.053  1.00  0.00     0.087 A 
ATOM     28  C   UNL A   1      31.231  26.098  22.596  1.00  0.00     0.003 A 
ATOM     29  N   UNL A   1      33.516  26.479  21.846  1.00  0.00    -0.361 N 
ATOM     30  C   UNL A   1      32.526  27.252  22.390  1.00  0.00     0.046 A 
ATOM     31  C   UNL A   1      29.627  26.671  23.279  1.00  0.00     0.010 A 
ATOM     32  H   UNL A   1      34.308  26.826  21.374  1.00  0.00     0.166 HD
ATOM     33  C   UNL A   1      32.354  28.909  22.975  1.00  0.00     0.026 A 
ATOM     34  C   UNL A   1      29.474  28.322  23.957  1.00  0.00     0.001 A 
ATOM     35  C   UNL A   1      30.797  29.438  23.673  1.00  0.00     0.002 A 
ENDBRANCH  25  26
ENDBRANCH  13  25
ENDBRANCH  10  13
ENDBRANCH   8   9
BRANCH   8  36
ATOM     36  C   UNL A   1      33.351  19.077  24.182  1.00  0.00     0.101 C 
BRANCH  36  37
ATOM     37  S   UNL A   1      34.466  17.308  24.016  1.00  0.00    -0.177 SA
ATOM     38  H   UNL A   1      34.734  17.061  22.706  1.00  0.00     0.102 HD
ENDBRANCH  36  37
ENDBRANCH   8  36
ENDBRANCH   5   8
ENDBRANCH   3   4
BRANCH   3  39
ATOM     39  C   UNL A   1      35.855  22.186  24.335  1.00  0.00     0.193 C 
BRANCH  39  40
ATOM     40  O   UNL A   1      36.786  23.002  23.621  1.00  0.00    -0.394 OA
ATOM     41  H   UNL A   1      36.615  22.930  22.670  1.00  0.00     0.210 HD
ENDBRANCH  39  40
ENDBRANCH   3  39
ENDBRANCH   1   3
BRANCH   1  42
ATOM     42  O   UNL A   1      38.967  21.643  25.477  1.00  0.00    -0.460 OA
BRANCH  42  43
ATOM     43  C   UNL A   1      40.014  21.491  26.486  1.00  0.00     0.274 C 
BRANCH  43  44
ATOM     44  C   UNL A   1      41.313  22.283  26.158  1.00  0.00     0.275 C 
BRANCH  44  45
ATOM     45  O   UNL A   1      41.515  23.478  26.976  1.00  0.00    -0.458 OA
BRANCH  45  46
ATOM     46  C   UNL A   1      42.209  24.481  26.334  1.00  0.00     0.338 C 
ATOM     47  O   UNL A   1      42.931  24.299  25.362  1.00  0.00    -0.246 OA
BRANCH  46  48
ATOM     48  C   UNL A   1      41.889  25.865  26.834  1.00  0.00     0.060 A 
ATOM     49  C   UNL A   1      42.835  26.732  27.369  1.00  0.00     0.016 A 
ATOM     50  C   UNL A   1      40.554  26.290  26.872  1.00  0.00     0.016 A 
ATOM     51  C   UNL A   1      42.417  27.841  28.156  1.00  0.00     0.010 A 
ATOM     52  C   UNL A   1      40.159  27.391  27.678  1.00  0.00     0.010 A 
ATOM     53  C   UNL A   1      41.067  28.047  28.529  1.00  0.00    -0.014 A 
BRANCH  53  54
ATOM     54  C   UNL A   1      40.631  28.760  29.850  1.00  0.00     0.031 A 
ATOM     55  C   UNL A   1      39.405  29.689  29.944  1.00  0.00     0.074 A 
ATOM     56  C   UNL A   1      41.077  28.448  31.099  1.00  0.00     0.049 A 
ATOM     57  N   UNL A   1      39.187  30.726  30.729  1.00  0.00    -0.248 NA
ATOM     58  C   UNL A   1      38.250  29.377  29.088  1.00  0.00     0.031 C 
ATOM     59  C   UNL A   1      41.875  27.290  31.500  1.00  0.00     0.029 A 
ATOM     60  N   UNL A   1      40.920  29.132  32.301  1.00  0.00    -0.354 N 
ATOM     61  C   UNL A   1      37.951  31.260  30.349  1.00  0.00     0.074 A 
ATOM     62  C   UNL A   1      37.451  30.417  29.286  1.00  0.00     0.031 C 
ATOM     63  C   UNL A   1      42.283  27.433  32.768  1.00  0.00     0.029 A 
ATOM     64  C   UNL A   1      41.774  28.694  33.289  1.00  0.00     0.049 A 
ATOM     65  H   UNL A   1      40.265  29.855  32.430  1.00  0.00     0.167 HD
ATOM     66  C   UNL A   1      37.289  32.345  30.836  1.00  0.00     0.037 A 
ATOM     67  C   UNL A   1      42.181  29.245  34.452  1.00  0.00     0.037 A 
ATOM     68  C   UNL A   1      37.646  33.052  32.047  1.00  0.00     0.049 A 
ATOM     69  C   UNL A   1      41.601  30.540  34.932  1.00  0.00     0.074 A 
ATOM     70  C   UNL A   1      37.062  34.182  32.601  1.00  0.00     0.029 A 
ATOM     71  N   UNL A   1      38.630  32.649  32.933  1.00  0.00    -0.354 N 
ATOM     72  N   UNL A   1      40.657  31.268  34.392  1.00  0.00    -0.248 NA
ATOM     73  C   UNL A   1      42.141  31.092  36.184  1.00  0.00     0.031 C 
ATOM     74  C   UNL A   1      37.741  34.501  33.784  1.00  0.00     0.029 A 
ATOM     75  C   UNL A   1      38.704  33.532  34.003  1.00  0.00     0.049 A 
ATOM     76  H   UNL A   1      39.197  31.852  32.821  1.00  0.00     0.167 HD
ATOM     77  C   UNL A   1      40.480  32.353  35.240  1.00  0.00     0.074 A 
ATOM     78  C   UNL A   1      41.399  32.178  36.343  1.00  0.00     0.031 C 
ATOM     79  C   UNL A   1      39.625  33.396  35.103  1.00  0.00     0.037 A 
BRANCH  66  80
ATOM     80  C   UNL A   1      36.181  32.935  29.993  1.00  0.00     0.057 A 
ATOM     81  C   UNL A   1      34.816  32.838  30.285  1.00  0.00     0.134 A 
ATOM     82  C   UNL A   1      36.531  33.668  28.844  1.00  0.00     0.134 A 
ATOM     83  F   UNL A   1      34.394  32.167  31.366  1.00  0.00    -0.206 F 
ATOM     84  C   UNL A   1      33.845  33.401  29.448  1.00  0.00     0.040 A 
ATOM     85  C   UNL A   1      35.573  34.268  28.023  1.00  0.00     0.040 A 
ATOM     86  F   UNL A   1      37.819  33.834  28.509  1.00  0.00    -0.206 F 
ATOM     87  C   UNL A   1      34.222  34.121  28.315  1.00  0.00     0.006 A 
ENDBRANCH  66  80
BRANCH  67  88
ATOM     88  C   UNL A   1      43.314  28.611  35.182  1.00  0.00     0.057 A 
ATOM     89  C   UNL A   1      43.123  27.701  36.224  1.00  0.00     0.134 A 
ATOM     90  C   UNL A   1      44.639  28.901  34.815  1.00  0.00     0.134 A 
ATOM     91  F   UNL A   1      41.887  27.415  36.657  1.00  0.00    -0.206 F 
ATOM     92  C   UNL A   1      44.205  27.082  36.859  1.00  0.00     0.040 A 
ATOM     93  C   UNL A   1      45.724  28.270  35.418  1.00  0.00     0.040 A 
ATOM     94  F   UNL A   1      44.891  29.785  33.837  1.00  0.00    -0.206 F 
ATOM     95  C   UNL A   1      45.508  27.353  36.444  1.00  0.00     0.006 A 
ENDBRANCH  67  88
BRANCH  79  96
ATOM     96  C   UNL A   1      39.628  34.427  36.196  1.00  0.00     0.057 A 
ATOM     97  C   UNL A   1      40.425  35.579  36.127  1.00  0.00     0.134 A 
ATOM     98  C   UNL A   1      38.859  34.249  37.354  1.00  0.00     0.134 A 
ATOM     99  F   UNL A   1      41.198  35.807  35.055  1.00  0.00    -0.206 F 
ATOM    100  C   UNL A   1      40.495  36.487  37.187  1.00  0.00     0.040 A 
ATOM    101  C   UNL A   1      38.898  35.165  38.408  1.00  0.00     0.040 A 
ATOM    102  F   UNL A   1      38.064  33.176  37.488  1.00  0.00    -0.206 F 
ATOM    103  C   UNL A   1      39.730  36.280  38.332  1.00  0.00     0.006 A 
ENDBRANCH  79  96
ENDBRANCH  53  54
ENDBRANCH  46  48
ENDBRANCH  45  46
ENDBRANCH  44  45
ENDBRANCH  43  44
ENDBRANCH  42  43
ENDBRANCH   1  42
TORSDOF 23
ENDMDL
MODEL 3
REMARK VINA RESULT:     -11.4      1.669      3.949
REMARK SMILES O=C(N[C@@H](Cc1c[nH]c2ccccc12)C(=O)N[C@@H](CS)C(=O)N[C@@H](CO)C(=O)OCCOC(=O)c1ccc(-c2c3nc(c(-c4c(F)cccc4F)c4ccc([nH]4)c(-c4c(F)cccc4F)c4nc(c(-c5c(F)cccc5F)c5ccc2[nH]5)C=C4)C=C3)cc1)c1ccc(F)cc1
REMARK SMILES IDX 27 1 28 2 24 3 23 4 21 5 22 6 18 8 17 9 15 10 16 11 4 13
REMARK SMILES IDX 3 14 1 15 2 16 89 18 90 19 95 20 91 21 94 22 92 23 93 24
REMARK SMILES IDX 5 25 6 26 7 27 14 28 8 29 9 30 13 31 10 33 12 34 11 35 19 36
REMARK SMILES IDX 20 37 25 39 26 40 29 42 30 43 31 44 32 45 33 46 34 47 35 48
REMARK SMILES IDX 36 49 88 50 37 51 87 52 38 53 39 54 40 55 81 56 41 57 86 58
REMARK SMILES IDX 80 59 82 60 42 61 85 62 79 63 78 64 43 66 69 67 52 68 68 69
REMARK SMILES IDX 53 70 56 71 67 72 83 73 54 74 55 75 66 77 84 78 57 79 44 80
REMARK SMILES IDX 45 81 50 82 46 83 47 84 49 85 51 86 48 87 70 88 71 89 76 90
REMARK SMILES IDX 72 91 73 92 75 93 77 94 74 95 58 96 59 97 64 98 60 99 61 100
REMARK SMILES IDX 63 101 65 102 62 103
REMARK H PARENT 23 7 17 12 3 17 8 32 20 38 26 41 82 65 56 76
REMARK Flexibility Score: inf
ROOT
ATOM      1  C   UNL A   1      38.391  21.509  25.386  1.00  0.00     0.331 C 
ATOM      2  O   UNL A   1      38.120  20.400  24.934  1.00  0.00    -0.250 OA
ENDROOT
BRANCH   1   3
ATOM      3  C   UNL A   1      37.287  22.611  25.596  1.00  0.00     0.218 C 
BRANCH   3   4
ATOM      4  N   UNL A   1      36.190  22.427  26.582  1.00  0.00    -0.339 N 
ATOM      5  C   UNL A   1      34.974  22.969  26.870  1.00  0.00     0.244 C 
ATOM      6  O   UNL A   1      34.634  22.707  28.045  1.00  0.00    -0.273 OA
ATOM      7  H   UNL A   1      36.404  21.699  27.211  1.00  0.00     0.164 HD
BRANCH   5   8
ATOM      8  C   UNL A   1      33.871  23.996  25.940  1.00  0.00     0.181 C 
BRANCH   8   9
ATOM      9  N   UNL A   1      32.438  22.975  26.060  1.00  0.00    -0.342 N 
ATOM     10  C   UNL A   1      31.585  22.230  25.238  1.00  0.00     0.243 C 
ATOM     11  O   UNL A   1      30.505  21.922  25.773  1.00  0.00    -0.273 OA
ATOM     12  H   UNL A   1      32.145  22.911  26.998  1.00  0.00     0.164 HD
BRANCH  10  13
ATOM     13  C   UNL A   1      31.755  21.847  23.648  1.00  0.00     0.176 C 
BRANCH  13  14
ATOM     14  N   UNL A   1      32.681  22.624  22.750  1.00  0.00    -0.340 N 
ATOM     15  O   UNL A   1      33.567  24.136  21.371  1.00  0.00    -0.269 OA
ATOM     16  C   UNL A   1      32.752  23.882  22.252  1.00  0.00     0.251 C 
ATOM     17  H   UNL A   1      33.437  22.071  22.444  1.00  0.00     0.164 HD
BRANCH  16  18
ATOM     18  C   UNL A   1      31.800  24.893  22.684  1.00  0.00     0.040 A 
ATOM     19  C   UNL A   1      30.729  24.549  23.506  1.00  0.00     0.017 A 
ATOM     20  C   UNL A   1      31.997  26.203  22.234  1.00  0.00     0.017 A 
ATOM     21  C   UNL A   1      29.789  25.524  23.817  1.00  0.00     0.040 A 
ATOM     22  C   UNL A   1      31.049  27.170  22.544  1.00  0.00     0.040 A 
ATOM     23  C   UNL A   1      29.946  26.816  23.318  1.00  0.00     0.123 A 
ATOM     24  F   UNL A   1      29.011  27.737  23.582  1.00  0.00    -0.207 F 
ENDBRANCH  16  18
ENDBRANCH  13  14
BRANCH  13  25
ATOM     25  C   UNL A   1      32.059  20.364  23.436  1.00  0.00     0.072 C 
BRANCH  25  26
ATOM     26  C   UNL A   1      33.164  19.915  24.330  1.00  0.00    -0.020 A 
ATOM     27  C   UNL A   1      34.444  20.455  24.387  1.00  0.00     0.087 A 
ATOM     28  C   UNL A   1      33.157  18.653  24.988  1.00  0.00     0.003 A 
ATOM     29  N   UNL A   1      35.407  19.575  24.862  1.00  0.00    -0.361 N 
ATOM     30  C   UNL A   1      34.872  18.323  25.006  1.00  0.00     0.046 A 
ATOM     31  C   UNL A   1      31.979  17.261  25.190  1.00  0.00     0.010 A 
ATOM     32  H   UNL A   1      36.340  19.817  25.067  1.00  0.00     0.166 HD
ATOM     33  C   UNL A   1      35.467  16.661  25.059  1.00  0.00     0.026 A 
ATOM     34  C   UNL A   1      32.569  15.569  25.154  1.00  0.00     0.001 A 
ATOM     35  C   UNL A   1      34.304  15.316  25.219  1.00  0.00     0.002 A 
ENDBRANCH  25  26
ENDBRANCH  13  25
ENDBRANCH  10  13
ENDBRANCH   8   9
BRANCH   8  36
ATOM     36  C   UNL A   1      33.890  26.165  25.569  1.00  0.00     0.101 C 
BRANCH  36  37
ATOM     37  S   UNL A   1      32.546  27.695  26.074  1.00  0.00    -0.177 SA
ATOM     38  H   UNL A   1      31.285  27.325  25.723  1.00  0.00     0.102 HD
ENDBRANCH  36  37
ENDBRANCH   8  36
ENDBRANCH   5   8
ENDBRANCH   3   4
BRANCH   3  39
ATOM     39  C   UNL A   1      38.000  23.935  25.913  1.00  0.00     0.193 C 
BRANCH  39  40
ATOM     40  O   UNL A   1      38.135  24.104  27.325  1.00  0.00    -0.394 OA
ATOM     41  H   UNL A   1      39.020  23.820  27.601  1.00  0.00     0.210 HD
ENDBRANCH  39  40
ENDBRANCH   3  39
ENDBRANCH   1   3
BRANCH   1  42
ATOM     42  O   UNL A   1      39.626  21.823  25.896  1.00  0.00    -0.460 OA
BRANCH  42  43
ATOM     43  C   UNL A   1      40.472  20.708  26.322  1.00  0.00     0.274 C 
BRANCH  43  44
ATOM     44  C   UNL A   1      41.994  20.983  26.153  1.00  0.00     0.275 C 
BRANCH  44  45
ATOM     45  O   UNL A   1      42.311  22.119  25.290  1.00  0.00    -0.458 OA
BRANCH  45  46
ATOM     46  C   UNL A   1      42.919  23.167  25.949  1.00  0.00     0.338 C 
ATOM     47  O   UNL A   1      44.130  23.338  25.991  1.00  0.00    -0.246 OA
BRANCH  46  48
ATOM     48  C   UNL A   1      41.956  24.187  26.497  1.00  0.00     0.060 A 
ATOM     49  C   UNL A   1      41.724  25.427  25.911  1.00  0.00     0.016 A 
ATOM     50  C   UNL A   1      41.323  23.943  27.724  1.00  0.00     0.016 A 
ATOM     51  C   UNL A   1      41.114  26.466  26.666  1.00  0.00     0.010 A 
ATOM     52  C   UNL A   1      40.734  25.002  28.467  1.00  0.00     0.010 A 
ATOM     53  C   UNL A   1      40.831  26.341  28.048  1.00  0.00    -0.014 A 
BRANCH  53  54
ATOM     54  C   UNL A   1      40.819  27.546  29.044  1.00  0.00     0.031 A 
ATOM     55  C   UNL A   1      41.858  27.725  30.167  1.00  0.00     0.074 A 
ATOM     56  C   UNL A   1      40.101  28.693  28.884  1.00  0.00     0.049 A 
ATOM     57  N   UNL A   1      41.738  28.303  31.347  1.00  0.00    -0.248 NA
ATOM     58  C   UNL A   1      43.225  27.248  29.909  1.00  0.00     0.031 C 
ATOM     59  C   UNL A   1      39.369  29.132  27.696  1.00  0.00     0.029 A 
ATOM     60  N   UNL A   1      39.855  29.726  29.783  1.00  0.00    -0.354 N 
ATOM     61  C   UNL A   1      42.958  28.118  32.007  1.00  0.00     0.074 A 
ATOM     62  C   UNL A   1      43.815  27.403  31.086  1.00  0.00     0.031 C 
ATOM     63  C   UNL A   1      38.629  30.211  27.987  1.00  0.00     0.029 A 
ATOM     64  C   UNL A   1      38.831  30.558  29.387  1.00  0.00     0.049 A 
ATOM     65  H   UNL A   1      40.364  29.850  30.617  1.00  0.00     0.167 HD
ATOM     66  C   UNL A   1      43.336  28.506  33.255  1.00  0.00     0.037 A 
ATOM     67  C   UNL A   1      38.071  31.451  30.056  1.00  0.00     0.037 A 
ATOM     68  C   UNL A   1      42.593  29.423  34.092  1.00  0.00     0.049 A 
ATOM     69  C   UNL A   1      38.347  31.768  31.493  1.00  0.00     0.074 A 
ATOM     70  C   UNL A   1      42.873  29.847  35.383  1.00  0.00     0.029 A 
ATOM     71  N   UNL A   1      41.466  30.119  33.690  1.00  0.00    -0.354 N 
ATOM     72  N   UNL A   1      39.306  31.322  32.264  1.00  0.00    -0.248 NA
ATOM     73  C   UNL A   1      37.436  32.714  32.157  1.00  0.00     0.031 C 
ATOM     74  C   UNL A   1      41.875  30.744  35.785  1.00  0.00     0.029 A 
ATOM     75  C   UNL A   1      41.010  30.932  34.721  1.00  0.00     0.049 A 
ATOM     76  H   UNL A   1      41.047  30.049  32.802  1.00  0.00     0.167 HD
ATOM     77  C   UNL A   1      39.125  31.940  33.495  1.00  0.00     0.074 A 
ATOM     78  C   UNL A   1      37.976  32.809  33.363  1.00  0.00     0.031 C 
ATOM     79  C   UNL A   1      39.856  31.789  34.626  1.00  0.00     0.037 A 
BRANCH  66  80
ATOM     80  C   UNL A   1      44.548  27.840  33.867  1.00  0.00     0.057 A 
ATOM     81  C   UNL A   1      44.554  26.564  34.440  1.00  0.00     0.134 A 
ATOM     82  C   UNL A   1      45.776  28.526  33.836  1.00  0.00     0.134 A 
ATOM     83  F   UNL A   1      43.430  25.836  34.503  1.00  0.00    -0.206 F 
ATOM     84  C   UNL A   1      45.716  26.017  35.000  1.00  0.00     0.040 A 
ATOM     85  C   UNL A   1      46.950  27.975  34.356  1.00  0.00     0.040 A 
ATOM     86  F   UNL A   1      45.863  29.742  33.277  1.00  0.00    -0.206 F 
ATOM     87  C   UNL A   1      46.919  26.722  34.956  1.00  0.00     0.006 A 
ENDBRANCH  66  80
BRANCH  67  88
ATOM     88  C   UNL A   1      36.870  32.013  29.378  1.00  0.00     0.057 A 
ATOM     89  C   UNL A   1      35.655  31.327  29.308  1.00  0.00     0.134 A 
ATOM     90  C   UNL A   1      36.921  33.292  28.800  1.00  0.00     0.134 A 
ATOM     91  F   UNL A   1      35.550  30.083  29.798  1.00  0.00    -0.206 F 
ATOM     92  C   UNL A   1      34.528  31.899  28.710  1.00  0.00     0.040 A 
ATOM     93  C   UNL A   1      35.798  33.886  28.228  1.00  0.00     0.040 A 
ATOM     94  F   UNL A   1      38.064  33.994  28.812  1.00  0.00    -0.206 F 
ATOM     95  C   UNL A   1      34.594  33.189  28.184  1.00  0.00     0.006 A 
ENDBRANCH  67  88
BRANCH  79  96
ATOM     96  C   UNL A   1      39.444  32.609  35.817  1.00  0.00     0.057 A 
ATOM     97  C   UNL A   1      38.512  32.140  36.753  1.00  0.00     0.134 A 
ATOM     98  C   UNL A   1      39.952  33.901  36.010  1.00  0.00     0.134 A 
ATOM     99  F   UNL A   1      37.974  30.918  36.623  1.00  0.00    -0.206 F 
ATOM    100  C   UNL A   1      38.063  32.942  37.806  1.00  0.00     0.040 A 
ATOM    101  C   UNL A   1      39.532  34.701  37.075  1.00  0.00     0.040 A 
ATOM    102  F   UNL A   1      40.855  34.415  35.161  1.00  0.00    -0.206 F 
ATOM    103  C   UNL A   1      38.573  34.228  37.968  1.00  0.00     0.006 A 
ENDBRANCH  79  96
ENDBRANCH  53  54
ENDBRANCH  46  48
ENDBRANCH  45  46
ENDBRANCH  44  45
ENDBRANCH  43  44
ENDBRANCH  42  43
ENDBRANCH   1  42
TORSDOF 23
ENDMDL
