MODEL 1
REMARK VINA RESULT:     -10.6      0.000      0.000
REMARK SMILES C[C@H](C(=O)OCCOC(=O)c1ccc(-c2c3nc(c(-c4c(F)cccc4F)c4ccc([nH]4)c(-c4c(F)cccc4F)c4nc(c(-c5c(F)cccc5F)c5ccc2[nH]5)C=C4)C=C3)cc1)c1ccc(-c2ccccc2)c(F)c1
REMARK SMILES IDX 6 1 5 2 3 3 4 4 2 5 1 6 65 7 66 8 77 9 67 10 75 11 68 12
REMARK SMILES IDX 76 13 69 14 70 15 74 16 71 17 73 18 72 19 7 20 8 21 9 22
REMARK SMILES IDX 10 23 11 24 12 25 64 26 13 27 63 28 14 29 15 30 16 31 57 32
REMARK SMILES IDX 17 33 62 34 56 35 58 36 18 37 61 38 55 39 54 40 19 42 45 43
REMARK SMILES IDX 28 44 44 45 29 46 32 47 43 48 59 49 30 50 31 51 42 53 60 54
REMARK SMILES IDX 33 55 20 56 21 57 26 58 22 59 23 60 25 61 27 62 24 63 46 64
REMARK SMILES IDX 47 65 52 66 48 67 49 68 51 69 53 70 50 71 34 72 35 73 40 74
REMARK SMILES IDX 36 75 37 76 39 77 41 78 38 79
REMARK H PARENT 58 41 32 52
REMARK Flexibility Score: inf
ROOT
ATOM      1  C   UNL A   1      33.588  37.164  29.826  1.00  0.00     0.274 C 
ENDROOT
BRANCH   1   2
ATOM      2  O   UNL A   1      32.708  37.434  30.934  1.00  0.00    -0.462 OA
BRANCH   2   3
ATOM      3  C   UNL A   1      33.276  37.454  32.174  1.00  0.00     0.313 C 
ATOM      4  O   UNL A   1      34.081  38.299  32.553  1.00  0.00    -0.252 OA
BRANCH   3   5
ATOM      5  C   UNL A   1      32.842  36.252  33.011  1.00  0.00     0.126 C 
ATOM      6  C   UNL A   1      31.463  35.755  32.548  1.00  0.00     0.025 C 
BRANCH   5   7
ATOM      7  C   UNL A   1      33.890  35.146  33.095  1.00  0.00    -0.031 A 
ATOM      8  C   UNL A   1      33.630  33.802  32.786  1.00  0.00     0.005 A 
ATOM      9  C   UNL A   1      35.183  35.474  33.526  1.00  0.00     0.044 A 
ATOM     10  C   UNL A   1      34.618  32.818  32.948  1.00  0.00     0.012 A 
ATOM     11  C   UNL A   1      36.162  34.491  33.680  1.00  0.00     0.131 A 
ATOM     12  C   UNL A   1      35.902  33.140  33.419  1.00  0.00     0.017 A 
ATOM     13  F   UNL A   1      37.373  34.880  34.110  1.00  0.00    -0.206 F 
BRANCH  12  14
ATOM     14  C   UNL A   1      36.912  32.095  33.668  1.00  0.00    -0.015 A 
ATOM     15  C   UNL A   1      37.880  32.232  34.676  1.00  0.00     0.009 A 
ATOM     16  C   UNL A   1      36.944  30.928  32.884  1.00  0.00     0.009 A 
ATOM     17  C   UNL A   1      38.842  31.238  34.892  1.00  0.00     0.001 A 
ATOM     18  C   UNL A   1      37.902  29.935  33.097  1.00  0.00     0.001 A 
ATOM     19  C   UNL A   1      38.852  30.091  34.102  1.00  0.00     0.000 A 
ENDBRANCH  12  14
ENDBRANCH   5   7
ENDBRANCH   3   5
ENDBRANCH   2   3
ENDBRANCH   1   2
BRANCH   1  20
ATOM     20  C   UNL A   1      32.860  36.353  28.760  1.00  0.00     0.275 C 
BRANCH  20  21
ATOM     21  O   UNL A   1      32.712  34.999  29.221  1.00  0.00    -0.458 OA
BRANCH  21  22
ATOM     22  C   UNL A   1      32.968  34.031  28.315  1.00  0.00     0.338 C 
ATOM     23  O   UNL A   1      32.249  33.638  27.414  1.00  0.00    -0.246 OA
BRANCH  22  24
ATOM     24  C   UNL A   1      34.290  33.453  28.603  1.00  0.00     0.060 A 
ATOM     25  C   UNL A   1      34.412  32.362  29.465  1.00  0.00     0.016 A 
ATOM     26  C   UNL A   1      35.426  34.054  28.063  1.00  0.00     0.016 A 
ATOM     27  C   UNL A   1      35.674  31.896  29.831  1.00  0.00     0.010 A 
ATOM     28  C   UNL A   1      36.688  33.547  28.379  1.00  0.00     0.010 A 
ATOM     29  C   UNL A   1      36.826  32.481  29.287  1.00  0.00    -0.014 A 
BRANCH  29  30
ATOM     30  C   UNL A   1      38.179  32.024  29.698  1.00  0.00     0.031 A 
ATOM     31  C   UNL A   1      38.708  30.710  29.189  1.00  0.00     0.074 A 
ATOM     32  C   UNL A   1      38.930  32.767  30.532  1.00  0.00     0.049 A 
ATOM     33  N   UNL A   1      39.770  30.044  29.561  1.00  0.00    -0.248 NA
ATOM     34  C   UNL A   1      37.927  30.054  28.127  1.00  0.00     0.031 C 
ATOM     35  C   UNL A   1      38.561  34.076  31.069  1.00  0.00     0.029 A 
ATOM     36  N   UNL A   1      40.164  32.518  31.080  1.00  0.00    -0.354 N 
ATOM     37  C   UNL A   1      39.760  28.870  28.818  1.00  0.00     0.074 A 
ATOM     38  C   UNL A   1      38.586  28.914  27.972  1.00  0.00     0.031 C 
ATOM     39  C   UNL A   1      39.554  34.524  31.855  1.00  0.00     0.029 A 
ATOM     40  C   UNL A   1      40.597  33.506  31.930  1.00  0.00     0.049 A 
ATOM     41  H   UNL A   1      40.690  31.709  30.881  1.00  0.00     0.167 HD
ATOM     42  C   UNL A   1      40.648  27.848  28.841  1.00  0.00     0.037 A 
ATOM     43  C   UNL A   1      41.692  33.569  32.710  1.00  0.00     0.037 A 
ATOM     44  C   UNL A   1      41.841  27.825  29.644  1.00  0.00     0.049 A 
ATOM     45  C   UNL A   1      42.651  32.414  32.735  1.00  0.00     0.074 A 
ATOM     46  C   UNL A   1      42.812  26.840  29.720  1.00  0.00     0.029 A 
ATOM     47  N   UNL A   1      42.234  28.842  30.501  1.00  0.00    -0.354 N 
ATOM     48  N   UNL A   1      42.609  31.290  32.062  1.00  0.00    -0.248 NA
ATOM     49  C   UNL A   1      43.802  32.527  33.643  1.00  0.00     0.031 C 
ATOM     50  C   UNL A   1      43.781  27.251  30.642  1.00  0.00     0.029 A 
ATOM     51  C   UNL A   1      43.428  28.505  31.116  1.00  0.00     0.049 A 
ATOM     52  H   UNL A   1      41.738  29.678  30.651  1.00  0.00     0.167 HD
ATOM     53  C   UNL A   1      43.727  30.568  32.456  1.00  0.00     0.074 A 
ATOM     54  C   UNL A   1      44.440  31.389  33.413  1.00  0.00     0.031 C 
ATOM     55  C   UNL A   1      44.125  29.335  32.063  1.00  0.00     0.037 A 
BRANCH  42  56
ATOM     56  C   UNL A   1      40.347  26.653  27.989  1.00  0.00     0.057 A 
ATOM     57  C   UNL A   1      40.906  26.488  26.716  1.00  0.00     0.134 A 
ATOM     58  C   UNL A   1      39.510  25.636  28.467  1.00  0.00     0.134 A 
ATOM     59  F   UNL A   1      41.701  27.434  26.196  1.00  0.00    -0.206 F 
ATOM     60  C   UNL A   1      40.631  25.359  25.941  1.00  0.00     0.040 A 
ATOM     61  C   UNL A   1      39.245  24.493  27.710  1.00  0.00     0.040 A 
ATOM     62  F   UNL A   1      38.945  25.732  29.680  1.00  0.00    -0.206 F 
ATOM     63  C   UNL A   1      39.804  24.355  26.442  1.00  0.00     0.006 A 
ENDBRANCH  42  56
BRANCH  43  64
ATOM     64  C   UNL A   1      41.925  34.761  33.561  1.00  0.00     0.057 A 
ATOM     65  C   UNL A   1      42.696  35.835  33.102  1.00  0.00     0.134 A 
ATOM     66  C   UNL A   1      41.390  34.853  34.851  1.00  0.00     0.134 A 
ATOM     67  F   UNL A   1      43.256  35.792  31.884  1.00  0.00    -0.206 F 
ATOM     68  C   UNL A   1      42.932  36.957  33.899  1.00  0.00     0.040 A 
ATOM     69  C   UNL A   1      41.599  35.978  35.650  1.00  0.00     0.040 A 
ATOM     70  F   UNL A   1      40.643  33.855  35.347  1.00  0.00    -0.206 F 
ATOM     71  C   UNL A   1      42.376  37.032  35.174  1.00  0.00     0.006 A 
ENDBRANCH  43  64
BRANCH  55  72
ATOM     72  C   UNL A   1      45.400  28.811  32.651  1.00  0.00     0.057 A 
ATOM     73  C   UNL A   1      46.644  29.084  32.069  1.00  0.00     0.134 A 
ATOM     74  C   UNL A   1      45.384  28.053  33.828  1.00  0.00     0.134 A 
ATOM     75  F   UNL A   1      46.721  29.793  30.933  1.00  0.00    -0.206 F 
ATOM     76  C   UNL A   1      47.829  28.605  32.630  1.00  0.00     0.040 A 
ATOM     77  C   UNL A   1      46.564  27.585  34.408  1.00  0.00     0.040 A 
ATOM     78  F   UNL A   1      44.224  27.763  34.436  1.00  0.00    -0.206 F 
ATOM     79  C   UNL A   1      47.791  27.858  33.806  1.00  0.00     0.006 A 
ENDBRANCH  55  72
ENDBRANCH  29  30
ENDBRANCH  22  24
ENDBRANCH  21  22
ENDBRANCH  20  21
ENDBRANCH   1  20
TORSDOF 13
ENDMDL
MODEL 2
REMARK VINA RESULT:     -10.0      5.032     11.605
REMARK SMILES C[C@H](C(=O)OCCOC(=O)c1ccc(-c2c3nc(c(-c4c(F)cccc4F)c4ccc([nH]4)c(-c4c(F)cccc4F)c4nc(c(-c5c(F)cccc5F)c5ccc2[nH]5)C=C4)C=C3)cc1)c1ccc(-c2ccccc2)c(F)c1
REMARK SMILES IDX 6 1 5 2 3 3 4 4 2 5 1 6 65 7 66 8 77 9 67 10 75 11 68 12
REMARK SMILES IDX 76 13 69 14 70 15 74 16 71 17 73 18 72 19 7 20 8 21 9 22
REMARK SMILES IDX 10 23 11 24 12 25 64 26 13 27 63 28 14 29 15 30 16 31 57 32
REMARK SMILES IDX 17 33 62 34 56 35 58 36 18 37 61 38 55 39 54 40 19 42 45 43
REMARK SMILES IDX 28 44 44 45 29 46 32 47 43 48 59 49 30 50 31 51 42 53 60 54
REMARK SMILES IDX 33 55 20 56 21 57 26 58 22 59 23 60 25 61 27 62 24 63 46 64
REMARK SMILES IDX 47 65 52 66 48 67 49 68 51 69 53 70 50 71 34 72 35 73 40 74
REMARK SMILES IDX 36 75 37 76 39 77 41 78 38 79
REMARK H PARENT 58 41 32 52
REMARK Flexibility Score: inf
ROOT
ATOM      1  C   UNL A   1      44.482  20.365  25.330  1.00  0.00     0.274 C 
ENDROOT
BRANCH   1   2
ATOM      2  O   UNL A   1      43.042  20.368  25.293  1.00  0.00    -0.462 OA
BRANCH   2   3
ATOM      3  C   UNL A   1      42.415  19.311  25.886  1.00  0.00     0.313 C 
ATOM      4  O   UNL A   1      42.623  18.136  25.604  1.00  0.00    -0.252 OA
BRANCH   3   5
ATOM      5  C   UNL A   1      41.367  19.774  26.897  1.00  0.00     0.126 C 
ATOM      6  C   UNL A   1      42.009  20.707  27.935  1.00  0.00     0.025 C 
BRANCH   5   7
ATOM      7  C   UNL A   1      40.106  20.350  26.259  1.00  0.00    -0.031 A 
ATOM      8  C   UNL A   1      39.729  21.698  26.359  1.00  0.00     0.005 A 
ATOM      9  C   UNL A   1      39.254  19.490  25.551  1.00  0.00     0.044 A 
ATOM     10  C   UNL A   1      38.521  22.154  25.808  1.00  0.00     0.012 A 
ATOM     11  C   UNL A   1      38.058  19.951  25.002  1.00  0.00     0.131 A 
ATOM     12  C   UNL A   1      37.649  21.284  25.134  1.00  0.00     0.017 A 
ATOM     13  F   UNL A   1      37.289  19.066  24.349  1.00  0.00    -0.206 F 
BRANCH  12  14
ATOM     14  C   UNL A   1      36.343  21.747  24.629  1.00  0.00    -0.015 A 
ATOM     15  C   UNL A   1      35.135  21.278  25.171  1.00  0.00     0.009 A 
ATOM     16  C   UNL A   1      36.269  22.667  23.569  1.00  0.00     0.009 A 
ATOM     17  C   UNL A   1      33.902  21.715  24.673  1.00  0.00     0.001 A 
ATOM     18  C   UNL A   1      35.041  23.106  23.070  1.00  0.00     0.001 A 
ATOM     19  C   UNL A   1      33.857  22.628  23.622  1.00  0.00     0.000 A 
ENDBRANCH  12  14
ENDBRANCH   5   7
ENDBRANCH   3   5
ENDBRANCH   2   3
ENDBRANCH   1   2
BRANCH   1  20
ATOM     20  C   UNL A   1      45.009  21.795  25.387  1.00  0.00     0.275 C 
BRANCH  20  21
ATOM     21  O   UNL A   1      44.084  22.607  26.129  1.00  0.00    -0.458 OA
BRANCH  21  22
ATOM     22  C   UNL A   1      43.450  23.576  25.432  1.00  0.00     0.338 C 
ATOM     23  O   UNL A   1      43.304  23.658  24.225  1.00  0.00    -0.246 OA
BRANCH  22  24
ATOM     24  C   UNL A   1      42.969  24.597  26.375  1.00  0.00     0.060 A 
ATOM     25  C   UNL A   1      43.471  25.898  26.325  1.00  0.00     0.016 A 
ATOM     26  C   UNL A   1      42.060  24.230  27.366  1.00  0.00     0.016 A 
ATOM     27  C   UNL A   1      43.104  26.828  27.296  1.00  0.00     0.010 A 
ATOM     28  C   UNL A   1      41.642  25.180  28.301  1.00  0.00     0.010 A 
ATOM     29  C   UNL A   1      42.181  26.480  28.292  1.00  0.00    -0.014 A 
BRANCH  29  30
ATOM     30  C   UNL A   1      41.810  27.446  29.358  1.00  0.00     0.031 A 
ATOM     31  C   UNL A   1      42.585  27.468  30.647  1.00  0.00     0.074 A 
ATOM     32  C   UNL A   1      40.778  28.294  29.186  1.00  0.00     0.049 A 
ATOM     33  N   UNL A   1      42.319  28.095  31.764  1.00  0.00    -0.248 NA
ATOM     34  C   UNL A   1      43.818  26.665  30.687  1.00  0.00     0.031 C 
ATOM     35  C   UNL A   1      39.966  28.410  27.974  1.00  0.00     0.029 A 
ATOM     36  N   UNL A   1      40.231  29.217  30.042  1.00  0.00    -0.354 N 
ATOM     37  C   UNL A   1      43.320  27.725  32.654  1.00  0.00     0.074 A 
ATOM     38  C   UNL A   1      44.200  26.819  31.947  1.00  0.00     0.031 C 
ATOM     39  C   UNL A   1      39.038  29.362  28.157  1.00  0.00     0.029 A 
ATOM     40  C   UNL A   1      39.145  29.875  29.520  1.00  0.00     0.049 A 
ATOM     41  H   UNL A   1      40.585  29.392  30.945  1.00  0.00     0.167 HD
ATOM     42  C   UNL A   1      43.488  28.104  33.942  1.00  0.00     0.037 A 
ATOM     43  C   UNL A   1      38.306  30.764  30.085  1.00  0.00     0.037 A 
ATOM     44  C   UNL A   1      42.642  29.043  34.631  1.00  0.00     0.049 A 
ATOM     45  C   UNL A   1      38.501  31.153  31.523  1.00  0.00     0.074 A 
ATOM     46  C   UNL A   1      42.744  29.504  35.933  1.00  0.00     0.029 A 
ATOM     47  N   UNL A   1      41.544  29.675  34.067  1.00  0.00    -0.354 N 
ATOM     48  N   UNL A   1      39.424  30.763  32.367  1.00  0.00    -0.248 NA
ATOM     49  C   UNL A   1      37.523  32.092  32.092  1.00  0.00     0.031 C 
ATOM     50  C   UNL A   1      41.693  30.399  36.164  1.00  0.00     0.029 A 
ATOM     51  C   UNL A   1      40.956  30.516  34.997  1.00  0.00     0.049 A 
ATOM     52  H   UNL A   1      41.229  29.546  33.144  1.00  0.00     0.167 HD
ATOM     53  C   UNL A   1      39.146  31.415  33.562  1.00  0.00     0.074 A 
ATOM     54  C   UNL A   1      37.979  32.239  33.328  1.00  0.00     0.031 C 
ATOM     55  C   UNL A   1      39.798  31.333  34.746  1.00  0.00     0.037 A 
BRANCH  42  56
ATOM     56  C   UNL A   1      44.617  27.481  34.704  1.00  0.00     0.057 A 
ATOM     57  C   UNL A   1      44.464  26.283  35.413  1.00  0.00     0.134 A 
ATOM     58  C   UNL A   1      45.888  28.073  34.697  1.00  0.00     0.134 A 
ATOM     59  F   UNL A   1      43.270  25.677  35.471  1.00  0.00    -0.206 F 
ATOM     60  C   UNL A   1      45.532  25.704  36.102  1.00  0.00     0.040 A 
ATOM     61  C   UNL A   1      46.967  27.492  35.365  1.00  0.00     0.040 A 
ATOM     62  F   UNL A   1      46.101  29.220  34.034  1.00  0.00    -0.206 F 
ATOM     63  C   UNL A   1      46.789  26.306  36.073  1.00  0.00     0.006 A 
ENDBRANCH  42  56
BRANCH  43  64
ATOM     64  C   UNL A   1      37.183  31.325  29.297  1.00  0.00     0.057 A 
ATOM     65  C   UNL A   1      36.025  30.575  29.059  1.00  0.00     0.134 A 
ATOM     66  C   UNL A   1      37.241  32.616  28.759  1.00  0.00     0.134 A 
ATOM     67  F   UNL A   1      35.923  29.323  29.526  1.00  0.00    -0.206 F 
ATOM     68  C   UNL A   1      34.966  31.089  28.307  1.00  0.00     0.040 A 
ATOM     69  C   UNL A   1      36.180  33.149  28.026  1.00  0.00     0.040 A 
ATOM     70  F   UNL A   1      38.325  33.382  28.953  1.00  0.00    -0.206 F 
ATOM     71  C   UNL A   1      35.040  32.383  27.795  1.00  0.00     0.006 A 
ENDBRANCH  43  64
BRANCH  55  72
ATOM     72  C   UNL A   1      39.275  32.174  35.870  1.00  0.00     0.057 A 
ATOM     73  C   UNL A   1      39.707  33.492  36.063  1.00  0.00     0.134 A 
ATOM     74  C   UNL A   1      38.307  31.671  36.748  1.00  0.00     0.134 A 
ATOM     75  F   UNL A   1      40.642  34.025  35.262  1.00  0.00    -0.206 F 
ATOM     76  C   UNL A   1      39.206  34.276  37.103  1.00  0.00     0.040 A 
ATOM     77  C   UNL A   1      37.785  32.452  37.781  1.00  0.00     0.040 A 
ATOM     78  F   UNL A   1      37.850  30.418  36.611  1.00  0.00    -0.206 F 
ATOM     79  C   UNL A   1      38.238  33.758  37.962  1.00  0.00     0.006 A 
ENDBRANCH  55  72
ENDBRANCH  29  30
ENDBRANCH  22  24
ENDBRANCH  21  22
ENDBRANCH  20  21
ENDBRANCH   1  20
TORSDOF 13
ENDMDL
MODEL 3
REMARK VINA RESULT:      -9.9      4.897     10.869
REMARK SMILES C[C@H](C(=O)OCCOC(=O)c1ccc(-c2c3nc(c(-c4c(F)cccc4F)c4ccc([nH]4)c(-c4c(F)cccc4F)c4nc(c(-c5c(F)cccc5F)c5ccc2[nH]5)C=C4)C=C3)cc1)c1ccc(-c2ccccc2)c(F)c1
REMARK SMILES IDX 6 1 5 2 3 3 4 4 2 5 1 6 65 7 66 8 77 9 67 10 75 11 68 12
REMARK SMILES IDX 76 13 69 14 70 15 74 16 71 17 73 18 72 19 7 20 8 21 9 22
REMARK SMILES IDX 10 23 11 24 12 25 64 26 13 27 63 28 14 29 15 30 16 31 57 32
REMARK SMILES IDX 17 33 62 34 56 35 58 36 18 37 61 38 55 39 54 40 19 42 45 43
REMARK SMILES IDX 28 44 44 45 29 46 32 47 43 48 59 49 30 50 31 51 42 53 60 54
REMARK SMILES IDX 33 55 20 56 21 57 26 58 22 59 23 60 25 61 27 62 24 63 46 64
REMARK SMILES IDX 47 65 52 66 48 67 49 68 51 69 53 70 50 71 34 72 35 73 40 74
REMARK SMILES IDX 36 75 37 76 39 77 41 78 38 79
REMARK H PARENT 58 41 32 52
REMARK Flexibility Score: inf
ROOT
ATOM      1  C   UNL A   1      43.972  21.836  25.279  1.00  0.00     0.274 C 
ENDROOT
BRANCH   1   2
ATOM      2  O   UNL A   1      42.586  21.460  25.395  1.00  0.00    -0.462 OA
BRANCH   2   3
ATOM      3  C   UNL A   1      42.274  20.582  26.392  1.00  0.00     0.313 C 
ATOM      4  O   UNL A   1      42.695  19.433  26.458  1.00  0.00    -0.252 OA
BRANCH   3   5
ATOM      5  C   UNL A   1      41.277  21.185  27.380  1.00  0.00     0.126 C 
ATOM      6  C   UNL A   1      42.001  22.125  28.356  1.00  0.00     0.025 C 
BRANCH   5   7
ATOM      7  C   UNL A   1      40.057  21.820  26.718  1.00  0.00    -0.031 A 
ATOM      8  C   UNL A   1      39.684  23.161  26.895  1.00  0.00     0.005 A 
ATOM      9  C   UNL A   1      39.241  21.022  25.903  1.00  0.00     0.044 A 
ATOM     10  C   UNL A   1      38.512  23.668  26.313  1.00  0.00     0.012 A 
ATOM     11  C   UNL A   1      38.080  21.534  25.323  1.00  0.00     0.131 A 
ATOM     12  C   UNL A   1      37.673  22.859  25.529  1.00  0.00     0.017 A 
ATOM     13  F   UNL A   1      37.343  20.707  24.566  1.00  0.00    -0.206 F 
BRANCH  12  14
ATOM     14  C   UNL A   1      36.400  23.370  24.988  1.00  0.00    -0.015 A 
ATOM     15  C   UNL A   1      36.050  23.196  23.639  1.00  0.00     0.009 A 
ATOM     16  C   UNL A   1      35.500  24.069  25.813  1.00  0.00     0.009 A 
ATOM     17  C   UNL A   1      34.844  23.699  23.137  1.00  0.00     0.001 A 
ATOM     18  C   UNL A   1      34.297  24.572  25.313  1.00  0.00     0.001 A 
ATOM     19  C   UNL A   1      33.970  24.387  23.974  1.00  0.00     0.000 A 
ENDBRANCH  12  14
ENDBRANCH   5   7
ENDBRANCH   3   5
ENDBRANCH   2   3
ENDBRANCH   1   2
BRANCH   1  20
ATOM     20  C   UNL A   1      44.132  22.944  24.244  1.00  0.00     0.275 C 
BRANCH  20  21
ATOM     21  O   UNL A   1      43.470  24.128  24.719  1.00  0.00    -0.458 OA
BRANCH  21  22
ATOM     22  C   UNL A   1      44.273  25.140  25.117  1.00  0.00     0.338 C 
ATOM     23  O   UNL A   1      45.380  25.426  24.699  1.00  0.00    -0.246 OA
BRANCH  22  24
ATOM     24  C   UNL A   1      43.611  25.865  26.213  1.00  0.00     0.060 A 
ATOM     25  C   UNL A   1      43.986  27.173  26.524  1.00  0.00     0.016 A 
ATOM     26  C   UNL A   1      42.655  25.204  26.984  1.00  0.00     0.016 A 
ATOM     27  C   UNL A   1      43.444  27.811  27.638  1.00  0.00     0.010 A 
ATOM     28  C   UNL A   1      42.065  25.867  28.062  1.00  0.00     0.010 A 
ATOM     29  C   UNL A   1      42.473  27.166  28.416  1.00  0.00    -0.014 A 
BRANCH  29  30
ATOM     30  C   UNL A   1      41.915  27.816  29.630  1.00  0.00     0.031 A 
ATOM     31  C   UNL A   1      40.656  28.634  29.526  1.00  0.00     0.074 A 
ATOM     32  C   UNL A   1      42.533  27.692  30.820  1.00  0.00     0.049 A 
ATOM     33  N   UNL A   1      40.106  29.426  30.410  1.00  0.00    -0.248 NA
ATOM     34  C   UNL A   1      39.927  28.557  28.249  1.00  0.00     0.031 C 
ATOM     35  C   UNL A   1      43.735  26.898  31.074  1.00  0.00     0.029 A 
ATOM     36  N   UNL A   1      42.232  28.243  32.041  1.00  0.00    -0.354 N 
ATOM     37  C   UNL A   1      38.998  29.981  29.783  1.00  0.00     0.074 A 
ATOM     38  C   UNL A   1      38.951  29.434  28.443  1.00  0.00     0.031 C 
ATOM     39  C   UNL A   1      44.060  26.999  32.373  1.00  0.00     0.029 A 
ATOM     40  C   UNL A   1      43.131  27.916  33.027  1.00  0.00     0.049 A 
ATOM     41  H   UNL A   1      41.448  28.817  32.196  1.00  0.00     0.167 HD
ATOM     42  C   UNL A   1      38.102  30.867  30.278  1.00  0.00     0.037 A 
ATOM     43  C   UNL A   1      43.219  28.334  34.303  1.00  0.00     0.037 A 
ATOM     44  C   UNL A   1      38.118  31.373  31.625  1.00  0.00     0.049 A 
ATOM     45  C   UNL A   1      42.226  29.334  34.824  1.00  0.00     0.074 A 
ATOM     46  C   UNL A   1      37.240  32.260  32.225  1.00  0.00     0.029 A 
ATOM     47  N   UNL A   1      39.054  31.024  32.587  1.00  0.00    -0.354 N 
ATOM     48  N   UNL A   1      41.208  29.885  34.209  1.00  0.00    -0.248 NA
ATOM     49  C   UNL A   1      42.406  29.784  36.212  1.00  0.00     0.031 C 
ATOM     50  C   UNL A   1      37.660  32.466  33.544  1.00  0.00     0.029 A 
ATOM     51  C   UNL A   1      38.780  31.684  33.773  1.00  0.00     0.049 A 
ATOM     52  H   UNL A   1      39.803  30.401  32.447  1.00  0.00     0.167 HD
ATOM     53  C   UNL A   1      40.622  30.738  35.135  1.00  0.00     0.074 A 
ATOM     54  C   UNL A   1      41.386  30.617  36.360  1.00  0.00     0.031 C 
ATOM     55  C   UNL A   1      39.548  31.550  34.982  1.00  0.00     0.037 A 
BRANCH  42  56
ATOM     56  C   UNL A   1      37.040  31.368  29.348  1.00  0.00     0.057 A 
ATOM     57  C   UNL A   1      35.931  30.589  28.997  1.00  0.00     0.134 A 
ATOM     58  C   UNL A   1      37.114  32.666  28.824  1.00  0.00     0.134 A 
ATOM     59  F   UNL A   1      35.812  29.334  29.453  1.00  0.00    -0.206 F 
ATOM     60  C   UNL A   1      34.939  31.078  28.144  1.00  0.00     0.040 A 
ATOM     61  C   UNL A   1      36.118  33.172  27.987  1.00  0.00     0.040 A 
ATOM     62  F   UNL A   1      38.149  33.464  29.124  1.00  0.00    -0.206 F 
ATOM     63  C   UNL A   1      35.029  32.376  27.642  1.00  0.00     0.006 A 
ENDBRANCH  42  56
BRANCH  43  64
ATOM     64  C   UNL A   1      44.311  27.832  35.172  1.00  0.00     0.057 A 
ATOM     65  C   UNL A   1      44.126  26.708  35.985  1.00  0.00     0.134 A 
ATOM     66  C   UNL A   1      45.559  28.465  35.216  1.00  0.00     0.134 A 
ATOM     67  F   UNL A   1      42.944  26.076  36.005  1.00  0.00    -0.206 F 
ATOM     68  C   UNL A   1      45.143  26.234  36.816  1.00  0.00     0.040 A 
ATOM     69  C   UNL A   1      46.591  27.988  36.025  1.00  0.00     0.040 A 
ATOM     70  F   UNL A   1      45.796  29.548  34.460  1.00  0.00    -0.206 F 
ATOM     71  C   UNL A   1      46.382  26.872  36.831  1.00  0.00     0.006 A 
ENDBRANCH  43  64
BRANCH  55  72
ATOM     72  C   UNL A   1      39.127  32.352  36.175  1.00  0.00     0.057 A 
ATOM     73  C   UNL A   1      39.595  33.654  36.387  1.00  0.00     0.134 A 
ATOM     74  C   UNL A   1      38.219  31.827  37.103  1.00  0.00     0.134 A 
ATOM     75  F   UNL A   1      40.476  34.206  35.540  1.00  0.00    -0.206 F 
ATOM     76  C   UNL A   1      39.187  34.402  37.493  1.00  0.00     0.040 A 
ATOM     77  C   UNL A   1      37.789  32.572  38.202  1.00  0.00     0.040 A 
ATOM     78  F   UNL A   1      37.730  30.588  36.951  1.00  0.00    -0.206 F 
ATOM     79  C   UNL A   1      38.278  33.863  38.401  1.00  0.00     0.006 A 
ENDBRANCH  55  72
ENDBRANCH  29  30
ENDBRANCH  22  24
ENDBRANCH  21  22
ENDBRANCH  20  21
ENDBRANCH   1  20
TORSDOF 13
ENDMDL
