MODEL 1
REMARK VINA RESULT:     -11.2      0.000      0.000
REMARK SMILES O=C(OCCOC(=O)[C@@H]1[C@H](C(=O)NCc2cccnc2)[C@H]2C=C[C@@H]1C2)c1ccc(-c2c3nc(c(-c4c(F)cccc4F)c4ccc([nH]4)c(-c4c(F)cccc4F)c4nc(c(-c5c(F)cccc5F)c5ccc2[nH]5)C=C4)C=C3)cc1
REMARK SMILES IDX 5 1 4 2 3 3 2 4 1 5 26 6 27 7 79 8 28 9 78 10 29 11 30 12
REMARK SMILES IDX 31 13 72 14 32 15 77 16 71 17 73 18 33 19 76 20 70 21 69 22
REMARK SMILES IDX 34 24 60 25 43 26 59 27 44 28 47 29 58 30 74 31 45 32 46 33
REMARK SMILES IDX 57 35 75 36 48 37 35 38 36 39 41 40 37 41 38 42 40 43 42 44
REMARK SMILES IDX 39 45 61 46 62 47 67 48 63 49 64 50 66 51 68 52 65 53 49 54
REMARK SMILES IDX 50 55 55 56 51 57 52 58 54 59 56 60 53 61 6 62 7 63 8 64
REMARK SMILES IDX 9 65 10 66 24 67 21 68 23 69 25 70 22 71 11 72 12 73 13 74
REMARK SMILES IDX 14 76 15 77 16 78 20 79 17 80 19 81 18 82
REMARK H PARENT 73 23 47 34 13 75
REMARK Flexibility Score: inf
ROOT
ATOM      1  C   UNL A   1      31.307  31.645  26.499  1.00  0.00     0.274 C 
ENDROOT
BRANCH   1   2
ATOM      2  C   UNL A   1      31.810  33.082  26.503  1.00  0.00     0.275 C 
BRANCH   2   3
ATOM      3  O   UNL A   1      32.186  33.579  27.801  1.00  0.00    -0.458 OA
BRANCH   3   4
ATOM      4  C   UNL A   1      33.350  34.144  28.193  1.00  0.00     0.338 C 
ATOM      5  O   UNL A   1      33.407  35.371  28.264  1.00  0.00    -0.246 OA
BRANCH   4   6
ATOM      6  C   UNL A   1      34.573  33.362  28.587  1.00  0.00     0.060 A 
ATOM      7  C   UNL A   1      35.891  33.618  28.206  1.00  0.00     0.016 A 
ATOM      8  C   UNL A   1      34.357  32.251  29.422  1.00  0.00     0.016 A 
ATOM      9  C   UNL A   1      36.968  32.893  28.753  1.00  0.00     0.010 A 
ATOM     10  C   UNL A   1      35.426  31.538  29.979  1.00  0.00     0.010 A 
ATOM     11  C   UNL A   1      36.756  31.893  29.696  1.00  0.00    -0.014 A 
BRANCH  11  12
ATOM     12  C   UNL A   1      37.879  31.112  30.286  1.00  0.00     0.031 A 
ATOM     13  C   UNL A   1      38.353  31.546  31.630  1.00  0.00     0.074 A 
ATOM     14  C   UNL A   1      38.491  30.064  29.686  1.00  0.00     0.049 A 
ATOM     15  N   UNL A   1      39.348  31.086  32.333  1.00  0.00    -0.248 NA
ATOM     16  C   UNL A   1      37.568  32.606  32.284  1.00  0.00     0.031 C 
ATOM     17  C   UNL A   1      38.050  29.396  28.472  1.00  0.00     0.029 A 
ATOM     18  N   UNL A   1      39.657  29.396  29.987  1.00  0.00    -0.354 N 
ATOM     19  C   UNL A   1      39.247  31.731  33.551  1.00  0.00     0.074 A 
ATOM     20  C   UNL A   1      38.201  32.723  33.437  1.00  0.00     0.031 C 
ATOM     21  C   UNL A   1      38.996  28.551  28.029  1.00  0.00     0.029 A 
ATOM     22  C   UNL A   1      40.095  28.562  28.975  1.00  0.00     0.049 A 
ATOM     23  H   UNL A   1      40.134  29.503  30.841  1.00  0.00     0.167 HD
ATOM     24  C   UNL A   1      39.901  31.448  34.695  1.00  0.00     0.037 A 
ATOM     25  C   UNL A   1      41.245  27.874  28.826  1.00  0.00     0.037 A 
ATOM     26  C   UNL A   1      40.971  30.501  34.792  1.00  0.00     0.049 A 
ATOM     27  C   UNL A   1      42.151  27.787  30.020  1.00  0.00     0.074 A 
ATOM     28  C   UNL A   1      41.747  30.186  35.889  1.00  0.00     0.029 A 
ATOM     29  N   UNL A   1      41.434  29.730  33.733  1.00  0.00    -0.354 N 
ATOM     30  N   UNL A   1      42.009  28.356  31.191  1.00  0.00    -0.248 NA
ATOM     31  C   UNL A   1      43.311  26.895  29.915  1.00  0.00     0.031 C 
ATOM     32  C   UNL A   1      42.717  29.264  35.482  1.00  0.00     0.029 A 
ATOM     33  C   UNL A   1      42.510  28.963  34.144  1.00  0.00     0.049 A 
ATOM     34  H   UNL A   1      41.053  29.730  32.826  1.00  0.00     0.167 HD
ATOM     35  C   UNL A   1      43.004  27.821  31.993  1.00  0.00     0.074 A 
ATOM     36  C   UNL A   1      43.757  26.901  31.164  1.00  0.00     0.031 C 
ATOM     37  C   UNL A   1      43.244  28.047  33.307  1.00  0.00     0.037 A 
BRANCH  24  38
ATOM     38  C   UNL A   1      39.425  32.191  35.900  1.00  0.00     0.057 A 
ATOM     39  C   UNL A   1      38.382  31.687  36.693  1.00  0.00     0.134 A 
ATOM     40  C   UNL A   1      39.917  33.462  36.200  1.00  0.00     0.134 A 
ATOM     41  F   UNL A   1      37.836  30.491  36.419  1.00  0.00    -0.206 F 
ATOM     42  C   UNL A   1      37.818  32.442  37.719  1.00  0.00     0.040 A 
ATOM     43  C   UNL A   1      39.378  34.217  37.242  1.00  0.00     0.040 A 
ATOM     44  F   UNL A   1      40.895  34.005  35.461  1.00  0.00    -0.206 F 
ATOM     45  C   UNL A   1      38.318  33.712  37.995  1.00  0.00     0.006 A 
ENDBRANCH  24  38
BRANCH  25  46
ATOM     46  C   UNL A   1      41.584  27.162  27.562  1.00  0.00     0.057 A 
ATOM     47  C   UNL A   1      41.346  25.792  27.398  1.00  0.00     0.134 A 
ATOM     48  C   UNL A   1      42.243  27.823  26.515  1.00  0.00     0.134 A 
ATOM     49  F   UNL A   1      40.734  25.096  28.367  1.00  0.00    -0.206 F 
ATOM     50  C   UNL A   1      41.787  25.096  26.268  1.00  0.00     0.040 A 
ATOM     51  C   UNL A   1      42.674  27.143  25.370  1.00  0.00     0.040 A 
ATOM     52  F   UNL A   1      42.501  29.136  26.598  1.00  0.00    -0.206 F 
ATOM     53  C   UNL A   1      42.459  25.771  25.252  1.00  0.00     0.006 A 
ENDBRANCH  25  46
BRANCH  37  54
ATOM     54  C   UNL A   1      44.334  27.242  33.943  1.00  0.00     0.057 A 
ATOM     55  C   UNL A   1      45.657  27.695  33.996  1.00  0.00     0.134 A 
ATOM     56  C   UNL A   1      44.042  26.009  34.542  1.00  0.00     0.134 A 
ATOM     57  F   UNL A   1      46.002  28.858  33.422  1.00  0.00    -0.206 F 
ATOM     58  C   UNL A   1      46.659  26.938  34.602  1.00  0.00     0.040 A 
ATOM     59  C   UNL A   1      45.029  25.261  35.181  1.00  0.00     0.040 A 
ATOM     60  F   UNL A   1      42.793  25.522  34.527  1.00  0.00    -0.206 F 
ATOM     61  C   UNL A   1      46.343  25.722  35.206  1.00  0.00     0.006 A 
ENDBRANCH  37  54
ENDBRANCH  11  12
ENDBRANCH   4   6
ENDBRANCH   3   4
ENDBRANCH   2   3
ENDBRANCH   1   2
BRANCH   1  62
ATOM     62  O   UNL A   1      32.326  30.674  26.785  1.00  0.00    -0.462 OA
BRANCH  62  63
ATOM     63  C   UNL A   1      32.573  29.854  25.725  1.00  0.00     0.310 C 
ATOM     64  O   UNL A   1      33.689  29.570  25.318  1.00  0.00    -0.252 OA
BRANCH  63  65
ATOM     65  C   UNL A   1      31.342  29.362  25.013  1.00  0.00     0.119 C 
ATOM     66  C   UNL A   1      30.949  27.894  25.340  1.00  0.00     0.100 C 
ATOM     67  C   UNL A   1      31.315  29.413  23.470  1.00  0.00     0.027 C 
ATOM     68  C   UNL A   1      30.659  27.312  23.951  1.00  0.00     0.025 C 
ATOM     69  C   UNL A   1      29.885  29.283  23.000  1.00  0.00    -0.027 C 
ATOM     70  C   UNL A   1      31.718  27.997  23.109  1.00  0.00     0.017 C 
ATOM     71  C   UNL A   1      29.481  28.037  23.305  1.00  0.00    -0.027 C 
BRANCH  66  72
ATOM     72  C   UNL A   1      31.782  27.100  26.371  1.00  0.00     0.224 C 
ATOM     73  O   UNL A   1      31.321  27.055  27.526  1.00  0.00    -0.275 OA
ATOM     74  N   UNL A   1      32.964  26.455  26.278  1.00  0.00    -0.352 N 
ATOM     75  H   UNL A   1      33.305  26.241  27.176  1.00  0.00     0.163 HD
BRANCH  74  76
ATOM     76  C   UNL A   1      33.891  25.979  25.261  1.00  0.00     0.153 C 
BRANCH  76  77
ATOM     77  C   UNL A   1      33.361  24.922  24.313  1.00  0.00    -0.010 A 
ATOM     78  C   UNL A   1      32.381  23.977  24.618  1.00  0.00     0.009 A 
ATOM     79  C   UNL A   1      33.919  24.821  23.037  1.00  0.00     0.116 A 
ATOM     80  C   UNL A   1      32.123  22.924  23.733  1.00  0.00     0.020 A 
ATOM     81  N   UNL A   1      33.723  23.796  22.177  1.00  0.00    -0.264 NA
ATOM     82  C   UNL A   1      32.841  22.853  22.552  1.00  0.00     0.111 A 
ENDBRANCH  76  77
ENDBRANCH  74  76
ENDBRANCH  66  72
ENDBRANCH  63  65
ENDBRANCH  62  63
ENDBRANCH   1  62
TORSDOF 14
ENDMDL
MODEL 2
REMARK VINA RESULT:     -11.2      3.393      5.115
REMARK SMILES O=C(OCCOC(=O)[C@@H]1[C@H](C(=O)NCc2cccnc2)[C@H]2C=C[C@@H]1C2)c1ccc(-c2c3nc(c(-c4c(F)cccc4F)c4ccc([nH]4)c(-c4c(F)cccc4F)c4nc(c(-c5c(F)cccc5F)c5ccc2[nH]5)C=C4)C=C3)cc1
REMARK SMILES IDX 5 1 4 2 3 3 2 4 1 5 26 6 27 7 79 8 28 9 78 10 29 11 30 12
REMARK SMILES IDX 31 13 72 14 32 15 77 16 71 17 73 18 33 19 76 20 70 21 69 22
REMARK SMILES IDX 34 24 60 25 43 26 59 27 44 28 47 29 58 30 74 31 45 32 46 33
REMARK SMILES IDX 57 35 75 36 48 37 35 38 36 39 41 40 37 41 38 42 40 43 42 44
REMARK SMILES IDX 39 45 61 46 62 47 67 48 63 49 64 50 66 51 68 52 65 53 49 54
REMARK SMILES IDX 50 55 55 56 51 57 52 58 54 59 56 60 53 61 6 62 7 63 8 64
REMARK SMILES IDX 9 65 10 66 24 67 21 68 23 69 25 70 22 71 11 72 12 73 13 74
REMARK SMILES IDX 14 76 15 77 16 78 20 79 17 80 19 81 18 82
REMARK H PARENT 73 23 47 34 13 75
REMARK Flexibility Score: inf
ROOT
ATOM      1  C   UNL A   1      33.209  27.128  25.946  1.00  0.00     0.274 C 
ENDROOT
BRANCH   1   2
ATOM      2  C   UNL A   1      34.064  28.388  25.949  1.00  0.00     0.275 C 
BRANCH   2   3
ATOM      3  O   UNL A   1      33.656  29.383  26.906  1.00  0.00    -0.458 OA
BRANCH   3   4
ATOM      4  C   UNL A   1      34.419  30.225  27.639  1.00  0.00     0.338 C 
ATOM      5  O   UNL A   1      33.955  31.326  27.932  1.00  0.00    -0.246 OA
BRANCH   4   6
ATOM      6  C   UNL A   1      35.790  29.882  28.154  1.00  0.00     0.060 A 
ATOM      7  C   UNL A   1      36.118  29.443  29.439  1.00  0.00     0.016 A 
ATOM      8  C   UNL A   1      36.850  30.029  27.243  1.00  0.00     0.016 A 
ATOM      9  C   UNL A   1      37.425  29.022  29.759  1.00  0.00     0.010 A 
ATOM     10  C   UNL A   1      38.146  29.598  27.554  1.00  0.00     0.010 A 
ATOM     11  C   UNL A   1      38.436  29.028  28.805  1.00  0.00    -0.014 A 
BRANCH  11  12
ATOM     12  C   UNL A   1      39.824  28.591  29.123  1.00  0.00     0.031 A 
ATOM     13  C   UNL A   1      40.725  29.623  29.707  1.00  0.00     0.074 A 
ATOM     14  C   UNL A   1      40.311  27.346  28.908  1.00  0.00     0.049 A 
ATOM     15  N   UNL A   1      41.988  29.527  30.012  1.00  0.00    -0.248 NA
ATOM     16  C   UNL A   1      40.105  30.917  30.036  1.00  0.00     0.031 C 
ATOM     17  C   UNL A   1      39.536  26.180  28.519  1.00  0.00     0.029 A 
ATOM     18  N   UNL A   1      41.597  26.854  28.934  1.00  0.00    -0.354 N 
ATOM     19  C   UNL A   1      42.286  30.712  30.656  1.00  0.00     0.074 A 
ATOM     20  C   UNL A   1      41.126  31.569  30.560  1.00  0.00     0.031 C 
ATOM     21  C   UNL A   1      40.348  25.168  28.173  1.00  0.00     0.029 A 
ATOM     22  C   UNL A   1      41.719  25.592  28.384  1.00  0.00     0.049 A 
ATOM     23  H   UNL A   1      42.358  27.354  29.309  1.00  0.00     0.167 HD
ATOM     24  C   UNL A   1      43.396  31.017  31.359  1.00  0.00     0.037 A 
ATOM     25  C   UNL A   1      42.807  24.852  28.090  1.00  0.00     0.037 A 
ATOM     26  C   UNL A   1      44.563  30.187  31.412  1.00  0.00     0.049 A 
ATOM     27  C   UNL A   1      44.126  25.334  28.621  1.00  0.00     0.074 A 
ATOM     28  C   UNL A   1      45.767  30.432  32.039  1.00  0.00     0.029 A 
ATOM     29  N   UNL A   1      44.676  28.953  30.784  1.00  0.00    -0.354 N 
ATOM     30  N   UNL A   1      44.383  26.432  29.286  1.00  0.00    -0.248 NA
ATOM     31  C   UNL A   1      45.280  24.441  28.455  1.00  0.00     0.031 C 
ATOM     32  C   UNL A   1      46.630  29.371  31.746  1.00  0.00     0.029 A 
ATOM     33  C   UNL A   1      45.945  28.438  30.981  1.00  0.00     0.049 A 
ATOM     34  H   UNL A   1      43.960  28.510  30.274  1.00  0.00     0.167 HD
ATOM     35  C   UNL A   1      45.700  26.322  29.702  1.00  0.00     0.074 A 
ATOM     36  C   UNL A   1      46.194  25.060  29.189  1.00  0.00     0.031 C 
ATOM     37  C   UNL A   1      46.418  27.176  30.469  1.00  0.00     0.037 A 
BRANCH  24  38
ATOM     38  C   UNL A   1      43.337  32.303  32.115  1.00  0.00     0.057 A 
ATOM     39  C   UNL A   1      42.812  32.351  33.416  1.00  0.00     0.134 A 
ATOM     40  C   UNL A   1      43.686  33.509  31.507  1.00  0.00     0.134 A 
ATOM     41  F   UNL A   1      42.413  31.226  34.031  1.00  0.00    -0.206 F 
ATOM     42  C   UNL A   1      42.599  33.563  34.071  1.00  0.00     0.040 A 
ATOM     43  C   UNL A   1      43.502  34.727  32.162  1.00  0.00     0.040 A 
ATOM     44  F   UNL A   1      44.169  33.526  30.256  1.00  0.00    -0.206 F 
ATOM     45  C   UNL A   1      42.946  34.756  33.441  1.00  0.00     0.006 A 
ENDBRANCH  24  38
BRANCH  25  46
ATOM     46  C   UNL A   1      42.714  23.571  27.335  1.00  0.00     0.057 A 
ATOM     47  C   UNL A   1      42.408  22.360  27.969  1.00  0.00     0.134 A 
ATOM     48  C   UNL A   1      43.020  23.514  25.968  1.00  0.00     0.134 A 
ATOM     49  F   UNL A   1      42.121  22.341  29.278  1.00  0.00    -0.206 F 
ATOM     50  C   UNL A   1      42.455  21.139  27.289  1.00  0.00     0.040 A 
ATOM     51  C   UNL A   1      43.053  22.300  25.271  1.00  0.00     0.040 A 
ATOM     52  F   UNL A   1      43.318  24.633  25.293  1.00  0.00    -0.206 F 
ATOM     53  C   UNL A   1      42.783  21.106  25.936  1.00  0.00     0.006 A 
ENDBRANCH  25  46
BRANCH  37  54
ATOM     54  C   UNL A   1      47.801  26.745  30.848  1.00  0.00     0.057 A 
ATOM     55  C   UNL A   1      48.925  27.120  30.105  1.00  0.00     0.134 A 
ATOM     56  C   UNL A   1      48.007  25.969  31.996  1.00  0.00     0.134 A 
ATOM     57  F   UNL A   1      48.790  27.845  28.984  1.00  0.00    -0.206 F 
ATOM     58  C   UNL A   1      50.208  26.718  30.477  1.00  0.00     0.040 A 
ATOM     59  C   UNL A   1      49.288  25.592  32.398  1.00  0.00     0.040 A 
ATOM     60  F   UNL A   1      46.970  25.580  32.753  1.00  0.00    -0.206 F 
ATOM     61  C   UNL A   1      50.392  25.961  31.633  1.00  0.00     0.006 A 
ENDBRANCH  37  54
ENDBRANCH  11  12
ENDBRANCH   4   6
ENDBRANCH   3   4
ENDBRANCH   2   3
ENDBRANCH   1   2
BRANCH   1  62
ATOM     62  O   UNL A   1      33.474  26.251  24.840  1.00  0.00    -0.462 OA
BRANCH  62  63
ATOM     63  C   UNL A   1      33.631  24.954  25.231  1.00  0.00     0.310 C 
ATOM     64  O   UNL A   1      32.767  24.292  25.782  1.00  0.00    -0.252 OA
BRANCH  63  65
ATOM     65  C   UNL A   1      35.008  24.393  25.002  1.00  0.00     0.119 C 
ATOM     66  C   UNL A   1      35.087  23.304  23.897  1.00  0.00     0.100 C 
ATOM     67  C   UNL A   1      35.751  23.758  26.197  1.00  0.00     0.027 C 
ATOM     68  C   UNL A   1      35.940  22.218  24.564  1.00  0.00     0.025 C 
ATOM     69  C   UNL A   1      37.221  23.654  25.862  1.00  0.00    -0.027 C 
ATOM     70  C   UNL A   1      35.450  22.286  25.998  1.00  0.00     0.017 C 
ATOM     71  C   UNL A   1      37.337  22.751  24.872  1.00  0.00    -0.027 C 
BRANCH  66  72
ATOM     72  C   UNL A   1      33.811  22.932  23.108  1.00  0.00     0.224 C 
ATOM     73  O   UNL A   1      33.675  23.484  22.001  1.00  0.00    -0.275 OA
ATOM     74  N   UNL A   1      32.764  22.133  23.403  1.00  0.00    -0.352 N 
ATOM     75  H   UNL A   1      32.028  22.291  22.769  1.00  0.00     0.163 HD
BRANCH  74  76
ATOM     76  C   UNL A   1      32.386  21.109  24.368  1.00  0.00     0.153 C 
BRANCH  76  77
ATOM     77  C   UNL A   1      32.859  19.700  24.070  1.00  0.00    -0.010 A 
ATOM     78  C   UNL A   1      33.930  19.057  24.689  1.00  0.00     0.009 A 
ATOM     79  C   UNL A   1      32.226  18.979  23.056  1.00  0.00     0.116 A 
ATOM     80  C   UNL A   1      34.400  17.838  24.188  1.00  0.00     0.020 A 
ATOM     81  N   UNL A   1      32.678  17.821  22.521  1.00  0.00    -0.264 NA
ATOM     82  C   UNL A   1      33.773  17.283  23.086  1.00  0.00     0.111 A 
ENDBRANCH  76  77
ENDBRANCH  74  76
ENDBRANCH  66  72
ENDBRANCH  63  65
ENDBRANCH  62  63
ENDBRANCH   1  62
TORSDOF 14
ENDMDL
MODEL 3
REMARK VINA RESULT:     -11.2      1.498      3.304
REMARK SMILES O=C(OCCOC(=O)[C@@H]1[C@H](C(=O)NCc2cccnc2)[C@H]2C=C[C@@H]1C2)c1ccc(-c2c3nc(c(-c4c(F)cccc4F)c4ccc([nH]4)c(-c4c(F)cccc4F)c4nc(c(-c5c(F)cccc5F)c5ccc2[nH]5)C=C4)C=C3)cc1
REMARK SMILES IDX 5 1 4 2 3 3 2 4 1 5 26 6 27 7 79 8 28 9 78 10 29 11 30 12
REMARK SMILES IDX 31 13 72 14 32 15 77 16 71 17 73 18 33 19 76 20 70 21 69 22
REMARK SMILES IDX 34 24 60 25 43 26 59 27 44 28 47 29 58 30 74 31 45 32 46 33
REMARK SMILES IDX 57 35 75 36 48 37 35 38 36 39 41 40 37 41 38 42 40 43 42 44
REMARK SMILES IDX 39 45 61 46 62 47 67 48 63 49 64 50 66 51 68 52 65 53 49 54
REMARK SMILES IDX 50 55 55 56 51 57 52 58 54 59 56 60 53 61 6 62 7 63 8 64
REMARK SMILES IDX 9 65 10 66 24 67 21 68 23 69 25 70 22 71 11 72 12 73 13 74
REMARK SMILES IDX 14 76 15 77 16 78 20 79 17 80 19 81 18 82
REMARK H PARENT 73 23 47 34 13 75
REMARK Flexibility Score: inf
ROOT
ATOM      1  C   UNL A   1      31.783  31.033  27.022  1.00  0.00     0.274 C 
ENDROOT
BRANCH   1   2
ATOM      2  C   UNL A   1      31.828  32.459  26.488  1.00  0.00     0.275 C 
BRANCH   2   3
ATOM      3  O   UNL A   1      31.928  33.474  27.505  1.00  0.00    -0.458 OA
BRANCH   3   4
ATOM      4  C   UNL A   1      33.033  34.052  28.026  1.00  0.00     0.338 C 
ATOM      5  O   UNL A   1      33.025  35.269  28.200  1.00  0.00    -0.246 OA
BRANCH   4   6
ATOM      6  C   UNL A   1      34.261  33.292  28.444  1.00  0.00     0.060 A 
ATOM      7  C   UNL A   1      35.569  33.501  28.000  1.00  0.00     0.016 A 
ATOM      8  C   UNL A   1      34.065  32.257  29.375  1.00  0.00     0.016 A 
ATOM      9  C   UNL A   1      36.657  32.811  28.570  1.00  0.00     0.010 A 
ATOM     10  C   UNL A   1      35.145  31.580  29.954  1.00  0.00     0.010 A 
ATOM     11  C   UNL A   1      36.468  31.896  29.600  1.00  0.00    -0.014 A 
BRANCH  11  12
ATOM     12  C   UNL A   1      37.604  31.154  30.215  1.00  0.00     0.031 A 
ATOM     13  C   UNL A   1      38.066  31.637  31.546  1.00  0.00     0.074 A 
ATOM     14  C   UNL A   1      38.236  30.099  29.649  1.00  0.00     0.049 A 
ATOM     15  N   UNL A   1      39.067  31.217  32.266  1.00  0.00    -0.248 NA
ATOM     16  C   UNL A   1      37.260  32.701  32.167  1.00  0.00     0.031 C 
ATOM     17  C   UNL A   1      37.812  29.387  28.456  1.00  0.00     0.029 A 
ATOM     18  N   UNL A   1      39.414  29.463  29.973  1.00  0.00    -0.354 N 
ATOM     19  C   UNL A   1      38.950  31.897  33.463  1.00  0.00     0.074 A 
ATOM     20  C   UNL A   1      37.886  32.865  33.317  1.00  0.00     0.031 C 
ATOM     21  C   UNL A   1      38.774  28.547  28.041  1.00  0.00     0.029 A 
ATOM     22  C   UNL A   1      39.870  28.606  28.989  1.00  0.00     0.049 A 
ATOM     23  H   UNL A   1      39.887  29.604  30.825  1.00  0.00     0.167 HD
ATOM     24  C   UNL A   1      39.606  31.661  34.617  1.00  0.00     0.037 A 
ATOM     25  C   UNL A   1      41.033  27.936  28.863  1.00  0.00     0.037 A 
ATOM     26  C   UNL A   1      40.693  30.737  34.746  1.00  0.00     0.049 A 
ATOM     27  C   UNL A   1      41.936  27.902  30.061  1.00  0.00     0.074 A 
ATOM     28  C   UNL A   1      41.472  30.471  35.854  1.00  0.00     0.029 A 
ATOM     29  N   UNL A   1      41.173  29.944  33.712  1.00  0.00    -0.354 N 
ATOM     30  N   UNL A   1      41.781  28.504  31.214  1.00  0.00    -0.248 NA
ATOM     31  C   UNL A   1      43.114  27.029  29.986  1.00  0.00     0.031 C 
ATOM     32  C   UNL A   1      42.459  29.555  35.476  1.00  0.00     0.029 A 
ATOM     33  C   UNL A   1      42.262  29.210  34.148  1.00  0.00     0.049 A 
ATOM     34  H   UNL A   1      40.795  29.909  32.804  1.00  0.00     0.167 HD
ATOM     35  C   UNL A   1      42.783  28.011  32.034  1.00  0.00     0.074 A 
ATOM     36  C   UNL A   1      43.555  27.081  31.235  1.00  0.00     0.031 C 
ATOM     37  C   UNL A   1      43.015  28.282  33.341  1.00  0.00     0.037 A 
BRANCH  24  38
ATOM     38  C   UNL A   1      39.113  32.432  35.798  1.00  0.00     0.057 A 
ATOM     39  C   UNL A   1      39.598  33.721  36.071  1.00  0.00     0.134 A 
ATOM     40  C   UNL A   1      38.254  31.846  36.729  1.00  0.00     0.134 A 
ATOM     41  F   UNL A   1      40.467  34.313  35.235  1.00  0.00    -0.206 F 
ATOM     42  C   UNL A   1      39.274  34.385  37.252  1.00  0.00     0.040 A 
ATOM     43  C   UNL A   1      37.901  32.513  37.902  1.00  0.00     0.040 A 
ATOM     44  F   UNL A   1      37.781  30.608  36.533  1.00  0.00    -0.206 F 
ATOM     45  C   UNL A   1      38.422  33.778  38.172  1.00  0.00     0.006 A 
ENDBRANCH  24  38
BRANCH  25  46
ATOM     46  C   UNL A   1      41.389  27.192  27.622  1.00  0.00     0.057 A 
ATOM     47  C   UNL A   1      41.151  25.819  27.489  1.00  0.00     0.134 A 
ATOM     48  C   UNL A   1      42.062  27.826  26.568  1.00  0.00     0.134 A 
ATOM     49  F   UNL A   1      40.526  25.148  28.466  1.00  0.00    -0.206 F 
ATOM     50  C   UNL A   1      41.608  25.094  26.383  1.00  0.00     0.040 A 
ATOM     51  C   UNL A   1      42.509  27.117  25.447  1.00  0.00     0.040 A 
ATOM     52  F   UNL A   1      42.321  29.140  26.622  1.00  0.00    -0.206 F 
ATOM     53  C   UNL A   1      42.294  25.743  25.360  1.00  0.00     0.006 A 
ENDBRANCH  25  46
BRANCH  37  54
ATOM     54  C   UNL A   1      44.118  27.517  34.004  1.00  0.00     0.057 A 
ATOM     55  C   UNL A   1      43.908  26.260  34.580  1.00  0.00     0.134 A 
ATOM     56  C   UNL A   1      45.418  28.038  34.033  1.00  0.00     0.134 A 
ATOM     57  F   UNL A   1      42.680  25.717  34.601  1.00  0.00    -0.206 F 
ATOM     58  C   UNL A   1      44.948  25.555  35.184  1.00  0.00     0.040 A 
ATOM     59  C   UNL A   1      46.473  27.327  34.603  1.00  0.00     0.040 A 
ATOM     60  F   UNL A   1      45.686  29.238  33.496  1.00  0.00    -0.206 F 
ATOM     61  C   UNL A   1      46.237  26.085  35.187  1.00  0.00     0.006 A 
ENDBRANCH  37  54
ENDBRANCH  11  12
ENDBRANCH   4   6
ENDBRANCH   3   4
ENDBRANCH   2   3
ENDBRANCH   1   2
BRANCH   1  62
ATOM     62  O   UNL A   1      32.000  30.031  26.016  1.00  0.00    -0.462 OA
BRANCH  62  63
ATOM     63  C   UNL A   1      33.166  29.351  26.204  1.00  0.00     0.310 C 
ATOM     64  O   UNL A   1      34.206  29.860  26.590  1.00  0.00    -0.252 OA
BRANCH  63  65
ATOM     65  C   UNL A   1      33.113  27.897  25.820  1.00  0.00     0.119 C 
ATOM     66  C   UNL A   1      32.720  27.633  24.340  1.00  0.00     0.100 C 
ATOM     67  C   UNL A   1      32.182  26.960  26.619  1.00  0.00     0.027 C 
ATOM     68  C   UNL A   1      31.677  26.516  24.469  1.00  0.00     0.025 C 
ATOM     69  C   UNL A   1      32.589  25.527  26.362  1.00  0.00    -0.027 C 
ATOM     70  C   UNL A   1      30.950  26.925  25.736  1.00  0.00     0.017 C 
ATOM     71  C   UNL A   1      32.310  25.264  25.073  1.00  0.00    -0.027 C 
BRANCH  66  72
ATOM     72  C   UNL A   1      32.479  28.833  23.396  1.00  0.00     0.224 C 
ATOM     73  O   UNL A   1      33.487  29.291  22.828  1.00  0.00    -0.275 OA
ATOM     74  N   UNL A   1      31.366  29.529  23.081  1.00  0.00    -0.352 N 
ATOM     75  H   UNL A   1      31.607  30.361  22.615  1.00  0.00     0.163 HD
BRANCH  74  76
ATOM     76  C   UNL A   1      29.919  29.430  23.218  1.00  0.00     0.153 C 
BRANCH  76  77
ATOM     77  C   UNL A   1      29.106  30.516  22.542  1.00  0.00    -0.010 A 
ATOM     78  C   UNL A   1      28.580  30.450  21.252  1.00  0.00     0.009 A 
ATOM     79  C   UNL A   1      28.896  31.719  23.219  1.00  0.00     0.116 A 
ATOM     80  C   UNL A   1      28.026  31.592  20.661  1.00  0.00     0.020 A 
ATOM     81  N   UNL A   1      28.404  32.851  22.665  1.00  0.00    -0.264 NA
ATOM     82  C   UNL A   1      27.996  32.770  21.387  1.00  0.00     0.111 A 
ENDBRANCH  76  77
ENDBRANCH  74  76
ENDBRANCH  66  72
ENDBRANCH  63  65
ENDBRANCH  62  63
ENDBRANCH   1  62
TORSDOF 14
ENDMDL
