MODEL 1
REMARK VINA RESULT:     -11.7      0.000      0.000
REMARK SMILES C[C@@H]1CN(C(=O)Nc2ccc(O)c(C(=O)OCCOC(=O)c3ccc(-c4c5nc(c(-c6c(F)cccc6F)c6ccc([nH]6)c(-c6c(F)cccc6F)c6nc(c(-c7c(F)cccc7F)c7ccc4[nH]7)C=C6)C=C5)cc3)c2)C[C@@H]1C
REMARK SMILES IDX 17 1 16 2 14 3 15 4 13 5 8 6 9 7 76 8 10 9 11 10 7 11 5 12
REMARK SMILES IDX 6 13 4 15 1 16 2 17 3 18 78 19 77 20 79 21 12 22 18 24 19 25
REMARK SMILES IDX 20 26 21 27 22 28 23 29 75 30 24 31 74 32 25 33 26 34 27 35
REMARK SMILES IDX 68 36 28 37 73 38 67 39 69 40 29 41 72 42 66 43 65 44 30 46
REMARK SMILES IDX 56 47 39 48 55 49 40 50 43 51 54 52 70 53 41 54 42 55 53 57
REMARK SMILES IDX 71 58 44 59 31 60 32 61 37 62 33 63 34 64 36 65 38 66 35 67
REMARK SMILES IDX 57 68 58 69 63 70 59 71 60 72 62 73 64 74 61 75 45 76 46 77
REMARK SMILES IDX 51 78 47 79 48 80 50 81 52 82 49 83
REMARK H PARENT 7 14 12 23 69 45 43 56
REMARK Flexibility Score: inf
ROOT
ATOM      1  C   UNL A   1      31.396  31.488  26.851  1.00  0.00     0.275 C 
ENDROOT
BRANCH   1   2
ATOM      2  O   UNL A   1      31.458  30.796  25.591  1.00  0.00    -0.458 OA
BRANCH   2   3
ATOM      3  C   UNL A   1      32.255  29.701  25.537  1.00  0.00     0.342 C 
ATOM      4  O   UNL A   1      33.396  29.610  25.943  1.00  0.00    -0.246 OA
BRANCH   3   5
ATOM      5  C   UNL A   1      31.476  28.523  25.083  1.00  0.00     0.103 A 
ATOM      6  C   UNL A   1      30.629  26.329  25.664  1.00  0.00     0.044 A 
ATOM      7  C   UNL A   1      29.978  26.249  24.434  1.00  0.00     0.030 A 
ATOM      8  C   UNL A   1      31.357  27.466  25.996  1.00  0.00     0.045 A 
ATOM      9  C   UNL A   1      30.116  27.285  23.506  1.00  0.00     0.049 A 
ATOM     10  C   UNL A   1      30.881  28.412  23.823  1.00  0.00     0.130 A 
BRANCH   6  11
ATOM     11  N   UNL A   1      30.546  25.305  26.602  1.00  0.00    -0.308 N 
ATOM     12  C   UNL A   1      31.070  24.051  26.603  1.00  0.00     0.321 C 
ATOM     13  O   UNL A   1      30.639  23.265  27.451  1.00  0.00    -0.248 OA
ATOM     14  H   UNL A   1      30.018  25.527  27.403  1.00  0.00     0.171 HD
BRANCH  12  15
ATOM     15  N   UNL A   1      32.134  23.733  25.802  1.00  0.00    -0.324 N 
ATOM     16  C   UNL A   1      33.784  23.263  22.510  1.00  0.00     0.010 C 
ATOM     17  C   UNL A   1      33.622  23.205  24.021  1.00  0.00     0.010 C 
ATOM     18  C   UNL A   1      32.154  23.176  24.454  1.00  0.00     0.125 C 
ATOM     19  C   UNL A   1      34.192  24.383  24.823  1.00  0.00     0.010 C 
ATOM     20  C   UNL A   1      33.458  24.220  26.160  1.00  0.00     0.125 C 
ATOM     21  C   UNL A   1      33.926  25.753  24.193  1.00  0.00     0.010 C 
ENDBRANCH  12  15
ENDBRANCH   6  11
BRANCH  10  22
ATOM     22  O   UNL A   1      31.077  29.375  22.875  1.00  0.00    -0.507 OA
ATOM     23  H   UNL A   1      31.929  29.741  22.748  1.00  0.00     0.293 HD
ENDBRANCH  10  22
ENDBRANCH   3   5
ENDBRANCH   2   3
ENDBRANCH   1   2
BRANCH   1  24
ATOM     24  C   UNL A   1      31.469  32.992  26.601  1.00  0.00     0.275 C 
BRANCH  24  25
ATOM     25  O   UNL A   1      32.841  33.418  26.721  1.00  0.00    -0.458 OA
BRANCH  25  26
ATOM     26  C   UNL A   1      33.211  33.904  27.924  1.00  0.00     0.338 C 
ATOM     27  O   UNL A   1      32.641  34.739  28.609  1.00  0.00    -0.246 OA
BRANCH  26  28
ATOM     28  C   UNL A   1      34.440  33.221  28.357  1.00  0.00     0.060 A 
ATOM     29  C   UNL A   1      34.394  31.847  28.573  1.00  0.00     0.016 A 
ATOM     30  C   UNL A   1      35.595  33.937  28.659  1.00  0.00     0.016 A 
ATOM     31  C   UNL A   1      35.472  31.188  29.162  1.00  0.00     0.010 A 
ATOM     32  C   UNL A   1      36.710  33.261  29.175  1.00  0.00     0.010 A 
ATOM     33  C   UNL A   1      36.651  31.885  29.468  1.00  0.00    -0.014 A 
BRANCH  33  34
ATOM     34  C   UNL A   1      37.783  31.180  30.140  1.00  0.00     0.031 A 
ATOM     35  C   UNL A   1      38.043  31.384  31.614  1.00  0.00     0.074 A 
ATOM     36  C   UNL A   1      38.563  30.322  29.450  1.00  0.00     0.049 A 
ATOM     37  N   UNL A   1      39.032  30.938  32.350  1.00  0.00    -0.248 NA
ATOM     38  C   UNL A   1      37.074  32.205  32.355  1.00  0.00     0.031 C 
ATOM     39  C   UNL A   1      38.420  30.000  28.029  1.00  0.00     0.029 A 
ATOM     40  N   UNL A   1      39.624  29.549  29.858  1.00  0.00    -0.354 N 
ATOM     41  C   UNL A   1      38.833  31.469  33.619  1.00  0.00     0.074 A 
ATOM     42  C   UNL A   1      37.632  32.273  33.555  1.00  0.00     0.031 C 
ATOM     43  C   UNL A   1      39.319  29.060  27.698  1.00  0.00     0.029 A 
ATOM     44  C   UNL A   1      40.154  28.766  28.859  1.00  0.00     0.049 A 
ATOM     45  H   UNL A   1      39.973  29.555  30.779  1.00  0.00     0.167 HD
ATOM     46  C   UNL A   1      39.581  31.301  34.738  1.00  0.00     0.037 A 
ATOM     47  C   UNL A   1      41.205  27.925  28.866  1.00  0.00     0.037 A 
ATOM     48  C   UNL A   1      40.733  30.442  34.833  1.00  0.00     0.049 A 
ATOM     49  C   UNL A   1      42.016  27.758  30.121  1.00  0.00     0.074 A 
ATOM     50  C   UNL A   1      41.522  30.180  35.941  1.00  0.00     0.029 A 
ATOM     51  N   UNL A   1      41.249  29.692  33.790  1.00  0.00    -0.354 N 
ATOM     52  N   UNL A   1      41.831  28.295  31.302  1.00  0.00    -0.248 NA
ATOM     53  C   UNL A   1      43.194  26.884  30.035  1.00  0.00     0.031 C 
ATOM     54  C   UNL A   1      42.537  29.296  35.559  1.00  0.00     0.029 A 
ATOM     55  C   UNL A   1      42.357  28.981  34.223  1.00  0.00     0.049 A 
ATOM     56  H   UNL A   1      40.883  29.667  32.876  1.00  0.00     0.167 HD
ATOM     57  C   UNL A   1      42.862  27.816  32.100  1.00  0.00     0.074 A 
ATOM     58  C   UNL A   1      43.652  26.925  31.278  1.00  0.00     0.031 C 
ATOM     59  C   UNL A   1      43.135  28.098  33.396  1.00  0.00     0.037 A 
BRANCH  46  60
ATOM     60  C   UNL A   1      39.194  32.083  35.959  1.00  0.00     0.057 A 
ATOM     61  C   UNL A   1      39.676  33.373  36.204  1.00  0.00     0.134 A 
ATOM     62  C   UNL A   1      38.267  31.554  36.868  1.00  0.00     0.134 A 
ATOM     63  F   UNL A   1      40.574  33.932  35.379  1.00  0.00    -0.206 F 
ATOM     64  C   UNL A   1      39.261  34.106  37.318  1.00  0.00     0.040 A 
ATOM     65  C   UNL A   1      37.828  32.285  37.972  1.00  0.00     0.040 A 
ATOM     66  F   UNL A   1      37.759  30.325  36.686  1.00  0.00    -0.206 F 
ATOM     67  C   UNL A   1      38.328  33.565  38.201  1.00  0.00     0.006 A 
ENDBRANCH  46  60
BRANCH  47  68
ATOM     68  C   UNL A   1      41.585  27.191  27.630  1.00  0.00     0.057 A 
ATOM     69  C   UNL A   1      41.176  25.868  27.422  1.00  0.00     0.134 A 
ATOM     70  C   UNL A   1      42.393  27.778  26.651  1.00  0.00     0.134 A 
ATOM     71  F   UNL A   1      40.427  25.239  28.338  1.00  0.00    -0.206 F 
ATOM     72  C   UNL A   1      41.572  25.151  26.290  1.00  0.00     0.040 A 
ATOM     73  C   UNL A   1      42.773  27.084  25.502  1.00  0.00     0.040 A 
ATOM     74  F   UNL A   1      42.821  29.041  26.793  1.00  0.00    -0.206 F 
ATOM     75  C   UNL A   1      42.368  25.762  25.323  1.00  0.00     0.006 A 
ENDBRANCH  47  68
BRANCH  59  76
ATOM     76  C   UNL A   1      44.328  27.421  34.003  1.00  0.00     0.057 A 
ATOM     77  C   UNL A   1      45.594  28.019  33.998  1.00  0.00     0.134 A 
ATOM     78  C   UNL A   1      44.210  26.161  34.602  1.00  0.00     0.134 A 
ATOM     79  F   UNL A   1      45.777  29.219  33.426  1.00  0.00    -0.206 F 
ATOM     80  C   UNL A   1      46.707  27.376  34.543  1.00  0.00     0.040 A 
ATOM     81  C   UNL A   1      45.310  25.517  35.170  1.00  0.00     0.040 A 
ATOM     82  F   UNL A   1      43.023  25.536  34.646  1.00  0.00    -0.206 F 
ATOM     83  C   UNL A   1      46.565  26.123  35.135  1.00  0.00     0.006 A 
ENDBRANCH  59  76
ENDBRANCH  33  34
ENDBRANCH  26  28
ENDBRANCH  25  26
ENDBRANCH  24  25
ENDBRANCH   1  24
TORSDOF 14
ENDMDL
MODEL 2
REMARK VINA RESULT:     -11.4      0.405      6.167
REMARK SMILES C[C@@H]1CN(C(=O)Nc2ccc(O)c(C(=O)OCCOC(=O)c3ccc(-c4c5nc(c(-c6c(F)cccc6F)c6ccc([nH]6)c(-c6c(F)cccc6F)c6nc(c(-c7c(F)cccc7F)c7ccc4[nH]7)C=C6)C=C5)cc3)c2)C[C@@H]1C
REMARK SMILES IDX 17 1 16 2 14 3 15 4 13 5 8 6 9 7 76 8 10 9 11 10 7 11 5 12
REMARK SMILES IDX 6 13 4 15 1 16 2 17 3 18 78 19 77 20 79 21 12 22 18 24 19 25
REMARK SMILES IDX 20 26 21 27 22 28 23 29 75 30 24 31 74 32 25 33 26 34 27 35
REMARK SMILES IDX 68 36 28 37 73 38 67 39 69 40 29 41 72 42 66 43 65 44 30 46
REMARK SMILES IDX 56 47 39 48 55 49 40 50 43 51 54 52 70 53 41 54 42 55 53 57
REMARK SMILES IDX 71 58 44 59 31 60 32 61 37 62 33 63 34 64 36 65 38 66 35 67
REMARK SMILES IDX 57 68 58 69 63 70 59 71 60 72 62 73 64 74 61 75 45 76 46 77
REMARK SMILES IDX 51 78 47 79 48 80 50 81 52 82 49 83
REMARK H PARENT 7 14 12 23 69 45 43 56
REMARK Flexibility Score: inf
ROOT
ATOM      1  C   UNL A   1      31.619  30.912  26.830  1.00  0.00     0.275 C 
ENDROOT
BRANCH   1   2
ATOM      2  O   UNL A   1      31.878  30.510  25.473  1.00  0.00    -0.458 OA
BRANCH   2   3
ATOM      3  C   UNL A   1      32.510  29.324  25.300  1.00  0.00     0.342 C 
ATOM      4  O   UNL A   1      33.661  29.063  25.590  1.00  0.00    -0.246 OA
BRANCH   3   5
ATOM      5  C   UNL A   1      31.542  28.283  24.878  1.00  0.00     0.103 A 
ATOM      6  C   UNL A   1      30.379  26.251  25.500  1.00  0.00     0.044 A 
ATOM      7  C   UNL A   1      29.683  26.273  24.293  1.00  0.00     0.030 A 
ATOM      8  C   UNL A   1      31.288  27.259  25.801  1.00  0.00     0.045 A 
ATOM      9  C   UNL A   1      29.951  27.274  23.354  1.00  0.00     0.049 A 
ATOM     10  C   UNL A   1      30.895  28.266  23.640  1.00  0.00     0.130 A 
BRANCH   6  11
ATOM     11  N   UNL A   1      30.167  25.253  26.446  1.00  0.00    -0.308 N 
ATOM     12  C   UNL A   1      30.628  23.976  26.516  1.00  0.00     0.321 C 
ATOM     13  O   UNL A   1      30.089  23.230  27.337  1.00  0.00    -0.248 OA
ATOM     14  H   UNL A   1      29.583  25.517  27.193  1.00  0.00     0.171 HD
BRANCH  12  15
ATOM     15  N   UNL A   1      31.741  23.591  25.816  1.00  0.00    -0.324 N 
ATOM     16  C   UNL A   1      33.775  23.285  22.726  1.00  0.00     0.010 C 
ATOM     17  C   UNL A   1      33.383  23.059  24.178  1.00  0.00     0.010 C 
ATOM     18  C   UNL A   1      31.879  23.220  24.413  1.00  0.00     0.125 C 
ATOM     19  C   UNL A   1      33.995  24.010  25.216  1.00  0.00     0.010 C 
ATOM     20  C   UNL A   1      33.054  23.799  26.409  1.00  0.00     0.125 C 
ATOM     21  C   UNL A   1      34.032  25.474  24.774  1.00  0.00     0.010 C 
ENDBRANCH  12  15
ENDBRANCH   6  11
BRANCH  10  22
ATOM     22  O   UNL A   1      31.208  29.186  22.680  1.00  0.00    -0.507 OA
ATOM     23  H   UNL A   1      31.778  28.952  21.975  1.00  0.00     0.293 HD
ENDBRANCH  10  22
ENDBRANCH   3   5
ENDBRANCH   2   3
ENDBRANCH   1   2
BRANCH   1  24
ATOM     24  C   UNL A   1      31.391  32.420  26.871  1.00  0.00     0.275 C 
BRANCH  24  25
ATOM     25  O   UNL A   1      32.665  33.087  26.774  1.00  0.00    -0.458 OA
BRANCH  25  26
ATOM     26  C   UNL A   1      33.071  33.760  27.872  1.00  0.00     0.338 C 
ATOM     27  O   UNL A   1      32.514  34.688  28.437  1.00  0.00    -0.246 OA
BRANCH  26  28
ATOM     28  C   UNL A   1      34.323  33.161  28.362  1.00  0.00     0.060 A 
ATOM     29  C   UNL A   1      34.345  31.795  28.628  1.00  0.00     0.016 A 
ATOM     30  C   UNL A   1      35.427  33.950  28.667  1.00  0.00     0.016 A 
ATOM     31  C   UNL A   1      35.440  31.219  29.269  1.00  0.00     0.010 A 
ATOM     32  C   UNL A   1      36.562  33.355  29.237  1.00  0.00     0.010 A 
ATOM     33  C   UNL A   1      36.570  31.990  29.580  1.00  0.00    -0.014 A 
BRANCH  33  34
ATOM     34  C   UNL A   1      37.719  31.373  30.307  1.00  0.00     0.031 A 
ATOM     35  C   UNL A   1      38.654  30.425  29.594  1.00  0.00     0.074 A 
ATOM     36  C   UNL A   1      37.960  31.682  31.598  1.00  0.00     0.049 A 
ATOM     37  N   UNL A   1      39.644  29.716  30.079  1.00  0.00    -0.248 NA
ATOM     38  C   UNL A   1      38.442  30.239  28.150  1.00  0.00     0.031 C 
ATOM     39  C   UNL A   1      37.164  32.601  32.413  1.00  0.00     0.029 A 
ATOM     40  N   UNL A   1      38.959  31.270  32.447  1.00  0.00    -0.354 N 
ATOM     41  C   UNL A   1      40.132  28.963  29.017  1.00  0.00     0.074 A 
ATOM     42  C   UNL A   1      39.330  29.298  27.861  1.00  0.00     0.031 C 
ATOM     43  C   UNL A   1      37.734  32.724  33.622  1.00  0.00     0.029 A 
ATOM     44  C   UNL A   1      38.891  31.837  33.698  1.00  0.00     0.049 A 
ATOM     45  H   UNL A   1      39.658  30.628  32.185  1.00  0.00     0.167 HD
ATOM     46  C   UNL A   1      41.157  28.076  29.004  1.00  0.00     0.037 A 
ATOM     47  C   UNL A   1      39.654  31.649  34.792  1.00  0.00     0.037 A 
ATOM     48  C   UNL A   1      42.012  27.794  30.129  1.00  0.00     0.049 A 
ATOM     49  C   UNL A   1      40.785  30.659  34.747  1.00  0.00     0.074 A 
ATOM     50  C   UNL A   1      43.102  26.942  30.189  1.00  0.00     0.029 A 
ATOM     51  N   UNL A   1      41.887  28.369  31.382  1.00  0.00    -0.354 N 
ATOM     52  N   UNL A   1      41.209  29.933  33.743  1.00  0.00    -0.248 NA
ATOM     53  C   UNL A   1      41.528  30.449  35.999  1.00  0.00     0.031 C 
ATOM     54  C   UNL A   1      43.617  26.976  31.489  1.00  0.00     0.029 A 
ATOM     55  C   UNL A   1      42.869  27.877  32.227  1.00  0.00     0.049 A 
ATOM     56  H   UNL A   1      41.203  29.031  31.635  1.00  0.00     0.167 HD
ATOM     57  C   UNL A   1      42.273  29.190  34.238  1.00  0.00     0.074 A 
ATOM     58  C   UNL A   1      42.446  29.572  35.623  1.00  0.00     0.031 C 
ATOM     59  C   UNL A   1      43.032  28.264  33.603  1.00  0.00     0.037 A 
BRANCH  46  60
ATOM     60  C   UNL A   1      41.407  27.318  27.734  1.00  0.00     0.057 A 
ATOM     61  C   UNL A   1      42.269  27.790  26.738  1.00  0.00     0.134 A 
ATOM     62  C   UNL A   1      40.821  26.059  27.540  1.00  0.00     0.134 A 
ATOM     63  F   UNL A   1      42.852  28.992  26.857  1.00  0.00    -0.206 F 
ATOM     64  C   UNL A   1      42.530  27.042  25.588  1.00  0.00     0.040 A 
ATOM     65  C   UNL A   1      41.092  25.293  26.406  1.00  0.00     0.040 A 
ATOM     66  F   UNL A   1      39.991  25.545  28.461  1.00  0.00    -0.206 F 
ATOM     67  C   UNL A   1      41.947  25.787  25.423  1.00  0.00     0.006 A 
ENDBRANCH  46  60
BRANCH  47  68
ATOM     68  C   UNL A   1      39.360  32.390  36.046  1.00  0.00     0.057 A 
ATOM     69  C   UNL A   1      38.452  31.888  36.986  1.00  0.00     0.134 A 
ATOM     70  C   UNL A   1      39.949  33.631  36.317  1.00  0.00     0.134 A 
ATOM     71  F   UNL A   1      37.831  30.719  36.769  1.00  0.00    -0.206 F 
ATOM     72  C   UNL A   1      38.128  32.601  38.142  1.00  0.00     0.040 A 
ATOM     73  C   UNL A   1      39.656  34.341  37.482  1.00  0.00     0.040 A 
ATOM     74  F   UNL A   1      40.823  34.168  35.454  1.00  0.00    -0.206 F 
ATOM     75  C   UNL A   1      38.735  33.829  38.395  1.00  0.00     0.006 A 
ENDBRANCH  47  68
BRANCH  59  76
ATOM     76  C   UNL A   1      44.125  27.618  34.400  1.00  0.00     0.057 A 
ATOM     77  C   UNL A   1      45.399  28.190  34.500  1.00  0.00     0.134 A 
ATOM     78  C   UNL A   1      43.901  26.414  35.080  1.00  0.00     0.134 A 
ATOM     79  F   UNL A   1      45.682  29.335  33.859  1.00  0.00    -0.206 F 
ATOM     80  C   UNL A   1      46.422  27.574  35.224  1.00  0.00     0.040 A 
ATOM     81  C   UNL A   1      44.908  25.800  35.827  1.00  0.00     0.040 A 
ATOM     82  F   UNL A   1      42.701  25.818  35.032  1.00  0.00    -0.206 F 
ATOM     83  C   UNL A   1      46.175  26.378  35.893  1.00  0.00     0.006 A 
ENDBRANCH  59  76
ENDBRANCH  33  34
ENDBRANCH  26  28
ENDBRANCH  25  26
ENDBRANCH  24  25
ENDBRANCH   1  24
TORSDOF 14
ENDMDL
MODEL 3
REMARK VINA RESULT:     -11.3      4.368      9.240
REMARK SMILES C[C@@H]1CN(C(=O)Nc2ccc(O)c(C(=O)OCCOC(=O)c3ccc(-c4c5nc(c(-c6c(F)cccc6F)c6ccc([nH]6)c(-c6c(F)cccc6F)c6nc(c(-c7c(F)cccc7F)c7ccc4[nH]7)C=C6)C=C5)cc3)c2)C[C@@H]1C
REMARK SMILES IDX 17 1 16 2 14 3 15 4 13 5 8 6 9 7 76 8 10 9 11 10 7 11 5 12
REMARK SMILES IDX 6 13 4 15 1 16 2 17 3 18 78 19 77 20 79 21 12 22 18 24 19 25
REMARK SMILES IDX 20 26 21 27 22 28 23 29 75 30 24 31 74 32 25 33 26 34 27 35
REMARK SMILES IDX 68 36 28 37 73 38 67 39 69 40 29 41 72 42 66 43 65 44 30 46
REMARK SMILES IDX 56 47 39 48 55 49 40 50 43 51 54 52 70 53 41 54 42 55 53 57
REMARK SMILES IDX 71 58 44 59 31 60 32 61 37 62 33 63 34 64 36 65 38 66 35 67
REMARK SMILES IDX 57 68 58 69 63 70 59 71 60 72 62 73 64 74 61 75 45 76 46 77
REMARK SMILES IDX 51 78 47 79 48 80 50 81 52 82 49 83
REMARK H PARENT 7 14 12 23 69 45 43 56
REMARK Flexibility Score: inf
ROOT
ATOM      1  C   UNL A   1      35.724  20.253  25.001  1.00  0.00     0.275 C 
ENDROOT
BRANCH   1   2
ATOM      2  O   UNL A   1      35.503  21.670  24.878  1.00  0.00    -0.458 OA
BRANCH   2   3
ATOM      3  C   UNL A   1      34.591  22.218  25.717  1.00  0.00     0.342 C 
ATOM      4  O   UNL A   1      34.740  22.456  26.899  1.00  0.00    -0.246 OA
BRANCH   3   5
ATOM      5  C   UNL A   1      33.412  22.692  24.954  1.00  0.00     0.103 A 
ATOM      6  C   UNL A   1      32.614  23.636  22.870  1.00  0.00     0.044 A 
ATOM      7  C   UNL A   1      31.301  23.558  23.331  1.00  0.00     0.030 A 
ATOM      8  C   UNL A   1      33.661  23.188  23.666  1.00  0.00     0.045 A 
ATOM      9  C   UNL A   1      31.045  23.092  24.624  1.00  0.00     0.049 A 
ATOM     10  C   UNL A   1      32.102  22.679  25.441  1.00  0.00     0.130 A 
BRANCH   6  11
ATOM     11  N   UNL A   1      32.914  24.125  21.603  1.00  0.00    -0.308 N 
ATOM     12  C   UNL A   1      32.781  25.369  21.071  1.00  0.00     0.321 C 
ATOM     13  O   UNL A   1      32.899  25.471  19.847  1.00  0.00    -0.248 OA
ATOM     14  H   UNL A   1      33.288  23.456  20.985  1.00  0.00     0.171 HD
BRANCH  12  15
ATOM     15  N   UNL A   1      32.679  26.471  21.878  1.00  0.00    -0.324 N 
ATOM     16  C   UNL A   1      31.027  28.529  24.489  1.00  0.00     0.010 C 
ATOM     17  C   UNL A   1      32.020  28.188  23.389  1.00  0.00     0.010 C 
ATOM     18  C   UNL A   1      31.494  27.115  22.433  1.00  0.00     0.125 C 
ATOM     19  C   UNL A   1      33.374  27.615  23.834  1.00  0.00     0.010 C 
ATOM     20  C   UNL A   1      33.876  26.982  22.529  1.00  0.00     0.125 C 
ATOM     21  C   UNL A   1      33.274  26.585  24.962  1.00  0.00     0.010 C 
ENDBRANCH  12  15
ENDBRANCH   6  11
BRANCH  10  22
ATOM     22  O   UNL A   1      31.845  22.309  26.730  1.00  0.00    -0.507 OA
ATOM     23  H   UNL A   1      31.455  22.919  27.324  1.00  0.00     0.293 HD
ENDBRANCH  10  22
ENDBRANCH   3   5
ENDBRANCH   2   3
ENDBRANCH   1   2
BRANCH   1  24
ATOM     24  C   UNL A   1      37.223  19.975  24.960  1.00  0.00     0.275 C 
BRANCH  24  25
ATOM     25  O   UNL A   1      37.928  21.142  25.427  1.00  0.00    -0.458 OA
BRANCH  25  26
ATOM     26  C   UNL A   1      39.113  20.920  26.034  1.00  0.00     0.338 C 
ATOM     27  O   UNL A   1      39.735  19.873  26.114  1.00  0.00    -0.246 OA
BRANCH  26  28
ATOM     28  C   UNL A   1      39.616  22.192  26.576  1.00  0.00     0.060 A 
ATOM     29  C   UNL A   1      39.027  23.377  26.143  1.00  0.00     0.016 A 
ATOM     30  C   UNL A   1      40.729  22.230  27.410  1.00  0.00     0.016 A 
ATOM     31  C   UNL A   1      39.588  24.607  26.479  1.00  0.00     0.010 A 
ATOM     32  C   UNL A   1      41.245  23.469  27.815  1.00  0.00     0.010 A 
ATOM     33  C   UNL A   1      40.705  24.674  27.325  1.00  0.00    -0.014 A 
BRANCH  33  34
ATOM     34  C   UNL A   1      41.326  25.995  27.642  1.00  0.00     0.031 A 
ATOM     35  C   UNL A   1      42.708  26.330  27.136  1.00  0.00     0.074 A 
ATOM     36  C   UNL A   1      40.646  26.920  28.350  1.00  0.00     0.049 A 
ATOM     37  N   UNL A   1      43.451  27.381  27.387  1.00  0.00    -0.248 NA
ATOM     38  C   UNL A   1      43.346  25.353  26.240  1.00  0.00     0.031 C 
ATOM     39  C   UNL A   1      39.292  26.755  28.884  1.00  0.00     0.029 A 
ATOM     40  N   UNL A   1      40.995  28.195  28.728  1.00  0.00    -0.354 N 
ATOM     41  C   UNL A   1      44.656  27.164  26.730  1.00  0.00     0.074 A 
ATOM     42  C   UNL A   1      44.550  25.881  26.070  1.00  0.00     0.031 C 
ATOM     43  C   UNL A   1      38.907  27.899  29.470  1.00  0.00     0.029 A 
ATOM     44  C   UNL A   1      40.010  28.855  29.424  1.00  0.00     0.049 A 
ATOM     45  H   UNL A   1      41.869  28.597  28.520  1.00  0.00     0.167 HD
ATOM     46  C   UNL A   1      45.752  27.961  26.678  1.00  0.00     0.037 A 
ATOM     47  C   UNL A   1      39.999  30.079  29.985  1.00  0.00     0.037 A 
ATOM     48  C   UNL A   1      45.840  29.273  27.265  1.00  0.00     0.049 A 
ATOM     49  C   UNL A   1      41.229  30.941  29.911  1.00  0.00     0.074 A 
ATOM     50  C   UNL A   1      46.898  30.166  27.221  1.00  0.00     0.029 A 
ATOM     51  N   UNL A   1      44.830  29.887  27.985  1.00  0.00    -0.354 N 
ATOM     52  N   UNL A   1      42.370  30.704  29.313  1.00  0.00    -0.248 NA
ATOM     53  C   UNL A   1      41.172  32.233  30.610  1.00  0.00     0.031 C 
ATOM     54  C   UNL A   1      46.539  31.309  27.944  1.00  0.00     0.029 A 
ATOM     55  C   UNL A   1      45.245  31.141  28.406  1.00  0.00     0.049 A 
ATOM     56  H   UNL A   1      43.946  29.493  28.169  1.00  0.00     0.167 HD
ATOM     57  C   UNL A   1      43.162  31.819  29.554  1.00  0.00     0.074 A 
ATOM     58  C   UNL A   1      42.362  32.744  30.330  1.00  0.00     0.031 C 
ATOM     59  C   UNL A   1      44.442  32.052  29.177  1.00  0.00     0.037 A 
BRANCH  46  60
ATOM     60  C   UNL A   1      46.967  27.430  25.976  1.00  0.00     0.057 A 
ATOM     61  C   UNL A   1      47.949  26.685  26.641  1.00  0.00     0.134 A 
ATOM     62  C   UNL A   1      47.119  27.614  24.595  1.00  0.00     0.134 A 
ATOM     63  F   UNL A   1      47.868  26.483  27.965  1.00  0.00    -0.206 F 
ATOM     64  C   UNL A   1      49.044  26.153  25.959  1.00  0.00     0.040 A 
ATOM     65  C   UNL A   1      48.197  27.068  23.899  1.00  0.00     0.040 A 
ATOM     66  F   UNL A   1      46.209  28.310  23.897  1.00  0.00    -0.206 F 
ATOM     67  C   UNL A   1      49.167  26.337  24.582  1.00  0.00     0.006 A 
ENDBRANCH  46  60
BRANCH  47  68
ATOM     68  C   UNL A   1      38.791  30.563  30.703  1.00  0.00     0.057 A 
ATOM     69  C   UNL A   1      38.580  30.253  32.053  1.00  0.00     0.134 A 
ATOM     70  C   UNL A   1      37.805  31.312  30.052  1.00  0.00     0.134 A 
ATOM     71  F   UNL A   1      39.474  29.511  32.724  1.00  0.00    -0.206 F 
ATOM     72  C   UNL A   1      37.424  30.657  32.723  1.00  0.00     0.040 A 
ATOM     73  C   UNL A   1      36.657  31.746  30.717  1.00  0.00     0.040 A 
ATOM     74  F   UNL A   1      37.945  31.638  28.759  1.00  0.00    -0.206 F 
ATOM     75  C   UNL A   1      36.461  31.411  32.055  1.00  0.00     0.006 A 
ENDBRANCH  47  68
BRANCH  59  76
ATOM     76  C   UNL A   1      45.044  33.363  29.585  1.00  0.00     0.057 A 
ATOM     77  C   UNL A   1      44.927  34.506  28.785  1.00  0.00     0.134 A 
ATOM     78  C   UNL A   1      45.744  33.485  30.792  1.00  0.00     0.134 A 
ATOM     79  F   UNL A   1      44.281  34.451  27.610  1.00  0.00    -0.206 F 
ATOM     80  C   UNL A   1      45.509  35.720  29.157  1.00  0.00     0.040 A 
ATOM     81  C   UNL A   1      46.310  34.699  31.186  1.00  0.00     0.040 A 
ATOM     82  F   UNL A   1      45.886  32.430  31.607  1.00  0.00    -0.206 F 
ATOM     83  C   UNL A   1      46.199  35.818  30.363  1.00  0.00     0.006 A 
ENDBRANCH  59  76
ENDBRANCH  33  34
ENDBRANCH  26  28
ENDBRANCH  25  26
ENDBRANCH  24  25
ENDBRANCH   1  24
TORSDOF 14
ENDMDL
