MODEL 1
REMARK VINA RESULT:     -12.2      0.000      0.000
REMARK SMILES Cc1c(Cl)cc2c(c1C)O[C@H](C(F)(F)F)C(C(=O)OCCOC(=O)c1ccc(-c3c4nc(c(-c5c(F)cccc5F)c5ccc([nH]5)c(-c5c(F)cccc5F)c5nc(c(-c6c(F)cccc6F)c6ccc3[nH]6)C=C5)C=C4)cc1)=C2
REMARK SMILES IDX 21 1 20 2 19 3 17 4 18 5 16 6 1 7 2 8 3 9 8 10 4 11 5 12
REMARK SMILES IDX 7 13 9 14 6 15 10 16 79 17 11 18 12 19 13 20 14 21 15 22
REMARK SMILES IDX 22 23 23 24 24 25 25 26 26 27 78 28 27 29 77 30 28 31 29 32
REMARK SMILES IDX 30 33 71 34 31 35 76 36 70 37 72 38 32 39 75 40 69 41 68 42
REMARK SMILES IDX 33 44 59 45 42 46 58 47 43 48 46 49 57 50 73 51 44 52 45 53
REMARK SMILES IDX 56 55 74 56 47 57 34 58 35 59 40 60 36 61 37 62 39 63 41 64
REMARK SMILES IDX 38 65 60 66 61 67 66 68 62 69 63 70 65 71 67 72 64 73 48 74
REMARK SMILES IDX 49 75 54 76 50 77 51 78 53 79 55 80 52 81
REMARK H PARENT 72 43 46 54
REMARK Flexibility Score: inf
ROOT
ATOM      1  C   UNL A   1      31.720  29.908  25.284  1.00  0.00     0.275 C 
ENDROOT
BRANCH   1   2
ATOM      2  C   UNL A   1      31.474  28.517  24.698  1.00  0.00     0.275 C 
BRANCH   2   3
ATOM      3  O   UNL A   1      32.315  27.521  25.322  1.00  0.00    -0.459 OA
BRANCH   3   4
ATOM      4  C   UNL A   1      31.660  26.556  26.006  1.00  0.00     0.338 C 
ATOM      5  O   UNL A   1      30.626  26.688  26.644  1.00  0.00    -0.246 OA
BRANCH   4   6
ATOM      6  C   UNL A   1      32.347  25.258  25.865  1.00  0.00     0.087 C 
ATOM      7  C   UNL A   1      36.700  20.515  24.763  1.00  0.00     0.046 C 
ATOM      8  C   UNL A   1      35.870  21.713  25.147  1.00  0.00    -0.026 A 
ATOM      9  C   UNL A   1      36.505  22.848  25.690  1.00  0.00     0.045 A 
ATOM     10  C   UNL A   1      34.453  21.719  25.026  1.00  0.00    -0.004 A 
ATOM     11  Cl  UNL A   1      38.212  22.909  25.976  1.00  0.00    -0.084 Cl
ATOM     12  C   UNL A   1      35.776  23.987  26.025  1.00  0.00     0.032 A 
ATOM     13  C   UNL A   1      33.731  22.888  25.356  1.00  0.00     0.131 A 
ATOM     14  C   UNL A   1      33.668  20.533  24.524  1.00  0.00     0.049 C 
ATOM     15  C   UNL A   1      34.396  24.014  25.834  1.00  0.00     0.019 A 
ATOM     16  O   UNL A   1      32.366  22.854  25.205  1.00  0.00    -0.475 OA
ATOM     17  C   UNL A   1      33.661  25.229  26.107  1.00  0.00     0.027 C 
ATOM     18  C   UNL A   1      31.595  24.085  25.315  1.00  0.00     0.316 C 
BRANCH  18  19
ATOM     19  C   UNL A   1      30.986  24.414  23.942  1.00  0.00     0.430 C 
ATOM     20  F   UNL A   1      30.674  23.288  23.257  1.00  0.00    -0.167 F 
ATOM     21  F   UNL A   1      29.836  25.120  24.066  1.00  0.00    -0.167 F 
ATOM     22  F   UNL A   1      31.826  25.141  23.171  1.00  0.00    -0.167 F 
ENDBRANCH  18  19
ENDBRANCH   4   6
ENDBRANCH   3   4
ENDBRANCH   2   3
ENDBRANCH   1   2
BRANCH   1  23
ATOM     23  O   UNL A   1      32.326  29.808  26.587  1.00  0.00    -0.458 OA
BRANCH  23  24
ATOM     24  C   UNL A   1      32.852  30.959  27.057  1.00  0.00     0.338 C 
ATOM     25  O   UNL A   1      32.257  31.988  27.334  1.00  0.00    -0.246 OA
BRANCH  24  26
ATOM     26  C   UNL A   1      34.294  30.817  27.308  1.00  0.00     0.060 A 
ATOM     27  C   UNL A   1      34.818  29.537  27.440  1.00  0.00     0.016 A 
ATOM     28  C   UNL A   1      35.050  31.921  27.689  1.00  0.00     0.016 A 
ATOM     29  C   UNL A   1      35.995  29.344  28.156  1.00  0.00     0.010 A 
ATOM     30  C   UNL A   1      36.314  31.727  28.256  1.00  0.00     0.010 A 
ATOM     31  C   UNL A   1      36.772  30.434  28.572  1.00  0.00    -0.014 A 
BRANCH  31  32
ATOM     32  C   UNL A   1      38.012  30.242  29.384  1.00  0.00     0.031 A 
ATOM     33  C   UNL A   1      39.147  29.405  28.839  1.00  0.00     0.074 A 
ATOM     34  C   UNL A   1      38.153  30.812  30.598  1.00  0.00     0.049 A 
ATOM     35  N   UNL A   1      40.155  28.860  29.470  1.00  0.00    -0.248 NA
ATOM     36  C   UNL A   1      39.132  29.132  27.391  1.00  0.00     0.031 C 
ATOM     37  C   UNL A   1      37.201  31.727  31.232  1.00  0.00     0.029 A 
ATOM     38  N   UNL A   1      39.163  30.702  31.524  1.00  0.00    -0.354 N 
ATOM     39  C   UNL A   1      40.852  28.124  28.515  1.00  0.00     0.074 A 
ATOM     40  C   UNL A   1      40.148  28.290  27.261  1.00  0.00     0.031 C 
ATOM     41  C   UNL A   1      37.690  32.126  32.414  1.00  0.00     0.029 A 
ATOM     42  C   UNL A   1      38.918  31.394  32.685  1.00  0.00     0.049 A 
ATOM     43  H   UNL A   1      39.982  30.177  31.369  1.00  0.00     0.167 HD
ATOM     44  C   UNL A   1      41.971  27.378  28.675  1.00  0.00     0.037 A 
ATOM     45  C   UNL A   1      39.560  31.389  33.869  1.00  0.00     0.037 A 
ATOM     46  C   UNL A   1      42.702  27.274  29.913  1.00  0.00     0.049 A 
ATOM     47  C   UNL A   1      40.745  30.489  34.053  1.00  0.00     0.074 A 
ATOM     48  C   UNL A   1      43.844  26.541  30.183  1.00  0.00     0.029 A 
ATOM     49  N   UNL A   1      42.374  27.944  31.082  1.00  0.00    -0.354 N 
ATOM     50  N   UNL A   1      41.330  29.703  33.183  1.00  0.00    -0.248 NA
ATOM     51  C   UNL A   1      41.342  30.452  35.395  1.00  0.00     0.031 C 
ATOM     52  C   UNL A   1      44.182  26.734  31.527  1.00  0.00     0.029 A 
ATOM     53  C   UNL A   1      43.281  27.628  32.080  1.00  0.00     0.049 A 
ATOM     54  H   UNL A   1      41.609  28.555  31.187  1.00  0.00     0.167 HD
ATOM     55  C   UNL A   1      42.366  29.083  33.867  1.00  0.00     0.074 A 
ATOM     56  C   UNL A   1      42.349  29.609  35.216  1.00  0.00     0.031 C 
ATOM     57  C   UNL A   1      43.245  28.152  33.422  1.00  0.00     0.037 A 
BRANCH  44  58
ATOM     58  C   UNL A   1      42.465  26.584  27.497  1.00  0.00     0.057 A 
ATOM     59  C   UNL A   1      42.016  25.285  27.226  1.00  0.00     0.134 A 
ATOM     60  C   UNL A   1      43.362  27.156  26.584  1.00  0.00     0.134 A 
ATOM     61  F   UNL A   1      41.168  24.672  28.064  1.00  0.00    -0.206 F 
ATOM     62  C   UNL A   1      42.453  24.581  26.101  1.00  0.00     0.040 A 
ATOM     63  C   UNL A   1      43.784  26.473  25.441  1.00  0.00     0.040 A 
ATOM     64  F   UNL A   1      43.829  28.399  26.776  1.00  0.00    -0.206 F 
ATOM     65  C   UNL A   1      43.331  25.179  25.200  1.00  0.00     0.006 A 
ENDBRANCH  44  58
BRANCH  45  66
ATOM     66  C   UNL A   1      39.044  32.215  34.992  1.00  0.00     0.057 A 
ATOM     67  C   UNL A   1      38.237  31.653  35.988  1.00  0.00     0.134 A 
ATOM     68  C   UNL A   1      39.356  33.576  35.110  1.00  0.00     0.134 A 
ATOM     69  F   UNL A   1      37.879  30.363  35.917  1.00  0.00    -0.206 F 
ATOM     70  C   UNL A   1      37.765  32.412  37.061  1.00  0.00     0.040 A 
ATOM     71  C   UNL A   1      38.919  34.339  36.194  1.00  0.00     0.040 A 
ATOM     72  F   UNL A   1      40.124  34.178  34.189  1.00  0.00    -0.206 F 
ATOM     73  C   UNL A   1      38.116  33.756  37.171  1.00  0.00     0.006 A 
ENDBRANCH  45  66
BRANCH  57  74
ATOM     74  C   UNL A   1      44.267  27.656  34.403  1.00  0.00     0.057 A 
ATOM     75  C   UNL A   1      45.486  28.320  34.592  1.00  0.00     0.134 A 
ATOM     76  C   UNL A   1      44.022  26.516  35.179  1.00  0.00     0.134 A 
ATOM     77  F   UNL A   1      45.787  29.408  33.869  1.00  0.00    -0.206 F 
ATOM     78  C   UNL A   1      46.438  27.849  35.498  1.00  0.00     0.040 A 
ATOM     79  C   UNL A   1      44.954  26.055  36.109  1.00  0.00     0.040 A 
ATOM     80  F   UNL A   1      42.871  25.840  35.054  1.00  0.00    -0.206 F 
ATOM     81  C   UNL A   1      46.170  26.717  36.264  1.00  0.00     0.006 A 
ENDBRANCH  57  74
ENDBRANCH  31  32
ENDBRANCH  24  26
ENDBRANCH  23  24
ENDBRANCH   1  23
TORSDOF 12
ENDMDL
MODEL 2
REMARK VINA RESULT:     -12.2      0.878      1.421
REMARK SMILES Cc1c(Cl)cc2c(c1C)O[C@H](C(F)(F)F)C(C(=O)OCCOC(=O)c1ccc(-c3c4nc(c(-c5c(F)cccc5F)c5ccc([nH]5)c(-c5c(F)cccc5F)c5nc(c(-c6c(F)cccc6F)c6ccc3[nH]6)C=C5)C=C4)cc1)=C2
REMARK SMILES IDX 21 1 20 2 19 3 17 4 18 5 16 6 1 7 2 8 3 9 8 10 4 11 5 12
REMARK SMILES IDX 7 13 9 14 6 15 10 16 79 17 11 18 12 19 13 20 14 21 15 22
REMARK SMILES IDX 22 23 23 24 24 25 25 26 26 27 78 28 27 29 77 30 28 31 29 32
REMARK SMILES IDX 30 33 71 34 31 35 76 36 70 37 72 38 32 39 75 40 69 41 68 42
REMARK SMILES IDX 33 44 59 45 42 46 58 47 43 48 46 49 57 50 73 51 44 52 45 53
REMARK SMILES IDX 56 55 74 56 47 57 34 58 35 59 40 60 36 61 37 62 39 63 41 64
REMARK SMILES IDX 38 65 60 66 61 67 66 68 62 69 63 70 65 71 67 72 64 73 48 74
REMARK SMILES IDX 49 75 54 76 50 77 51 78 53 79 55 80 52 81
REMARK H PARENT 72 43 46 54
REMARK Flexibility Score: inf
ROOT
ATOM      1  C   UNL A   1      31.777  30.360  25.877  1.00  0.00     0.275 C 
ENDROOT
BRANCH   1   2
ATOM      2  C   UNL A   1      32.655  29.543  24.928  1.00  0.00     0.275 C 
BRANCH   2   3
ATOM      3  O   UNL A   1      32.205  28.173  24.835  1.00  0.00    -0.459 OA
BRANCH   3   4
ATOM      4  C   UNL A   1      32.746  27.453  23.826  1.00  0.00     0.338 C 
ATOM      5  O   UNL A   1      33.101  27.876  22.737  1.00  0.00    -0.246 OA
BRANCH   4   6
ATOM      6  C   UNL A   1      32.896  26.038  24.217  1.00  0.00     0.087 C 
ATOM      7  C   UNL A   1      34.872  19.843  24.837  1.00  0.00     0.046 C 
ATOM      8  C   UNL A   1      34.647  21.330  24.727  1.00  0.00    -0.026 A 
ATOM      9  C   UNL A   1      35.754  22.184  24.545  1.00  0.00     0.045 A 
ATOM     10  C   UNL A   1      33.354  21.909  24.851  1.00  0.00    -0.004 A 
ATOM     11  Cl  UNL A   1      37.380  21.595  24.484  1.00  0.00    -0.084 Cl
ATOM     12  C   UNL A   1      35.583  23.559  24.405  1.00  0.00     0.032 A 
ATOM     13  C   UNL A   1      33.197  23.304  24.692  1.00  0.00     0.131 A 
ATOM     14  C   UNL A   1      32.113  21.094  25.117  1.00  0.00     0.049 C 
ATOM     15  C   UNL A   1      34.305  24.113  24.453  1.00  0.00     0.019 A 
ATOM     16  O   UNL A   1      31.928  23.816  24.800  1.00  0.00    -0.475 OA
ATOM     17  C   UNL A   1      34.132  25.530  24.224  1.00  0.00     0.027 C 
ATOM     18  C   UNL A   1      31.672  25.201  24.430  1.00  0.00     0.316 C 
BRANCH  18  19
ATOM     19  C   UNL A   1      30.764  25.223  23.189  1.00  0.00     0.430 C 
ATOM     20  F   UNL A   1      31.490  25.228  22.045  1.00  0.00    -0.167 F 
ATOM     21  F   UNL A   1      29.969  24.126  23.136  1.00  0.00    -0.167 F 
ATOM     22  F   UNL A   1      29.958  26.308  23.165  1.00  0.00    -0.167 F 
ENDBRANCH  18  19
ENDBRANCH   4   6
ENDBRANCH   3   4
ENDBRANCH   2   3
ENDBRANCH   1   2
BRANCH   1  23
ATOM     23  O   UNL A   1      32.392  30.457  27.176  1.00  0.00    -0.458 OA
BRANCH  23  24
ATOM     24  C   UNL A   1      33.111  31.581  27.380  1.00  0.00     0.338 C 
ATOM     25  O   UNL A   1      32.692  32.725  27.461  1.00  0.00    -0.246 OA
BRANCH  24  26
ATOM     26  C   UNL A   1      34.530  31.267  27.602  1.00  0.00     0.060 A 
ATOM     27  C   UNL A   1      34.883  29.945  27.842  1.00  0.00     0.016 A 
ATOM     28  C   UNL A   1      35.441  32.288  27.856  1.00  0.00     0.016 A 
ATOM     29  C   UNL A   1      36.053  29.659  28.539  1.00  0.00     0.010 A 
ATOM     30  C   UNL A   1      36.690  31.975  28.403  1.00  0.00     0.010 A 
ATOM     31  C   UNL A   1      36.984  30.665  28.827  1.00  0.00    -0.014 A 
BRANCH  31  32
ATOM     32  C   UNL A   1      38.220  30.381  29.618  1.00  0.00     0.031 A 
ATOM     33  C   UNL A   1      39.309  29.515  29.027  1.00  0.00     0.074 A 
ATOM     34  C   UNL A   1      38.397  30.890  30.854  1.00  0.00     0.049 A 
ATOM     35  N   UNL A   1      40.295  28.896  29.625  1.00  0.00    -0.248 NA
ATOM     36  C   UNL A   1      39.271  29.306  27.570  1.00  0.00     0.031 C 
ATOM     37  C   UNL A   1      37.494  31.821  31.536  1.00  0.00     0.029 A 
ATOM     38  N   UNL A   1      39.407  30.693  31.766  1.00  0.00    -0.354 N 
ATOM     39  C   UNL A   1      40.949  28.171  28.633  1.00  0.00     0.074 A 
ATOM     40  C   UNL A   1      40.245  28.423  27.394  1.00  0.00     0.031 C 
ATOM     41  C   UNL A   1      38.010  32.145  32.729  1.00  0.00     0.029 A 
ATOM     42  C   UNL A   1      39.204  31.345  32.958  1.00  0.00     0.049 A 
ATOM     43  H   UNL A   1      40.199  30.138  31.581  1.00  0.00     0.167 HD
ATOM     44  C   UNL A   1      42.033  27.366  28.750  1.00  0.00     0.037 A 
ATOM     45  C   UNL A   1      39.853  31.259  34.134  1.00  0.00     0.037 A 
ATOM     46  C   UNL A   1      42.767  27.174  29.976  1.00  0.00     0.049 A 
ATOM     47  C   UNL A   1      40.996  30.297  34.268  1.00  0.00     0.074 A 
ATOM     48  C   UNL A   1      43.875  26.377  30.204  1.00  0.00     0.029 A 
ATOM     49  N   UNL A   1      42.480  27.808  31.176  1.00  0.00    -0.354 N 
ATOM     50  N   UNL A   1      41.536  29.522  33.359  1.00  0.00    -0.248 NA
ATOM     51  C   UNL A   1      41.601  30.174  35.602  1.00  0.00     0.031 C 
ATOM     52  C   UNL A   1      44.232  26.497  31.551  1.00  0.00     0.029 A 
ATOM     53  C   UNL A   1      43.378  27.407  32.151  1.00  0.00     0.049 A 
ATOM     54  H   UNL A   1      41.746  28.450  31.314  1.00  0.00     0.167 HD
ATOM     55  C   UNL A   1      42.547  28.825  34.007  1.00  0.00     0.074 A 
ATOM     56  C   UNL A   1      42.565  29.293  35.377  1.00  0.00     0.031 C 
ATOM     57  C   UNL A   1      43.377  27.874  33.514  1.00  0.00     0.037 A 
BRANCH  44  58
ATOM     58  C   UNL A   1      42.480  26.601  27.535  1.00  0.00     0.057 A 
ATOM     59  C   UNL A   1      41.991  25.324  27.231  1.00  0.00     0.134 A 
ATOM     60  C   UNL A   1      43.371  27.182  26.622  1.00  0.00     0.134 A 
ATOM     61  F   UNL A   1      41.147  24.704  28.067  1.00  0.00    -0.206 F 
ATOM     62  C   UNL A   1      42.384  24.648  26.073  1.00  0.00     0.040 A 
ATOM     63  C   UNL A   1      43.749  26.528  25.447  1.00  0.00     0.040 A 
ATOM     64  F   UNL A   1      43.874  28.406  26.845  1.00  0.00    -0.206 F 
ATOM     65  C   UNL A   1      43.258  25.255  25.172  1.00  0.00     0.006 A 
ENDBRANCH  44  58
BRANCH  45  66
ATOM     66  C   UNL A   1      39.385  32.059  35.296  1.00  0.00     0.057 A 
ATOM     67  C   UNL A   1      38.447  31.542  36.195  1.00  0.00     0.134 A 
ATOM     68  C   UNL A   1      39.876  33.348  35.549  1.00  0.00     0.134 A 
ATOM     69  F   UNL A   1      37.918  30.327  35.993  1.00  0.00    -0.206 F 
ATOM     70  C   UNL A   1      38.015  32.274  37.303  1.00  0.00     0.040 A 
ATOM     71  C   UNL A   1      39.480  34.078  36.670  1.00  0.00     0.040 A 
ATOM     72  F   UNL A   1      40.778  33.904  34.725  1.00  0.00    -0.206 F 
ATOM     73  C   UNL A   1      38.542  33.541  37.549  1.00  0.00     0.006 A 
ENDBRANCH  45  66
BRANCH  57  74
ATOM     74  C   UNL A   1      44.381  27.289  34.463  1.00  0.00     0.057 A 
ATOM     75  C   UNL A   1      44.114  26.120  35.187  1.00  0.00     0.134 A 
ATOM     76  C   UNL A   1      45.634  27.889  34.641  1.00  0.00     0.134 A 
ATOM     77  F   UNL A   1      42.927  25.506  35.073  1.00  0.00    -0.206 F 
ATOM     78  C   UNL A   1      45.047  25.584  36.077  1.00  0.00     0.040 A 
ATOM     79  C   UNL A   1      46.586  27.345  35.505  1.00  0.00     0.040 A 
ATOM     80  F   UNL A   1      45.958  29.005  33.972  1.00  0.00    -0.206 F 
ATOM     81  C   UNL A   1      46.290  26.195  36.233  1.00  0.00     0.006 A 
ENDBRANCH  57  74
ENDBRANCH  31  32
ENDBRANCH  24  26
ENDBRANCH  23  24
ENDBRANCH   1  23
TORSDOF 12
ENDMDL
MODEL 3
REMARK VINA RESULT:     -12.2      3.936      8.721
REMARK SMILES Cc1c(Cl)cc2c(c1C)O[C@H](C(F)(F)F)C(C(=O)OCCOC(=O)c1ccc(-c3c4nc(c(-c5c(F)cccc5F)c5ccc([nH]5)c(-c5c(F)cccc5F)c5nc(c(-c6c(F)cccc6F)c6ccc3[nH]6)C=C5)C=C4)cc1)=C2
REMARK SMILES IDX 21 1 20 2 19 3 17 4 18 5 16 6 1 7 2 8 3 9 8 10 4 11 5 12
REMARK SMILES IDX 7 13 9 14 6 15 10 16 79 17 11 18 12 19 13 20 14 21 15 22
REMARK SMILES IDX 22 23 23 24 24 25 25 26 26 27 78 28 27 29 77 30 28 31 29 32
REMARK SMILES IDX 30 33 71 34 31 35 76 36 70 37 72 38 32 39 75 40 69 41 68 42
REMARK SMILES IDX 33 44 59 45 42 46 58 47 43 48 46 49 57 50 73 51 44 52 45 53
REMARK SMILES IDX 56 55 74 56 47 57 34 58 35 59 40 60 36 61 37 62 39 63 41 64
REMARK SMILES IDX 38 65 60 66 61 67 66 68 62 69 63 70 65 71 67 72 64 73 48 74
REMARK SMILES IDX 49 75 54 76 50 77 51 78 53 79 55 80 52 81
REMARK H PARENT 72 43 46 54
REMARK Flexibility Score: inf
ROOT
ATOM      1  C   UNL A   1      37.376  20.071  24.733  1.00  0.00     0.275 C 
ENDROOT
BRANCH   1   2
ATOM      2  C   UNL A   1      35.876  20.206  24.997  1.00  0.00     0.275 C 
BRANCH   2   3
ATOM      3  O   UNL A   1      35.604  21.178  26.032  1.00  0.00    -0.459 OA
BRANCH   3   4
ATOM      4  C   UNL A   1      34.338  21.654  26.060  1.00  0.00     0.338 C 
ATOM      5  O   UNL A   1      33.393  21.178  26.671  1.00  0.00    -0.246 OA
BRANCH   4   6
ATOM      6  C   UNL A   1      34.227  22.888  25.259  1.00  0.00     0.087 C 
ATOM      7  C   UNL A   1      32.929  28.921  23.118  1.00  0.00     0.046 C 
ATOM      8  C   UNL A   1      33.314  27.637  23.809  1.00  0.00    -0.026 A 
ATOM      9  C   UNL A   1      33.608  27.657  25.187  1.00  0.00     0.045 A 
ATOM     10  C   UNL A   1      33.439  26.409  23.104  1.00  0.00    -0.004 A 
ATOM     11  Cl  UNL A   1      33.587  29.115  26.121  1.00  0.00    -0.084 Cl
ATOM     12  C   UNL A   1      33.934  26.486  25.868  1.00  0.00     0.032 A 
ATOM     13  C   UNL A   1      33.756  25.228  23.812  1.00  0.00     0.131 A 
ATOM     14  C   UNL A   1      33.216  26.292  21.617  1.00  0.00     0.049 C 
ATOM     15  C   UNL A   1      33.982  25.272  25.185  1.00  0.00     0.019 A 
ATOM     16  O   UNL A   1      33.847  24.062  23.092  1.00  0.00    -0.475 OA
ATOM     17  C   UNL A   1      34.240  24.051  25.916  1.00  0.00     0.027 C 
ATOM     18  C   UNL A   1      33.950  22.788  23.790  1.00  0.00     0.316 C 
BRANCH  18  19
ATOM     19  C   UNL A   1      32.675  21.971  23.523  1.00  0.00     0.430 C 
ATOM     20  F   UNL A   1      32.206  22.181  22.269  1.00  0.00    -0.167 F 
ATOM     21  F   UNL A   1      32.906  20.640  23.630  1.00  0.00    -0.167 F 
ATOM     22  F   UNL A   1      31.680  22.280  24.386  1.00  0.00    -0.167 F 
ENDBRANCH  18  19
ENDBRANCH   4   6
ENDBRANCH   3   4
ENDBRANCH   2   3
ENDBRANCH   1   2
BRANCH   1  23
ATOM     23  O   UNL A   1      38.071  21.262  25.147  1.00  0.00    -0.458 OA
BRANCH  23  24
ATOM     24  C   UNL A   1      39.188  21.042  25.873  1.00  0.00     0.338 C 
ATOM     25  O   UNL A   1      39.905  20.054  25.850  1.00  0.00    -0.246 OA
BRANCH  24  26
ATOM     26  C   UNL A   1      39.535  22.222  26.678  1.00  0.00     0.060 A 
ATOM     27  C   UNL A   1      39.021  23.455  26.297  1.00  0.00     0.016 A 
ATOM     28  C   UNL A   1      40.570  22.156  27.606  1.00  0.00     0.016 A 
ATOM     29  C   UNL A   1      39.682  24.622  26.667  1.00  0.00     0.010 A 
ATOM     30  C   UNL A   1      41.121  23.340  28.107  1.00  0.00     0.010 A 
ATOM     31  C   UNL A   1      40.740  24.591  27.586  1.00  0.00    -0.014 A 
BRANCH  31  32
ATOM     32  C   UNL A   1      41.491  25.830  27.953  1.00  0.00     0.031 A 
ATOM     33  C   UNL A   1      40.824  26.889  28.801  1.00  0.00     0.074 A 
ATOM     34  C   UNL A   1      42.764  26.025  27.555  1.00  0.00     0.049 A 
ATOM     35  N   UNL A   1      41.157  28.143  28.978  1.00  0.00    -0.248 NA
ATOM     36  C   UNL A   1      39.612  26.486  29.534  1.00  0.00     0.031 C 
ATOM     37  C   UNL A   1      43.589  25.066  26.817  1.00  0.00     0.029 A 
ATOM     38  N   UNL A   1      43.594  27.110  27.717  1.00  0.00    -0.354 N 
ATOM     39  C   UNL A   1      40.161  28.693  29.780  1.00  0.00     0.074 A 
ATOM     40  C   UNL A   1      39.209  27.638  30.052  1.00  0.00     0.031 C 
ATOM     41  C   UNL A   1      44.811  25.583  26.630  1.00  0.00     0.029 A 
ATOM     42  C   UNL A   1      44.817  26.957  27.111  1.00  0.00     0.049 A 
ATOM     43  H   UNL A   1      43.336  27.916  28.219  1.00  0.00     0.167 HD
ATOM     44  C   UNL A   1      40.052  29.963  30.240  1.00  0.00     0.037 A 
ATOM     45  C   UNL A   1      45.811  27.839  26.891  1.00  0.00     0.037 A 
ATOM     46  C   UNL A   1      41.040  30.989  30.019  1.00  0.00     0.049 A 
ATOM     47  C   UNL A   1      45.634  29.262  27.330  1.00  0.00     0.074 A 
ATOM     48  C   UNL A   1      41.024  32.308  30.436  1.00  0.00     0.029 A 
ATOM     49  N   UNL A   1      42.235  30.801  29.339  1.00  0.00    -0.354 N 
ATOM     50  N   UNL A   1      44.637  29.808  27.983  1.00  0.00    -0.248 NA
ATOM     51  C   UNL A   1      46.708  30.200  26.975  1.00  0.00     0.031 C 
ATOM     52  C   UNL A   1      42.189  32.929  29.972  1.00  0.00     0.029 A 
ATOM     53  C   UNL A   1      42.954  31.985  29.311  1.00  0.00     0.049 A 
ATOM     54  H   UNL A   1      42.528  29.952  28.937  1.00  0.00     0.167 HD
ATOM     55  C   UNL A   1      44.964  31.150  28.123  1.00  0.00     0.074 A 
ATOM     56  C   UNL A   1      46.267  31.327  27.515  1.00  0.00     0.031 C 
ATOM     57  C   UNL A   1      44.246  32.148  28.692  1.00  0.00     0.037 A 
BRANCH  44  58
ATOM     58  C   UNL A   1      38.810  30.334  31.002  1.00  0.00     0.057 A 
ATOM     59  C   UNL A   1      38.720  30.216  32.394  1.00  0.00     0.134 A 
ATOM     60  C   UNL A   1      37.705  30.878  30.331  1.00  0.00     0.134 A 
ATOM     61  F   UNL A   1      39.734  29.692  33.098  1.00  0.00    -0.206 F 
ATOM     62  C   UNL A   1      37.573  30.609  33.089  1.00  0.00     0.040 A 
ATOM     63  C   UNL A   1      36.564  31.300  31.017  1.00  0.00     0.040 A 
ATOM     64  F   UNL A   1      37.723  31.027  28.998  1.00  0.00    -0.206 F 
ATOM     65  C   UNL A   1      36.495  31.162  32.400  1.00  0.00     0.006 A 
ENDBRANCH  44  58
BRANCH  45  66
ATOM     66  C   UNL A   1      47.030  27.411  26.156  1.00  0.00     0.057 A 
ATOM     67  C   UNL A   1      48.154  26.937  26.841  1.00  0.00     0.134 A 
ATOM     68  C   UNL A   1      47.097  27.445  24.756  1.00  0.00     0.134 A 
ATOM     69  F   UNL A   1      48.163  26.906  28.182  1.00  0.00    -0.206 F 
ATOM     70  C   UNL A   1      49.297  26.509  26.162  1.00  0.00     0.040 A 
ATOM     71  C   UNL A   1      48.219  26.990  24.064  1.00  0.00     0.040 A 
ATOM     72  F   UNL A   1      46.054  27.889  24.038  1.00  0.00    -0.206 F 
ATOM     73  C   UNL A   1      49.327  26.525  24.769  1.00  0.00     0.006 A 
ENDBRANCH  45  66
BRANCH  57  74
ATOM     74  C   UNL A   1      44.863  33.516  28.693  1.00  0.00     0.057 A 
ATOM     75  C   UNL A   1      45.725  33.932  29.716  1.00  0.00     0.134 A 
ATOM     76  C   UNL A   1      44.608  34.419  27.654  1.00  0.00     0.134 A 
ATOM     77  F   UNL A   1      45.998  33.120  30.748  1.00  0.00    -0.206 F 
ATOM     78  C   UNL A   1      46.289  35.210  29.719  1.00  0.00     0.040 A 
ATOM     79  C   UNL A   1      45.190  35.687  27.631  1.00  0.00     0.040 A 
ATOM     80  F   UNL A   1      43.798  34.080  26.639  1.00  0.00    -0.206 F 
ATOM     81  C   UNL A   1      46.026  36.088  28.670  1.00  0.00     0.006 A 
ENDBRANCH  57  74
ENDBRANCH  31  32
ENDBRANCH  24  26
ENDBRANCH  23  24
ENDBRANCH   1  23
TORSDOF 12
ENDMDL
