MODEL 1
REMARK VINA RESULT:     -11.4      0.000      0.000
REMARK SMILES COc1ccc([C@@H](CC(=O)OCCOC(=O)c2ccc(-c3c4nc(c(-c5c(F)cccc5F)c5ccc([nH]5)c(-c5c(F)cccc5F)c5nc(c(-c6c(F)cccc6F)c6ccc3[nH]6)C=C5)C=C4)cc2)N2C(=O)[C@H]3CC=CC[C@H]3C2=O)cc1OC
REMARK SMILES IDX 12 1 11 2 9 3 10 4 8 5 7 6 6 7 3 8 4 9 83 10 5 11 82 12 2 13
REMARK SMILES IDX 1 14 84 15 85 16 71 17 72 18 80 19 73 20 74 21 79 22 81 23
REMARK SMILES IDX 75 24 78 25 76 26 77 27 13 28 14 29 15 30 16 31 17 32 18 33
REMARK SMILES IDX 70 34 19 35 69 36 20 37 21 38 22 39 63 40 23 41 68 42 62 43
REMARK SMILES IDX 64 44 24 45 67 46 61 47 60 48 25 50 51 51 34 52 50 53 35 54
REMARK SMILES IDX 38 55 49 56 65 57 36 58 37 59 48 61 66 62 39 63 26 64 27 65
REMARK SMILES IDX 32 66 28 67 29 68 31 69 33 70 30 71 52 72 53 73 58 74 54 75
REMARK SMILES IDX 55 76 57 77 59 78 56 79 40 80 41 81 46 82 42 83 43 84 45 85
REMARK SMILES IDX 47 86 44 87
REMARK H PARENT 64 49 38 60
REMARK Flexibility Score: inf
ROOT
ATOM      1  C   UNL A   1      31.891  31.032  26.444  1.00  0.00     0.274 C 
ENDROOT
BRANCH   1   2
ATOM      2  O   UNL A   1      32.383  30.081  27.417  1.00  0.00    -0.462 OA
BRANCH   2   3
ATOM      3  C   UNL A   1      33.310  29.199  26.989  1.00  0.00     0.308 C 
ATOM      4  O   UNL A   1      34.471  29.510  26.732  1.00  0.00    -0.252 OA
BRANCH   3   5
ATOM      5  C   UNL A   1      32.848  27.767  26.810  1.00  0.00     0.153 C 
BRANCH   5   6
ATOM      6  C   UNL A   1      32.958  26.978  25.492  1.00  0.00     0.135 C 
BRANCH   6   7
ATOM      7  C   UNL A   1      32.116  27.622  24.392  1.00  0.00    -0.020 A 
ATOM      8  C   UNL A   1      30.485  28.910  22.497  1.00  0.00     0.160 A 
ATOM      9  C   UNL A   1      31.867  29.130  22.508  1.00  0.00     0.051 A 
ATOM     10  C   UNL A   1      29.918  28.012  23.410  1.00  0.00     0.161 A 
ATOM     11  C   UNL A   1      32.673  28.508  23.459  1.00  0.00     0.010 A 
ATOM     12  C   UNL A   1      30.740  27.360  24.335  1.00  0.00     0.056 A 
BRANCH   8  13
ATOM     13  O   UNL A   1      29.692  29.513  21.555  1.00  0.00    -0.493 OA
ATOM     14  C   UNL A   1      29.148  30.754  22.003  1.00  0.00     0.278 C 
ENDBRANCH   8  13
BRANCH  10  15
ATOM     15  O   UNL A   1      28.596  27.665  23.505  1.00  0.00    -0.493 OA
ATOM     16  C   UNL A   1      28.343  26.353  23.994  1.00  0.00     0.278 C 
ENDBRANCH  10  15
ENDBRANCH   6   7
BRANCH   6  17
ATOM     17  N   UNL A   1      32.869  25.504  25.482  1.00  0.00    -0.274 N 
ATOM     18  C   UNL A   1      31.917  24.745  26.086  1.00  0.00     0.234 C 
ATOM     19  C   UNL A   1      34.009  24.747  25.399  1.00  0.00     0.234 C 
ATOM     20  O   UNL A   1      31.026  25.148  26.822  1.00  0.00    -0.274 OA
ATOM     21  C   UNL A   1      32.227  23.271  25.907  1.00  0.00     0.095 C 
ATOM     22  C   UNL A   1      33.671  23.282  25.425  1.00  0.00     0.095 C 
ATOM     23  O   UNL A   1      35.166  25.149  25.395  1.00  0.00    -0.274 OA
ATOM     24  C   UNL A   1      31.226  22.558  24.999  1.00  0.00     0.041 C 
ATOM     25  C   UNL A   1      33.965  22.680  24.050  1.00  0.00     0.041 C 
ATOM     26  C   UNL A   1      31.550  22.663  23.539  1.00  0.00    -0.030 C 
ATOM     27  C   UNL A   1      32.812  22.743  23.101  1.00  0.00    -0.030 C 
ENDBRANCH   6  17
ENDBRANCH   5   6
ENDBRANCH   3   5
ENDBRANCH   2   3
ENDBRANCH   1   2
BRANCH   1  28
ATOM     28  C   UNL A   1      31.769  32.442  27.032  1.00  0.00     0.275 C 
BRANCH  28  29
ATOM     29  O   UNL A   1      32.995  33.187  26.894  1.00  0.00    -0.458 OA
BRANCH  29  30
ATOM     30  C   UNL A   1      33.338  33.841  28.025  1.00  0.00     0.338 C 
ATOM     31  O   UNL A   1      32.752  34.794  28.507  1.00  0.00    -0.246 OA
BRANCH  30  32
ATOM     32  C   UNL A   1      34.492  33.230  28.686  1.00  0.00     0.060 A 
ATOM     33  C   UNL A   1      35.721  33.884  28.616  1.00  0.00     0.016 A 
ATOM     34  C   UNL A   1      34.404  31.929  29.186  1.00  0.00     0.016 A 
ATOM     35  C   UNL A   1      36.880  33.232  29.015  1.00  0.00     0.010 A 
ATOM     36  C   UNL A   1      35.560  31.299  29.652  1.00  0.00     0.010 A 
ATOM     37  C   UNL A   1      36.802  31.950  29.572  1.00  0.00    -0.014 A 
BRANCH  37  38
ATOM     38  C   UNL A   1      37.994  31.376  30.230  1.00  0.00     0.031 A 
ATOM     39  C   UNL A   1      38.868  30.369  29.553  1.00  0.00     0.074 A 
ATOM     40  C   UNL A   1      38.250  31.779  31.488  1.00  0.00     0.049 A 
ATOM     41  N   UNL A   1      39.848  29.665  30.059  1.00  0.00    -0.248 NA
ATOM     42  C   UNL A   1      38.618  30.117  28.126  1.00  0.00     0.031 C 
ATOM     43  C   UNL A   1      37.479  32.789  32.220  1.00  0.00     0.029 A 
ATOM     44  N   UNL A   1      39.212  31.384  32.379  1.00  0.00    -0.354 N 
ATOM     45  C   UNL A   1      40.322  28.872  29.024  1.00  0.00     0.074 A 
ATOM     46  C   UNL A   1      39.522  29.181  27.856  1.00  0.00     0.031 C 
ATOM     47  C   UNL A   1      37.993  32.929  33.448  1.00  0.00     0.029 A 
ATOM     48  C   UNL A   1      39.080  31.973  33.611  1.00  0.00     0.049 A 
ATOM     49  H   UNL A   1      39.925  30.743  32.158  1.00  0.00     0.167 HD
ATOM     50  C   UNL A   1      41.334  27.971  29.061  1.00  0.00     0.037 A 
ATOM     51  C   UNL A   1      39.724  31.732  34.765  1.00  0.00     0.037 A 
ATOM     52  C   UNL A   1      42.129  27.692  30.232  1.00  0.00     0.049 A 
ATOM     53  C   UNL A   1      40.779  30.674  34.794  1.00  0.00     0.074 A 
ATOM     54  C   UNL A   1      43.201  26.826  30.362  1.00  0.00     0.029 A 
ATOM     55  N   UNL A   1      41.934  28.274  31.476  1.00  0.00    -0.354 N 
ATOM     56  N   UNL A   1      41.210  29.916  33.815  1.00  0.00    -0.248 NA
ATOM     57  C   UNL A   1      41.426  30.423  36.087  1.00  0.00     0.031 C 
ATOM     58  C   UNL A   1      43.630  26.854  31.694  1.00  0.00     0.029 A 
ATOM     59  C   UNL A   1      42.847  27.764  32.386  1.00  0.00     0.049 A 
ATOM     60  H   UNL A   1      41.249  28.950  31.683  1.00  0.00     0.167 HD
ATOM     61  C   UNL A   1      42.182  29.100  34.370  1.00  0.00     0.074 A 
ATOM     62  C   UNL A   1      42.289  29.468  35.769  1.00  0.00     0.031 C 
ATOM     63  C   UNL A   1      42.919  28.131  33.776  1.00  0.00     0.037 A 
BRANCH  50  64
ATOM     64  C   UNL A   1      41.631  27.194  27.814  1.00  0.00     0.057 A 
ATOM     65  C   UNL A   1      41.002  25.975  27.534  1.00  0.00     0.134 A 
ATOM     66  C   UNL A   1      42.491  27.718  26.839  1.00  0.00     0.134 A 
ATOM     67  F   UNL A   1      40.172  25.417  28.427  1.00  0.00    -0.206 F 
ATOM     68  C   UNL A   1      41.220  25.304  26.328  1.00  0.00     0.040 A 
ATOM     69  C   UNL A   1      42.704  27.064  25.625  1.00  0.00     0.040 A 
ATOM     70  F   UNL A   1      43.119  28.885  27.045  1.00  0.00    -0.206 F 
ATOM     71  C   UNL A   1      42.067  25.853  25.366  1.00  0.00     0.006 A 
ENDBRANCH  50  64
BRANCH  51  72
ATOM     72  C   UNL A   1      39.334  32.477  35.983  1.00  0.00     0.057 A 
ATOM     73  C   UNL A   1      38.400  31.955  36.882  1.00  0.00     0.134 A 
ATOM     74  C   UNL A   1      39.923  33.709  36.299  1.00  0.00     0.134 A 
ATOM     75  F   UNL A   1      37.795  30.787  36.622  1.00  0.00    -0.206 F 
ATOM     76  C   UNL A   1      38.064  32.630  38.055  1.00  0.00     0.040 A 
ATOM     77  C   UNL A   1      39.613  34.383  37.480  1.00  0.00     0.040 A 
ATOM     78  F   UNL A   1      40.833  34.255  35.479  1.00  0.00    -0.206 F 
ATOM     79  C   UNL A   1      38.678  33.844  38.361  1.00  0.00     0.006 A 
ENDBRANCH  51  72
BRANCH  63  80
ATOM     80  C   UNL A   1      43.901  27.414  34.649  1.00  0.00     0.057 A 
ATOM     81  C   UNL A   1      43.565  26.220  35.297  1.00  0.00     0.134 A 
ATOM     82  C   UNL A   1      45.189  27.927  34.848  1.00  0.00     0.134 A 
ATOM     83  F   UNL A   1      42.338  25.693  35.159  1.00  0.00    -0.206 F 
ATOM     84  C   UNL A   1      44.472  25.568  36.132  1.00  0.00     0.040 A 
ATOM     85  C   UNL A   1      46.110  27.273  35.666  1.00  0.00     0.040 A 
ATOM     86  F   UNL A   1      45.568  29.066  34.254  1.00  0.00    -0.206 F 
ATOM     87  C   UNL A   1      45.750  26.094  36.316  1.00  0.00     0.006 A 
ENDBRANCH  63  80
ENDBRANCH  37  38
ENDBRANCH  30  32
ENDBRANCH  29  30
ENDBRANCH  28  29
ENDBRANCH   1  28
TORSDOF 16
ENDMDL
MODEL 2
REMARK VINA RESULT:     -11.3      4.483      9.485
REMARK SMILES COc1ccc([C@@H](CC(=O)OCCOC(=O)c2ccc(-c3c4nc(c(-c5c(F)cccc5F)c5ccc([nH]5)c(-c5c(F)cccc5F)c5nc(c(-c6c(F)cccc6F)c6ccc3[nH]6)C=C5)C=C4)cc2)N2C(=O)[C@H]3CC=CC[C@H]3C2=O)cc1OC
REMARK SMILES IDX 12 1 11 2 9 3 10 4 8 5 7 6 6 7 3 8 4 9 83 10 5 11 82 12 2 13
REMARK SMILES IDX 1 14 84 15 85 16 71 17 72 18 80 19 73 20 74 21 79 22 81 23
REMARK SMILES IDX 75 24 78 25 76 26 77 27 13 28 14 29 15 30 16 31 17 32 18 33
REMARK SMILES IDX 70 34 19 35 69 36 20 37 21 38 22 39 63 40 23 41 68 42 62 43
REMARK SMILES IDX 64 44 24 45 67 46 61 47 60 48 25 50 51 51 34 52 50 53 35 54
REMARK SMILES IDX 38 55 49 56 65 57 36 58 37 59 48 61 66 62 39 63 26 64 27 65
REMARK SMILES IDX 32 66 28 67 29 68 31 69 33 70 30 71 52 72 53 73 58 74 54 75
REMARK SMILES IDX 55 76 57 77 59 78 56 79 40 80 41 81 46 82 42 83 43 84 45 85
REMARK SMILES IDX 47 86 44 87
REMARK H PARENT 64 49 38 60
REMARK Flexibility Score: inf
ROOT
ATOM      1  C   UNL A   1      37.493  20.736  25.209  1.00  0.00     0.274 C 
ENDROOT
BRANCH   1   2
ATOM      2  O   UNL A   1      37.362  21.769  24.205  1.00  0.00    -0.462 OA
BRANCH   2   3
ATOM      3  C   UNL A   1      37.067  23.010  24.647  1.00  0.00     0.308 C 
ATOM      4  O   UNL A   1      37.710  23.585  25.523  1.00  0.00    -0.252 OA
BRANCH   3   5
ATOM      5  C   UNL A   1      35.865  23.684  24.018  1.00  0.00     0.153 C 
BRANCH   5   6
ATOM      6  C   UNL A   1      34.505  23.861  24.717  1.00  0.00     0.135 C 
BRANCH   6   7
ATOM      7  C   UNL A   1      33.791  22.521  24.884  1.00  0.00    -0.020 A 
ATOM      8  C   UNL A   1      32.611  19.976  25.088  1.00  0.00     0.160 A 
ATOM      9  C   UNL A   1      33.175  20.588  26.214  1.00  0.00     0.051 A 
ATOM     10  C   UNL A   1      32.600  20.654  23.863  1.00  0.00     0.161 A 
ATOM     11  C   UNL A   1      33.778  21.840  26.109  1.00  0.00     0.010 A 
ATOM     12  C   UNL A   1      33.170  21.928  23.776  1.00  0.00     0.056 A 
BRANCH   8  13
ATOM     13  O   UNL A   1      32.009  18.750  25.192  1.00  0.00    -0.493 OA
ATOM     14  C   UNL A   1      32.875  17.752  25.731  1.00  0.00     0.278 C 
ENDBRANCH   8  13
BRANCH  10  15
ATOM     15  O   UNL A   1      32.060  20.209  22.685  1.00  0.00    -0.493 OA
ATOM     16  C   UNL A   1      31.816  21.213  21.707  1.00  0.00     0.278 C 
ENDBRANCH  10  15
ENDBRANCH   6   7
BRANCH   6  17
ATOM     17  N   UNL A   1      33.585  24.946  24.320  1.00  0.00    -0.274 N 
ATOM     18  C   UNL A   1      33.241  25.293  23.051  1.00  0.00     0.234 C 
ATOM     19  C   UNL A   1      33.463  26.065  25.102  1.00  0.00     0.234 C 
ATOM     20  O   UNL A   1      33.708  24.831  22.019  1.00  0.00    -0.274 OA
ATOM     21  C   UNL A   1      32.334  26.510  23.066  1.00  0.00     0.095 C 
ATOM     22  C   UNL A   1      32.488  27.033  24.488  1.00  0.00     0.095 C 
ATOM     23  O   UNL A   1      34.098  26.334  26.114  1.00  0.00    -0.274 OA
ATOM     24  C   UNL A   1      30.907  26.194  22.622  1.00  0.00     0.041 C 
ATOM     25  C   UNL A   1      31.233  27.094  25.361  1.00  0.00     0.041 C 
ATOM     26  C   UNL A   1      30.025  25.694  23.727  1.00  0.00    -0.030 C 
ATOM     27  C   UNL A   1      30.188  26.090  24.994  1.00  0.00    -0.030 C 
ENDBRANCH   6  17
ENDBRANCH   5   6
ENDBRANCH   3   5
ENDBRANCH   2   3
ENDBRANCH   1   2
BRANCH   1  28
ATOM     28  C   UNL A   1      38.697  19.826  24.941  1.00  0.00     0.275 C 
BRANCH  28  29
ATOM     29  O   UNL A   1      39.373  19.461  26.160  1.00  0.00    -0.458 OA
BRANCH  29  30
ATOM     30  C   UNL A   1      40.712  19.625  26.083  1.00  0.00     0.338 C 
ATOM     31  O   UNL A   1      41.503  18.837  25.596  1.00  0.00    -0.246 OA
BRANCH  30  32
ATOM     32  C   UNL A   1      41.138  20.926  26.601  1.00  0.00     0.060 A 
ATOM     33  C   UNL A   1      41.467  21.928  25.690  1.00  0.00     0.016 A 
ATOM     34  C   UNL A   1      41.406  21.082  27.962  1.00  0.00     0.016 A 
ATOM     35  C   UNL A   1      42.099  23.084  26.127  1.00  0.00     0.010 A 
ATOM     36  C   UNL A   1      41.979  22.275  28.410  1.00  0.00     0.010 A 
ATOM     37  C   UNL A   1      42.324  23.282  27.495  1.00  0.00    -0.014 A 
BRANCH  37  38
ATOM     38  C   UNL A   1      42.752  24.614  27.970  1.00  0.00     0.031 A 
ATOM     39  C   UNL A   1      41.771  25.679  28.343  1.00  0.00     0.074 A 
ATOM     40  C   UNL A   1      44.077  24.845  28.026  1.00  0.00     0.049 A 
ATOM     41  N   UNL A   1      41.996  26.937  28.622  1.00  0.00    -0.248 NA
ATOM     42  C   UNL A   1      40.355  25.287  28.418  1.00  0.00     0.031 C 
ATOM     43  C   UNL A   1      45.116  23.855  27.722  1.00  0.00     0.029 A 
ATOM     44  N   UNL A   1      44.778  25.977  28.343  1.00  0.00    -0.354 N 
ATOM     45  C   UNL A   1      40.755  27.497  28.887  1.00  0.00     0.074 A 
ATOM     46  C   UNL A   1      39.775  26.439  28.736  1.00  0.00     0.031 C 
ATOM     47  C   UNL A   1      46.320  24.426  27.859  1.00  0.00     0.029 A 
ATOM     48  C   UNL A   1      46.134  25.832  28.191  1.00  0.00     0.049 A 
ATOM     49  H   UNL A   1      44.353  26.812  28.647  1.00  0.00     0.167 HD
ATOM     50  C   UNL A   1      40.473  28.779  29.223  1.00  0.00     0.037 A 
ATOM     51  C   UNL A   1      47.120  26.742  28.256  1.00  0.00     0.037 A 
ATOM     52  C   UNL A   1      41.468  29.812  29.385  1.00  0.00     0.049 A 
ATOM     53  C   UNL A   1      46.770  28.165  28.548  1.00  0.00     0.074 A 
ATOM     54  C   UNL A   1      41.289  31.132  29.762  1.00  0.00     0.029 A 
ATOM     55  N   UNL A   1      42.828  29.638  29.176  1.00  0.00    -0.354 N 
ATOM     56  N   UNL A   1      45.592  28.690  28.780  1.00  0.00    -0.248 NA
ATOM     57  C   UNL A   1      47.879  29.126  28.569  1.00  0.00     0.031 C 
ATOM     58  C   UNL A   1      42.536  31.767  29.742  1.00  0.00     0.029 A 
ATOM     59  C   UNL A   1      43.496  30.834  29.387  1.00  0.00     0.049 A 
ATOM     60  H   UNL A   1      43.256  28.790  28.917  1.00  0.00     0.167 HD
ATOM     61  C   UNL A   1      45.814  30.043  28.981  1.00  0.00     0.074 A 
ATOM     62  C   UNL A   1      47.244  30.254  28.859  1.00  0.00     0.031 C 
ATOM     63  C   UNL A   1      44.916  31.023  29.240  1.00  0.00     0.037 A 
BRANCH  50  64
ATOM     64  C   UNL A   1      39.035  29.159  29.414  1.00  0.00     0.057 A 
ATOM     65  C   UNL A   1      38.227  29.555  28.343  1.00  0.00     0.134 A 
ATOM     66  C   UNL A   1      38.431  29.037  30.672  1.00  0.00     0.134 A 
ATOM     67  F   UNL A   1      38.745  29.696  27.115  1.00  0.00    -0.206 F 
ATOM     68  C   UNL A   1      36.866  29.821  28.518  1.00  0.00     0.040 A 
ATOM     69  C   UNL A   1      37.070  29.285  30.856  1.00  0.00     0.040 A 
ATOM     70  F   UNL A   1      39.151  28.654  31.738  1.00  0.00    -0.206 F 
ATOM     71  C   UNL A   1      36.282  29.678  29.776  1.00  0.00     0.006 A 
ENDBRANCH  50  64
BRANCH  51  72
ATOM     72  C   UNL A   1      48.514  26.323  27.982  1.00  0.00     0.057 A 
ATOM     73  C   UNL A   1      49.334  25.831  29.000  1.00  0.00     0.134 A 
ATOM     74  C   UNL A   1      49.040  26.362  26.684  1.00  0.00     0.134 A 
ATOM     75  F   UNL A   1      48.887  25.784  30.264  1.00  0.00    -0.206 F 
ATOM     76  C   UNL A   1      50.631  25.391  28.739  1.00  0.00     0.040 A 
ATOM     77  C   UNL A   1      50.327  25.903  26.405  1.00  0.00     0.040 A 
ATOM     78  F   UNL A   1      48.295  26.816  25.665  1.00  0.00    -0.206 F 
ATOM     79  C   UNL A   1      51.128  25.418  27.437  1.00  0.00     0.006 A 
ENDBRANCH  51  72
BRANCH  63  80
ATOM     80  C   UNL A   1      45.470  32.403  29.409  1.00  0.00     0.057 A 
ATOM     81  C   UNL A   1      45.562  33.289  28.329  1.00  0.00     0.134 A 
ATOM     82  C   UNL A   1      45.919  32.845  30.659  1.00  0.00     0.134 A 
ATOM     83  F   UNL A   1      45.167  32.912  27.104  1.00  0.00    -0.206 F 
ATOM     84  C   UNL A   1      46.104  34.565  28.484  1.00  0.00     0.040 A 
ATOM     85  C   UNL A   1      46.445  34.126  30.829  1.00  0.00     0.040 A 
ATOM     86  F   UNL A   1      45.854  32.041  31.730  1.00  0.00    -0.206 F 
ATOM     87  C   UNL A   1      46.544  34.987  29.737  1.00  0.00     0.006 A 
ENDBRANCH  63  80
ENDBRANCH  37  38
ENDBRANCH  30  32
ENDBRANCH  29  30
ENDBRANCH  28  29
ENDBRANCH   1  28
TORSDOF 16
ENDMDL
MODEL 3
REMARK VINA RESULT:     -11.2      4.555      9.159
REMARK SMILES COc1ccc([C@@H](CC(=O)OCCOC(=O)c2ccc(-c3c4nc(c(-c5c(F)cccc5F)c5ccc([nH]5)c(-c5c(F)cccc5F)c5nc(c(-c6c(F)cccc6F)c6ccc3[nH]6)C=C5)C=C4)cc2)N2C(=O)[C@H]3CC=CC[C@H]3C2=O)cc1OC
REMARK SMILES IDX 12 1 11 2 9 3 10 4 8 5 7 6 6 7 3 8 4 9 83 10 5 11 82 12 2 13
REMARK SMILES IDX 1 14 84 15 85 16 71 17 72 18 80 19 73 20 74 21 79 22 81 23
REMARK SMILES IDX 75 24 78 25 76 26 77 27 13 28 14 29 15 30 16 31 17 32 18 33
REMARK SMILES IDX 70 34 19 35 69 36 20 37 21 38 22 39 63 40 23 41 68 42 62 43
REMARK SMILES IDX 64 44 24 45 67 46 61 47 60 48 25 50 51 51 34 52 50 53 35 54
REMARK SMILES IDX 38 55 49 56 65 57 36 58 37 59 48 61 66 62 39 63 26 64 27 65
REMARK SMILES IDX 32 66 28 67 29 68 31 69 33 70 30 71 52 72 53 73 58 74 54 75
REMARK SMILES IDX 55 76 57 77 59 78 56 79 40 80 41 81 46 82 42 83 43 84 45 85
REMARK SMILES IDX 47 86 44 87
REMARK H PARENT 64 49 38 60
REMARK Flexibility Score: inf
ROOT
ATOM      1  C   UNL A   1      37.529  21.014  25.327  1.00  0.00     0.274 C 
ENDROOT
BRANCH   1   2
ATOM      2  O   UNL A   1      37.680  22.245  24.580  1.00  0.00    -0.462 OA
BRANCH   2   3
ATOM      3  C   UNL A   1      36.591  22.688  23.916  1.00  0.00     0.308 C 
ATOM      4  O   UNL A   1      36.654  23.332  22.870  1.00  0.00    -0.252 OA
BRANCH   3   5
ATOM      5  C   UNL A   1      35.246  22.372  24.536  1.00  0.00     0.153 C 
BRANCH   5   6
ATOM      6  C   UNL A   1      33.993  21.975  23.734  1.00  0.00     0.135 C 
BRANCH   6   7
ATOM      7  C   UNL A   1      32.940  23.082  23.772  1.00  0.00    -0.020 A 
ATOM      8  C   UNL A   1      31.104  25.203  23.975  1.00  0.00     0.160 A 
ATOM      9  C   UNL A   1      31.868  25.035  22.814  1.00  0.00     0.051 A 
ATOM     10  C   UNL A   1      31.228  24.284  25.025  1.00  0.00     0.161 A 
ATOM     11  C   UNL A   1      32.792  23.997  22.721  1.00  0.00     0.010 A 
ATOM     12  C   UNL A   1      32.128  23.221  24.906  1.00  0.00     0.056 A 
BRANCH   8  13
ATOM     13  O   UNL A   1      30.187  26.217  24.064  1.00  0.00    -0.493 OA
ATOM     14  C   UNL A   1      30.737  27.413  24.615  1.00  0.00     0.278 C 
ENDBRANCH   8  13
BRANCH  10  15
ATOM     15  O   UNL A   1      30.531  24.290  26.205  1.00  0.00    -0.493 OA
ATOM     16  C   UNL A   1      30.380  23.021  26.831  1.00  0.00     0.278 C 
ENDBRANCH  10  15
ENDBRANCH   6   7
BRANCH   6  17
ATOM     17  N   UNL A   1      33.402  20.629  23.868  1.00  0.00    -0.274 N 
ATOM     18  C   UNL A   1      32.473  20.066  23.049  1.00  0.00     0.234 C 
ATOM     19  C   UNL A   1      33.259  20.061  25.107  1.00  0.00     0.234 C 
ATOM     20  O   UNL A   1      31.897  20.615  22.120  1.00  0.00    -0.274 OA
ATOM     21  C   UNL A   1      32.066  18.702  23.575  1.00  0.00     0.095 C 
ATOM     22  C   UNL A   1      32.619  18.704  24.994  1.00  0.00     0.095 C 
ATOM     23  O   UNL A   1      33.512  20.573  26.190  1.00  0.00    -0.274 OA
ATOM     24  C   UNL A   1      32.532  17.556  22.678  1.00  0.00     0.041 C 
ATOM     25  C   UNL A   1      33.653  17.636  25.353  1.00  0.00     0.041 C 
ATOM     26  C   UNL A   1      33.930  17.095  22.961  1.00  0.00    -0.030 C 
ATOM     27  C   UNL A   1      34.457  17.153  24.189  1.00  0.00    -0.030 C 
ENDBRANCH   6  17
ENDBRANCH   5   6
ENDBRANCH   3   5
ENDBRANCH   2   3
ENDBRANCH   1   2
BRANCH   1  28
ATOM     28  C   UNL A   1      38.596  19.981  24.947  1.00  0.00     0.275 C 
BRANCH  28  29
ATOM     29  O   UNL A   1      39.268  19.456  26.109  1.00  0.00    -0.458 OA
BRANCH  29  30
ATOM     30  C   UNL A   1      40.608  19.618  26.053  1.00  0.00     0.338 C 
ATOM     31  O   UNL A   1      41.405  18.829  25.579  1.00  0.00    -0.246 OA
BRANCH  30  32
ATOM     32  C   UNL A   1      41.027  20.918  26.578  1.00  0.00     0.060 A 
ATOM     33  C   UNL A   1      41.494  21.878  25.681  1.00  0.00     0.016 A 
ATOM     34  C   UNL A   1      41.152  21.108  27.956  1.00  0.00     0.016 A 
ATOM     35  C   UNL A   1      42.121  23.023  26.153  1.00  0.00     0.010 A 
ATOM     36  C   UNL A   1      41.722  22.292  28.431  1.00  0.00     0.010 A 
ATOM     37  C   UNL A   1      42.204  23.256  27.531  1.00  0.00    -0.014 A 
BRANCH  37  38
ATOM     38  C   UNL A   1      42.632  24.586  28.013  1.00  0.00     0.031 A 
ATOM     39  C   UNL A   1      41.651  25.663  28.349  1.00  0.00     0.074 A 
ATOM     40  C   UNL A   1      43.957  24.802  28.111  1.00  0.00     0.049 A 
ATOM     41  N   UNL A   1      41.881  26.921  28.629  1.00  0.00    -0.248 NA
ATOM     42  C   UNL A   1      40.229  25.288  28.381  1.00  0.00     0.031 C 
ATOM     43  C   UNL A   1      44.994  23.799  27.845  1.00  0.00     0.029 A 
ATOM     44  N   UNL A   1      44.660  25.928  28.444  1.00  0.00    -0.354 N 
ATOM     45  C   UNL A   1      40.638  27.495  28.852  1.00  0.00     0.074 A 
ATOM     46  C   UNL A   1      39.652  26.448  28.675  1.00  0.00     0.031 C 
ATOM     47  C   UNL A   1      46.199  24.357  28.017  1.00  0.00     0.029 A 
ATOM     48  C   UNL A   1      46.019  25.768  28.336  1.00  0.00     0.049 A 
ATOM     49  H   UNL A   1      44.235  26.769  28.730  1.00  0.00     0.167 HD
ATOM     50  C   UNL A   1      40.361  28.783  29.172  1.00  0.00     0.037 A 
ATOM     51  C   UNL A   1      47.012  26.666  28.428  1.00  0.00     0.037 A 
ATOM     52  C   UNL A   1      41.361  29.805  29.361  1.00  0.00     0.049 A 
ATOM     53  C   UNL A   1      46.669  28.095  28.702  1.00  0.00     0.074 A 
ATOM     54  C   UNL A   1      41.185  31.129  29.725  1.00  0.00     0.029 A 
ATOM     55  N   UNL A   1      42.725  29.615  29.196  1.00  0.00    -0.354 N 
ATOM     56  N   UNL A   1      45.490  28.634  28.893  1.00  0.00    -0.248 NA
ATOM     57  C   UNL A   1      47.787  29.044  28.754  1.00  0.00     0.031 C 
ATOM     58  C   UNL A   1      42.439  31.750  29.742  1.00  0.00     0.029 A 
ATOM     59  C   UNL A   1      43.400  30.805  29.422  1.00  0.00     0.049 A 
ATOM     60  H   UNL A   1      43.152  28.761  28.955  1.00  0.00     0.167 HD
ATOM     61  C   UNL A   1      45.720  29.986  29.094  1.00  0.00     0.074 A 
ATOM     62  C   UNL A   1      47.156  30.180  29.018  1.00  0.00     0.031 C 
ATOM     63  C   UNL A   1      44.826  30.977  29.320  1.00  0.00     0.037 A 
BRANCH  50  64
ATOM     64  C   UNL A   1      38.922  29.179  29.315  1.00  0.00     0.057 A 
ATOM     65  C   UNL A   1      38.157  29.595  28.220  1.00  0.00     0.134 A 
ATOM     66  C   UNL A   1      38.271  29.054  30.550  1.00  0.00     0.134 A 
ATOM     67  F   UNL A   1      38.721  29.740  27.012  1.00  0.00    -0.206 F 
ATOM     68  C   UNL A   1      36.795  29.877  28.349  1.00  0.00     0.040 A 
ATOM     69  C   UNL A   1      36.908  29.318  30.687  1.00  0.00     0.040 A 
ATOM     70  F   UNL A   1      38.948  28.653  31.637  1.00  0.00    -0.206 F 
ATOM     71  C   UNL A   1      36.164  29.730  29.583  1.00  0.00     0.006 A 
ENDBRANCH  50  64
BRANCH  51  72
ATOM     72  C   UNL A   1      48.409  26.231  28.201  1.00  0.00     0.057 A 
ATOM     73  C   UNL A   1      48.982  26.277  26.927  1.00  0.00     0.134 A 
ATOM     74  C   UNL A   1      49.217  25.803  29.263  1.00  0.00     0.134 A 
ATOM     75  F   UNL A   1      48.250  26.664  25.872  1.00  0.00    -0.206 F 
ATOM     76  C   UNL A   1      50.311  25.912  26.715  1.00  0.00     0.040 A 
ATOM     77  C   UNL A   1      50.554  25.458  29.069  1.00  0.00     0.040 A 
ATOM     78  F   UNL A   1      48.723  25.748  30.509  1.00  0.00    -0.206 F 
ATOM     79  C   UNL A   1      51.104  25.511  27.789  1.00  0.00     0.006 A 
ENDBRANCH  51  72
BRANCH  63  80
ATOM     80  C   UNL A   1      45.389  32.352  29.500  1.00  0.00     0.057 A 
ATOM     81  C   UNL A   1      45.787  32.817  30.759  1.00  0.00     0.134 A 
ATOM     82  C   UNL A   1      45.529  33.216  28.408  1.00  0.00     0.134 A 
ATOM     83  F   UNL A   1      45.657  32.040  31.844  1.00  0.00    -0.206 F 
ATOM     84  C   UNL A   1      46.287  34.109  30.929  1.00  0.00     0.040 A 
ATOM     85  C   UNL A   1      46.045  34.503  28.564  1.00  0.00     0.040 A 
ATOM     86  F   UNL A   1      45.166  32.825  27.178  1.00  0.00    -0.206 F 
ATOM     87  C   UNL A   1      46.419  34.953  29.828  1.00  0.00     0.006 A 
ENDBRANCH  63  80
ENDBRANCH  37  38
ENDBRANCH  30  32
ENDBRANCH  29  30
ENDBRANCH  28  29
ENDBRANCH   1  28
TORSDOF 16
ENDMDL
