MODEL 1
REMARK VINA RESULT:     -11.2      0.000      0.000
REMARK SMILES O=C(NC[C@@H]1CCOC1)NC[C@@H]1CC[C@H](C(=O)OCCOC(=O)c2ccc(-c3c4nc(c(-c5c(F)cccc5F)c5ccc([nH]5)c(-c5c(F)cccc5F)c5nc(c(-c6c(F)cccc6F)c6ccc3[nH]6)C=C5)C=C4)cc2)O1
REMARK SMILES IDX 19 1 18 2 16 3 17 4 15 5 12 6 13 7 78 8 14 9 11 10 10 11
REMARK SMILES IDX 1 12 2 13 3 14 4 17 5 18 6 19 9 20 7 21 8 22 20 23 21 24
REMARK SMILES IDX 22 25 23 26 24 27 25 28 77 29 26 30 76 31 27 32 28 33 29 34
REMARK SMILES IDX 70 35 30 36 75 37 69 38 71 39 31 40 74 41 68 42 67 43 32 45
REMARK SMILES IDX 58 46 41 47 57 48 42 49 45 50 56 51 72 52 43 53 44 54 55 56
REMARK SMILES IDX 73 57 46 58 33 59 34 60 39 61 35 62 36 63 38 64 40 65 37 66
REMARK SMILES IDX 59 67 60 68 65 69 61 70 62 71 64 72 66 73 63 74 47 75 48 76
REMARK SMILES IDX 53 77 49 78 50 79 52 80 54 81 51 82
REMARK H PARENT 3 15 10 16 71 44 45 55
REMARK Flexibility Score: inf
ROOT
ATOM      1  C   UNL A   1      45.014  20.919  24.739  1.00  0.00     0.274 C 
ENDROOT
BRANCH   1   2
ATOM      2  O   UNL A   1      43.788  20.161  24.747  1.00  0.00    -0.460 OA
BRANCH   2   3
ATOM      3  C   UNL A   1      43.871  18.890  25.225  1.00  0.00     0.335 C 
ATOM      4  O   UNL A   1      44.827  18.142  25.046  1.00  0.00    -0.249 OA
BRANCH   3   5
ATOM      5  C   UNL A   1      42.616  18.457  25.992  1.00  0.00     0.228 C 
ATOM      6  C   UNL A   1      40.996  20.043  26.582  1.00  0.00     0.138 C 
ATOM      7  C   UNL A   1      42.002  19.962  27.718  1.00  0.00     0.037 C 
ATOM      8  O   UNL A   1      41.483  19.192  25.521  1.00  0.00    -0.361 OA
ATOM      9  C   UNL A   1      42.646  18.615  27.501  1.00  0.00     0.047 C 
BRANCH   6  10
ATOM     10  C   UNL A   1      40.828  21.459  26.028  1.00  0.00     0.149 C 
BRANCH  10  11
ATOM     11  N   UNL A   1      39.428  21.711  25.751  1.00  0.00    -0.336 N 
ATOM     12  O   UNL A   1      39.194  23.533  27.088  1.00  0.00    -0.249 OA
ATOM     13  C   UNL A   1      38.705  22.689  26.342  1.00  0.00     0.314 C 
ATOM     14  N   UNL A   1      37.373  22.708  26.089  1.00  0.00    -0.338 N 
ATOM     15  H   UNL A   1      36.890  23.466  26.489  1.00  0.00     0.165 HD
ATOM     16  H   UNL A   1      38.975  21.135  25.094  1.00  0.00     0.165 HD
BRANCH  14  17
ATOM     17  C   UNL A   1      36.540  21.794  25.327  1.00  0.00     0.123 C 
BRANCH  17  18
ATOM     18  C   UNL A   1      35.041  22.148  25.292  1.00  0.00     0.036 C 
ATOM     19  C   UNL A   1      34.552  22.577  23.924  1.00  0.00     0.036 C 
ATOM     20  C   UNL A   1      34.660  23.349  26.140  1.00  0.00     0.165 C 
ATOM     21  C   UNL A   1      34.753  24.076  23.923  1.00  0.00     0.160 C 
ATOM     22  O   UNL A   1      34.743  24.504  25.289  1.00  0.00    -0.381 OA
ENDBRANCH  17  18
ENDBRANCH  14  17
ENDBRANCH  10  11
ENDBRANCH   6  10
ENDBRANCH   3   5
ENDBRANCH   2   3
ENDBRANCH   1   2
BRANCH   1  23
ATOM     23  C   UNL A   1      44.994  22.044  25.778  1.00  0.00     0.275 C 
BRANCH  23  24
ATOM     24  O   UNL A   1      43.910  22.966  25.554  1.00  0.00    -0.458 OA
BRANCH  24  25
ATOM     25  C   UNL A   1      44.283  24.261  25.433  1.00  0.00     0.338 C 
ATOM     26  O   UNL A   1      45.021  24.743  24.592  1.00  0.00    -0.246 OA
BRANCH  25  27
ATOM     27  C   UNL A   1      43.542  25.092  26.394  1.00  0.00     0.060 A 
ATOM     28  C   UNL A   1      43.926  26.430  26.519  1.00  0.00     0.016 A 
ATOM     29  C   UNL A   1      42.573  24.550  27.237  1.00  0.00     0.016 A 
ATOM     30  C   UNL A   1      43.354  27.233  27.498  1.00  0.00     0.010 A 
ATOM     31  C   UNL A   1      42.000  25.357  28.226  1.00  0.00     0.010 A 
ATOM     32  C   UNL A   1      42.402  26.696  28.372  1.00  0.00    -0.014 A 
BRANCH  32  33
ATOM     33  C   UNL A   1      41.900  27.533  29.486  1.00  0.00     0.031 A 
ATOM     34  C   UNL A   1      42.615  27.520  30.805  1.00  0.00     0.074 A 
ATOM     35  C   UNL A   1      40.848  28.348  29.291  1.00  0.00     0.049 A 
ATOM     36  N   UNL A   1      42.318  28.152  31.912  1.00  0.00    -0.248 NA
ATOM     37  C   UNL A   1      43.826  26.688  30.890  1.00  0.00     0.031 C 
ATOM     38  C   UNL A   1      40.110  28.489  28.036  1.00  0.00     0.029 A 
ATOM     39  N   UNL A   1      40.226  29.218  30.149  1.00  0.00    -0.354 N 
ATOM     40  C   UNL A   1      43.293  27.781  32.829  1.00  0.00     0.074 A 
ATOM     41  C   UNL A   1      44.184  26.862  32.154  1.00  0.00     0.031 C 
ATOM     42  C   UNL A   1      39.138  29.401  28.203  1.00  0.00     0.029 A 
ATOM     43  C   UNL A   1      39.164  29.879  29.583  1.00  0.00     0.049 A 
ATOM     44  H   UNL A   1      40.514  29.357  31.080  1.00  0.00     0.167 HD
ATOM     45  C   UNL A   1      43.433  28.175  34.118  1.00  0.00     0.037 A 
ATOM     46  C   UNL A   1      38.299  30.756  30.126  1.00  0.00     0.037 A 
ATOM     47  C   UNL A   1      42.556  29.101  34.783  1.00  0.00     0.049 A 
ATOM     48  C   UNL A   1      38.451  31.146  31.568  1.00  0.00     0.074 A 
ATOM     49  C   UNL A   1      42.607  29.552  36.091  1.00  0.00     0.029 A 
ATOM     50  N   UNL A   1      41.471  29.726  34.187  1.00  0.00    -0.354 N 
ATOM     51  N   UNL A   1      39.358  30.766  32.435  1.00  0.00    -0.248 NA
ATOM     52  C   UNL A   1      37.456  32.082  32.110  1.00  0.00     0.031 C 
ATOM     53  C   UNL A   1      41.537  30.432  36.292  1.00  0.00     0.029 A 
ATOM     54  C   UNL A   1      40.840  30.553  35.102  1.00  0.00     0.049 A 
ATOM     55  H   UNL A   1      41.192  29.601  33.252  1.00  0.00     0.167 HD
ATOM     56  C   UNL A   1      39.054  31.426  33.618  1.00  0.00     0.074 A 
ATOM     57  C   UNL A   1      37.887  32.241  33.354  1.00  0.00     0.031 C 
ATOM     58  C   UNL A   1      39.683  31.360  34.816  1.00  0.00     0.037 A 
BRANCH  45  59
ATOM     59  C   UNL A   1      44.562  27.576  34.898  1.00  0.00     0.057 A 
ATOM     60  C   UNL A   1      44.403  26.402  35.644  1.00  0.00     0.134 A 
ATOM     61  C   UNL A   1      45.828  28.174  34.889  1.00  0.00     0.134 A 
ATOM     62  F   UNL A   1      43.209  25.793  35.707  1.00  0.00    -0.206 F 
ATOM     63  C   UNL A   1      45.462  25.851  36.367  1.00  0.00     0.040 A 
ATOM     64  C   UNL A   1      46.899  27.622  35.594  1.00  0.00     0.040 A 
ATOM     65  F   UNL A   1      46.045  29.301  34.195  1.00  0.00    -0.206 F 
ATOM     66  C   UNL A   1      46.716  26.459  36.340  1.00  0.00     0.006 A 
ENDBRANCH  45  59
BRANCH  46  67
ATOM     67  C   UNL A   1      37.203  31.317  29.301  1.00  0.00     0.057 A 
ATOM     68  C   UNL A   1      37.287  32.608  28.768  1.00  0.00     0.134 A 
ATOM     69  C   UNL A   1      36.046  30.577  29.029  1.00  0.00     0.134 A 
ATOM     70  F   UNL A   1      38.361  33.372  29.013  1.00  0.00    -0.206 F 
ATOM     71  C   UNL A   1      36.252  33.148  28.001  1.00  0.00     0.040 A 
ATOM     72  C   UNL A   1      35.015  31.096  28.247  1.00  0.00     0.040 A 
ATOM     73  F   UNL A   1      35.910  29.334  29.512  1.00  0.00    -0.206 F 
ATOM     74  C   UNL A   1      35.114  32.388  27.735  1.00  0.00     0.006 A 
ENDBRANCH  46  67
BRANCH  58  75
ATOM     75  C   UNL A   1      39.135  32.213  35.918  1.00  0.00     0.057 A 
ATOM     76  C   UNL A   1      38.220  31.709  36.851  1.00  0.00     0.134 A 
ATOM     77  C   UNL A   1      39.547  33.543  36.064  1.00  0.00     0.134 A 
ATOM     78  F   UNL A   1      37.778  30.446  36.755  1.00  0.00    -0.206 F 
ATOM     79  C   UNL A   1      37.719  32.506  37.882  1.00  0.00     0.040 A 
ATOM     80  C   UNL A   1      39.067  34.344  37.100  1.00  0.00     0.040 A 
ATOM     81  F   UNL A   1      40.426  34.081  35.205  1.00  0.00    -0.206 F 
ATOM     82  C   UNL A   1      38.146  33.826  38.011  1.00  0.00     0.006 A 
ENDBRANCH  58  75
ENDBRANCH  32  33
ENDBRANCH  25  27
ENDBRANCH  24  25
ENDBRANCH  23  24
ENDBRANCH   1  23
TORSDOF 15
ENDMDL
MODEL 2
REMARK VINA RESULT:     -11.2      4.420      9.504
REMARK SMILES O=C(NC[C@@H]1CCOC1)NC[C@@H]1CC[C@H](C(=O)OCCOC(=O)c2ccc(-c3c4nc(c(-c5c(F)cccc5F)c5ccc([nH]5)c(-c5c(F)cccc5F)c5nc(c(-c6c(F)cccc6F)c6ccc3[nH]6)C=C5)C=C4)cc2)O1
REMARK SMILES IDX 19 1 18 2 16 3 17 4 15 5 12 6 13 7 78 8 14 9 11 10 10 11
REMARK SMILES IDX 1 12 2 13 3 14 4 17 5 18 6 19 9 20 7 21 8 22 20 23 21 24
REMARK SMILES IDX 22 25 23 26 24 27 25 28 77 29 26 30 76 31 27 32 28 33 29 34
REMARK SMILES IDX 70 35 30 36 75 37 69 38 71 39 31 40 74 41 68 42 67 43 32 45
REMARK SMILES IDX 58 46 41 47 57 48 42 49 45 50 56 51 72 52 43 53 44 54 55 56
REMARK SMILES IDX 73 57 46 58 33 59 34 60 39 61 35 62 36 63 38 64 40 65 37 66
REMARK SMILES IDX 59 67 60 68 65 69 61 70 62 71 64 72 66 73 63 74 47 75 48 76
REMARK SMILES IDX 53 77 49 78 50 79 52 80 54 81 51 82
REMARK H PARENT 3 15 10 16 71 44 45 55
REMARK Flexibility Score: inf
ROOT
ATOM      1  C   UNL A   1      31.755  31.763  26.841  1.00  0.00     0.274 C 
ENDROOT
BRANCH   1   2
ATOM      2  O   UNL A   1      32.869  30.878  27.067  1.00  0.00    -0.460 OA
BRANCH   2   3
ATOM      3  C   UNL A   1      32.912  29.757  26.296  1.00  0.00     0.335 C 
ATOM      4  O   UNL A   1      32.857  29.757  25.070  1.00  0.00    -0.249 OA
BRANCH   3   5
ATOM      5  C   UNL A   1      33.001  28.467  27.120  1.00  0.00     0.228 C 
ATOM      6  C   UNL A   1      32.540  26.401  26.118  1.00  0.00     0.138 C 
ATOM      7  C   UNL A   1      31.239  26.945  26.680  1.00  0.00     0.037 C 
ATOM      8  O   UNL A   1      33.548  27.418  26.318  1.00  0.00    -0.361 OA
ATOM      9  C   UNL A   1      31.707  27.941  27.713  1.00  0.00     0.047 C 
BRANCH   6  10
ATOM     10  C   UNL A   1      32.463  26.083  24.623  1.00  0.00     0.149 C 
BRANCH  10  11
ATOM     11  N   UNL A   1      31.689  27.105  23.947  1.00  0.00    -0.336 N 
ATOM     12  O   UNL A   1      32.814  27.061  21.975  1.00  0.00    -0.249 OA
ATOM     13  C   UNL A   1      31.957  27.555  22.700  1.00  0.00     0.314 C 
ATOM     14  N   UNL A   1      31.234  28.614  22.261  1.00  0.00    -0.338 N 
ATOM     15  H   UNL A   1      31.416  28.877  21.329  1.00  0.00     0.165 HD
ATOM     16  H   UNL A   1      30.922  27.496  24.425  1.00  0.00     0.165 HD
BRANCH  14  17
ATOM     17  C   UNL A   1      30.236  29.426  22.935  1.00  0.00     0.123 C 
BRANCH  17  18
ATOM     18  C   UNL A   1      28.999  29.781  22.088  1.00  0.00     0.036 C 
ATOM     19  C   UNL A   1      28.773  31.273  21.941  1.00  0.00     0.036 C 
ATOM     20  C   UNL A   1      27.677  29.333  22.688  1.00  0.00     0.165 C 
ATOM     21  C   UNL A   1      27.884  31.620  23.114  1.00  0.00     0.160 C 
ATOM     22  O   UNL A   1      27.190  30.425  23.486  1.00  0.00    -0.381 OA
ENDBRANCH  17  18
ENDBRANCH  14  17
ENDBRANCH  10  11
ENDBRANCH   6  10
ENDBRANCH   3   5
ENDBRANCH   2   3
ENDBRANCH   1   2
BRANCH   1  23
ATOM     23  C   UNL A   1      32.188  33.233  26.848  1.00  0.00     0.275 C 
BRANCH  23  24
ATOM     24  O   UNL A   1      32.153  33.799  28.173  1.00  0.00    -0.458 OA
BRANCH  24  25
ATOM     25  C   UNL A   1      33.206  34.594  28.477  1.00  0.00     0.338 C 
ATOM     26  O   UNL A   1      33.210  35.807  28.581  1.00  0.00    -0.246 OA
BRANCH  25  27
ATOM     27  C   UNL A   1      34.373  33.773  28.832  1.00  0.00     0.060 A 
ATOM     28  C   UNL A   1      34.157  32.669  29.660  1.00  0.00     0.016 A 
ATOM     29  C   UNL A   1      35.666  34.140  28.459  1.00  0.00     0.016 A 
ATOM     30  C   UNL A   1      35.233  31.930  30.136  1.00  0.00     0.010 A 
ATOM     31  C   UNL A   1      36.751  33.398  28.941  1.00  0.00     0.010 A 
ATOM     32  C   UNL A   1      36.539  32.303  29.796  1.00  0.00    -0.014 A 
BRANCH  32  33
ATOM     33  C   UNL A   1      37.674  31.579  30.414  1.00  0.00     0.031 A 
ATOM     34  C   UNL A   1      38.009  31.818  31.858  1.00  0.00     0.074 A 
ATOM     35  C   UNL A   1      38.356  30.666  29.701  1.00  0.00     0.049 A 
ATOM     36  N   UNL A   1      38.979  31.313  32.576  1.00  0.00    -0.248 NA
ATOM     37  C   UNL A   1      37.134  32.746  32.591  1.00  0.00     0.031 C 
ATOM     38  C   UNL A   1      38.085  30.307  28.309  1.00  0.00     0.029 A 
ATOM     39  N   UNL A   1      39.412  29.867  30.056  1.00  0.00    -0.354 N 
ATOM     40  C   UNL A   1      38.844  31.874  33.839  1.00  0.00     0.074 A 
ATOM     41  C   UNL A   1      37.705  32.766  33.788  1.00  0.00     0.031 C 
ATOM     42  C   UNL A   1      38.949  29.350  27.930  1.00  0.00     0.029 A 
ATOM     43  C   UNL A   1      39.853  29.058  29.039  1.00  0.00     0.049 A 
ATOM     44  H   UNL A   1      39.816  29.873  30.954  1.00  0.00     0.167 HD
ATOM     45  C   UNL A   1      39.601  31.661  34.942  1.00  0.00     0.037 A 
ATOM     46  C   UNL A   1      40.884  28.193  29.002  1.00  0.00     0.037 A 
ATOM     47  C   UNL A   1      40.723  30.762  34.996  1.00  0.00     0.049 A 
ATOM     48  C   UNL A   1      41.733  28.005  30.227  1.00  0.00     0.074 A 
ATOM     49  C   UNL A   1      41.561  30.489  36.064  1.00  0.00     0.029 A 
ATOM     50  N   UNL A   1      41.159  29.983  33.936  1.00  0.00    -0.354 N 
ATOM     51  N   UNL A   1      41.615  28.564  31.407  1.00  0.00    -0.248 NA
ATOM     52  C   UNL A   1      42.863  27.072  30.113  1.00  0.00     0.031 C 
ATOM     53  C   UNL A   1      42.519  29.561  35.641  1.00  0.00     0.029 A 
ATOM     54  C   UNL A   1      42.259  29.234  34.321  1.00  0.00     0.049 A 
ATOM     55  H   UNL A   1      40.748  29.965  33.042  1.00  0.00     0.167 HD
ATOM     56  C   UNL A   1      42.642  28.040  32.181  1.00  0.00     0.074 A 
ATOM     57  C   UNL A   1      43.365  27.109  31.340  1.00  0.00     0.031 C 
ATOM     58  C   UNL A   1      42.960  28.309  33.470  1.00  0.00     0.037 A 
BRANCH  45  59
ATOM     59  C   UNL A   1      39.253  32.442  36.171  1.00  0.00     0.057 A 
ATOM     60  C   UNL A   1      38.350  31.954  37.125  1.00  0.00     0.134 A 
ATOM     61  C   UNL A   1      39.840  33.690  36.412  1.00  0.00     0.134 A 
ATOM     62  F   UNL A   1      37.740  30.774  36.941  1.00  0.00    -0.206 F 
ATOM     63  C   UNL A   1      38.033  32.689  38.269  1.00  0.00     0.040 A 
ATOM     64  C   UNL A   1      39.544  34.426  37.560  1.00  0.00     0.040 A 
ATOM     65  F   UNL A   1      40.712  34.213  35.536  1.00  0.00    -0.206 F 
ATOM     66  C   UNL A   1      38.634  33.927  38.490  1.00  0.00     0.006 A 
ENDBRANCH  45  59
BRANCH  46  67
ATOM     67  C   UNL A   1      41.176  27.446  27.756  1.00  0.00     0.057 A 
ATOM     68  C   UNL A   1      41.980  27.999  26.753  1.00  0.00     0.134 A 
ATOM     69  C   UNL A   1      40.656  26.166  27.537  1.00  0.00     0.134 A 
ATOM     70  F   UNL A   1      42.488  29.232  26.897  1.00  0.00    -0.206 F 
ATOM     71  C   UNL A   1      42.249  27.307  25.571  1.00  0.00     0.040 A 
ATOM     72  C   UNL A   1      40.933  25.454  26.370  1.00  0.00     0.040 A 
ATOM     73  F   UNL A   1      39.879  25.584  28.463  1.00  0.00    -0.206 F 
ATOM     74  C   UNL A   1      41.728  26.028  25.380  1.00  0.00     0.006 A 
ENDBRANCH  46  67
BRANCH  58  75
ATOM     75  C   UNL A   1      44.122  27.565  34.052  1.00  0.00     0.057 A 
ATOM     76  C   UNL A   1      45.421  28.088  34.018  1.00  0.00     0.134 A 
ATOM     77  C   UNL A   1      43.936  26.325  34.675  1.00  0.00     0.134 A 
ATOM     78  F   UNL A   1      45.664  29.265  33.422  1.00  0.00    -0.206 F 
ATOM     79  C   UNL A   1      46.498  27.394  34.570  1.00  0.00     0.040 A 
ATOM     80  C   UNL A   1      45.003  25.630  35.246  1.00  0.00     0.040 A 
ATOM     81  F   UNL A   1      42.715  25.774  34.745  1.00  0.00    -0.206 F 
ATOM     82  C   UNL A   1      46.290  26.164  35.190  1.00  0.00     0.006 A 
ENDBRANCH  58  75
ENDBRANCH  32  33
ENDBRANCH  25  27
ENDBRANCH  24  25
ENDBRANCH  23  24
ENDBRANCH   1  23
TORSDOF 15
ENDMDL
MODEL 3
REMARK VINA RESULT:     -10.9      4.150      7.154
REMARK SMILES O=C(NC[C@@H]1CCOC1)NC[C@@H]1CC[C@H](C(=O)OCCOC(=O)c2ccc(-c3c4nc(c(-c5c(F)cccc5F)c5ccc([nH]5)c(-c5c(F)cccc5F)c5nc(c(-c6c(F)cccc6F)c6ccc3[nH]6)C=C5)C=C4)cc2)O1
REMARK SMILES IDX 19 1 18 2 16 3 17 4 15 5 12 6 13 7 78 8 14 9 11 10 10 11
REMARK SMILES IDX 1 12 2 13 3 14 4 17 5 18 6 19 9 20 7 21 8 22 20 23 21 24
REMARK SMILES IDX 22 25 23 26 24 27 25 28 77 29 26 30 76 31 27 32 28 33 29 34
REMARK SMILES IDX 70 35 30 36 75 37 69 38 71 39 31 40 74 41 68 42 67 43 32 45
REMARK SMILES IDX 58 46 41 47 57 48 42 49 45 50 56 51 72 52 43 53 44 54 55 56
REMARK SMILES IDX 73 57 46 58 33 59 34 60 39 61 35 62 36 63 38 64 40 65 37 66
REMARK SMILES IDX 59 67 60 68 65 69 61 70 62 71 64 72 66 73 63 74 47 75 48 76
REMARK SMILES IDX 53 77 49 78 50 79 52 80 54 81 51 82
REMARK H PARENT 3 15 10 16 71 44 45 55
REMARK Flexibility Score: inf
ROOT
ATOM      1  C   UNL A   1      38.197  19.978  25.011  1.00  0.00     0.274 C 
ENDROOT
BRANCH   1   2
ATOM      2  O   UNL A   1      38.151  21.332  25.502  1.00  0.00    -0.460 OA
BRANCH   2   3
ATOM      3  C   UNL A   1      36.923  21.918  25.531  1.00  0.00     0.335 C 
ATOM      4  O   UNL A   1      35.951  21.462  26.124  1.00  0.00    -0.249 OA
BRANCH   3   5
ATOM      5  C   UNL A   1      36.858  23.209  24.707  1.00  0.00     0.228 C 
ATOM      6  C   UNL A   1      34.783  24.139  24.143  1.00  0.00     0.138 C 
ATOM      7  C   UNL A   1      35.178  23.177  23.036  1.00  0.00     0.037 C 
ATOM      8  O   UNL A   1      35.787  24.031  25.177  1.00  0.00    -0.361 OA
ATOM      9  C   UNL A   1      36.672  23.059  23.208  1.00  0.00     0.047 C 
BRANCH   6  10
ATOM     10  C   UNL A   1      33.419  23.821  24.758  1.00  0.00     0.149 C 
BRANCH  10  11
ATOM     11  N   UNL A   1      33.233  22.385  24.815  1.00  0.00    -0.336 N 
ATOM     12  O   UNL A   1      32.117  22.317  26.792  1.00  0.00    -0.249 OA
ATOM     13  C   UNL A   1      32.648  21.739  25.850  1.00  0.00     0.314 C 
ATOM     14  N   UNL A   1      32.677  20.384  25.823  1.00  0.00    -0.338 N 
ATOM     15  H   UNL A   1      32.193  19.948  26.561  1.00  0.00     0.165 HD
ATOM     16  H   UNL A   1      33.551  21.847  24.054  1.00  0.00     0.165 HD
BRANCH  14  17
ATOM     17  C   UNL A   1      33.304  19.467  24.886  1.00  0.00     0.123 C 
BRANCH  17  18
ATOM     18  C   UNL A   1      32.388  18.352  24.348  1.00  0.00     0.036 C 
ATOM     19  C   UNL A   1      32.761  16.969  24.844  1.00  0.00     0.036 C 
ATOM     20  C   UNL A   1      32.450  18.160  22.842  1.00  0.00     0.165 C 
ATOM     21  C   UNL A   1      33.735  16.464  23.805  1.00  0.00     0.160 C 
ATOM     22  O   UNL A   1      33.461  17.170  22.590  1.00  0.00    -0.381 OA
ENDBRANCH  17  18
ENDBRANCH  14  17
ENDBRANCH  10  11
ENDBRANCH   6  10
ENDBRANCH   3   5
ENDBRANCH   2   3
ENDBRANCH   1   2
BRANCH   1  23
ATOM     23  C   UNL A   1      39.268  19.150  25.727  1.00  0.00     0.275 C 
BRANCH  23  24
ATOM     24  O   UNL A   1      40.599  19.513  25.311  1.00  0.00    -0.458 OA
BRANCH  24  25
ATOM     25  C   UNL A   1      41.501  19.609  26.316  1.00  0.00     0.338 C 
ATOM     26  O   UNL A   1      42.212  18.724  26.757  1.00  0.00    -0.246 OA
BRANCH  25  27
ATOM     27  C   UNL A   1      41.638  21.009  26.741  1.00  0.00     0.060 A 
ATOM     28  C   UNL A   1      41.455  21.998  25.771  1.00  0.00     0.016 A 
ATOM     29  C   UNL A   1      42.052  21.347  28.029  1.00  0.00     0.016 A 
ATOM     30  C   UNL A   1      41.697  23.332  26.076  1.00  0.00     0.010 A 
ATOM     31  C   UNL A   1      42.299  22.690  28.337  1.00  0.00     0.010 A 
ATOM     32  C   UNL A   1      42.141  23.684  27.356  1.00  0.00    -0.014 A 
BRANCH  32  33
ATOM     33  C   UNL A   1      42.513  25.093  27.622  1.00  0.00     0.031 A 
ATOM     34  C   UNL A   1      43.856  25.602  27.187  1.00  0.00     0.074 A 
ATOM     35  C   UNL A   1      41.624  25.925  28.193  1.00  0.00     0.049 A 
ATOM     36  N   UNL A   1      44.385  26.787  27.353  1.00  0.00    -0.248 NA
ATOM     37  C   UNL A   1      44.716  24.651  26.464  1.00  0.00     0.031 C 
ATOM     38  C   UNL A   1      40.269  25.560  28.606  1.00  0.00     0.029 A 
ATOM     39  N   UNL A   1      41.728  27.254  28.514  1.00  0.00    -0.354 N 
ATOM     40  C   UNL A   1      45.646  26.720  26.774  1.00  0.00     0.074 A 
ATOM     41  C   UNL A   1      45.807  25.377  26.261  1.00  0.00     0.031 C 
ATOM     42  C   UNL A   1      39.663  26.643  29.119  1.00  0.00     0.029 A 
ATOM     43  C   UNL A   1      40.598  27.765  29.102  1.00  0.00     0.049 A 
ATOM     44  H   UNL A   1      42.535  27.791  28.338  1.00  0.00     0.167 HD
ATOM     45  C   UNL A   1      46.582  27.694  26.678  1.00  0.00     0.037 A 
ATOM     46  C   UNL A   1      40.355  28.996  29.591  1.00  0.00     0.037 A 
ATOM     47  C   UNL A   1      46.414  29.034  27.175  1.00  0.00     0.049 A 
ATOM     48  C   UNL A   1      41.424  30.047  29.508  1.00  0.00     0.074 A 
ATOM     49  C   UNL A   1      47.310  30.089  27.137  1.00  0.00     0.029 A 
ATOM     50  N   UNL A   1      45.267  29.506  27.794  1.00  0.00    -0.354 N 
ATOM     51  N   UNL A   1      42.624  29.965  28.986  1.00  0.00    -0.248 NA
ATOM     52  C   UNL A   1      41.109  31.360  30.088  1.00  0.00     0.031 C 
ATOM     53  C   UNL A   1      46.713  31.193  27.756  1.00  0.00     0.029 A 
ATOM     54  C   UNL A   1      45.434  30.834  28.150  1.00  0.00     0.049 A 
ATOM     55  H   UNL A   1      44.454  28.976  27.956  1.00  0.00     0.167 HD
ATOM     56  C   UNL A   1      43.201  31.216  29.159  1.00  0.00     0.074 A 
ATOM     57  C   UNL A   1      42.215  32.043  29.823  1.00  0.00     0.031 C 
ATOM     58  C   UNL A   1      44.437  31.641  28.804  1.00  0.00     0.037 A 
BRANCH  45  59
ATOM     59  C   UNL A   1      47.885  27.330  26.035  1.00  0.00     0.057 A 
ATOM     60  C   UNL A   1      48.085  27.448  24.654  1.00  0.00     0.134 A 
ATOM     61  C   UNL A   1      48.956  26.872  26.810  1.00  0.00     0.134 A 
ATOM     62  F   UNL A   1      47.089  27.863  23.856  1.00  0.00    -0.206 F 
ATOM     63  C   UNL A   1      49.303  27.107  24.064  1.00  0.00     0.040 A 
ATOM     64  C   UNL A   1      50.185  26.545  26.234  1.00  0.00     0.040 A 
ATOM     65  F   UNL A   1      48.828  26.737  28.139  1.00  0.00    -0.206 F 
ATOM     66  C   UNL A   1      50.359  26.658  24.856  1.00  0.00     0.006 A 
ENDBRANCH  45  59
BRANCH  46  67
ATOM     67  C   UNL A   1      39.044  29.296  30.212  1.00  0.00     0.057 A 
ATOM     68  C   UNL A   1      38.813  29.050  31.570  1.00  0.00     0.134 A 
ATOM     69  C   UNL A   1      37.990  29.832  29.463  1.00  0.00     0.134 A 
ATOM     70  F   UNL A   1      39.778  28.517  32.333  1.00  0.00    -0.206 F 
ATOM     71  C   UNL A   1      37.576  29.319  32.160  1.00  0.00     0.040 A 
ATOM     72  C   UNL A   1      36.756  30.124  30.043  1.00  0.00     0.040 A 
ATOM     73  F   UNL A   1      38.151  30.089  28.157  1.00  0.00    -0.206 F 
ATOM     74  C   UNL A   1      36.545  29.862  31.396  1.00  0.00     0.006 A 
ENDBRANCH  46  67
BRANCH  58  75
ATOM     75  C   UNL A   1      44.777  33.068  29.103  1.00  0.00     0.057 A 
ATOM     76  C   UNL A   1      44.433  34.104  28.226  1.00  0.00     0.134 A 
ATOM     77  C   UNL A   1      45.431  33.412  30.292  1.00  0.00     0.134 A 
ATOM     78  F   UNL A   1      43.817  33.835  27.065  1.00  0.00    -0.206 F 
ATOM     79  C   UNL A   1      44.744  35.434  28.515  1.00  0.00     0.040 A 
ATOM     80  C   UNL A   1      45.731  34.739  30.600  1.00  0.00     0.040 A 
ATOM     81  F   UNL A   1      45.781  32.465  31.175  1.00  0.00    -0.206 F 
ATOM     82  C   UNL A   1      45.391  35.755  29.706  1.00  0.00     0.006 A 
ENDBRANCH  58  75
ENDBRANCH  32  33
ENDBRANCH  25  27
ENDBRANCH  24  25
ENDBRANCH  23  24
ENDBRANCH   1  23
TORSDOF 15
ENDMDL
