MODEL 1
REMARK VINA RESULT:     -11.9      0.000      0.000
REMARK SMILES CCc1cc(C(=O)c2[nH]c3cc(Cl)ccc3c2CC(=O)OCCOC(=O)c2ccc(-c3c4nc(c(-c5c(F)cccc5F)c5ccc([nH]5)c(-c5c(F)cccc5F)c5nc(c(-c6c(F)cccc6F)c6ccc3[nH]6)C=C5)C=C4)cc2)ncc1Cl
REMARK SMILES IDX 22 1 21 2 19 3 20 4 18 5 17 6 8 7 9 8 10 9 16 11 11 12 15 13
REMARK SMILES IDX 12 14 14 15 13 16 6 17 7 18 5 19 3 20 4 21 83 22 82 23 84 24
REMARK SMILES IDX 81 25 2 26 1 27 23 28 24 29 25 30 26 31 27 32 28 33 80 34
REMARK SMILES IDX 29 35 79 36 30 37 31 38 32 39 73 40 33 41 78 42 72 43 74 44
REMARK SMILES IDX 34 45 77 46 71 47 70 48 35 50 61 51 44 52 60 53 45 54 48 55
REMARK SMILES IDX 59 56 75 57 46 58 47 59 58 61 76 62 49 63 36 64 37 65 42 66
REMARK SMILES IDX 38 67 39 68 41 69 43 70 40 71 62 72 63 73 68 74 64 75 65 76
REMARK SMILES IDX 67 77 69 78 66 79 50 80 51 81 56 82 52 83 53 84 55 85 57 86
REMARK SMILES IDX 54 87
REMARK H PARENT 9 10 74 49 48 60
REMARK Flexibility Score: inf
ROOT
ATOM      1  C   UNL A   1      32.296  28.969  25.335  1.00  0.00     0.274 C 
ENDROOT
BRANCH   1   2
ATOM      2  O   UNL A   1      31.514  27.936  25.972  1.00  0.00    -0.462 OA
BRANCH   2   3
ATOM      3  C   UNL A   1      32.177  26.806  26.322  1.00  0.00     0.310 C 
ATOM      4  O   UNL A   1      31.654  25.850  26.890  1.00  0.00    -0.252 OA
BRANCH   3   5
ATOM      5  C   UNL A   1      33.597  26.721  25.805  1.00  0.00     0.161 C 
BRANCH   5   6
ATOM      6  C   UNL A   1      33.940  25.681  24.784  1.00  0.00     0.000 A 
ATOM      7  C   UNL A   1      33.589  25.631  23.434  1.00  0.00     0.093 A 
ATOM      8  N   UNL A   1      34.081  24.451  22.929  1.00  0.00    -0.351 N 
ATOM      9  C   UNL A   1      34.678  23.705  23.909  1.00  0.00     0.048 A 
ATOM     10  H   UNL A   1      34.013  24.178  21.986  1.00  0.00     0.167 HD
ATOM     11  C   UNL A   1      34.659  24.468  25.072  1.00  0.00     0.004 A 
ATOM     12  C   UNL A   1      35.249  22.428  23.839  1.00  0.00     0.047 A 
ATOM     13  C   UNL A   1      35.283  23.943  26.226  1.00  0.00     0.012 A 
ATOM     14  C   UNL A   1      35.845  21.930  24.998  1.00  0.00     0.043 A 
ATOM     15  C   UNL A   1      35.876  22.674  26.174  1.00  0.00     0.021 A 
ATOM     16  Cl  UNL A   1      36.557  20.362  24.965  1.00  0.00    -0.084 Cl
BRANCH   7  17
ATOM     17  C   UNL A   1      32.967  26.590  22.533  1.00  0.00     0.227 C 
ATOM     18  O   UNL A   1      33.600  27.023  21.570  1.00  0.00    -0.285 OA
BRANCH  17  19
ATOM     19  C   UNL A   1      31.481  26.863  22.611  1.00  0.00     0.113 A 
ATOM     20  C   UNL A   1      29.587  28.416  22.636  1.00  0.00    -0.026 A 
ATOM     21  C   UNL A   1      30.927  28.101  22.276  1.00  0.00     0.037 A 
ATOM     22  C   UNL A   1      28.849  27.415  23.281  1.00  0.00     0.062 A 
ATOM     23  C   UNL A   1      29.461  26.185  23.510  1.00  0.00     0.132 A 
ATOM     24  Cl  UNL A   1      27.245  27.581  23.876  1.00  0.00    -0.082 Cl
ATOM     25  N   UNL A   1      30.743  25.896  23.210  1.00  0.00    -0.251 NA
BRANCH  20  26
ATOM     26  C   UNL A   1      29.125  29.816  22.274  1.00  0.00     0.034 C 
ATOM     27  C   UNL A   1      29.076  30.926  23.316  1.00  0.00     0.009 C 
ENDBRANCH  20  26
ENDBRANCH  17  19
ENDBRANCH   7  17
ENDBRANCH   5   6
ENDBRANCH   3   5
ENDBRANCH   2   3
ENDBRANCH   1   2
BRANCH   1  28
ATOM     28  C   UNL A   1      31.846  30.369  25.781  1.00  0.00     0.275 C 
BRANCH  28  29
ATOM     29  O   UNL A   1      32.166  30.653  27.162  1.00  0.00    -0.458 OA
BRANCH  29  30
ATOM     30  C   UNL A   1      32.984  31.706  27.317  1.00  0.00     0.338 C 
ATOM     31  O   UNL A   1      32.681  32.893  27.256  1.00  0.00    -0.246 OA
BRANCH  30  32
ATOM     32  C   UNL A   1      34.348  31.363  27.686  1.00  0.00     0.060 A 
ATOM     33  C   UNL A   1      34.609  30.027  28.002  1.00  0.00     0.016 A 
ATOM     34  C   UNL A   1      35.239  32.378  28.039  1.00  0.00     0.016 A 
ATOM     35  C   UNL A   1      35.747  29.705  28.728  1.00  0.00     0.010 A 
ATOM     36  C   UNL A   1      36.406  32.044  28.725  1.00  0.00     0.010 A 
ATOM     37  C   UNL A   1      36.651  30.711  29.097  1.00  0.00    -0.014 A 
BRANCH  37  38
ATOM     38  C   UNL A   1      37.871  30.356  29.852  1.00  0.00     0.031 A 
ATOM     39  C   UNL A   1      38.927  29.481  29.248  1.00  0.00     0.074 A 
ATOM     40  C   UNL A   1      38.021  30.842  31.095  1.00  0.00     0.049 A 
ATOM     41  N   UNL A   1      40.000  28.978  29.805  1.00  0.00    -0.248 NA
ATOM     42  C   UNL A   1      38.757  29.126  27.832  1.00  0.00     0.031 C 
ATOM     43  C   UNL A   1      37.082  31.743  31.764  1.00  0.00     0.029 A 
ATOM     44  N   UNL A   1      39.016  30.647  32.013  1.00  0.00    -0.354 N 
ATOM     45  C   UNL A   1      40.623  28.230  28.817  1.00  0.00     0.074 A 
ATOM     46  C   UNL A   1      39.806  28.339  27.629  1.00  0.00     0.031 C 
ATOM     47  C   UNL A   1      37.551  32.032  32.986  1.00  0.00     0.029 A 
ATOM     48  C   UNL A   1      38.787  31.288  33.203  1.00  0.00     0.049 A 
ATOM     49  H   UNL A   1      39.816  30.101  31.837  1.00  0.00     0.167 HD
ATOM     50  C   UNL A   1      41.770  27.513  28.893  1.00  0.00     0.037 A 
ATOM     51  C   UNL A   1      39.476  31.249  34.356  1.00  0.00     0.037 A 
ATOM     52  C   UNL A   1      42.577  27.406  30.080  1.00  0.00     0.049 A 
ATOM     53  C   UNL A   1      40.705  30.396  34.444  1.00  0.00     0.074 A 
ATOM     54  C   UNL A   1      43.745  26.692  30.274  1.00  0.00     0.029 A 
ATOM     55  N   UNL A   1      42.290  28.040  31.280  1.00  0.00    -0.354 N 
ATOM     56  N   UNL A   1      41.262  29.657  33.516  1.00  0.00    -0.248 NA
ATOM     57  C   UNL A   1      41.389  30.359  35.742  1.00  0.00     0.031 C 
ATOM     58  C   UNL A   1      44.153  26.873  31.601  1.00  0.00     0.029 A 
ATOM     59  C   UNL A   1      43.254  27.724  32.223  1.00  0.00     0.049 A 
ATOM     60  H   UNL A   1      41.517  28.627  31.438  1.00  0.00     0.167 HD
ATOM     61  C   UNL A   1      42.367  29.071  34.113  1.00  0.00     0.074 A 
ATOM     62  C   UNL A   1      42.407  29.550  35.481  1.00  0.00     0.031 C 
ATOM     63  C   UNL A   1      43.267  28.211  33.577  1.00  0.00     0.037 A 
BRANCH  50  64
ATOM     64  C   UNL A   1      42.198  26.762  27.668  1.00  0.00     0.057 A 
ATOM     65  C   UNL A   1      42.951  27.367  26.654  1.00  0.00     0.134 A 
ATOM     66  C   UNL A   1      41.869  25.409  27.509  1.00  0.00     0.134 A 
ATOM     67  F   UNL A   1      43.284  28.664  26.736  1.00  0.00    -0.206 F 
ATOM     68  C   UNL A   1      43.352  26.656  25.520  1.00  0.00     0.040 A 
ATOM     69  C   UNL A   1      42.277  24.684  26.389  1.00  0.00     0.040 A 
ATOM     70  F   UNL A   1      41.148  24.772  28.443  1.00  0.00    -0.206 F 
ATOM     71  C   UNL A   1      43.019  25.308  25.387  1.00  0.00     0.006 A 
ENDBRANCH  50  64
BRANCH  51  72
ATOM     72  C   UNL A   1      38.985  32.028  35.513  1.00  0.00     0.057 A 
ATOM     73  C   UNL A   1      38.187  31.433  36.494  1.00  0.00     0.134 A 
ATOM     74  C   UNL A   1      39.361  33.364  35.701  1.00  0.00     0.134 A 
ATOM     75  F   UNL A   1      37.791  30.159  36.360  1.00  0.00    -0.206 F 
ATOM     76  C   UNL A   1      37.783  32.139  37.627  1.00  0.00     0.040 A 
ATOM     77  C   UNL A   1      38.980  34.075  36.837  1.00  0.00     0.040 A 
ATOM     78  F   UNL A   1      40.136  33.982  34.797  1.00  0.00    -0.206 F 
ATOM     79  C   UNL A   1      38.187  33.461  37.805  1.00  0.00     0.006 A 
ENDBRANCH  51  72
BRANCH  63  80
ATOM     80  C   UNL A   1      44.376  27.755  34.472  1.00  0.00     0.057 A 
ATOM     81  C   UNL A   1      45.569  28.479  34.584  1.00  0.00     0.134 A 
ATOM     82  C   UNL A   1      44.239  26.595  35.243  1.00  0.00     0.134 A 
ATOM     83  F   UNL A   1      45.761  29.591  33.858  1.00  0.00    -0.206 F 
ATOM     84  C   UNL A   1      46.598  28.054  35.425  1.00  0.00     0.040 A 
ATOM     85  C   UNL A   1      45.254  26.169  36.098  1.00  0.00     0.040 A 
ATOM     86  F   UNL A   1      43.117  25.863  35.177  1.00  0.00    -0.206 F 
ATOM     87  C   UNL A   1      46.440  26.897  36.188  1.00  0.00     0.006 A 
ENDBRANCH  63  80
ENDBRANCH  37  38
ENDBRANCH  30  32
ENDBRANCH  29  30
ENDBRANCH  28  29
ENDBRANCH   1  28
TORSDOF 15
ENDMDL
MODEL 2
REMARK VINA RESULT:     -11.9      4.039      8.845
REMARK SMILES CCc1cc(C(=O)c2[nH]c3cc(Cl)ccc3c2CC(=O)OCCOC(=O)c2ccc(-c3c4nc(c(-c5c(F)cccc5F)c5ccc([nH]5)c(-c5c(F)cccc5F)c5nc(c(-c6c(F)cccc6F)c6ccc3[nH]6)C=C5)C=C4)cc2)ncc1Cl
REMARK SMILES IDX 22 1 21 2 19 3 20 4 18 5 17 6 8 7 9 8 10 9 16 11 11 12 15 13
REMARK SMILES IDX 12 14 14 15 13 16 6 17 7 18 5 19 3 20 4 21 83 22 82 23 84 24
REMARK SMILES IDX 81 25 2 26 1 27 23 28 24 29 25 30 26 31 27 32 28 33 80 34
REMARK SMILES IDX 29 35 79 36 30 37 31 38 32 39 73 40 33 41 78 42 72 43 74 44
REMARK SMILES IDX 34 45 77 46 71 47 70 48 35 50 61 51 44 52 60 53 45 54 48 55
REMARK SMILES IDX 59 56 75 57 46 58 47 59 58 61 76 62 49 63 36 64 37 65 42 66
REMARK SMILES IDX 38 67 39 68 41 69 43 70 40 71 62 72 63 73 68 74 64 75 65 76
REMARK SMILES IDX 67 77 69 78 66 79 50 80 51 81 56 82 52 83 53 84 55 85 57 86
REMARK SMILES IDX 54 87
REMARK H PARENT 9 10 74 49 48 60
REMARK Flexibility Score: inf
ROOT
ATOM      1  C   UNL A   1      35.506  22.263  25.397  1.00  0.00     0.274 C 
ENDROOT
BRANCH   1   2
ATOM      2  O   UNL A   1      35.054  22.868  24.167  1.00  0.00    -0.462 OA
BRANCH   2   3
ATOM      3  C   UNL A   1      34.596  24.142  24.253  1.00  0.00     0.310 C 
ATOM      4  O   UNL A   1      34.111  24.763  23.310  1.00  0.00    -0.252 OA
BRANCH   3   5
ATOM      5  C   UNL A   1      34.559  24.706  25.657  1.00  0.00     0.161 C 
BRANCH   5   6
ATOM      6  C   UNL A   1      33.343  25.452  26.112  1.00  0.00     0.000 A 
ATOM      7  C   UNL A   1      32.065  24.959  26.382  1.00  0.00     0.093 A 
ATOM      8  N   UNL A   1      31.274  26.036  26.702  1.00  0.00    -0.351 N 
ATOM      9  C   UNL A   1      31.966  27.211  26.587  1.00  0.00     0.048 A 
ATOM     10  H   UNL A   1      30.331  25.972  26.979  1.00  0.00     0.167 HD
ATOM     11  C   UNL A   1      33.281  26.880  26.274  1.00  0.00     0.004 A 
ATOM     12  C   UNL A   1      31.528  28.530  26.760  1.00  0.00     0.047 A 
ATOM     13  C   UNL A   1      34.225  27.926  26.166  1.00  0.00     0.012 A 
ATOM     14  C   UNL A   1      32.480  29.542  26.633  1.00  0.00     0.043 A 
ATOM     15  C   UNL A   1      33.812  29.252  26.352  1.00  0.00     0.021 A 
ATOM     16  Cl  UNL A   1      31.989  31.181  26.833  1.00  0.00    -0.084 Cl
BRANCH   7  17
ATOM     17  C   UNL A   1      31.524  23.613  26.500  1.00  0.00     0.227 C 
ATOM     18  O   UNL A   1      30.889  23.296  27.505  1.00  0.00    -0.285 OA
BRANCH  17  19
ATOM     19  C   UNL A   1      31.504  22.687  25.303  1.00  0.00     0.113 A 
ATOM     20  C   UNL A   1      32.324  20.711  24.113  1.00  0.00    -0.026 A 
ATOM     21  C   UNL A   1      32.103  21.425  25.323  1.00  0.00     0.037 A 
ATOM     22  C   UNL A   1      31.866  21.305  22.929  1.00  0.00     0.062 A 
ATOM     23  C   UNL A   1      31.216  22.533  23.014  1.00  0.00     0.132 A 
ATOM     24  Cl  UNL A   1      32.082  20.674  21.344  1.00  0.00    -0.082 Cl
ATOM     25  N   UNL A   1      31.042  23.235  24.152  1.00  0.00    -0.251 NA
BRANCH  20  26
ATOM     26  C   UNL A   1      33.041  19.381  24.261  1.00  0.00     0.034 C 
ATOM     27  C   UNL A   1      32.440  18.246  25.080  1.00  0.00     0.009 C 
ENDBRANCH  20  26
ENDBRANCH  17  19
ENDBRANCH   7  17
ENDBRANCH   5   6
ENDBRANCH   3   5
ENDBRANCH   2   3
ENDBRANCH   1   2
BRANCH   1  28
ATOM     28  C   UNL A   1      36.496  21.118  25.130  1.00  0.00     0.275 C 
BRANCH  28  29
ATOM     29  O   UNL A   1      37.826  21.585  24.806  1.00  0.00    -0.458 OA
BRANCH  29  30
ATOM     30  C   UNL A   1      38.740  21.286  25.743  1.00  0.00     0.338 C 
ATOM     31  O   UNL A   1      39.234  20.187  25.971  1.00  0.00    -0.246 OA
BRANCH  30  32
ATOM     32  C   UNL A   1      39.240  22.432  26.487  1.00  0.00     0.060 A 
ATOM     33  C   UNL A   1      38.754  23.691  26.126  1.00  0.00     0.016 A 
ATOM     34  C   UNL A   1      40.391  22.296  27.264  1.00  0.00     0.016 A 
ATOM     35  C   UNL A   1      39.456  24.829  26.498  1.00  0.00     0.010 A 
ATOM     36  C   UNL A   1      41.067  23.444  27.678  1.00  0.00     0.010 A 
ATOM     37  C   UNL A   1      40.618  24.712  27.274  1.00  0.00    -0.014 A 
BRANCH  37  38
ATOM     38  C   UNL A   1      41.348  25.931  27.682  1.00  0.00     0.031 A 
ATOM     39  C   UNL A   1      40.688  26.984  28.520  1.00  0.00     0.074 A 
ATOM     40  C   UNL A   1      42.626  26.074  27.295  1.00  0.00     0.049 A 
ATOM     41  N   UNL A   1      41.139  28.161  28.871  1.00  0.00    -0.248 NA
ATOM     42  C   UNL A   1      39.346  26.672  29.031  1.00  0.00     0.031 C 
ATOM     43  C   UNL A   1      43.385  25.091  26.521  1.00  0.00     0.029 A 
ATOM     44  N   UNL A   1      43.509  27.099  27.498  1.00  0.00    -0.354 N 
ATOM     45  C   UNL A   1      40.130  28.741  29.627  1.00  0.00     0.074 A 
ATOM     46  C   UNL A   1      39.043  27.790  29.677  1.00  0.00     0.031 C 
ATOM     47  C   UNL A   1      44.626  25.557  26.322  1.00  0.00     0.029 A 
ATOM     48  C   UNL A   1      44.725  26.893  26.900  1.00  0.00     0.049 A 
ATOM     49  H   UNL A   1      43.292  27.905  28.020  1.00  0.00     0.167 HD
ATOM     50  C   UNL A   1      40.110  29.958  30.222  1.00  0.00     0.037 A 
ATOM     51  C   UNL A   1      45.789  27.706  26.795  1.00  0.00     0.037 A 
ATOM     52  C   UNL A   1      41.196  30.901  30.166  1.00  0.00     0.049 A 
ATOM     53  C   UNL A   1      45.724  29.076  27.399  1.00  0.00     0.074 A 
ATOM     54  C   UNL A   1      41.274  32.168  30.715  1.00  0.00     0.029 A 
ATOM     55  N   UNL A   1      42.400  30.670  29.516  1.00  0.00    -0.354 N 
ATOM     56  N   UNL A   1      44.749  29.632  28.075  1.00  0.00    -0.248 NA
ATOM     57  C   UNL A   1      46.900  29.934  27.214  1.00  0.00     0.031 C 
ATOM     58  C   UNL A   1      42.518  32.716  30.375  1.00  0.00     0.029 A 
ATOM     59  C   UNL A   1      43.223  31.777  29.640  1.00  0.00     0.049 A 
ATOM     60  H   UNL A   1      42.633  29.844  29.038  1.00  0.00     0.167 HD
ATOM     61  C   UNL A   1      45.191  30.904  28.402  1.00  0.00     0.074 A 
ATOM     62  C   UNL A   1      46.531  31.032  27.860  1.00  0.00     0.031 C 
ATOM     63  C   UNL A   1      44.548  31.879  29.088  1.00  0.00     0.037 A 
BRANCH  50  64
ATOM     64  C   UNL A   1      38.861  30.349  30.954  1.00  0.00     0.057 A 
ATOM     65  C   UNL A   1      37.800  31.000  30.313  1.00  0.00     0.134 A 
ATOM     66  C   UNL A   1      38.710  30.052  32.315  1.00  0.00     0.134 A 
ATOM     67  F   UNL A   1      37.888  31.329  29.015  1.00  0.00    -0.206 F 
ATOM     68  C   UNL A   1      36.637  31.352  31.003  1.00  0.00     0.040 A 
ATOM     69  C   UNL A   1      37.548  30.384  33.012  1.00  0.00     0.040 A 
ATOM     70  F   UNL A   1      39.691  29.431  32.988  1.00  0.00    -0.206 F 
ATOM     71  C   UNL A   1      36.507  31.040  32.356  1.00  0.00     0.006 A 
ENDBRANCH  50  64
BRANCH  51  72
ATOM     72  C   UNL A   1      46.984  27.236  26.061  1.00  0.00     0.057 A 
ATOM     73  C   UNL A   1      48.003  26.541  26.718  1.00  0.00     0.134 A 
ATOM     74  C   UNL A   1      47.099  27.408  24.676  1.00  0.00     0.134 A 
ATOM     75  F   UNL A   1      47.948  26.356  28.045  1.00  0.00    -0.206 F 
ATOM     76  C   UNL A   1      49.097  26.028  26.021  1.00  0.00     0.040 A 
ATOM     77  C   UNL A   1      48.177  26.883  23.965  1.00  0.00     0.040 A 
ATOM     78  F   UNL A   1      46.144  28.056  23.994  1.00  0.00    -0.206 F 
ATOM     79  C   UNL A   1      49.181  26.190  24.639  1.00  0.00     0.006 A 
ENDBRANCH  51  72
BRANCH  63  80
ATOM     80  C   UNL A   1      45.297  33.156  29.301  1.00  0.00     0.057 A 
ATOM     81  C   UNL A   1      45.159  34.239  28.425  1.00  0.00     0.134 A 
ATOM     82  C   UNL A   1      46.146  33.310  30.404  1.00  0.00     0.134 A 
ATOM     83  F   UNL A   1      44.371  34.143  27.343  1.00  0.00    -0.206 F 
ATOM     84  C   UNL A   1      45.854  35.431  28.631  1.00  0.00     0.040 A 
ATOM     85  C   UNL A   1      46.833  34.502  30.628  1.00  0.00     0.040 A 
ATOM     86  F   UNL A   1      46.314  32.307  31.277  1.00  0.00    -0.206 F 
ATOM     87  C   UNL A   1      46.691  35.566  29.738  1.00  0.00     0.006 A 
ENDBRANCH  63  80
ENDBRANCH  37  38
ENDBRANCH  30  32
ENDBRANCH  29  30
ENDBRANCH  28  29
ENDBRANCH   1  28
TORSDOF 15
ENDMDL
MODEL 3
REMARK VINA RESULT:     -11.8      4.103      9.008
REMARK SMILES CCc1cc(C(=O)c2[nH]c3cc(Cl)ccc3c2CC(=O)OCCOC(=O)c2ccc(-c3c4nc(c(-c5c(F)cccc5F)c5ccc([nH]5)c(-c5c(F)cccc5F)c5nc(c(-c6c(F)cccc6F)c6ccc3[nH]6)C=C5)C=C4)cc2)ncc1Cl
REMARK SMILES IDX 22 1 21 2 19 3 20 4 18 5 17 6 8 7 9 8 10 9 16 11 11 12 15 13
REMARK SMILES IDX 12 14 14 15 13 16 6 17 7 18 5 19 3 20 4 21 83 22 82 23 84 24
REMARK SMILES IDX 81 25 2 26 1 27 23 28 24 29 25 30 26 31 27 32 28 33 80 34
REMARK SMILES IDX 29 35 79 36 30 37 31 38 32 39 73 40 33 41 78 42 72 43 74 44
REMARK SMILES IDX 34 45 77 46 71 47 70 48 35 50 61 51 44 52 60 53 45 54 48 55
REMARK SMILES IDX 59 56 75 57 46 58 47 59 58 61 76 62 49 63 36 64 37 65 42 66
REMARK SMILES IDX 38 67 39 68 41 69 43 70 40 71 62 72 63 73 68 74 64 75 65 76
REMARK SMILES IDX 67 77 69 78 66 79 50 80 51 81 56 82 52 83 53 84 55 85 57 86
REMARK SMILES IDX 54 87
REMARK H PARENT 9 10 74 49 48 60
REMARK Flexibility Score: inf
ROOT
ATOM      1  C   UNL A   1      36.625  22.815  23.646  1.00  0.00     0.274 C 
ENDROOT
BRANCH   1   2
ATOM      2  O   UNL A   1      35.187  22.938  23.590  1.00  0.00    -0.462 OA
BRANCH   2   3
ATOM      3  C   UNL A   1      34.677  24.170  23.836  1.00  0.00     0.310 C 
ATOM      4  O   UNL A   1      34.103  24.858  22.995  1.00  0.00    -0.252 OA
BRANCH   3   5
ATOM      5  C   UNL A   1      34.705  24.586  25.292  1.00  0.00     0.161 C 
BRANCH   5   6
ATOM      6  C   UNL A   1      33.502  25.253  25.883  1.00  0.00     0.000 A 
ATOM      7  C   UNL A   1      32.325  24.673  26.359  1.00  0.00     0.093 A 
ATOM      8  N   UNL A   1      31.492  25.697  26.741  1.00  0.00    -0.351 N 
ATOM      9  C   UNL A   1      32.052  26.917  26.471  1.00  0.00     0.048 A 
ATOM     10  H   UNL A   1      30.608  25.571  27.155  1.00  0.00     0.167 HD
ATOM     11  C   UNL A   1      33.334  26.679  25.985  1.00  0.00     0.004 A 
ATOM     12  C   UNL A   1      31.524  28.202  26.644  1.00  0.00     0.047 A 
ATOM     13  C   UNL A   1      34.154  27.791  25.692  1.00  0.00     0.012 A 
ATOM     14  C   UNL A   1      32.352  29.280  26.332  1.00  0.00     0.043 A 
ATOM     15  C   UNL A   1      33.652  29.087  25.874  1.00  0.00     0.021 A 
ATOM     16  Cl  UNL A   1      31.747  30.882  26.523  1.00  0.00    -0.084 Cl
BRANCH   7  17
ATOM     17  C   UNL A   1      31.931  23.296  26.618  1.00  0.00     0.227 C 
ATOM     18  O   UNL A   1      30.897  23.064  27.245  1.00  0.00    -0.285 OA
BRANCH  17  19
ATOM     19  C   UNL A   1      32.626  22.153  25.911  1.00  0.00     0.113 A 
ATOM     20  C   UNL A   1      32.695  20.446  24.157  1.00  0.00    -0.026 A 
ATOM     21  C   UNL A   1      32.221  21.691  24.657  1.00  0.00     0.037 A 
ATOM     22  C   UNL A   1      33.616  19.750  24.951  1.00  0.00     0.062 A 
ATOM     23  C   UNL A   1      34.018  20.322  26.154  1.00  0.00     0.132 A 
ATOM     24  Cl  UNL A   1      34.272  18.200  24.598  1.00  0.00    -0.082 Cl
ATOM     25  N   UNL A   1      33.541  21.480  26.653  1.00  0.00    -0.251 NA
BRANCH  20  26
ATOM     26  C   UNL A   1      32.130  20.024  22.813  1.00  0.00     0.034 C 
ATOM     27  C   UNL A   1      31.803  21.051  21.736  1.00  0.00     0.009 C 
ENDBRANCH  20  26
ENDBRANCH  17  19
ENDBRANCH   7  17
ENDBRANCH   5   6
ENDBRANCH   3   5
ENDBRANCH   2   3
ENDBRANCH   1   2
BRANCH   1  28
ATOM     28  C   UNL A   1      37.050  21.512  24.343  1.00  0.00     0.275 C 
BRANCH  28  29
ATOM     29  O   UNL A   1      37.321  21.688  25.752  1.00  0.00    -0.458 OA
BRANCH  29  30
ATOM     30  C   UNL A   1      38.627  21.623  26.058  1.00  0.00     0.338 C 
ATOM     31  O   UNL A   1      39.408  20.719  25.779  1.00  0.00    -0.246 OA
BRANCH  30  32
ATOM     32  C   UNL A   1      39.156  22.812  26.708  1.00  0.00     0.060 A 
ATOM     33  C   UNL A   1      38.773  24.051  26.186  1.00  0.00     0.016 A 
ATOM     34  C   UNL A   1      40.248  22.695  27.568  1.00  0.00     0.016 A 
ATOM     35  C   UNL A   1      39.524  25.180  26.481  1.00  0.00     0.010 A 
ATOM     36  C   UNL A   1      40.971  23.840  27.902  1.00  0.00     0.010 A 
ATOM     37  C   UNL A   1      40.630  25.081  27.339  1.00  0.00    -0.014 A 
BRANCH  37  38
ATOM     38  C   UNL A   1      41.412  26.293  27.664  1.00  0.00     0.031 A 
ATOM     39  C   UNL A   1      40.810  27.411  28.461  1.00  0.00     0.074 A 
ATOM     40  C   UNL A   1      42.683  26.370  27.239  1.00  0.00     0.049 A 
ATOM     41  N   UNL A   1      41.310  28.588  28.738  1.00  0.00    -0.248 NA
ATOM     42  C   UNL A   1      39.471  27.174  29.020  1.00  0.00     0.031 C 
ATOM     43  C   UNL A   1      43.387  25.321  26.500  1.00  0.00     0.029 A 
ATOM     44  N   UNL A   1      43.605  27.372  27.365  1.00  0.00    -0.354 N 
ATOM     45  C   UNL A   1      40.342  29.243  29.486  1.00  0.00     0.074 A 
ATOM     46  C   UNL A   1      39.224  28.335  29.612  1.00  0.00     0.031 C 
ATOM     47  C   UNL A   1      44.638  25.732  26.247  1.00  0.00     0.029 A 
ATOM     48  C   UNL A   1      44.798  27.091  26.750  1.00  0.00     0.049 A 
ATOM     49  H   UNL A   1      43.430  28.211  27.849  1.00  0.00     0.167 HD
ATOM     50  C   UNL A   1      40.379  30.489  30.016  1.00  0.00     0.037 A 
ATOM     51  C   UNL A   1      45.886  27.860  26.576  1.00  0.00     0.037 A 
ATOM     52  C   UNL A   1      41.495  31.388  29.883  1.00  0.00     0.049 A 
ATOM     53  C   UNL A   1      45.884  29.260  27.108  1.00  0.00     0.074 A 
ATOM     54  C   UNL A   1      41.631  32.679  30.362  1.00  0.00     0.029 A 
ATOM     55  N   UNL A   1      42.672  31.081  29.217  1.00  0.00    -0.354 N 
ATOM     56  N   UNL A   1      44.946  29.885  27.777  1.00  0.00    -0.248 NA
ATOM     57  C   UNL A   1      47.084  30.065  26.849  1.00  0.00     0.031 C 
ATOM     58  C   UNL A   1      42.883  33.163  29.963  1.00  0.00     0.029 A 
ATOM     59  C   UNL A   1      43.536  32.162  29.262  1.00  0.00     0.049 A 
ATOM     60  H   UNL A   1      42.865  30.223  28.778  1.00  0.00     0.167 HD
ATOM     61  C   UNL A   1      45.441  31.156  28.024  1.00  0.00     0.074 A 
ATOM     62  C   UNL A   1      46.769  31.208  27.444  1.00  0.00     0.031 C 
ATOM     63  C   UNL A   1      44.849  32.188  28.673  1.00  0.00     0.037 A 
BRANCH  50  64
ATOM     64  C   UNL A   1      39.164  30.962  30.756  1.00  0.00     0.057 A 
ATOM     65  C   UNL A   1      38.100  31.598  30.104  1.00  0.00     0.134 A 
ATOM     66  C   UNL A   1      39.048  30.760  32.138  1.00  0.00     0.134 A 
ATOM     67  F   UNL A   1      38.157  31.838  28.785  1.00  0.00    -0.206 F 
ATOM     68  C   UNL A   1      36.969  32.027  30.802  1.00  0.00     0.040 A 
ATOM     69  C   UNL A   1      37.916  31.170  32.844  1.00  0.00     0.040 A 
ATOM     70  F   UNL A   1      40.033  30.159  32.822  1.00  0.00    -0.206 F 
ATOM     71  C   UNL A   1      36.873  31.809  32.176  1.00  0.00     0.006 A 
ENDBRANCH  50  64
BRANCH  51  72
ATOM     72  C   UNL A   1      47.044  27.309  25.840  1.00  0.00     0.057 A 
ATOM     73  C   UNL A   1      47.196  27.533  24.468  1.00  0.00     0.134 A 
ATOM     74  C   UNL A   1      48.059  26.608  26.502  1.00  0.00     0.134 A 
ATOM     75  F   UNL A   1      46.250  28.191  23.783  1.00  0.00    -0.206 F 
ATOM     76  C   UNL A   1      48.323  27.083  23.780  1.00  0.00     0.040 A 
ATOM     77  C   UNL A   1      49.199  26.169  25.831  1.00  0.00     0.040 A 
ATOM     78  F   UNL A   1      47.970  26.375  27.820  1.00  0.00    -0.206 F 
ATOM     79  C   UNL A   1      49.332  26.407  24.464  1.00  0.00     0.006 A 
ENDBRANCH  51  72
BRANCH  63  80
ATOM     80  C   UNL A   1      45.647  33.447  28.800  1.00  0.00     0.057 A 
ATOM     81  C   UNL A   1      45.551  34.472  27.850  1.00  0.00     0.134 A 
ATOM     82  C   UNL A   1      46.501  33.644  29.892  1.00  0.00     0.134 A 
ATOM     83  F   UNL A   1      44.759  34.331  26.776  1.00  0.00    -0.206 F 
ATOM     84  C   UNL A   1      46.291  35.647  27.976  1.00  0.00     0.040 A 
ATOM     85  C   UNL A   1      47.234  34.821  30.035  1.00  0.00     0.040 A 
ATOM     86  F   UNL A   1      46.631  32.698  30.833  1.00  0.00    -0.206 F 
ATOM     87  C   UNL A   1      47.133  35.826  29.073  1.00  0.00     0.006 A 
ENDBRANCH  63  80
ENDBRANCH  37  38
ENDBRANCH  30  32
ENDBRANCH  29  30
ENDBRANCH  28  29
ENDBRANCH   1  28
TORSDOF 15
ENDMDL
