MODEL 1
REMARK VINA RESULT:     -11.5      0.000      0.000
REMARK SMILES [NH3+]Cc1c(-c2ccccc2)c(C(=O)OCCOC(=O)c2ccc(-c3c4nc(c(-c5c(F)cccc5F)c5ccc([nH]5)c(-c5c(F)cccc5F)c5nc(c(-c6c(F)cccc6F)c6ccc3[nH]6)C=C5)C=C4)cc2)c2ccccn12
REMARK SMILES IDX 15 1 14 2 12 3 13 4 11 5 3 6 4 7 79 8 74 9 78 10 75 11 77 12
REMARK SMILES IDX 76 13 2 14 1 15 5 19 6 20 10 21 7 22 9 23 8 24 16 25 17 26
REMARK SMILES IDX 18 27 19 28 20 29 21 30 73 31 22 32 72 33 23 34 24 35 25 36
REMARK SMILES IDX 66 37 26 38 71 39 65 40 67 41 27 42 70 43 64 44 63 45 28 47
REMARK SMILES IDX 54 48 37 49 53 50 38 51 41 52 52 53 68 54 39 55 40 56 51 58
REMARK SMILES IDX 69 59 42 60 29 61 30 62 35 63 31 64 32 65 34 66 36 67 33 68
REMARK SMILES IDX 55 69 56 70 61 71 57 72 58 73 60 74 62 75 59 76 43 77 44 78
REMARK SMILES IDX 49 79 45 80 46 81 48 82 50 83 47 84
REMARK H PARENT 1 16 1 17 1 18 67 46 41 57
REMARK Flexibility Score: inf
ROOT
ATOM      1  C   UNL A   1      32.779  27.985  23.544  1.00  0.00     0.275 C 
ENDROOT
BRANCH   1   2
ATOM      2  O   UNL A   1      33.648  27.142  24.333  1.00  0.00    -0.458 OA
BRANCH   2   3
ATOM      3  C   UNL A   1      33.672  25.818  23.990  1.00  0.00     0.341 C 
ATOM      4  O   UNL A   1      33.681  25.417  22.832  1.00  0.00    -0.246 OA
BRANCH   3   5
ATOM      5  C   UNL A   1      33.531  24.922  25.134  1.00  0.00     0.093 A 
ATOM      6  C   UNL A   1      33.616  23.068  26.481  1.00  0.00     0.086 A 
ATOM      7  C   UNL A   1      34.417  23.920  25.698  1.00  0.00     0.024 A 
ATOM      8  N   UNL A   1      32.318  23.612  26.520  1.00  0.00    -0.314 N 
ATOM      9  C   UNL A   1      32.301  24.764  25.737  1.00  0.00     0.061 A 
ATOM     10  C   UNL A   1      31.120  23.142  27.093  1.00  0.00     0.092 A 
ATOM     11  C   UNL A   1      31.062  25.454  25.543  1.00  0.00     0.027 A 
ATOM     12  C   UNL A   1      29.950  23.770  26.875  1.00  0.00     0.018 A 
ATOM     13  C   UNL A   1      29.929  24.970  26.073  1.00  0.00     0.004 A 
BRANCH   6  14
ATOM     14  C   UNL A   1      34.080  21.778  27.103  1.00  0.00     0.315 C 
BRANCH  14  15
ATOM     15  N   UNL A   1      33.518  20.545  26.584  1.00  0.00    -0.353 N 
ATOM     16  H   UNL A   1      33.748  20.457  25.595  1.00  0.00     0.344 HD
ATOM     17  H   UNL A   1      32.504  20.560  26.698  1.00  0.00     0.344 HD
ATOM     18  H   UNL A   1      33.906  19.753  27.095  1.00  0.00     0.344 HD
ENDBRANCH  14  15
ENDBRANCH   6  14
BRANCH   7  19
ATOM     19  C   UNL A   1      35.752  23.518  25.162  1.00  0.00    -0.015 A 
ATOM     20  C   UNL A   1      36.041  21.967  24.263  1.00  0.00     0.009 A 
ATOM     21  C   UNL A   1      37.043  24.120  26.199  1.00  0.00     0.009 A 
ATOM     22  C   UNL A   1      37.776  20.974  24.630  1.00  0.00     0.001 A 
ATOM     23  C   UNL A   1      38.557  23.266  26.497  1.00  0.00     0.001 A 
ATOM     24  C   UNL A   1      38.946  21.717  25.789  1.00  0.00     0.000 A 
ENDBRANCH   7  19
ENDBRANCH   3   5
ENDBRANCH   2   3
ENDBRANCH   1   2
BRANCH   1  25
ATOM     25  C   UNL A   1      31.978  28.915  24.449  1.00  0.00     0.275 C 
BRANCH  25  26
ATOM     26  O   UNL A   1      32.837  29.974  24.900  1.00  0.00    -0.458 OA
BRANCH  26  27
ATOM     27  C   UNL A   1      32.409  30.522  26.051  1.00  0.00     0.338 C 
ATOM     28  O   UNL A   1      31.305  30.986  26.295  1.00  0.00    -0.246 OA
BRANCH  27  29
ATOM     29  C   UNL A   1      33.429  30.498  27.082  1.00  0.00     0.060 A 
ATOM     30  C   UNL A   1      34.329  31.968  27.616  1.00  0.00     0.016 A 
ATOM     31  C   UNL A   1      34.187  28.929  27.283  1.00  0.00     0.016 A 
ATOM     32  C   UNL A   1      36.189  31.698  28.386  1.00  0.00     0.010 A 
ATOM     33  C   UNL A   1      35.784  28.700  27.992  1.00  0.00     0.010 A 
ATOM     34  C   UNL A   1      36.815  30.004  28.558  1.00  0.00    -0.014 A 
BRANCH  34  35
ATOM     35  C   UNL A   1      37.973  29.635  29.458  1.00  0.00     0.031 A 
ATOM     36  C   UNL A   1      38.103  30.117  30.881  1.00  0.00     0.074 A 
ATOM     37  C   UNL A   1      39.063  29.044  28.925  1.00  0.00     0.049 A 
ATOM     38  N   UNL A   1      39.118  29.976  31.704  1.00  0.00    -0.248 NA
ATOM     39  C   UNL A   1      37.019  30.946  31.422  1.00  0.00     0.031 C 
ATOM     40  C   UNL A   1      39.276  28.869  27.504  1.00  0.00     0.029 A 
ATOM     41  N   UNL A   1      40.203  28.495  29.461  1.00  0.00    -0.354 N 
ATOM     42  C   UNL A   1      38.827  30.750  32.821  1.00  0.00     0.074 A 
ATOM     43  C   UNL A   1      37.545  31.375  32.562  1.00  0.00     0.031 C 
ATOM     44  C   UNL A   1      40.309  28.062  27.267  1.00  0.00     0.029 A 
ATOM     45  C   UNL A   1      40.957  27.800  28.536  1.00  0.00     0.049 A 
ATOM     46  H   UNL A   1      40.456  28.590  30.407  1.00  0.00     0.167 HD
ATOM     47  C   UNL A   1      39.567  30.926  33.947  1.00  0.00     0.037 A 
ATOM     48  C   UNL A   1      42.073  27.060  28.667  1.00  0.00     0.037 A 
ATOM     49  C   UNL A   1      40.833  30.273  34.196  1.00  0.00     0.049 A 
ATOM     50  C   UNL A   1      42.757  27.081  29.993  1.00  0.00     0.074 A 
ATOM     51  C   UNL A   1      41.624  30.320  35.333  1.00  0.00     0.029 A 
ATOM     52  N   UNL A   1      41.491  29.444  33.295  1.00  0.00    -0.354 N 
ATOM     53  N   UNL A   1      42.423  27.753  31.066  1.00  0.00    -0.248 NA
ATOM     54  C   UNL A   1      43.995  26.306  30.117  1.00  0.00     0.031 C 
ATOM     55  C   UNL A   1      42.764  29.537  35.113  1.00  0.00     0.029 A 
ATOM     56  C   UNL A   1      42.668  28.968  33.854  1.00  0.00     0.049 A 
ATOM     57  H   UNL A   1      41.169  29.228  32.390  1.00  0.00     0.167 HD
ATOM     58  C   UNL A   1      43.426  27.515  31.984  1.00  0.00     0.074 A 
ATOM     59  C   UNL A   1      44.351  26.585  31.363  1.00  0.00     0.031 C 
ATOM     60  C   UNL A   1      43.582  28.049  33.218  1.00  0.00     0.037 A 
BRANCH  47  61
ATOM     61  C   UNL A   1      39.025  31.861  34.997  1.00  0.00     0.057 A 
ATOM     62  C   UNL A   1      38.309  31.392  36.108  1.00  0.00     0.134 A 
ATOM     63  C   UNL A   1      39.236  33.245  34.915  1.00  0.00     0.134 A 
ATOM     64  F   UNL A   1      38.070  30.080  36.257  1.00  0.00    -0.206 F 
ATOM     65  C   UNL A   1      37.784  32.262  37.067  1.00  0.00     0.040 A 
ATOM     66  C   UNL A   1      38.743  34.123  35.884  1.00  0.00     0.040 A 
ATOM     67  F   UNL A   1      39.929  33.771  33.894  1.00  0.00    -0.206 F 
ATOM     68  C   UNL A   1      38.004  33.634  36.958  1.00  0.00     0.006 A 
ENDBRANCH  47  61
BRANCH  48  69
ATOM     69  C   UNL A   1      42.581  26.243  27.533  1.00  0.00     0.057 A 
ATOM     70  C   UNL A   1      42.081  24.950  27.324  1.00  0.00     0.134 A 
ATOM     71  C   UNL A   1      43.510  26.724  26.603  1.00  0.00     0.134 A 
ATOM     72  F   UNL A   1      41.201  24.421  28.187  1.00  0.00    -0.206 F 
ATOM     73  C   UNL A   1      42.485  24.170  26.239  1.00  0.00     0.040 A 
ATOM     74  C   UNL A   1      43.897  25.969  25.493  1.00  0.00     0.040 A 
ATOM     75  F   UNL A   1      44.025  27.956  26.734  1.00  0.00    -0.206 F 
ATOM     76  C   UNL A   1      43.386  24.686  25.311  1.00  0.00     0.006 A 
ENDBRANCH  48  69
BRANCH  60  77
ATOM     77  C   UNL A   1      44.802  27.620  33.969  1.00  0.00     0.057 A 
ATOM     78  C   UNL A   1      46.005  28.333  33.885  1.00  0.00     0.134 A 
ATOM     79  C   UNL A   1      44.775  26.476  34.774  1.00  0.00     0.134 A 
ATOM     80  F   UNL A   1      46.098  29.424  33.109  1.00  0.00    -0.206 F 
ATOM     81  C   UNL A   1      47.149  27.909  34.560  1.00  0.00     0.040 A 
ATOM     82  C   UNL A   1      45.907  26.054  35.470  1.00  0.00     0.040 A 
ATOM     83  F   UNL A   1      43.654  25.750  34.889  1.00  0.00    -0.206 F 
ATOM     84  C   UNL A   1      47.100  26.767  35.360  1.00  0.00     0.006 A 
ENDBRANCH  60  77
ENDBRANCH  34  35
ENDBRANCH  27  29
ENDBRANCH  26  27
ENDBRANCH  25  26
ENDBRANCH   1  25
TORSDOF 14
ENDMDL
MODEL 2
REMARK VINA RESULT:     -11.2      4.185      7.922
REMARK SMILES [NH3+]Cc1c(-c2ccccc2)c(C(=O)OCCOC(=O)c2ccc(-c3c4nc(c(-c5c(F)cccc5F)c5ccc([nH]5)c(-c5c(F)cccc5F)c5nc(c(-c6c(F)cccc6F)c6ccc3[nH]6)C=C5)C=C4)cc2)c2ccccn12
REMARK SMILES IDX 15 1 14 2 12 3 13 4 11 5 3 6 4 7 79 8 74 9 78 10 75 11 77 12
REMARK SMILES IDX 76 13 2 14 1 15 5 19 6 20 10 21 7 22 9 23 8 24 16 25 17 26
REMARK SMILES IDX 18 27 19 28 20 29 21 30 73 31 22 32 72 33 23 34 24 35 25 36
REMARK SMILES IDX 66 37 26 38 71 39 65 40 67 41 27 42 70 43 64 44 63 45 28 47
REMARK SMILES IDX 54 48 37 49 53 50 38 51 41 52 52 53 68 54 39 55 40 56 51 58
REMARK SMILES IDX 69 59 42 60 29 61 30 62 35 63 31 64 32 65 34 66 36 67 33 68
REMARK SMILES IDX 55 69 56 70 61 71 57 72 58 73 60 74 62 75 59 76 43 77 44 78
REMARK SMILES IDX 49 79 45 80 46 81 48 82 50 83 47 84
REMARK H PARENT 1 16 1 17 1 18 67 46 41 57
REMARK Flexibility Score: inf
ROOT
ATOM      1  C   UNL A   1      33.899  29.304  26.208  1.00  0.00     0.275 C 
ENDROOT
BRANCH   1   2
ATOM      2  O   UNL A   1      33.664  28.027  26.841  1.00  0.00    -0.458 OA
BRANCH   2   3
ATOM      3  C   UNL A   1      32.361  27.614  26.893  1.00  0.00     0.341 C 
ATOM      4  O   UNL A   1      31.633  27.788  27.863  1.00  0.00    -0.246 OA
BRANCH   3   5
ATOM      5  C   UNL A   1      31.962  26.811  25.740  1.00  0.00     0.093 A 
ATOM      6  C   UNL A   1      32.023  25.393  23.939  1.00  0.00     0.086 A 
ATOM      7  C   UNL A   1      32.339  25.479  25.308  1.00  0.00     0.024 A 
ATOM      8  N   UNL A   1      31.340  26.571  23.580  1.00  0.00    -0.314 N 
ATOM      9  C   UNL A   1      31.270  27.397  24.700  1.00  0.00     0.061 A 
ATOM     10  C   UNL A   1      30.860  27.037  22.341  1.00  0.00     0.092 A 
ATOM     11  C   UNL A   1      30.696  28.702  24.568  1.00  0.00     0.027 A 
ATOM     12  C   UNL A   1      30.360  28.280  22.210  1.00  0.00     0.018 A 
ATOM     13  C   UNL A   1      30.275  29.134  23.370  1.00  0.00     0.004 A 
BRANCH   6  14
ATOM     14  C   UNL A   1      32.414  24.257  23.032  1.00  0.00     0.315 C 
BRANCH  14  15
ATOM     15  N   UNL A   1      31.441  23.202  22.824  1.00  0.00    -0.353 N 
ATOM     16  H   UNL A   1      31.587  22.465  23.514  1.00  0.00     0.344 HD
ATOM     17  H   UNL A   1      31.553  22.817  21.885  1.00  0.00     0.344 HD
ATOM     18  H   UNL A   1      30.501  23.582  22.926  1.00  0.00     0.344 HD
ENDBRANCH  14  15
ENDBRANCH   6  14
BRANCH   7  19
ATOM     19  C   UNL A   1      33.334  24.582  25.972  1.00  0.00    -0.015 A 
ATOM     20  C   UNL A   1      35.097  24.552  25.538  1.00  0.00     0.009 A 
ATOM     21  C   UNL A   1      32.578  23.064  26.447  1.00  0.00     0.009 A 
ATOM     22  C   UNL A   1      36.028  22.747  25.500  1.00  0.00     0.001 A 
ATOM     23  C   UNL A   1      33.396  21.501  26.435  1.00  0.00     0.001 A 
ATOM     24  C   UNL A   1      35.060  21.288  25.947  1.00  0.00     0.000 A 
ENDBRANCH   7  19
ENDBRANCH   3   5
ENDBRANCH   2   3
ENDBRANCH   1   2
BRANCH   1  25
ATOM     25  C   UNL A   1      33.828  30.428  27.236  1.00  0.00     0.275 C 
BRANCH  25  26
ATOM     26  O   UNL A   1      34.258  29.918  28.508  1.00  0.00    -0.458 OA
BRANCH  26  27
ATOM     27  C   UNL A   1      35.291  30.614  29.013  1.00  0.00     0.338 C 
ATOM     28  O   UNL A   1      35.271  31.731  29.509  1.00  0.00    -0.246 OA
BRANCH  27  29
ATOM     29  C   UNL A   1      36.537  29.873  28.948  1.00  0.00     0.060 A 
ATOM     30  C   UNL A   1      37.481  29.396  30.410  1.00  0.00     0.016 A 
ATOM     31  C   UNL A   1      37.386  30.062  27.424  1.00  0.00     0.016 A 
ATOM     32  C   UNL A   1      39.484  29.143  30.189  1.00  0.00     0.010 A 
ATOM     33  C   UNL A   1      39.117  29.798  27.232  1.00  0.00     0.010 A 
ATOM     34  C   UNL A   1      40.202  29.341  28.536  1.00  0.00    -0.014 A 
BRANCH  34  35
ATOM     35  C   UNL A   1      41.563  28.804  28.152  1.00  0.00     0.031 A 
ATOM     36  C   UNL A   1      41.806  27.370  27.753  1.00  0.00     0.074 A 
ATOM     37  C   UNL A   1      42.660  29.552  28.391  1.00  0.00     0.049 A 
ATOM     38  N   UNL A   1      42.950  26.764  27.534  1.00  0.00    -0.248 NA
ATOM     39  C   UNL A   1      40.644  26.474  27.690  1.00  0.00     0.031 C 
ATOM     40  C   UNL A   1      42.650  30.792  29.138  1.00  0.00     0.029 A 
ATOM     41  N   UNL A   1      43.990  29.415  28.073  1.00  0.00    -0.354 N 
ATOM     42  C   UNL A   1      42.656  25.414  27.380  1.00  0.00     0.074 A 
ATOM     43  C   UNL A   1      41.222  25.287  27.549  1.00  0.00     0.031 C 
ATOM     44  C   UNL A   1      43.813  31.432  29.027  1.00  0.00     0.029 A 
ATOM     45  C   UNL A   1      44.732  30.550  28.338  1.00  0.00     0.049 A 
ATOM     46  H   UNL A   1      44.374  28.590  27.696  1.00  0.00     0.167 HD
ATOM     47  C   UNL A   1      43.505  24.383  27.132  1.00  0.00     0.037 A 
ATOM     48  C   UNL A   1      46.021  30.851  28.098  1.00  0.00     0.037 A 
ATOM     49  C   UNL A   1      44.931  24.534  26.942  1.00  0.00     0.049 A 
ATOM     50  C   UNL A   1      46.901  29.754  27.601  1.00  0.00     0.074 A 
ATOM     51  C   UNL A   1      45.868  23.570  26.608  1.00  0.00     0.029 A 
ATOM     52  N   UNL A   1      45.625  25.733  27.060  1.00  0.00    -0.354 N 
ATOM     53  N   UNL A   1      46.587  28.502  27.380  1.00  0.00    -0.248 NA
ATOM     54  C   UNL A   1      48.313  30.079  27.380  1.00  0.00     0.031 C 
ATOM     55  C   UNL A   1      47.128  24.179  26.543  1.00  0.00     0.029 A 
ATOM     56  C   UNL A   1      46.973  25.532  26.796  1.00  0.00     0.049 A 
ATOM     57  H   UNL A   1      45.220  26.598  27.298  1.00  0.00     0.167 HD
ATOM     58  C   UNL A   1      47.767  27.876  27.030  1.00  0.00     0.074 A 
ATOM     59  C   UNL A   1      48.794  28.901  27.007  1.00  0.00     0.031 C 
ATOM     60  C   UNL A   1      47.983  26.562  26.786  1.00  0.00     0.037 A 
BRANCH  47  61
ATOM     61  C   UNL A   1      42.914  22.999  27.048  1.00  0.00     0.057 A 
ATOM     62  C   UNL A   1      42.559  22.274  28.195  1.00  0.00     0.134 A 
ATOM     63  C   UNL A   1      42.673  22.388  25.809  1.00  0.00     0.134 A 
ATOM     64  F   UNL A   1      42.757  22.796  29.416  1.00  0.00    -0.206 F 
ATOM     65  C   UNL A   1      42.035  20.982  28.116  1.00  0.00     0.040 A 
ATOM     66  C   UNL A   1      42.121  21.107  25.717  1.00  0.00     0.040 A 
ATOM     67  F   UNL A   1      42.966  23.023  24.665  1.00  0.00    -0.206 F 
ATOM     68  C   UNL A   1      41.812  20.395  26.873  1.00  0.00     0.006 A 
ENDBRANCH  47  61
BRANCH  48  69
ATOM     69  C   UNL A   1      46.528  32.234  28.304  1.00  0.00     0.057 A 
ATOM     70  C   UNL A   1      47.133  32.584  29.519  1.00  0.00     0.134 A 
ATOM     71  C   UNL A   1      46.488  33.216  27.308  1.00  0.00     0.134 A 
ATOM     72  F   UNL A   1      47.189  31.696  30.523  1.00  0.00    -0.206 F 
ATOM     73  C   UNL A   1      47.675  33.852  29.735  1.00  0.00     0.040 A 
ATOM     74  C   UNL A   1      47.058  34.478  27.496  1.00  0.00     0.040 A 
ATOM     75  F   UNL A   1      45.933  32.951  26.115  1.00  0.00    -0.206 F 
ATOM     76  C   UNL A   1      47.650  34.800  28.715  1.00  0.00     0.006 A 
ENDBRANCH  48  69
BRANCH  60  77
ATOM     77  C   UNL A   1      49.392  26.179  26.463  1.00  0.00     0.057 A 
ATOM     78  C   UNL A   1      50.256  25.668  27.441  1.00  0.00     0.134 A 
ATOM     79  C   UNL A   1      49.892  26.334  25.166  1.00  0.00     0.134 A 
ATOM     80  F   UNL A   1      49.841  25.521  28.708  1.00  0.00    -0.206 F 
ATOM     81  C   UNL A   1      51.580  25.344  27.142  1.00  0.00     0.040 A 
ATOM     82  C   UNL A   1      51.207  25.994  24.851  1.00  0.00     0.040 A 
ATOM     83  F   UNL A   1      49.114  26.824  24.190  1.00  0.00    -0.206 F 
ATOM     84  C   UNL A   1      52.057  25.504  25.842  1.00  0.00     0.006 A 
ENDBRANCH  60  77
ENDBRANCH  34  35
ENDBRANCH  27  29
ENDBRANCH  26  27
ENDBRANCH  25  26
ENDBRANCH   1  25
TORSDOF 14
ENDMDL
MODEL 3
REMARK VINA RESULT:     -11.2      4.298      8.423
REMARK SMILES [NH3+]Cc1c(-c2ccccc2)c(C(=O)OCCOC(=O)c2ccc(-c3c4nc(c(-c5c(F)cccc5F)c5ccc([nH]5)c(-c5c(F)cccc5F)c5nc(c(-c6c(F)cccc6F)c6ccc3[nH]6)C=C5)C=C4)cc2)c2ccccn12
REMARK SMILES IDX 15 1 14 2 12 3 13 4 11 5 3 6 4 7 79 8 74 9 78 10 75 11 77 12
REMARK SMILES IDX 76 13 2 14 1 15 5 19 6 20 10 21 7 22 9 23 8 24 16 25 17 26
REMARK SMILES IDX 18 27 19 28 20 29 21 30 73 31 22 32 72 33 23 34 24 35 25 36
REMARK SMILES IDX 66 37 26 38 71 39 65 40 67 41 27 42 70 43 64 44 63 45 28 47
REMARK SMILES IDX 54 48 37 49 53 50 38 51 41 52 52 53 68 54 39 55 40 56 51 58
REMARK SMILES IDX 69 59 42 60 29 61 30 62 35 63 31 64 32 65 34 66 36 67 33 68
REMARK SMILES IDX 55 69 56 70 61 71 57 72 58 73 60 74 62 75 59 76 43 77 44 78
REMARK SMILES IDX 49 79 45 80 46 81 48 82 50 83 47 84
REMARK H PARENT 1 16 1 17 1 18 67 46 41 57
REMARK Flexibility Score: inf
ROOT
ATOM      1  C   UNL A   1      34.048  29.003  26.045  1.00  0.00     0.275 C 
ENDROOT
BRANCH   1   2
ATOM      2  O   UNL A   1      33.927  27.724  26.705  1.00  0.00    -0.458 OA
BRANCH   2   3
ATOM      3  C   UNL A   1      32.853  26.959  26.340  1.00  0.00     0.341 C 
ATOM      4  O   UNL A   1      32.023  26.532  27.134  1.00  0.00    -0.246 OA
BRANCH   3   5
ATOM      5  C   UNL A   1      32.871  26.572  24.932  1.00  0.00     0.093 A 
ATOM      6  C   UNL A   1      32.203  25.966  22.824  1.00  0.00     0.086 A 
ATOM      7  C   UNL A   1      32.041  26.960  23.807  1.00  0.00     0.024 A 
ATOM      8  N   UNL A   1      33.208  25.083  23.265  1.00  0.00    -0.314 N 
ATOM      9  C   UNL A   1      33.634  25.498  24.524  1.00  0.00     0.061 A 
ATOM     10  C   UNL A   1      33.716  23.891  22.715  1.00  0.00     0.092 A 
ATOM     11  C   UNL A   1      34.596  24.704  25.229  1.00  0.00     0.027 A 
ATOM     12  C   UNL A   1      34.588  23.126  23.397  1.00  0.00     0.018 A 
ATOM     13  C   UNL A   1      35.042  23.557  24.697  1.00  0.00     0.004 A 
BRANCH   6  14
ATOM     14  C   UNL A   1      31.388  25.858  21.563  1.00  0.00     0.315 C 
BRANCH  14  15
ATOM     15  N   UNL A   1      32.101  25.894  20.300  1.00  0.00    -0.353 N 
ATOM     16  H   UNL A   1      32.994  26.370  20.428  1.00  0.00     0.344 HD
ATOM     17  H   UNL A   1      31.543  26.397  19.609  1.00  0.00     0.344 HD
ATOM     18  H   UNL A   1      32.267  24.942  19.976  1.00  0.00     0.344 HD
ENDBRANCH  14  15
ENDBRANCH   6  14
BRANCH   7  19
ATOM     19  C   UNL A   1      30.861  27.876  23.854  1.00  0.00    -0.015 A 
ATOM     20  C   UNL A   1      29.154  27.294  24.070  1.00  0.00     0.009 A 
ATOM     21  C   UNL A   1      31.126  29.280  22.824  1.00  0.00     0.009 A 
ATOM     22  C   UNL A   1      27.699  28.224  23.000  1.00  0.00     0.001 A 
ATOM     23  C   UNL A   1      29.857  30.099  21.914  1.00  0.00     0.001 A 
ATOM     24  C   UNL A   1      28.182  29.601  21.936  1.00  0.00     0.000 A 
ENDBRANCH   7  19
ENDBRANCH   3   5
ENDBRANCH   2   3
ENDBRANCH   1   2
BRANCH   1  25
ATOM     25  C   UNL A   1      33.721  30.134  27.015  1.00  0.00     0.275 C 
BRANCH  25  26
ATOM     26  O   UNL A   1      34.169  29.760  28.328  1.00  0.00    -0.458 OA
BRANCH  26  27
ATOM     27  C   UNL A   1      35.203  30.510  28.746  1.00  0.00     0.338 C 
ATOM     28  O   UNL A   1      35.180  31.669  29.134  1.00  0.00    -0.246 OA
BRANCH  27  29
ATOM     29  C   UNL A   1      36.454  29.777  28.729  1.00  0.00     0.060 A 
ATOM     30  C   UNL A   1      37.353  29.319  30.226  1.00  0.00     0.016 A 
ATOM     31  C   UNL A   1      37.352  29.958  27.232  1.00  0.00     0.016 A 
ATOM     32  C   UNL A   1      39.363  29.077  30.074  1.00  0.00     0.010 A 
ATOM     33  C   UNL A   1      39.091  29.703  27.100  1.00  0.00     0.010 A 
ATOM     34  C   UNL A   1      40.135  29.266  28.443  1.00  0.00    -0.014 A 
BRANCH  34  35
ATOM     35  C   UNL A   1      41.511  28.735  28.110  1.00  0.00     0.031 A 
ATOM     36  C   UNL A   1      41.772  27.304  27.709  1.00  0.00     0.074 A 
ATOM     37  C   UNL A   1      42.597  29.483  28.398  1.00  0.00     0.049 A 
ATOM     38  N   UNL A   1      42.926  26.702  27.531  1.00  0.00    -0.248 NA
ATOM     39  C   UNL A   1      40.616  26.406  27.592  1.00  0.00     0.031 C 
ATOM     40  C   UNL A   1      42.554  30.716  29.154  1.00  0.00     0.029 A 
ATOM     41  N   UNL A   1      43.938  29.350  28.132  1.00  0.00    -0.354 N 
ATOM     42  C   UNL A   1      42.641  25.353  27.354  1.00  0.00     0.074 A 
ATOM     43  C   UNL A   1      41.202  25.222  27.465  1.00  0.00     0.031 C 
ATOM     44  C   UNL A   1      43.719  31.359  29.095  1.00  0.00     0.029 A 
ATOM     45  C   UNL A   1      44.667  30.484  28.435  1.00  0.00     0.049 A 
ATOM     46  H   UNL A   1      44.339  28.530  27.764  1.00  0.00     0.167 HD
ATOM     47  C   UNL A   1      43.502  24.325  27.131  1.00  0.00     0.037 A 
ATOM     48  C   UNL A   1      45.963  30.790  28.250  1.00  0.00     0.037 A 
ATOM     49  C   UNL A   1      44.934  24.481  26.999  1.00  0.00     0.049 A 
ATOM     50  C   UNL A   1      46.864  29.699  27.779  1.00  0.00     0.074 A 
ATOM     51  C   UNL A   1      45.885  23.522  26.695  1.00  0.00     0.029 A 
ATOM     52  N   UNL A   1      45.620  25.680  27.155  1.00  0.00    -0.354 N 
ATOM     53  N   UNL A   1      46.562  28.448  27.536  1.00  0.00    -0.248 NA
ATOM     54  C   UNL A   1      48.283  30.029  27.617  1.00  0.00     0.031 C 
ATOM     55  C   UNL A   1      47.146  24.134  26.686  1.00  0.00     0.029 A 
ATOM     56  C   UNL A   1      46.978  25.484  26.944  1.00  0.00     0.049 A 
ATOM     57  H   UNL A   1      45.204  26.542  27.384  1.00  0.00     0.167 HD
ATOM     58  C   UNL A   1      47.757  27.827  27.228  1.00  0.00     0.074 A 
ATOM     59  C   UNL A   1      48.782  28.855  27.254  1.00  0.00     0.031 C 
ATOM     60  C   UNL A   1      47.985  26.516  26.982  1.00  0.00     0.037 A 
BRANCH  47  61
ATOM     61  C   UNL A   1      42.918  22.942  27.013  1.00  0.00     0.057 A 
ATOM     62  C   UNL A   1      42.707  22.330  25.769  1.00  0.00     0.134 A 
ATOM     63  C   UNL A   1      42.582  22.197  28.153  1.00  0.00     0.134 A 
ATOM     64  F   UNL A   1      43.007  22.980  24.634  1.00  0.00    -0.206 F 
ATOM     65  C   UNL A   1      42.141  21.057  25.660  1.00  0.00     0.040 A 
ATOM     66  C   UNL A   1      42.045  20.909  28.058  1.00  0.00     0.040 A 
ATOM     67  F   UNL A   1      42.773  22.702  29.381  1.00  0.00    -0.206 F 
ATOM     68  C   UNL A   1      41.811  20.341  26.809  1.00  0.00     0.006 A 
ENDBRANCH  47  61
BRANCH  48  69
ATOM     69  C   UNL A   1      46.459  32.173  28.487  1.00  0.00     0.057 A 
ATOM     70  C   UNL A   1      46.380  33.129  27.467  1.00  0.00     0.134 A 
ATOM     71  C   UNL A   1      46.960  32.599  29.722  1.00  0.00     0.134 A 
ATOM     72  F   UNL A   1      45.926  32.783  26.252  1.00  0.00    -0.206 F 
ATOM     73  C   UNL A   1      46.779  34.452  27.664  1.00  0.00     0.040 A 
ATOM     74  C   UNL A   1      47.330  33.929  29.945  1.00  0.00     0.040 A 
ATOM     75  F   UNL A   1      47.057  31.741  30.749  1.00  0.00    -0.206 F 
ATOM     76  C   UNL A   1      47.243  34.858  28.912  1.00  0.00     0.006 A 
ENDBRANCH  48  69
BRANCH  60  77
ATOM     77  C   UNL A   1      49.407  26.137  26.713  1.00  0.00     0.057 A 
ATOM     78  C   UNL A   1      50.274  25.758  27.745  1.00  0.00     0.134 A 
ATOM     79  C   UNL A   1      49.916  26.166  25.410  1.00  0.00     0.134 A 
ATOM     80  F   UNL A   1      49.850  25.737  29.019  1.00  0.00    -0.206 F 
ATOM     81  C   UNL A   1      51.608  25.439  27.493  1.00  0.00     0.040 A 
ATOM     82  C   UNL A   1      51.242  25.830  25.142  1.00  0.00     0.040 A 
ATOM     83  F   UNL A   1      49.135  26.527  24.381  1.00  0.00    -0.206 F 
ATOM     84  C   UNL A   1      52.094  25.471  26.186  1.00  0.00     0.006 A 
ENDBRANCH  60  77
ENDBRANCH  34  35
ENDBRANCH  27  29
ENDBRANCH  26  27
ENDBRANCH  25  26
ENDBRANCH   1  25
TORSDOF 14
ENDMDL
