MODEL 1
REMARK VINA RESULT:     -10.3      0.000      0.000
REMARK SMILES CN(C)C(=O)Nc1cccc(/C=C/C(=O)OCCOC(=O)c2ccc(-c3c4nc(c(-c5c(F)cccc5F)c5ccc([nH]5)c(-c5c(F)cccc5F)c5nc(c(-c6c(F)cccc6F)c6ccc3[nH]6)C=C5)C=C4)cc2)n1
REMARK SMILES IDX 17 1 16 2 14 3 15 4 13 5 12 6 11 7 7 8 8 9 76 10 9 11 10 12
REMARK SMILES IDX 6 13 1 14 2 15 3 16 4 17 5 18 18 20 19 21 20 22 21 23 22 24
REMARK SMILES IDX 23 25 75 26 24 27 74 28 25 29 26 30 27 31 68 32 28 33 73 34
REMARK SMILES IDX 67 35 69 36 29 37 72 38 66 39 65 40 30 42 56 43 39 44 55 45
REMARK SMILES IDX 40 46 43 47 54 48 70 49 41 50 42 51 53 53 71 54 44 55 31 56
REMARK SMILES IDX 32 57 37 58 33 59 34 60 36 61 38 62 35 63 57 64 58 65 63 66
REMARK SMILES IDX 59 67 60 68 62 69 64 70 61 71 45 72 46 73 51 74 47 75 48 76
REMARK SMILES IDX 50 77 52 78 49 79
REMARK H PARENT 6 19 69 41 43 52
REMARK Flexibility Score: inf
ROOT
ATOM      1  C   UNL A   1      33.261  36.860  31.190  1.00  0.00     0.275 C 
ENDROOT
BRANCH   1   2
ATOM      2  O   UNL A   1      33.595  35.773  32.069  1.00  0.00    -0.459 OA
BRANCH   2   3
ATOM      3  C   UNL A   1      34.263  36.115  33.196  1.00  0.00     0.330 C 
ATOM      4  O   UNL A   1      34.058  37.100  33.889  1.00  0.00    -0.247 OA
BRANCH   3   5
ATOM      5  C   UNL A   1      35.262  35.102  33.581  1.00  0.00     0.095 C 
ATOM      6  C   UNL A   1      35.199  34.312  34.665  1.00  0.00     0.036 C 
BRANCH   6   7
ATOM      7  C   UNL A   1      36.289  33.393  35.012  1.00  0.00     0.066 A 
ATOM      8  C   UNL A   1      37.831  32.717  36.604  1.00  0.00     0.134 A 
ATOM      9  C   UNL A   1      38.381  31.783  35.738  1.00  0.00     0.047 A 
ATOM     10  N   UNL A   1      36.776  33.486  36.271  1.00  0.00    -0.231 NA
ATOM     11  C   UNL A   1      37.848  31.669  34.457  1.00  0.00     0.006 A 
ATOM     12  C   UNL A   1      36.790  32.493  34.082  1.00  0.00     0.028 A 
BRANCH   8  13
ATOM     13  N   UNL A   1      38.304  32.922  37.895  1.00  0.00    -0.292 N 
ATOM     14  C   UNL A   1      36.178  31.631  40.599  1.00  0.00     0.148 C 
ATOM     15  N   UNL A   1      36.841  31.712  39.307  1.00  0.00    -0.331 N 
ATOM     16  C   UNL A   1      36.785  30.499  38.500  1.00  0.00     0.148 C 
ATOM     17  C   UNL A   1      37.715  32.761  39.104  1.00  0.00     0.322 C 
ATOM     18  O   UNL A   1      38.061  33.505  40.024  1.00  0.00    -0.248 OA
ATOM     19  H   UNL A   1      39.234  33.243  37.938  1.00  0.00     0.173 HD
ENDBRANCH   8  13
ENDBRANCH   6   7
ENDBRANCH   3   5
ENDBRANCH   2   3
ENDBRANCH   1   2
BRANCH   1  20
ATOM     20  C   UNL A   1      32.966  36.353  29.774  1.00  0.00     0.275 C 
BRANCH  20  21
ATOM     21  O   UNL A   1      32.569  34.969  29.771  1.00  0.00    -0.458 OA
BRANCH  21  22
ATOM     22  C   UNL A   1      33.013  34.239  28.719  1.00  0.00     0.338 C 
ATOM     23  O   UNL A   1      32.479  34.116  27.629  1.00  0.00    -0.246 OA
BRANCH  22  24
ATOM     24  C   UNL A   1      34.342  33.682  29.033  1.00  0.00     0.060 A 
ATOM     25  C   UNL A   1      34.483  32.933  30.206  1.00  0.00     0.016 A 
ATOM     26  C   UNL A   1      35.446  33.931  28.215  1.00  0.00     0.016 A 
ATOM     27  C   UNL A   1      35.731  32.417  30.556  1.00  0.00     0.010 A 
ATOM     28  C   UNL A   1      36.698  33.420  28.573  1.00  0.00     0.010 A 
ATOM     29  C   UNL A   1      36.849  32.661  29.746  1.00  0.00    -0.014 A 
BRANCH  29  30
ATOM     30  C   UNL A   1      38.178  32.133  30.140  1.00  0.00     0.031 A 
ATOM     31  C   UNL A   1      38.664  30.826  29.589  1.00  0.00     0.074 A 
ATOM     32  C   UNL A   1      38.946  32.834  30.994  1.00  0.00     0.049 A 
ATOM     33  N   UNL A   1      39.770  30.177  29.854  1.00  0.00    -0.248 NA
ATOM     34  C   UNL A   1      37.791  30.156  28.613  1.00  0.00     0.031 C 
ATOM     35  C   UNL A   1      38.591  34.124  31.583  1.00  0.00     0.029 A 
ATOM     36  N   UNL A   1      40.180  32.551  31.523  1.00  0.00    -0.354 N 
ATOM     37  C   UNL A   1      39.723  29.020  29.088  1.00  0.00     0.074 A 
ATOM     38  C   UNL A   1      38.471  29.045  28.360  1.00  0.00     0.031 C 
ATOM     39  C   UNL A   1      39.581  34.519  32.400  1.00  0.00     0.029 A 
ATOM     40  C   UNL A   1      40.623  33.495  32.417  1.00  0.00     0.049 A 
ATOM     41  H   UNL A   1      40.699  31.750  31.283  1.00  0.00     0.167 HD
ATOM     42  C   UNL A   1      40.644  28.031  28.997  1.00  0.00     0.037 A 
ATOM     43  C   UNL A   1      41.731  33.519  33.182  1.00  0.00     0.037 A 
ATOM     44  C   UNL A   1      41.896  28.015  29.708  1.00  0.00     0.049 A 
ATOM     45  C   UNL A   1      42.716  32.386  33.093  1.00  0.00     0.074 A 
ATOM     46  C   UNL A   1      42.912  27.076  29.642  1.00  0.00     0.029 A 
ATOM     47  N   UNL A   1      42.301  28.978  30.617  1.00  0.00    -0.354 N 
ATOM     48  N   UNL A   1      42.677  31.314  32.340  1.00  0.00    -0.248 NA
ATOM     49  C   UNL A   1      43.899  32.464  33.964  1.00  0.00     0.031 C 
ATOM     50  C   UNL A   1      43.912  27.449  30.546  1.00  0.00     0.029 A 
ATOM     51  C   UNL A   1      43.538  28.642  31.143  1.00  0.00     0.049 A 
ATOM     52  H   UNL A   1      41.786  29.784  30.854  1.00  0.00     0.167 HD
ATOM     53  C   UNL A   1      43.833  30.601  32.632  1.00  0.00     0.074 A 
ATOM     54  C   UNL A   1      44.561  31.368  33.620  1.00  0.00     0.031 C 
ATOM     55  C   UNL A   1      44.251  29.415  32.127  1.00  0.00     0.037 A 
BRANCH  42  56
ATOM     56  C   UNL A   1      40.325  26.865  28.109  1.00  0.00     0.057 A 
ATOM     57  C   UNL A   1      40.876  26.738  26.830  1.00  0.00     0.134 A 
ATOM     58  C   UNL A   1      39.500  25.829  28.567  1.00  0.00     0.134 A 
ATOM     59  F   UNL A   1      41.667  27.701  26.331  1.00  0.00    -0.206 F 
ATOM     60  C   UNL A   1      40.607  25.627  26.027  1.00  0.00     0.040 A 
ATOM     61  C   UNL A   1      39.239  24.704  27.782  1.00  0.00     0.040 A 
ATOM     62  F   UNL A   1      38.946  25.888  29.787  1.00  0.00    -0.206 F 
ATOM     63  C   UNL A   1      39.792  24.603  26.507  1.00  0.00     0.006 A 
ENDBRANCH  42  56
BRANCH  43  64
ATOM     64  C   UNL A   1      41.956  34.644  34.123  1.00  0.00     0.057 A 
ATOM     65  C   UNL A   1      42.524  35.848  33.694  1.00  0.00     0.134 A 
ATOM     66  C   UNL A   1      41.622  34.532  35.478  1.00  0.00     0.134 A 
ATOM     67  F   UNL A   1      42.889  36.005  32.413  1.00  0.00    -0.206 F 
ATOM     68  C   UNL A   1      42.765  36.898  34.582  1.00  0.00     0.040 A 
ATOM     69  C   UNL A   1      41.836  35.581  36.372  1.00  0.00     0.040 A 
ATOM     70  F   UNL A   1      41.076  33.402  35.951  1.00  0.00    -0.206 F 
ATOM     71  C   UNL A   1      42.415  36.767  35.925  1.00  0.00     0.006 A 
ENDBRANCH  43  64
BRANCH  55  72
ATOM     72  C   UNL A   1      45.561  28.883  32.624  1.00  0.00     0.057 A 
ATOM     73  C   UNL A   1      45.629  27.961  33.675  1.00  0.00     0.134 A 
ATOM     74  C   UNL A   1      46.765  29.265  32.017  1.00  0.00     0.134 A 
ATOM     75  F   UNL A   1      44.513  27.565  34.306  1.00  0.00    -0.206 F 
ATOM     76  C   UNL A   1      46.850  27.450  34.119  1.00  0.00     0.040 A 
ATOM     77  C   UNL A   1      47.990  28.744  32.437  1.00  0.00     0.040 A 
ATOM     78  F   UNL A   1      46.767  30.139  31.000  1.00  0.00    -0.206 F 
ATOM     79  C   UNL A   1      48.034  27.837  33.494  1.00  0.00     0.006 A 
ENDBRANCH  55  72
ENDBRANCH  29  30
ENDBRANCH  22  24
ENDBRANCH  21  22
ENDBRANCH  20  21
ENDBRANCH   1  20
TORSDOF 13
ENDMDL
MODEL 2
REMARK VINA RESULT:     -10.1      6.574     12.493
REMARK SMILES CN(C)C(=O)Nc1cccc(/C=C/C(=O)OCCOC(=O)c2ccc(-c3c4nc(c(-c5c(F)cccc5F)c5ccc([nH]5)c(-c5c(F)cccc5F)c5nc(c(-c6c(F)cccc6F)c6ccc3[nH]6)C=C5)C=C4)cc2)n1
REMARK SMILES IDX 17 1 16 2 14 3 15 4 13 5 12 6 11 7 7 8 8 9 76 10 9 11 10 12
REMARK SMILES IDX 6 13 1 14 2 15 3 16 4 17 5 18 18 20 19 21 20 22 21 23 22 24
REMARK SMILES IDX 23 25 75 26 24 27 74 28 25 29 26 30 27 31 68 32 28 33 73 34
REMARK SMILES IDX 67 35 69 36 29 37 72 38 66 39 65 40 30 42 56 43 39 44 55 45
REMARK SMILES IDX 40 46 43 47 54 48 70 49 41 50 42 51 53 53 71 54 44 55 31 56
REMARK SMILES IDX 32 57 37 58 33 59 34 60 36 61 38 62 35 63 57 64 58 65 63 66
REMARK SMILES IDX 59 67 60 68 62 69 64 70 61 71 45 72 46 73 51 74 47 75 48 76
REMARK SMILES IDX 50 77 52 78 49 79
REMARK H PARENT 6 19 69 41 43 52
REMARK Flexibility Score: inf
ROOT
ATOM      1  C   UNL A   1      44.384  18.846  24.609  1.00  0.00     0.275 C 
ENDROOT
BRANCH   1   2
ATOM      2  O   UNL A   1      44.716  20.230  24.404  1.00  0.00    -0.459 OA
BRANCH   2   3
ATOM      3  C   UNL A   1      45.853  20.655  25.003  1.00  0.00     0.330 C 
ATOM      4  O   UNL A   1      46.816  19.965  25.300  1.00  0.00    -0.247 OA
BRANCH   3   5
ATOM      5  C   UNL A   1      45.864  22.114  25.208  1.00  0.00     0.095 C 
ATOM      6  C   UNL A   1      45.995  23.040  24.244  1.00  0.00     0.036 C 
BRANCH   6   7
ATOM      7  C   UNL A   1      46.083  24.471  24.558  1.00  0.00     0.066 A 
ATOM      8  C   UNL A   1      47.422  26.357  24.676  1.00  0.00     0.134 A 
ATOM      9  C   UNL A   1      46.380  27.119  25.186  1.00  0.00     0.047 A 
ATOM     10  N   UNL A   1      47.276  25.065  24.325  1.00  0.00    -0.231 NA
ATOM     11  C   UNL A   1      45.146  26.507  25.387  1.00  0.00     0.006 A 
ATOM     12  C   UNL A   1      44.994  25.158  25.077  1.00  0.00     0.028 A 
BRANCH   8  13
ATOM     13  N   UNL A   1      48.696  26.868  24.458  1.00  0.00    -0.292 N 
ATOM     14  C   UNL A   1      49.528  27.656  20.967  1.00  0.00     0.148 C 
ATOM     15  N   UNL A   1      48.742  27.516  22.182  1.00  0.00    -0.331 N 
ATOM     16  C   UNL A   1      47.441  28.173  22.163  1.00  0.00     0.148 C 
ATOM     17  C   UNL A   1      49.396  27.083  23.319  1.00  0.00     0.322 C 
ATOM     18  O   UNL A   1      50.624  26.982  23.362  1.00  0.00    -0.248 OA
ATOM     19  H   UNL A   1      49.176  27.119  25.281  1.00  0.00     0.173 HD
ENDBRANCH   8  13
ENDBRANCH   6   7
ENDBRANCH   3   5
ENDBRANCH   2   3
ENDBRANCH   1   2
BRANCH   1  20
ATOM     20  C   UNL A   1      43.204  18.700  25.575  1.00  0.00     0.275 C 
BRANCH  20  21
ATOM     21  O   UNL A   1      42.013  19.331  25.067  1.00  0.00    -0.458 OA
BRANCH  21  22
ATOM     22  C   UNL A   1      41.131  19.751  26.008  1.00  0.00     0.338 C 
ATOM     23  O   UNL A   1      40.170  19.139  26.443  1.00  0.00    -0.246 OA
BRANCH  22  24
ATOM     24  C   UNL A   1      41.570  21.052  26.546  1.00  0.00     0.060 A 
ATOM     25  C   UNL A   1      41.511  21.249  27.929  1.00  0.00     0.016 A 
ATOM     26  C   UNL A   1      41.987  22.084  25.701  1.00  0.00     0.016 A 
ATOM     27  C   UNL A   1      41.885  22.477  28.474  1.00  0.00     0.010 A 
ATOM     28  C   UNL A   1      42.353  23.318  26.249  1.00  0.00     0.010 A 
ATOM     29  C   UNL A   1      42.303  23.523  27.638  1.00  0.00    -0.014 A 
BRANCH  29  30
ATOM     30  C   UNL A   1      42.672  24.835  28.223  1.00  0.00     0.031 A 
ATOM     31  C   UNL A   1      41.623  25.885  28.442  1.00  0.00     0.074 A 
ATOM     32  C   UNL A   1      43.953  25.080  28.556  1.00  0.00     0.049 A 
ATOM     33  N   UNL A   1      41.758  27.108  28.891  1.00  0.00    -0.248 NA
ATOM     34  C   UNL A   1      40.239  25.513  28.111  1.00  0.00     0.031 C 
ATOM     35  C   UNL A   1      45.058  24.134  28.406  1.00  0.00     0.029 A 
ATOM     36  N   UNL A   1      44.541  26.204  29.079  1.00  0.00    -0.354 N 
ATOM     37  C   UNL A   1      40.483  27.655  28.887  1.00  0.00     0.074 A 
ATOM     38  C   UNL A   1      39.588  26.638  28.374  1.00  0.00     0.031 C 
ATOM     39  C   UNL A   1      46.193  24.721  28.820  1.00  0.00     0.029 A 
ATOM     40  C   UNL A   1      45.901  26.092  29.231  1.00  0.00     0.049 A 
ATOM     41  H   UNL A   1      44.036  27.014  29.322  1.00  0.00     0.167 HD
ATOM     42  C   UNL A   1      40.094  28.892  29.280  1.00  0.00     0.037 A 
ATOM     43  C   UNL A   1      46.811  27.000  29.632  1.00  0.00     0.037 A 
ATOM     44  C   UNL A   1      40.982  29.896  29.806  1.00  0.00     0.049 A 
ATOM     45  C   UNL A   1      46.357  28.379  30.023  1.00  0.00     0.074 A 
ATOM     46  C   UNL A   1      40.671  31.162  30.274  1.00  0.00     0.029 A 
ATOM     47  N   UNL A   1      42.355  29.752  29.928  1.00  0.00    -0.354 N 
ATOM     48  N   UNL A   1      45.144  28.875  30.046  1.00  0.00    -0.248 NA
ATOM     49  C   UNL A   1      47.401  29.329  30.438  1.00  0.00     0.031 C 
ATOM     50  C   UNL A   1      41.861  31.799  30.638  1.00  0.00     0.029 A 
ATOM     51  C   UNL A   1      42.910  30.916  30.436  1.00  0.00     0.049 A 
ATOM     52  H   UNL A   1      42.861  28.941  29.691  1.00  0.00     0.167 HD
ATOM     53  C   UNL A   1      45.275  30.183  30.495  1.00  0.00     0.074 A 
ATOM     54  C   UNL A   1      46.684  30.401  30.746  1.00  0.00     0.031 C 
ATOM     55  C   UNL A   1      44.314  31.119  30.679  1.00  0.00     0.037 A 
BRANCH  42  56
ATOM     56  C   UNL A   1      38.643  29.241  29.140  1.00  0.00     0.057 A 
ATOM     57  C   UNL A   1      37.769  29.222  30.232  1.00  0.00     0.134 A 
ATOM     58  C   UNL A   1      38.130  29.658  27.904  1.00  0.00     0.134 A 
ATOM     59  F   UNL A   1      38.197  28.823  31.439  1.00  0.00    -0.206 F 
ATOM     60  C   UNL A   1      36.428  29.591  30.099  1.00  0.00     0.040 A 
ATOM     61  C   UNL A   1      36.797  30.048  27.763  1.00  0.00     0.040 A 
ATOM     62  F   UNL A   1      38.918  29.705  26.820  1.00  0.00    -0.206 F 
ATOM     63  C   UNL A   1      35.942  30.012  28.862  1.00  0.00     0.006 A 
ENDBRANCH  42  56
BRANCH  43  64
ATOM     64  C   UNL A   1      48.250  26.641  29.658  1.00  0.00     0.057 A 
ATOM     65  C   UNL A   1      48.806  25.939  30.733  1.00  0.00     0.134 A 
ATOM     66  C   UNL A   1      49.107  27.010  28.614  1.00  0.00     0.134 A 
ATOM     67  F   UNL A   1      48.040  25.582  31.774  1.00  0.00    -0.206 F 
ATOM     68  C   UNL A   1      50.165  25.626  30.776  1.00  0.00     0.040 A 
ATOM     69  C   UNL A   1      50.464  26.684  28.633  1.00  0.00     0.040 A 
ATOM     70  F   UNL A   1      48.636  27.687  27.557  1.00  0.00    -0.206 F 
ATOM     71  C   UNL A   1      50.997  25.995  29.720  1.00  0.00     0.006 A 
ENDBRANCH  43  64
BRANCH  55  72
ATOM     72  C   UNL A   1      44.752  32.459  31.190  1.00  0.00     0.057 A 
ATOM     73  C   UNL A   1      44.850  32.727  32.561  1.00  0.00     0.134 A 
ATOM     74  C   UNL A   1      45.118  33.478  30.302  1.00  0.00     0.134 A 
ATOM     75  F   UNL A   1      44.501  31.797  33.463  1.00  0.00    -0.206 F 
ATOM     76  C   UNL A   1      45.280  33.969  33.031  1.00  0.00     0.040 A 
ATOM     77  C   UNL A   1      45.572  34.716  30.760  1.00  0.00     0.040 A 
ATOM     78  F   UNL A   1      45.054  33.283  28.976  1.00  0.00    -0.206 F 
ATOM     79  C   UNL A   1      45.650  34.965  32.129  1.00  0.00     0.006 A 
ENDBRANCH  55  72
ENDBRANCH  29  30
ENDBRANCH  22  24
ENDBRANCH  21  22
ENDBRANCH  20  21
ENDBRANCH   1  20
TORSDOF 13
ENDMDL
MODEL 3
REMARK VINA RESULT:     -10.1      5.640     11.711
REMARK SMILES CN(C)C(=O)Nc1cccc(/C=C/C(=O)OCCOC(=O)c2ccc(-c3c4nc(c(-c5c(F)cccc5F)c5ccc([nH]5)c(-c5c(F)cccc5F)c5nc(c(-c6c(F)cccc6F)c6ccc3[nH]6)C=C5)C=C4)cc2)n1
REMARK SMILES IDX 17 1 16 2 14 3 15 4 13 5 12 6 11 7 7 8 8 9 76 10 9 11 10 12
REMARK SMILES IDX 6 13 1 14 2 15 3 16 4 17 5 18 18 20 19 21 20 22 21 23 22 24
REMARK SMILES IDX 23 25 75 26 24 27 74 28 25 29 26 30 27 31 68 32 28 33 73 34
REMARK SMILES IDX 67 35 69 36 29 37 72 38 66 39 65 40 30 42 56 43 39 44 55 45
REMARK SMILES IDX 40 46 43 47 54 48 70 49 41 50 42 51 53 53 71 54 44 55 31 56
REMARK SMILES IDX 32 57 37 58 33 59 34 60 36 61 38 62 35 63 57 64 58 65 63 66
REMARK SMILES IDX 59 67 60 68 62 69 64 70 61 71 45 72 46 73 51 74 47 75 48 76
REMARK SMILES IDX 50 77 52 78 49 79
REMARK H PARENT 6 19 69 41 43 52
REMARK Flexibility Score: inf
ROOT
ATOM      1  C   UNL A   1      42.661  20.627  26.307  1.00  0.00     0.275 C 
ENDROOT
BRANCH   1   2
ATOM      2  O   UNL A   1      41.364  20.689  25.688  1.00  0.00    -0.459 OA
BRANCH   2   3
ATOM      3  C   UNL A   1      40.344  21.053  26.501  1.00  0.00     0.330 C 
ATOM      4  O   UNL A   1      40.421  21.293  27.696  1.00  0.00    -0.247 OA
BRANCH   3   5
ATOM      5  C   UNL A   1      39.079  21.221  25.766  1.00  0.00     0.095 C 
ATOM      6  C   UNL A   1      38.145  22.154  26.015  1.00  0.00     0.036 C 
BRANCH   6   7
ATOM      7  C   UNL A   1      36.874  22.186  25.283  1.00  0.00     0.066 A 
ATOM      8  C   UNL A   1      34.734  21.326  25.063  1.00  0.00     0.134 A 
ATOM      9  C   UNL A   1      34.488  22.105  23.942  1.00  0.00     0.047 A 
ATOM     10  N   UNL A   1      35.889  21.387  25.754  1.00  0.00    -0.231 NA
ATOM     11  C   UNL A   1      35.496  22.952  23.487  1.00  0.00     0.006 A 
ATOM     12  C   UNL A   1      36.713  22.988  24.161  1.00  0.00     0.028 A 
BRANCH   8  13
ATOM     13  N   UNL A   1      33.803  20.435  25.583  1.00  0.00    -0.292 N 
ATOM     14  C   UNL A   1      33.591  17.178  23.897  1.00  0.00     0.148 C 
ATOM     15  N   UNL A   1      34.171  18.393  24.446  1.00  0.00    -0.331 N 
ATOM     16  C   UNL A   1      35.626  18.404  24.537  1.00  0.00     0.148 C 
ATOM     17  C   UNL A   1      33.327  19.256  25.115  1.00  0.00     0.322 C 
ATOM     18  O   UNL A   1      32.168  18.944  25.395  1.00  0.00    -0.248 OA
ATOM     19  H   UNL A   1      33.419  20.711  26.448  1.00  0.00     0.173 HD
ENDBRANCH   8  13
ENDBRANCH   6   7
ENDBRANCH   3   5
ENDBRANCH   2   3
ENDBRANCH   1   2
BRANCH   1  20
ATOM     20  C   UNL A   1      43.595  21.698  25.735  1.00  0.00     0.275 C 
BRANCH  20  21
ATOM     21  O   UNL A   1      42.865  22.816  25.196  1.00  0.00    -0.458 OA
BRANCH  21  22
ATOM     22  C   UNL A   1      43.544  23.988  25.154  1.00  0.00     0.338 C 
ATOM     23  O   UNL A   1      44.370  24.333  24.325  1.00  0.00    -0.246 OA
BRANCH  22  24
ATOM     24  C   UNL A   1      43.050  24.880  26.220  1.00  0.00     0.060 A 
ATOM     25  C   UNL A   1      43.695  26.107  26.407  1.00  0.00     0.016 A 
ATOM     26  C   UNL A   1      42.000  24.497  27.058  1.00  0.00     0.016 A 
ATOM     27  C   UNL A   1      43.279  26.964  27.425  1.00  0.00     0.010 A 
ATOM     28  C   UNL A   1      41.591  25.354  28.085  1.00  0.00     0.010 A 
ATOM     29  C   UNL A   1      42.229  26.592  28.276  1.00  0.00    -0.014 A 
BRANCH  29  30
ATOM     30  C   UNL A   1      41.812  27.496  29.376  1.00  0.00     0.031 A 
ATOM     31  C   UNL A   1      42.530  27.464  30.693  1.00  0.00     0.074 A 
ATOM     32  C   UNL A   1      40.785  28.346  29.187  1.00  0.00     0.049 A 
ATOM     33  N   UNL A   1      42.279  28.137  31.787  1.00  0.00    -0.248 NA
ATOM     34  C   UNL A   1      43.680  26.552  30.794  1.00  0.00     0.031 C 
ATOM     35  C   UNL A   1      40.021  28.481  27.947  1.00  0.00     0.029 A 
ATOM     36  N   UNL A   1      40.203  29.247  30.041  1.00  0.00    -0.354 N 
ATOM     37  C   UNL A   1      43.231  27.726  32.710  1.00  0.00     0.074 A 
ATOM     38  C   UNL A   1      44.054  26.731  32.054  1.00  0.00     0.031 C 
ATOM     39  C   UNL A   1      39.063  29.406  28.124  1.00  0.00     0.029 A 
ATOM     40  C   UNL A   1      39.126  29.903  29.497  1.00  0.00     0.049 A 
ATOM     41  H   UNL A   1      40.527  29.410  30.957  1.00  0.00     0.167 HD
ATOM     42  C   UNL A   1      43.405  28.145  33.987  1.00  0.00     0.037 A 
ATOM     43  C   UNL A   1      38.271  30.784  30.050  1.00  0.00     0.037 A 
ATOM     44  C   UNL A   1      42.597  29.147  34.632  1.00  0.00     0.049 A 
ATOM     45  C   UNL A   1      38.462  31.200  31.483  1.00  0.00     0.074 A 
ATOM     46  C   UNL A   1      42.729  29.668  35.909  1.00  0.00     0.029 A 
ATOM     47  N   UNL A   1      41.505  29.774  34.055  1.00  0.00    -0.354 N 
ATOM     48  N   UNL A   1      39.385  30.829  32.335  1.00  0.00    -0.248 NA
ATOM     49  C   UNL A   1      37.487  32.155  32.032  1.00  0.00     0.031 C 
ATOM     50  C   UNL A   1      41.688  30.579  36.118  1.00  0.00     0.029 A 
ATOM     51  C   UNL A   1      40.934  30.656  34.959  1.00  0.00     0.049 A 
ATOM     52  H   UNL A   1      41.183  29.618  33.138  1.00  0.00     0.167 HD
ATOM     53  C   UNL A   1      39.116  31.516  33.512  1.00  0.00     0.074 A 
ATOM     54  C   UNL A   1      37.950  32.338  33.261  1.00  0.00     0.031 C 
ATOM     55  C   UNL A   1      39.774  31.467  34.695  1.00  0.00     0.037 A 
BRANCH  42  56
ATOM     56  C   UNL A   1      44.502  27.506  34.784  1.00  0.00     0.057 A 
ATOM     57  C   UNL A   1      45.788  28.052  34.841  1.00  0.00     0.134 A 
ATOM     58  C   UNL A   1      44.248  26.360  35.549  1.00  0.00     0.134 A 
ATOM     59  F   UNL A   1      46.097  29.143  34.124  1.00  0.00    -0.206 F 
ATOM     60  C   UNL A   1      46.792  27.473  35.622  1.00  0.00     0.040 A 
ATOM     61  C   UNL A   1      45.237  25.783  36.349  1.00  0.00     0.040 A 
ATOM     62  F   UNL A   1      43.033  25.792  35.543  1.00  0.00    -0.206 F 
ATOM     63  C   UNL A   1      46.514  26.339  36.384  1.00  0.00     0.006 A 
ENDBRANCH  42  56
BRANCH  43  64
ATOM     64  C   UNL A   1      37.138  31.314  29.253  1.00  0.00     0.057 A 
ATOM     65  C   UNL A   1      37.160  32.611  28.729  1.00  0.00     0.134 A 
ATOM     66  C   UNL A   1      35.997  30.539  29.013  1.00  0.00     0.134 A 
ATOM     67  F   UNL A   1      38.214  33.410  28.949  1.00  0.00    -0.206 F 
ATOM     68  C   UNL A   1      36.082  33.124  28.005  1.00  0.00     0.040 A 
ATOM     69  C   UNL A   1      34.922  31.030  28.271  1.00  0.00     0.040 A 
ATOM     70  F   UNL A   1      35.914  29.288  29.490  1.00  0.00    -0.206 F 
ATOM     71  C   UNL A   1      34.961  32.329  27.770  1.00  0.00     0.006 A 
ENDBRANCH  43  64
BRANCH  55  72
ATOM     72  C   UNL A   1      39.258  32.336  35.802  1.00  0.00     0.057 A 
ATOM     73  C   UNL A   1      38.347  31.856  36.751  1.00  0.00     0.134 A 
ATOM     74  C   UNL A   1      39.708  33.655  35.946  1.00  0.00     0.134 A 
ATOM     75  F   UNL A   1      37.867  30.605  36.661  1.00  0.00    -0.206 F 
ATOM     76  C   UNL A   1      37.887  32.661  37.794  1.00  0.00     0.040 A 
ATOM     77  C   UNL A   1      39.273  34.463  36.997  1.00  0.00     0.040 A 
ATOM     78  F   UNL A   1      40.587  34.173  35.075  1.00  0.00    -0.206 F 
ATOM     79  C   UNL A   1      38.357  33.968  37.923  1.00  0.00     0.006 A 
ENDBRANCH  55  72
ENDBRANCH  29  30
ENDBRANCH  22  24
ENDBRANCH  21  22
ENDBRANCH  20  21
ENDBRANCH   1  20
TORSDOF 13
ENDMDL
