MODEL 1
REMARK VINA RESULT:     -10.5      0.000      0.000
REMARK SMILES O=C(OCCOC(=O)c1cccc(OCC(F)F)c1)c1ccc(-c2c3nc(c(-c4c(F)cccc4F)c4ccc([nH]4)c(-c4c(F)cccc4F)c4nc(c(-c5c(F)cccc5F)c5ccc2[nH]5)C=C4)C=C3)cc1
REMARK SMILES IDX 5 1 4 2 3 3 2 4 1 5 20 6 21 7 73 8 22 9 72 10 23 11 24 12
REMARK SMILES IDX 25 13 66 14 26 15 71 16 65 17 67 18 27 19 70 20 64 21 63 22
REMARK SMILES IDX 28 24 54 25 37 26 53 27 38 28 41 29 52 30 68 31 39 32 40 33
REMARK SMILES IDX 51 35 69 36 42 37 29 38 30 39 35 40 31 41 32 42 34 43 36 44
REMARK SMILES IDX 33 45 55 46 56 47 61 48 57 49 58 50 60 51 62 52 59 53 43 54
REMARK SMILES IDX 44 55 49 56 45 57 46 58 48 59 50 60 47 61 6 62 7 63 8 64
REMARK SMILES IDX 9 65 10 66 19 67 11 68 13 69 12 70 14 71 15 72 16 73 17 74
REMARK SMILES IDX 18 75
REMARK H PARENT 67 23 41 34
REMARK Flexibility Score: inf
ROOT
ATOM      1  C   UNL A   1      38.254  21.501  25.374  1.00  0.00     0.275 C 
ENDROOT
BRANCH   1   2
ATOM      2  C   UNL A   1      39.032  22.174  26.505  1.00  0.00     0.275 C 
BRANCH   2   3
ATOM      3  O   UNL A   1      39.382  23.538  26.213  1.00  0.00    -0.458 OA
BRANCH   3   4
ATOM      4  C   UNL A   1      40.441  24.298  26.567  1.00  0.00     0.338 C 
ATOM      5  O   UNL A   1      41.548  23.960  26.142  1.00  0.00    -0.246 OA
BRANCH   4   6
ATOM      6  C   UNL A   1      40.402  25.515  27.454  1.00  0.00     0.060 A 
ATOM      7  C   UNL A   1      41.154  26.683  27.317  1.00  0.00     0.016 A 
ATOM      8  C   UNL A   1      39.498  25.460  28.539  1.00  0.00     0.016 A 
ATOM      9  C   UNL A   1      41.041  27.734  28.237  1.00  0.00     0.010 A 
ATOM     10  C   UNL A   1      39.365  26.512  29.453  1.00  0.00     0.010 A 
ATOM     11  C   UNL A   1      40.160  27.649  29.319  1.00  0.00    -0.014 A 
BRANCH  11  12
ATOM     12  C   UNL A   1      40.160  28.727  30.335  1.00  0.00     0.031 A 
ATOM     13  C   UNL A   1      39.087  29.762  30.298  1.00  0.00     0.074 A 
ATOM     14  C   UNL A   1      41.084  28.745  31.309  1.00  0.00     0.049 A 
ATOM     15  N   UNL A   1      38.840  30.714  31.157  1.00  0.00    -0.248 NA
ATOM     16  C   UNL A   1      38.199  29.745  29.127  1.00  0.00     0.031 C 
ATOM     17  C   UNL A   1      42.212  27.833  31.365  1.00  0.00     0.029 A 
ATOM     18  N   UNL A   1      41.222  29.512  32.438  1.00  0.00    -0.354 N 
ATOM     19  C   UNL A   1      37.800  31.444  30.606  1.00  0.00     0.074 A 
ATOM     20  C   UNL A   1      37.452  30.815  29.349  1.00  0.00     0.031 C 
ATOM     21  C   UNL A   1      42.885  28.026  32.509  1.00  0.00     0.029 A 
ATOM     22  C   UNL A   1      42.224  29.070  33.274  1.00  0.00     0.049 A 
ATOM     23  H   UNL A   1      40.663  30.299  32.631  1.00  0.00     0.167 HD
ATOM     24  C   UNL A   1      37.217  32.562  31.099  1.00  0.00     0.037 A 
ATOM     25  C   UNL A   1      42.534  29.435  34.533  1.00  0.00     0.037 A 
ATOM     26  C   UNL A   1      37.602  33.182  32.339  1.00  0.00     0.049 A 
ATOM     27  C   UNL A   1      41.771  30.584  35.128  1.00  0.00     0.074 A 
ATOM     28  C   UNL A   1      37.121  34.344  32.914  1.00  0.00     0.029 A 
ATOM     29  N   UNL A   1      38.576  32.685  33.196  1.00  0.00    -0.354 N 
ATOM     30  N   UNL A   1      40.775  31.261  34.607  1.00  0.00    -0.248 NA
ATOM     31  C   UNL A   1      42.197  31.052  36.452  1.00  0.00     0.031 C 
ATOM     32  C   UNL A   1      37.824  34.564  34.104  1.00  0.00     0.029 A 
ATOM     33  C   UNL A   1      38.714  33.518  34.294  1.00  0.00     0.049 A 
ATOM     34  H   UNL A   1      39.091  31.860  33.046  1.00  0.00     0.167 HD
ATOM     35  C   UNL A   1      40.483  32.263  35.518  1.00  0.00     0.074 A 
ATOM     36  C   UNL A   1      41.355  32.055  36.660  1.00  0.00     0.031 C 
ATOM     37  C   UNL A   1      39.609  33.292  35.402  1.00  0.00     0.037 A 
BRANCH  24  38
ATOM     38  C   UNL A   1      36.176  33.204  30.233  1.00  0.00     0.057 A 
ATOM     39  C   UNL A   1      34.805  33.027  30.462  1.00  0.00     0.134 A 
ATOM     40  C   UNL A   1      36.556  33.946  29.108  1.00  0.00     0.134 A 
ATOM     41  F   UNL A   1      34.379  32.297  31.502  1.00  0.00    -0.206 F 
ATOM     42  C   UNL A   1      33.849  33.535  29.579  1.00  0.00     0.040 A 
ATOM     43  C   UNL A   1      35.609  34.480  28.233  1.00  0.00     0.040 A 
ATOM     44  F   UNL A   1      37.852  34.143  28.826  1.00  0.00    -0.206 F 
ATOM     45  C   UNL A   1      34.251  34.264  28.461  1.00  0.00     0.006 A 
ENDBRANCH  24  38
BRANCH  25  46
ATOM     46  C   UNL A   1      43.547  28.686  35.328  1.00  0.00     0.057 A 
ATOM     47  C   UNL A   1      44.891  29.087  35.328  1.00  0.00     0.134 A 
ATOM     48  C   UNL A   1      43.220  27.571  36.109  1.00  0.00     0.134 A 
ATOM     49  F   UNL A   1      45.280  30.140  34.593  1.00  0.00    -0.206 F 
ATOM     50  C   UNL A   1      45.867  28.405  36.058  1.00  0.00     0.040 A 
ATOM     51  C   UNL A   1      44.180  26.899  36.871  1.00  0.00     0.040 A 
ATOM     52  F   UNL A   1      41.955  27.131  36.164  1.00  0.00    -0.206 F 
ATOM     53  C   UNL A   1      45.511  27.311  36.841  1.00  0.00     0.006 A 
ENDBRANCH  25  46
BRANCH  37  54
ATOM     54  C   UNL A   1      39.598  34.284  36.523  1.00  0.00     0.057 A 
ATOM     55  C   UNL A   1      40.307  35.490  36.434  1.00  0.00     0.134 A 
ATOM     56  C   UNL A   1      38.857  34.047  37.686  1.00  0.00     0.134 A 
ATOM     57  F   UNL A   1      41.047  35.765  35.349  1.00  0.00    -0.206 F 
ATOM     58  C   UNL A   1      40.297  36.418  37.474  1.00  0.00     0.040 A 
ATOM     59  C   UNL A   1      38.821  34.978  38.724  1.00  0.00     0.040 A 
ATOM     60  F   UNL A   1      38.156  32.912  37.828  1.00  0.00    -0.206 F 
ATOM     61  C   UNL A   1      39.548  36.164  38.622  1.00  0.00     0.006 A 
ENDBRANCH  37  54
ENDBRANCH  11  12
ENDBRANCH   4   6
ENDBRANCH   3   4
ENDBRANCH   2   3
ENDBRANCH   1   2
BRANCH   1  62
ATOM     62  O   UNL A   1      36.837  21.672  25.507  1.00  0.00    -0.458 OA
BRANCH  62  63
ATOM     63  C   UNL A   1      36.184  22.086  24.390  1.00  0.00     0.338 C 
ATOM     64  O   UNL A   1      36.636  22.737  23.467  1.00  0.00    -0.246 OA
BRANCH  63  65
ATOM     65  C   UNL A   1      34.827  21.509  24.412  1.00  0.00     0.063 A 
ATOM     66  C   UNL A   1      33.767  22.235  23.864  1.00  0.00     0.016 A 
ATOM     67  C   UNL A   1      34.628  20.225  24.932  1.00  0.00     0.062 A 
ATOM     68  C   UNL A   1      32.502  21.656  23.809  1.00  0.00     0.005 A 
ATOM     69  C   UNL A   1      33.371  19.638  24.865  1.00  0.00     0.120 A 
ATOM     70  C   UNL A   1      32.306  20.367  24.314  1.00  0.00     0.046 A 
BRANCH  69  71
ATOM     71  O   UNL A   1      33.070  18.357  25.237  1.00  0.00    -0.488 OA
BRANCH  71  72
ATOM     72  C   UNL A   1      32.796  17.384  24.219  1.00  0.00     0.302 C 
BRANCH  72  73
ATOM     73  C   UNL A   1      34.014  16.620  23.701  1.00  0.00     0.379 C 
ATOM     74  F   UNL A   1      34.397  17.073  22.480  1.00  0.00    -0.207 F 
ATOM     75  F   UNL A   1      35.066  16.855  24.531  1.00  0.00    -0.207 F 
ENDBRANCH  72  73
ENDBRANCH  71  72
ENDBRANCH  69  71
ENDBRANCH  63  65
ENDBRANCH  62  63
ENDBRANCH   1  62
TORSDOF 14
ENDMDL
MODEL 2
REMARK VINA RESULT:     -10.4      6.392      8.996
REMARK SMILES O=C(OCCOC(=O)c1cccc(OCC(F)F)c1)c1ccc(-c2c3nc(c(-c4c(F)cccc4F)c4ccc([nH]4)c(-c4c(F)cccc4F)c4nc(c(-c5c(F)cccc5F)c5ccc2[nH]5)C=C4)C=C3)cc1
REMARK SMILES IDX 5 1 4 2 3 3 2 4 1 5 20 6 21 7 73 8 22 9 72 10 23 11 24 12
REMARK SMILES IDX 25 13 66 14 26 15 71 16 65 17 67 18 27 19 70 20 64 21 63 22
REMARK SMILES IDX 28 24 54 25 37 26 53 27 38 28 41 29 52 30 68 31 39 32 40 33
REMARK SMILES IDX 51 35 69 36 42 37 29 38 30 39 35 40 31 41 32 42 34 43 36 44
REMARK SMILES IDX 33 45 55 46 56 47 61 48 57 49 58 50 60 51 62 52 59 53 43 54
REMARK SMILES IDX 44 55 49 56 45 57 46 58 48 59 50 60 47 61 6 62 7 63 8 64
REMARK SMILES IDX 9 65 10 66 19 67 11 68 13 69 12 70 14 71 15 72 16 73 17 74
REMARK SMILES IDX 18 75
REMARK H PARENT 67 23 41 34
REMARK Flexibility Score: inf
ROOT
ATOM      1  C   UNL A   1      41.983  19.335  27.139  1.00  0.00     0.275 C 
ENDROOT
BRANCH   1   2
ATOM      2  C   UNL A   1      42.718  18.336  26.244  1.00  0.00     0.275 C 
BRANCH   2   3
ATOM      3  O   UNL A   1      43.121  18.900  24.984  1.00  0.00    -0.458 OA
BRANCH   3   4
ATOM      4  C   UNL A   1      44.248  19.533  24.594  1.00  0.00     0.338 C 
ATOM      5  O   UNL A   1      45.033  18.905  23.881  1.00  0.00    -0.246 OA
BRANCH   4   6
ATOM      6  C   UNL A   1      44.651  20.936  24.966  1.00  0.00     0.060 A 
ATOM      7  C   UNL A   1      45.317  21.344  26.122  1.00  0.00     0.016 A 
ATOM      8  C   UNL A   1      44.318  21.943  24.031  1.00  0.00     0.016 A 
ATOM      9  C   UNL A   1      45.606  22.695  26.359  1.00  0.00     0.010 A 
ATOM     10  C   UNL A   1      44.619  23.292  24.250  1.00  0.00     0.010 A 
ATOM     11  C   UNL A   1      45.244  23.679  25.434  1.00  0.00    -0.014 A 
BRANCH  11  12
ATOM     12  C   UNL A   1      45.458  25.104  25.777  1.00  0.00     0.031 A 
ATOM     13  C   UNL A   1      44.374  25.857  26.470  1.00  0.00     0.074 A 
ATOM     14  C   UNL A   1      46.633  25.699  25.514  1.00  0.00     0.049 A 
ATOM     15  N   UNL A   1      44.401  27.067  26.958  1.00  0.00    -0.248 NA
ATOM     16  C   UNL A   1      43.079  25.172  26.599  1.00  0.00     0.031 C 
ATOM     17  C   UNL A   1      47.704  25.068  24.765  1.00  0.00     0.029 A 
ATOM     18  N   UNL A   1      47.145  26.924  25.856  1.00  0.00    -0.354 N 
ATOM     19  C   UNL A   1      43.115  27.312  27.407  1.00  0.00     0.074 A 
ATOM     20  C   UNL A   1      42.336  26.119  27.149  1.00  0.00     0.031 C 
ATOM     21  C   UNL A   1      48.782  25.866  24.769  1.00  0.00     0.029 A 
ATOM     22  C   UNL A   1      48.479  27.063  25.538  1.00  0.00     0.049 A 
ATOM     23  H   UNL A   1      46.614  27.634  26.284  1.00  0.00     0.167 HD
ATOM     24  C   UNL A   1      42.628  28.451  27.953  1.00  0.00     0.037 A 
ATOM     25  C   UNL A   1      49.361  28.023  25.874  1.00  0.00     0.037 A 
ATOM     26  C   UNL A   1      43.419  29.632  28.174  1.00  0.00     0.049 A 
ATOM     27  C   UNL A   1      48.834  29.215  26.620  1.00  0.00     0.074 A 
ATOM     28  C   UNL A   1      43.025  30.860  28.671  1.00  0.00     0.029 A 
ATOM     29  N   UNL A   1      44.778  29.729  27.899  1.00  0.00    -0.354 N 
ATOM     30  N   UNL A   1      47.617  29.434  27.057  1.00  0.00    -0.248 NA
ATOM     31  C   UNL A   1      49.777  30.310  26.876  1.00  0.00     0.031 C 
ATOM     32  C   UNL A   1      44.139  31.709  28.670  1.00  0.00     0.029 A 
ATOM     33  C   UNL A   1      45.238  30.997  28.212  1.00  0.00     0.049 A 
ATOM     34  H   UNL A   1      45.333  29.002  27.536  1.00  0.00     0.167 HD
ATOM     35  C   UNL A   1      47.635  30.708  27.601  1.00  0.00     0.074 A 
ATOM     36  C   UNL A   1      49.004  31.181  27.510  1.00  0.00     0.031 C 
ATOM     37  C   UNL A   1      46.604  31.441  28.087  1.00  0.00     0.037 A 
BRANCH  24  38
ATOM     38  C   UNL A   1      41.161  28.467  28.254  1.00  0.00     0.057 A 
ATOM     39  C   UNL A   1      40.215  28.922  27.326  1.00  0.00     0.134 A 
ATOM     40  C   UNL A   1      40.697  28.094  29.522  1.00  0.00     0.134 A 
ATOM     41  F   UNL A   1      40.599  29.327  26.107  1.00  0.00    -0.206 F 
ATOM     42  C   UNL A   1      38.864  29.041  27.663  1.00  0.00     0.040 A 
ATOM     43  C   UNL A   1      39.347  28.184  29.861  1.00  0.00     0.040 A 
ATOM     44  F   UNL A   1      41.553  27.661  30.460  1.00  0.00    -0.206 F 
ATOM     45  C   UNL A   1      38.428  28.671  28.934  1.00  0.00     0.006 A 
ENDBRANCH  24  38
BRANCH  25  46
ATOM     46  C   UNL A   1      50.814  27.876  25.579  1.00  0.00     0.057 A 
ATOM     47  C   UNL A   1      51.704  27.447  26.575  1.00  0.00     0.134 A 
ATOM     48  C   UNL A   1      51.358  28.142  24.317  1.00  0.00     0.134 A 
ATOM     49  F   UNL A   1      51.254  27.183  27.812  1.00  0.00    -0.206 F 
ATOM     50  C   UNL A   1      53.071  27.301  26.334  1.00  0.00     0.040 A 
ATOM     51  C   UNL A   1      52.720  27.971  24.052  1.00  0.00     0.040 A 
ATOM     52  F   UNL A   1      50.570  28.552  23.313  1.00  0.00    -0.206 F 
ATOM     53  C   UNL A   1      53.583  27.556  25.064  1.00  0.00     0.006 A 
ENDBRANCH  25  46
BRANCH  37  54
ATOM     54  C   UNL A   1      46.926  32.841  28.509  1.00  0.00     0.057 A 
ATOM     55  C   UNL A   1      46.859  33.908  27.602  1.00  0.00     0.134 A 
ATOM     56  C   UNL A   1      47.281  33.131  29.831  1.00  0.00     0.134 A 
ATOM     57  F   UNL A   1      46.539  33.689  26.317  1.00  0.00    -0.206 F 
ATOM     58  C   UNL A   1      47.154  35.213  27.991  1.00  0.00     0.040 A 
ATOM     59  C   UNL A   1      47.557  34.436  30.238  1.00  0.00     0.040 A 
ATOM     60  F   UNL A   1      47.360  32.153  30.745  1.00  0.00    -0.206 F 
ATOM     61  C   UNL A   1      47.500  35.480  29.315  1.00  0.00     0.006 A 
ENDBRANCH  37  54
ENDBRANCH  11  12
ENDBRANCH   4   6
ENDBRANCH   3   4
ENDBRANCH   2   3
ENDBRANCH   1   2
BRANCH   1  62
ATOM     62  O   UNL A   1      41.327  20.364  26.386  1.00  0.00    -0.458 OA
BRANCH  62  63
ATOM     63  C   UNL A   1      41.237  21.576  26.995  1.00  0.00     0.338 C 
ATOM     64  O   UNL A   1      42.083  22.128  27.672  1.00  0.00    -0.246 OA
BRANCH  63  65
ATOM     65  C   UNL A   1      39.956  22.192  26.601  1.00  0.00     0.063 A 
ATOM     66  C   UNL A   1      39.685  23.507  26.985  1.00  0.00     0.016 A 
ATOM     67  C   UNL A   1      39.056  21.473  25.807  1.00  0.00     0.062 A 
ATOM     68  C   UNL A   1      38.514  24.117  26.544  1.00  0.00     0.005 A 
ATOM     69  C   UNL A   1      37.894  22.083  25.351  1.00  0.00     0.120 A 
ATOM     70  C   UNL A   1      37.622  23.405  25.737  1.00  0.00     0.046 A 
BRANCH  69  71
ATOM     71  O   UNL A   1      36.991  21.530  24.487  1.00  0.00    -0.488 OA
BRANCH  71  72
ATOM     72  C   UNL A   1      35.987  20.644  25.002  1.00  0.00     0.302 C 
BRANCH  72  73
ATOM     73  C   UNL A   1      34.598  21.257  25.169  1.00  0.00     0.379 C 
ATOM     74  F   UNL A   1      33.817  21.015  24.086  1.00  0.00    -0.207 F 
ATOM     75  F   UNL A   1      33.976  20.655  26.219  1.00  0.00    -0.207 F 
ENDBRANCH  72  73
ENDBRANCH  71  72
ENDBRANCH  69  71
ENDBRANCH  63  65
ENDBRANCH  62  63
ENDBRANCH   1  62
TORSDOF 14
ENDMDL
MODEL 3
REMARK VINA RESULT:     -10.4      5.013     11.131
REMARK SMILES O=C(OCCOC(=O)c1cccc(OCC(F)F)c1)c1ccc(-c2c3nc(c(-c4c(F)cccc4F)c4ccc([nH]4)c(-c4c(F)cccc4F)c4nc(c(-c5c(F)cccc5F)c5ccc2[nH]5)C=C4)C=C3)cc1
REMARK SMILES IDX 5 1 4 2 3 3 2 4 1 5 20 6 21 7 73 8 22 9 72 10 23 11 24 12
REMARK SMILES IDX 25 13 66 14 26 15 71 16 65 17 67 18 27 19 70 20 64 21 63 22
REMARK SMILES IDX 28 24 54 25 37 26 53 27 38 28 41 29 52 30 68 31 39 32 40 33
REMARK SMILES IDX 51 35 69 36 42 37 29 38 30 39 35 40 31 41 32 42 34 43 36 44
REMARK SMILES IDX 33 45 55 46 56 47 61 48 57 49 58 50 60 51 62 52 59 53 43 54
REMARK SMILES IDX 44 55 49 56 45 57 46 58 48 59 50 60 47 61 6 62 7 63 8 64
REMARK SMILES IDX 9 65 10 66 19 67 11 68 13 69 12 70 14 71 15 72 16 73 17 74
REMARK SMILES IDX 18 75
REMARK H PARENT 67 23 41 34
REMARK Flexibility Score: inf
ROOT
ATOM      1  C   UNL A   1      33.486  34.915  29.051  1.00  0.00     0.275 C 
ENDROOT
BRANCH   1   2
ATOM      2  C   UNL A   1      33.162  33.851  28.002  1.00  0.00     0.275 C 
BRANCH   2   3
ATOM      3  O   UNL A   1      34.277  32.990  27.711  1.00  0.00    -0.458 OA
BRANCH   3   4
ATOM      4  C   UNL A   1      34.455  31.659  27.853  1.00  0.00     0.338 C 
ATOM      5  O   UNL A   1      33.489  30.930  27.620  1.00  0.00    -0.246 OA
BRANCH   4   6
ATOM      6  C   UNL A   1      35.724  30.976  28.292  1.00  0.00     0.060 A 
ATOM      7  C   UNL A   1      35.847  29.703  28.849  1.00  0.00     0.016 A 
ATOM      8  C   UNL A   1      36.916  31.714  28.111  1.00  0.00     0.016 A 
ATOM      9  C   UNL A   1      37.094  29.198  29.244  1.00  0.00     0.010 A 
ATOM     10  C   UNL A   1      38.168  31.210  28.485  1.00  0.00     0.010 A 
ATOM     11  C   UNL A   1      38.258  29.953  29.081  1.00  0.00    -0.014 A 
BRANCH  11  12
ATOM     12  C   UNL A   1      39.536  29.434  29.622  1.00  0.00     0.031 A 
ATOM     13  C   UNL A   1      40.006  29.904  30.957  1.00  0.00     0.074 A 
ATOM     14  C   UNL A   1      40.238  28.512  28.944  1.00  0.00     0.049 A 
ATOM     15  N   UNL A   1      41.028  29.490  31.656  1.00  0.00    -0.248 NA
ATOM     16  C   UNL A   1      39.250  31.007  31.568  1.00  0.00     0.031 C 
ATOM     17  C   UNL A   1      39.901  28.070  27.603  1.00  0.00     0.029 A 
ATOM     18  N   UNL A   1      41.340  27.765  29.271  1.00  0.00    -0.354 N 
ATOM     19  C   UNL A   1      41.071  30.315  32.768  1.00  0.00     0.074 A 
ATOM     20  C   UNL A   1      39.963  31.241  32.657  1.00  0.00     0.031 C 
ATOM     21  C   UNL A   1      40.717  27.068  27.245  1.00  0.00     0.029 A 
ATOM     22  C   UNL A   1      41.629  26.789  28.343  1.00  0.00     0.049 A 
ATOM     23  H   UNL A   1      41.871  27.910  30.087  1.00  0.00     0.167 HD
ATOM     24  C   UNL A   1      41.982  30.314  33.769  1.00  0.00     0.037 A 
ATOM     25  C   UNL A   1      42.496  25.760  28.399  1.00  0.00     0.037 A 
ATOM     26  C   UNL A   1      43.089  29.398  33.839  1.00  0.00     0.049 A 
ATOM     27  C   UNL A   1      43.400  25.682  29.596  1.00  0.00     0.074 A 
ATOM     28  C   UNL A   1      44.104  29.334  34.775  1.00  0.00     0.029 A 
ATOM     29  N   UNL A   1      43.327  28.383  32.921  1.00  0.00    -0.354 N 
ATOM     30  N   UNL A   1      43.425  26.457  30.654  1.00  0.00    -0.248 NA
ATOM     31  C   UNL A   1      44.422  24.629  29.591  1.00  0.00     0.031 C 
ATOM     32  C   UNL A   1      44.972  28.298  34.408  1.00  0.00     0.029 A 
ATOM     33  C   UNL A   1      44.475  27.689  33.265  1.00  0.00     0.049 A 
ATOM     34  H   UNL A   1      42.761  28.185  32.140  1.00  0.00     0.167 HD
ATOM     35  C   UNL A   1      44.491  26.015  31.421  1.00  0.00     0.074 A 
ATOM     36  C   UNL A   1      45.037  24.854  30.744  1.00  0.00     0.031 C 
ATOM     37  C   UNL A   1      45.003  26.550  32.555  1.00  0.00     0.037 A 
BRANCH  24  38
ATOM     38  C   UNL A   1      41.839  31.394  34.797  1.00  0.00     0.057 A 
ATOM     39  C   UNL A   1      42.555  32.596  34.719  1.00  0.00     0.134 A 
ATOM     40  C   UNL A   1      41.029  31.194  35.922  1.00  0.00     0.134 A 
ATOM     41  F   UNL A   1      43.374  32.833  33.684  1.00  0.00    -0.206 F 
ATOM     42  C   UNL A   1      42.500  33.544  35.744  1.00  0.00     0.040 A 
ATOM     43  C   UNL A   1      40.946  32.145  36.940  1.00  0.00     0.040 A 
ATOM     44  F   UNL A   1      40.326  30.060  36.062  1.00  0.00    -0.206 F 
ATOM     45  C   UNL A   1      41.693  33.318  36.858  1.00  0.00     0.006 A 
ENDBRANCH  24  38
BRANCH  25  46
ATOM     46  C   UNL A   1      42.511  24.703  27.349  1.00  0.00     0.057 A 
ATOM     47  C   UNL A   1      41.811  23.502  27.536  1.00  0.00     0.134 A 
ATOM     48  C   UNL A   1      43.203  24.850  26.140  1.00  0.00     0.134 A 
ATOM     49  F   UNL A   1      41.135  23.287  28.675  1.00  0.00    -0.206 F 
ATOM     50  C   UNL A   1      41.806  22.490  26.574  1.00  0.00     0.040 A 
ATOM     51  C   UNL A   1      43.181  23.858  25.155  1.00  0.00     0.040 A 
ATOM     52  F   UNL A   1      43.892  25.971  25.887  1.00  0.00    -0.206 F 
ATOM     53  C   UNL A   1      42.488  22.670  25.374  1.00  0.00     0.006 A 
ENDBRANCH  25  46
BRANCH  37  54
ATOM     54  C   UNL A   1      46.240  25.901  33.095  1.00  0.00     0.057 A 
ATOM     55  C   UNL A   1      47.516  26.311  32.684  1.00  0.00     0.134 A 
ATOM     56  C   UNL A   1      46.159  24.880  34.049  1.00  0.00     0.134 A 
ATOM     57  F   UNL A   1      47.655  27.276  31.760  1.00  0.00    -0.206 F 
ATOM     58  C   UNL A   1      48.670  25.712  33.186  1.00  0.00     0.040 A 
ATOM     59  C   UNL A   1      47.307  24.289  34.576  1.00  0.00     0.040 A 
ATOM     60  F   UNL A   1      44.966  24.447  34.483  1.00  0.00    -0.206 F 
ATOM     61  C   UNL A   1      48.566  24.701  34.140  1.00  0.00     0.006 A 
ENDBRANCH  37  54
ENDBRANCH  11  12
ENDBRANCH   4   6
ENDBRANCH   3   4
ENDBRANCH   2   3
ENDBRANCH   1   2
BRANCH   1  62
ATOM     62  O   UNL A   1      33.173  34.484  30.382  1.00  0.00    -0.458 OA
BRANCH  62  63
ATOM     63  C   UNL A   1      33.925  35.031  31.373  1.00  0.00     0.338 C 
ATOM     64  O   UNL A   1      33.941  36.192  31.736  1.00  0.00    -0.246 OA
BRANCH  63  65
ATOM     65  C   UNL A   1      34.661  33.941  32.043  1.00  0.00     0.063 A 
ATOM     66  C   UNL A   1      35.040  32.819  31.302  1.00  0.00     0.016 A 
ATOM     67  C   UNL A   1      35.014  34.069  33.390  1.00  0.00     0.062 A 
ATOM     68  C   UNL A   1      35.806  31.829  31.912  1.00  0.00     0.005 A 
ATOM     69  C   UNL A   1      35.792  33.091  33.998  1.00  0.00     0.120 A 
ATOM     70  C   UNL A   1      36.173  31.964  33.254  1.00  0.00     0.046 A 
BRANCH  69  71
ATOM     71  O   UNL A   1      36.292  33.148  35.269  1.00  0.00    -0.488 OA
BRANCH  71  72
ATOM     72  C   UNL A   1      37.713  33.136  35.458  1.00  0.00     0.302 C 
BRANCH  72  73
ATOM     73  C   UNL A   1      38.447  34.387  34.979  1.00  0.00     0.379 C 
ATOM     74  F   UNL A   1      38.978  35.078  36.019  1.00  0.00    -0.207 F 
ATOM     75  F   UNL A   1      39.503  34.009  34.208  1.00  0.00    -0.207 F 
ENDBRANCH  72  73
ENDBRANCH  71  72
ENDBRANCH  69  71
ENDBRANCH  63  65
ENDBRANCH  62  63
ENDBRANCH   1  62
TORSDOF 14
ENDMDL
