MODEL 1
REMARK VINA RESULT:     -11.4      0.000      0.000
REMARK SMILES Cc1noc2c1-c1c(c(C(=O)OCCOC(=O)c3ccc(-c4c5nc(c(-c6c(F)cccc6F)c6ccc([nH]6)c(-c6c(F)cccc6F)c6nc(c(-c7c(F)cccc7F)c7ccc4[nH]7)C=C6)C=C5)cc3)nn1C)CC2
REMARK SMILES IDX 14 1 13 2 12 3 10 4 11 5 9 6 1 7 2 8 3 9 6 10 4 11 5 12 7 13
REMARK SMILES IDX 76 14 8 15 73 16 75 17 72 18 74 19 15 20 16 21 17 22 18 23
REMARK SMILES IDX 19 24 71 25 20 26 70 27 21 28 22 29 23 30 64 31 24 32 69 33
REMARK SMILES IDX 63 34 65 35 25 36 68 37 62 38 61 39 26 41 52 42 35 43 51 44
REMARK SMILES IDX 36 45 39 46 50 47 66 48 37 49 38 50 49 52 67 53 40 54 27 55
REMARK SMILES IDX 28 56 33 57 29 58 30 59 32 60 34 61 31 62 53 63 54 64 59 65
REMARK SMILES IDX 55 66 56 67 58 68 60 69 57 70 41 71 42 72 47 73 43 74 44 75
REMARK SMILES IDX 46 76 48 77 45 78
REMARK H PARENT 65 40 39 51
REMARK Flexibility Score: inf
ROOT
ATOM      1  C   UNL A   1      44.255  18.771  25.328  1.00  0.00     0.275 C 
ENDROOT
BRANCH   1   2
ATOM      2  C   UNL A   1      42.985  18.620  26.151  1.00  0.00     0.275 C 
BRANCH   2   3
ATOM      3  O   UNL A   1      41.874  19.245  25.492  1.00  0.00    -0.457 OA
BRANCH   3   4
ATOM      4  C   UNL A   1      41.305  20.313  26.134  1.00  0.00     0.359 C 
ATOM      5  O   UNL A   1      41.939  21.088  26.847  1.00  0.00    -0.244 OA
BRANCH   4   6
ATOM      6  C   UNL A   1      39.871  20.461  25.819  1.00  0.00     0.174 A 
ATOM      7  C   UNL A   1      34.379  21.277  24.726  1.00  0.00     0.071 C 
ATOM      8  C   UNL A   1      35.352  22.321  25.111  1.00  0.00     0.090 A 
ATOM      9  N   UNL A   1      34.932  23.599  25.183  1.00  0.00    -0.084 NA
ATOM     10  C   UNL A   1      36.713  22.225  25.449  1.00  0.00     0.066 A 
ATOM     11  O   UNL A   1      36.032  24.351  25.567  1.00  0.00    -0.360 OA
ATOM     12  C   UNL A   1      37.080  23.519  25.730  1.00  0.00     0.146 A 
ATOM     13  C   UNL A   1      37.788  21.215  25.531  1.00  0.00     0.077 A 
ATOM     14  C   UNL A   1      38.422  24.052  26.074  1.00  0.00     0.084 C 
ATOM     15  C   UNL A   1      39.025  21.586  26.038  1.00  0.00     0.014 A 
ATOM     16  N   UNL A   1      37.898  19.907  25.179  1.00  0.00    -0.267 N 
ATOM     17  C   UNL A   1      39.293  22.925  26.677  1.00  0.00     0.048 C 
ATOM     18  N   UNL A   1      39.163  19.448  25.270  1.00  0.00    -0.165 NA
ATOM     19  C   UNL A   1      36.879  19.014  24.693  1.00  0.00     0.174 C 
ENDBRANCH   4   6
ENDBRANCH   3   4
ENDBRANCH   2   3
ENDBRANCH   1   2
BRANCH   1  20
ATOM     20  O   UNL A   1      44.813  20.073  25.479  1.00  0.00    -0.458 OA
BRANCH  20  21
ATOM     21  C   UNL A   1      44.636  20.903  24.426  1.00  0.00     0.338 C 
ATOM     22  O   UNL A   1      44.615  20.600  23.245  1.00  0.00    -0.246 OA
BRANCH  21  23
ATOM     23  C   UNL A   1      44.734  22.286  24.902  1.00  0.00     0.060 A 
ATOM     24  C   UNL A   1      45.577  22.547  25.985  1.00  0.00     0.016 A 
ATOM     25  C   UNL A   1      43.782  23.216  24.462  1.00  0.00     0.016 A 
ATOM     26  C   UNL A   1      45.363  23.693  26.724  1.00  0.00     0.010 A 
ATOM     27  C   UNL A   1      43.545  24.335  25.217  1.00  0.00     0.010 A 
ATOM     28  C   UNL A   1      44.301  24.532  26.371  1.00  0.00    -0.014 A 
BRANCH  28  29
ATOM     29  C   UNL A   1      44.078  25.738  27.140  1.00  0.00     0.031 A 
ATOM     30  C   UNL A   1      45.085  26.785  26.853  1.00  0.00     0.074 A 
ATOM     31  C   UNL A   1      42.961  25.927  27.868  1.00  0.00     0.049 A 
ATOM     32  N   UNL A   1      45.954  27.290  27.662  1.00  0.00    -0.248 NA
ATOM     33  C   UNL A   1      45.259  27.200  25.449  1.00  0.00     0.031 C 
ATOM     34  C   UNL A   1      41.780  25.062  27.930  1.00  0.00     0.029 A 
ATOM     35  N   UNL A   1      42.592  27.000  28.617  1.00  0.00    -0.354 N 
ATOM     36  C   UNL A   1      46.623  28.259  26.918  1.00  0.00     0.074 A 
ATOM     37  C   UNL A   1      46.323  27.997  25.539  1.00  0.00     0.031 C 
ATOM     38  C   UNL A   1      40.755  25.748  28.484  1.00  0.00     0.029 A 
ATOM     39  C   UNL A   1      41.235  27.051  28.912  1.00  0.00     0.049 A 
ATOM     40  H   UNL A   1      43.231  27.683  28.925  1.00  0.00     0.167 HD
ATOM     41  C   UNL A   1      47.081  29.388  27.520  1.00  0.00     0.037 A 
ATOM     42  C   UNL A   1      40.555  28.122  29.396  1.00  0.00     0.037 A 
ATOM     43  C   UNL A   1      47.234  29.189  28.942  1.00  0.00     0.049 A 
ATOM     44  C   UNL A   1      41.552  29.073  29.948  1.00  0.00     0.074 A 
ATOM     45  C   UNL A   1      47.919  28.286  29.733  1.00  0.00     0.029 A 
ATOM     46  N   UNL A   1      46.312  29.782  29.769  1.00  0.00    -0.354 N 
ATOM     47  N   UNL A   1      42.248  28.860  31.028  1.00  0.00    -0.248 NA
ATOM     48  C   UNL A   1      42.090  30.086  29.051  1.00  0.00     0.031 C 
ATOM     49  C   UNL A   1      47.069  28.052  30.854  1.00  0.00     0.029 A 
ATOM     50  C   UNL A   1      45.945  28.867  30.717  1.00  0.00     0.049 A 
ATOM     51  H   UNL A   1      45.975  30.703  29.693  1.00  0.00     0.167 HD
ATOM     52  C   UNL A   1      43.510  29.359  30.736  1.00  0.00     0.074 A 
ATOM     53  C   UNL A   1      43.322  30.197  29.554  1.00  0.00     0.031 C 
ATOM     54  C   UNL A   1      44.624  28.808  31.298  1.00  0.00     0.037 A 
BRANCH  41  55
ATOM     55  C   UNL A   1      46.923  30.768  26.911  1.00  0.00     0.057 A 
ATOM     56  C   UNL A   1      48.023  31.642  26.948  1.00  0.00     0.134 A 
ATOM     57  C   UNL A   1      45.689  31.380  26.600  1.00  0.00     0.134 A 
ATOM     58  F   UNL A   1      49.253  31.187  27.228  1.00  0.00    -0.206 F 
ATOM     59  C   UNL A   1      47.885  33.029  26.812  1.00  0.00     0.040 A 
ATOM     60  C   UNL A   1      45.550  32.757  26.408  1.00  0.00     0.040 A 
ATOM     61  F   UNL A   1      44.530  30.717  26.559  1.00  0.00    -0.206 F 
ATOM     62  C   UNL A   1      46.643  33.592  26.556  1.00  0.00     0.006 A 
ENDBRANCH  41  55
BRANCH  42  63
ATOM     63  C   UNL A   1      39.147  28.524  29.162  1.00  0.00     0.057 A 
ATOM     64  C   UNL A   1      38.223  28.568  30.219  1.00  0.00     0.134 A 
ATOM     65  C   UNL A   1      38.735  29.136  27.965  1.00  0.00     0.134 A 
ATOM     66  F   UNL A   1      38.532  28.046  31.416  1.00  0.00    -0.206 F 
ATOM     67  C   UNL A   1      36.981  29.207  30.103  1.00  0.00     0.040 A 
ATOM     68  C   UNL A   1      37.493  29.768  27.832  1.00  0.00     0.040 A 
ATOM     69  F   UNL A   1      39.558  29.225  26.911  1.00  0.00    -0.206 F 
ATOM     70  C   UNL A   1      36.618  29.820  28.908  1.00  0.00     0.006 A 
ENDBRANCH  42  63
BRANCH  54  71
ATOM     71  C   UNL A   1      44.438  27.884  32.467  1.00  0.00     0.057 A 
ATOM     72  C   UNL A   1      44.210  26.504  32.361  1.00  0.00     0.134 A 
ATOM     73  C   UNL A   1      44.625  28.398  33.755  1.00  0.00     0.134 A 
ATOM     74  F   UNL A   1      44.118  25.904  31.168  1.00  0.00    -0.206 F 
ATOM     75  C   UNL A   1      44.122  25.684  33.490  1.00  0.00     0.040 A 
ATOM     76  C   UNL A   1      44.576  27.584  34.888  1.00  0.00     0.040 A 
ATOM     77  F   UNL A   1      44.901  29.700  33.930  1.00  0.00    -0.206 F 
ATOM     78  C   UNL A   1      44.311  26.224  34.760  1.00  0.00     0.006 A 
ENDBRANCH  54  71
ENDBRANCH  28  29
ENDBRANCH  21  23
ENDBRANCH  20  21
ENDBRANCH   1  20
TORSDOF 11
ENDMDL
MODEL 2
REMARK VINA RESULT:     -11.0      4.807     10.447
REMARK SMILES Cc1noc2c1-c1c(c(C(=O)OCCOC(=O)c3ccc(-c4c5nc(c(-c6c(F)cccc6F)c6ccc([nH]6)c(-c6c(F)cccc6F)c6nc(c(-c7c(F)cccc7F)c7ccc4[nH]7)C=C6)C=C5)cc3)nn1C)CC2
REMARK SMILES IDX 14 1 13 2 12 3 10 4 11 5 9 6 1 7 2 8 3 9 6 10 4 11 5 12 7 13
REMARK SMILES IDX 76 14 8 15 73 16 75 17 72 18 74 19 15 20 16 21 17 22 18 23
REMARK SMILES IDX 19 24 71 25 20 26 70 27 21 28 22 29 23 30 64 31 24 32 69 33
REMARK SMILES IDX 63 34 65 35 25 36 68 37 62 38 61 39 26 41 52 42 35 43 51 44
REMARK SMILES IDX 36 45 39 46 50 47 66 48 37 49 38 50 49 52 67 53 40 54 27 55
REMARK SMILES IDX 28 56 33 57 29 58 30 59 32 60 34 61 31 62 53 63 54 64 59 65
REMARK SMILES IDX 55 66 56 67 58 68 60 69 57 70 41 71 42 72 47 73 43 74 44 75
REMARK SMILES IDX 46 76 48 77 45 78
REMARK H PARENT 65 40 39 51
REMARK Flexibility Score: inf
ROOT
ATOM      1  C   UNL A   1      32.793  35.766  31.815  1.00  0.00     0.275 C 
ENDROOT
BRANCH   1   2
ATOM      2  C   UNL A   1      33.223  35.886  30.361  1.00  0.00     0.275 C 
BRANCH   2   3
ATOM      3  O   UNL A   1      32.806  34.736  29.610  1.00  0.00    -0.457 OA
BRANCH   3   4
ATOM      4  C   UNL A   1      33.768  34.113  28.860  1.00  0.00     0.359 C 
ATOM      5  O   UNL A   1      34.966  34.381  28.941  1.00  0.00    -0.244 OA
BRANCH   4   6
ATOM      6  C   UNL A   1      33.213  33.051  28.001  1.00  0.00     0.174 A 
ATOM      7  C   UNL A   1      31.319  28.837  24.732  1.00  0.00     0.071 C 
ATOM      8  C   UNL A   1      32.499  28.783  25.620  1.00  0.00     0.090 A 
ATOM      9  N   UNL A   1      33.186  27.629  25.710  1.00  0.00    -0.084 NA
ATOM     10  C   UNL A   1      33.082  29.773  26.431  1.00  0.00     0.066 A 
ATOM     11  O   UNL A   1      34.230  27.862  26.593  1.00  0.00    -0.360 OA
ATOM     12  C   UNL A   1      34.159  29.143  27.006  1.00  0.00     0.146 A 
ATOM     13  C   UNL A   1      32.852  31.173  26.846  1.00  0.00     0.077 A 
ATOM     14  C   UNL A   1      35.112  29.666  28.017  1.00  0.00     0.084 C 
ATOM     15  C   UNL A   1      33.803  31.807  27.632  1.00  0.00     0.014 A 
ATOM     16  N   UNL A   1      31.847  32.069  26.667  1.00  0.00    -0.267 N 
ATOM     17  C   UNL A   1      35.150  31.211  27.950  1.00  0.00     0.048 C 
ATOM     18  N   UNL A   1      32.002  33.181  27.414  1.00  0.00    -0.165 NA
ATOM     19  C   UNL A   1      30.666  31.950  25.852  1.00  0.00     0.174 C 
ENDBRANCH   4   6
ENDBRANCH   3   4
ENDBRANCH   2   3
ENDBRANCH   1   2
BRANCH   1  20
ATOM     20  O   UNL A   1      33.356  34.607  32.423  1.00  0.00    -0.458 OA
BRANCH  20  21
ATOM     21  C   UNL A   1      34.516  34.810  33.088  1.00  0.00     0.338 C 
ATOM     22  O   UNL A   1      34.730  35.634  33.961  1.00  0.00    -0.246 OA
BRANCH  21  23
ATOM     23  C   UNL A   1      35.578  34.058  32.414  1.00  0.00     0.060 A 
ATOM     24  C   UNL A   1      35.396  32.683  32.240  1.00  0.00     0.016 A 
ATOM     25  C   UNL A   1      36.828  34.669  32.241  1.00  0.00     0.016 A 
ATOM     26  C   UNL A   1      36.509  31.894  32.034  1.00  0.00     0.010 A 
ATOM     27  C   UNL A   1      37.937  33.881  32.073  1.00  0.00     0.010 A 
ATOM     28  C   UNL A   1      37.771  32.499  32.027  1.00  0.00    -0.014 A 
BRANCH  28  29
ATOM     29  C   UNL A   1      38.940  31.674  31.805  1.00  0.00     0.031 A 
ATOM     30  C   UNL A   1      39.660  31.367  33.061  1.00  0.00     0.074 A 
ATOM     31  C   UNL A   1      39.198  31.104  30.613  1.00  0.00     0.049 A 
ATOM     32  N   UNL A   1      40.858  31.717  33.393  1.00  0.00    -0.248 NA
ATOM     33  C   UNL A   1      38.895  30.736  34.153  1.00  0.00     0.031 C 
ATOM     34  C   UNL A   1      38.347  31.106  29.420  1.00  0.00     0.029 A 
ATOM     35  N   UNL A   1      40.227  30.291  30.251  1.00  0.00    -0.354 N 
ATOM     36  C   UNL A   1      41.071  31.141  34.642  1.00  0.00     0.074 A 
ATOM     37  C   UNL A   1      39.781  30.764  35.147  1.00  0.00     0.031 C 
ATOM     38  C   UNL A   1      38.782  30.156  28.562  1.00  0.00     0.029 A 
ATOM     39  C   UNL A   1      39.997  29.560  29.091  1.00  0.00     0.049 A 
ATOM     40  H   UNL A   1      41.063  30.225  30.767  1.00  0.00     0.167 HD
ATOM     41  C   UNL A   1      42.313  30.717  34.998  1.00  0.00     0.037 A 
ATOM     42  C   UNL A   1      40.715  28.493  28.656  1.00  0.00     0.037 A 
ATOM     43  C   UNL A   1      43.328  31.374  34.209  1.00  0.00     0.049 A 
ATOM     44  C   UNL A   1      42.011  28.500  29.380  1.00  0.00     0.074 A 
ATOM     45  C   UNL A   1      43.665  32.690  33.953  1.00  0.00     0.029 A 
ATOM     46  N   UNL A   1      43.953  30.635  33.235  1.00  0.00    -0.354 N 
ATOM     47  N   UNL A   1      42.953  29.379  29.189  1.00  0.00    -0.248 NA
ATOM     48  C   UNL A   1      42.087  27.770  30.637  1.00  0.00     0.031 C 
ATOM     49  C   UNL A   1      44.079  32.711  32.588  1.00  0.00     0.029 A 
ATOM     50  C   UNL A   1      44.029  31.403  32.106  1.00  0.00     0.049 A 
ATOM     51  H   UNL A   1      44.287  29.715  33.333  1.00  0.00     0.167 HD
ATOM     52  C   UNL A   1      43.455  29.635  30.456  1.00  0.00     0.074 A 
ATOM     53  C   UNL A   1      42.963  28.540  31.288  1.00  0.00     0.031 C 
ATOM     54  C   UNL A   1      43.967  30.861  30.769  1.00  0.00     0.037 A 
BRANCH  41  55
ATOM     55  C   UNL A   1      42.563  29.392  35.691  1.00  0.00     0.057 A 
ATOM     56  C   UNL A   1      43.513  29.351  36.727  1.00  0.00     0.134 A 
ATOM     57  C   UNL A   1      42.179  28.128  35.191  1.00  0.00     0.134 A 
ATOM     58  F   UNL A   1      43.961  30.482  37.293  1.00  0.00    -0.206 F 
ATOM     59  C   UNL A   1      44.121  28.161  37.143  1.00  0.00     0.040 A 
ATOM     60  C   UNL A   1      42.741  26.930  35.637  1.00  0.00     0.040 A 
ATOM     61  F   UNL A   1      41.318  27.971  34.181  1.00  0.00    -0.206 F 
ATOM     62  C   UNL A   1      43.747  26.946  36.587  1.00  0.00     0.006 A 
ENDBRANCH  41  55
BRANCH  42  63
ATOM     63  C   UNL A   1      40.263  27.310  27.885  1.00  0.00     0.057 A 
ATOM     64  C   UNL A   1      40.783  27.038  26.609  1.00  0.00     0.134 A 
ATOM     65  C   UNL A   1      39.526  26.271  28.478  1.00  0.00     0.134 A 
ATOM     66  F   UNL A   1      41.535  27.948  25.971  1.00  0.00    -0.206 F 
ATOM     67  C   UNL A   1      40.607  25.800  25.976  1.00  0.00     0.040 A 
ATOM     68  C   UNL A   1      39.332  25.034  27.852  1.00  0.00     0.040 A 
ATOM     69  F   UNL A   1      39.043  26.383  29.724  1.00  0.00    -0.206 F 
ATOM     70  C   UNL A   1      39.888  24.788  26.604  1.00  0.00     0.006 A 
ENDBRANCH  42  63
BRANCH  54  71
ATOM     71  C   UNL A   1      44.270  31.804  29.639  1.00  0.00     0.057 A 
ATOM     72  C   UNL A   1      43.369  32.755  29.135  1.00  0.00     0.134 A 
ATOM     73  C   UNL A   1      45.572  31.833  29.130  1.00  0.00     0.134 A 
ATOM     74  F   UNL A   1      42.131  32.872  29.630  1.00  0.00    -0.206 F 
ATOM     75  C   UNL A   1      43.738  33.658  28.133  1.00  0.00     0.040 A 
ATOM     76  C   UNL A   1      45.964  32.754  28.156  1.00  0.00     0.040 A 
ATOM     77  F   UNL A   1      46.503  30.989  29.604  1.00  0.00    -0.206 F 
ATOM     78  C   UNL A   1      45.041  33.663  27.644  1.00  0.00     0.006 A 
ENDBRANCH  54  71
ENDBRANCH  28  29
ENDBRANCH  21  23
ENDBRANCH  20  21
ENDBRANCH   1  20
TORSDOF 11
ENDMDL
MODEL 3
REMARK VINA RESULT:     -10.8      2.307      6.395
REMARK SMILES Cc1noc2c1-c1c(c(C(=O)OCCOC(=O)c3ccc(-c4c5nc(c(-c6c(F)cccc6F)c6ccc([nH]6)c(-c6c(F)cccc6F)c6nc(c(-c7c(F)cccc7F)c7ccc4[nH]7)C=C6)C=C5)cc3)nn1C)CC2
REMARK SMILES IDX 14 1 13 2 12 3 10 4 11 5 9 6 1 7 2 8 3 9 6 10 4 11 5 12 7 13
REMARK SMILES IDX 76 14 8 15 73 16 75 17 72 18 74 19 15 20 16 21 17 22 18 23
REMARK SMILES IDX 19 24 71 25 20 26 70 27 21 28 22 29 23 30 64 31 24 32 69 33
REMARK SMILES IDX 63 34 65 35 25 36 68 37 62 38 61 39 26 41 52 42 35 43 51 44
REMARK SMILES IDX 36 45 39 46 50 47 66 48 37 49 38 50 49 52 67 53 40 54 27 55
REMARK SMILES IDX 28 56 33 57 29 58 30 59 32 60 34 61 31 62 53 63 54 64 59 65
REMARK SMILES IDX 55 66 56 67 58 68 60 69 57 70 41 71 42 72 47 73 43 74 44 75
REMARK SMILES IDX 46 76 48 77 45 78
REMARK H PARENT 65 40 39 51
REMARK Flexibility Score: inf
ROOT
ATOM      1  C   UNL A   1      38.597  19.362  25.553  1.00  0.00     0.275 C 
ENDROOT
BRANCH   1   2
ATOM      2  C   UNL A   1      37.369  20.031  24.956  1.00  0.00     0.275 C 
BRANCH   2   3
ATOM      3  O   UNL A   1      37.677  21.363  24.518  1.00  0.00    -0.457 OA
BRANCH   3   4
ATOM      4  C   UNL A   1      37.391  22.376  25.395  1.00  0.00     0.359 C 
ATOM      5  O   UNL A   1      38.188  22.786  26.236  1.00  0.00    -0.244 OA
BRANCH   4   6
ATOM      6  C   UNL A   1      36.053  22.954  25.170  1.00  0.00     0.174 A 
ATOM      7  C   UNL A   1      30.822  25.011  24.506  1.00  0.00     0.071 C 
ATOM      8  C   UNL A   1      31.307  24.227  25.661  1.00  0.00     0.090 A 
ATOM      9  N   UNL A   1      30.461  23.996  26.683  1.00  0.00    -0.084 NA
ATOM     10  C   UNL A   1      32.557  23.632  25.906  1.00  0.00     0.066 A 
ATOM     11  O   UNL A   1      31.165  23.244  27.611  1.00  0.00    -0.360 OA
ATOM     12  C   UNL A   1      32.406  23.028  27.131  1.00  0.00     0.146 A 
ATOM     13  C   UNL A   1      33.897  23.525  25.292  1.00  0.00     0.077 A 
ATOM     14  C   UNL A   1      33.417  22.306  27.943  1.00  0.00     0.084 C 
ATOM     15  C   UNL A   1      34.845  22.702  25.882  1.00  0.00     0.014 A 
ATOM     16  N   UNL A   1      34.503  24.097  24.220  1.00  0.00    -0.267 N 
ATOM     17  C   UNL A   1      34.538  21.768  27.024  1.00  0.00     0.048 C 
ATOM     18  N   UNL A   1      35.825  23.831  24.166  1.00  0.00    -0.165 NA
ATOM     19  C   UNL A   1      33.938  24.958  23.214  1.00  0.00     0.174 C 
ENDBRANCH   4   6
ENDBRANCH   3   4
ENDBRANCH   2   3
ENDBRANCH   1   2
BRANCH   1  20
ATOM     20  O   UNL A   1      39.786  20.063  25.201  1.00  0.00    -0.458 OA
BRANCH  20  21
ATOM     21  C   UNL A   1      40.925  19.577  25.744  1.00  0.00     0.338 C 
ATOM     22  O   UNL A   1      41.278  18.411  25.793  1.00  0.00    -0.246 OA
BRANCH  21  23
ATOM     23  C   UNL A   1      41.566  20.646  26.515  1.00  0.00     0.060 A 
ATOM     24  C   UNL A   1      41.210  20.788  27.859  1.00  0.00     0.016 A 
ATOM     25  C   UNL A   1      42.266  21.645  25.823  1.00  0.00     0.016 A 
ATOM     26  C   UNL A   1      41.431  22.004  28.473  1.00  0.00     0.010 A 
ATOM     27  C   UNL A   1      42.452  22.864  26.422  1.00  0.00     0.010 A 
ATOM     28  C   UNL A   1      41.982  23.047  27.721  1.00  0.00    -0.014 A 
BRANCH  28  29
ATOM     29  C   UNL A   1      42.221  24.321  28.363  1.00  0.00     0.031 A 
ATOM     30  C   UNL A   1      41.130  25.291  28.116  1.00  0.00     0.074 A 
ATOM     31  C   UNL A   1      43.225  24.504  29.241  1.00  0.00     0.049 A 
ATOM     32  N   UNL A   1      41.196  26.413  27.481  1.00  0.00    -0.248 NA
ATOM     33  C   UNL A   1      39.758  24.884  28.473  1.00  0.00     0.031 C 
ATOM     34  C   UNL A   1      44.141  23.491  29.773  1.00  0.00     0.029 A 
ATOM     35  N   UNL A   1      43.565  25.619  29.942  1.00  0.00    -0.354 N 
ATOM     36  C   UNL A   1      39.918  26.957  27.571  1.00  0.00     0.074 A 
ATOM     37  C   UNL A   1      39.045  25.891  27.973  1.00  0.00     0.031 C 
ATOM     38  C   UNL A   1      44.767  23.986  30.864  1.00  0.00     0.029 A 
ATOM     39  C   UNL A   1      44.382  25.377  31.040  1.00  0.00     0.049 A 
ATOM     40  H   UNL A   1      43.259  26.521  29.694  1.00  0.00     0.167 HD
ATOM     41  C   UNL A   1      39.751  28.305  27.640  1.00  0.00     0.037 A 
ATOM     42  C   UNL A   1      44.646  26.239  32.055  1.00  0.00     0.037 A 
ATOM     43  C   UNL A   1      40.906  28.995  27.117  1.00  0.00     0.049 A 
ATOM     44  C   UNL A   1      44.272  27.600  31.594  1.00  0.00     0.074 A 
ATOM     45  C   UNL A   1      41.598  28.972  25.921  1.00  0.00     0.029 A 
ATOM     46  N   UNL A   1      41.743  29.605  28.018  1.00  0.00    -0.354 N 
ATOM     47  N   UNL A   1      44.918  28.268  30.680  1.00  0.00    -0.248 NA
ATOM     48  C   UNL A   1      42.911  28.050  31.847  1.00  0.00     0.031 C 
ATOM     49  C   UNL A   1      42.968  29.138  26.280  1.00  0.00     0.029 A 
ATOM     50  C   UNL A   1      43.031  29.313  27.662  1.00  0.00     0.049 A 
ATOM     51  H   UNL A   1      41.465  30.154  28.786  1.00  0.00     0.167 HD
ATOM     52  C   UNL A   1      43.927  28.900  29.942  1.00  0.00     0.074 A 
ATOM     53  C   UNL A   1      42.727  28.819  30.771  1.00  0.00     0.031 C 
ATOM     54  C   UNL A   1      44.105  29.159  28.614  1.00  0.00     0.037 A 
BRANCH  41  55
ATOM     55  C   UNL A   1      38.783  28.966  28.603  1.00  0.00     0.057 A 
ATOM     56  C   UNL A   1      38.851  28.613  29.962  1.00  0.00     0.134 A 
ATOM     57  C   UNL A   1      37.609  29.655  28.228  1.00  0.00     0.134 A 
ATOM     58  F   UNL A   1      39.916  27.958  30.450  1.00  0.00    -0.206 F 
ATOM     59  C   UNL A   1      37.785  28.819  30.846  1.00  0.00     0.040 A 
ATOM     60  C   UNL A   1      36.562  29.913  29.115  1.00  0.00     0.040 A 
ATOM     61  F   UNL A   1      37.350  30.034  26.973  1.00  0.00    -0.206 F 
ATOM     62  C   UNL A   1      36.629  29.457  30.420  1.00  0.00     0.006 A 
ENDBRANCH  41  55
BRANCH  42  63
ATOM     63  C   UNL A   1      44.921  25.953  33.484  1.00  0.00     0.057 A 
ATOM     64  C   UNL A   1      43.878  25.645  34.371  1.00  0.00     0.134 A 
ATOM     65  C   UNL A   1      46.220  25.702  33.957  1.00  0.00     0.134 A 
ATOM     66  F   UNL A   1      42.598  25.811  34.003  1.00  0.00    -0.206 F 
ATOM     67  C   UNL A   1      44.110  25.095  35.639  1.00  0.00     0.040 A 
ATOM     68  C   UNL A   1      46.468  25.164  35.225  1.00  0.00     0.040 A 
ATOM     69  F   UNL A   1      47.293  25.885  33.175  1.00  0.00    -0.206 F 
ATOM     70  C   UNL A   1      45.410  24.841  36.065  1.00  0.00     0.006 A 
ENDBRANCH  42  63
BRANCH  54  71
ATOM     71  C   UNL A   1      45.496  29.044  28.057  1.00  0.00     0.057 A 
ATOM     72  C   UNL A   1      46.064  27.854  27.577  1.00  0.00     0.134 A 
ATOM     73  C   UNL A   1      46.239  30.216  27.883  1.00  0.00     0.134 A 
ATOM     74  F   UNL A   1      45.388  26.698  27.608  1.00  0.00    -0.206 F 
ATOM     75  C   UNL A   1      47.336  27.827  26.998  1.00  0.00     0.040 A 
ATOM     76  C   UNL A   1      47.495  30.209  27.272  1.00  0.00     0.040 A 
ATOM     77  F   UNL A   1      45.737  31.400  28.267  1.00  0.00    -0.206 F 
ATOM     78  C   UNL A   1      48.054  29.010  26.839  1.00  0.00     0.006 A 
ENDBRANCH  54  71
ENDBRANCH  28  29
ENDBRANCH  21  23
ENDBRANCH  20  21
ENDBRANCH   1  20
TORSDOF 11
ENDMDL
