MODEL 1
REMARK VINA RESULT:     -12.0      0.000      0.000
REMARK SMILES Cc1nc(C(=O)N2C[C@@H]3CC[N@@H+](C)C[C@]3(C(=O)OCCOC(=O)c3ccc(-c4c5nc(c(-c6c(F)cccc6F)c6ccc([nH]6)c(-c6c(F)cccc6F)c6nc(c(-c7c(F)cccc7F)c7ccc4[nH]7)C=C6)C=C5)cc3)C2)cs1
REMARK SMILES IDX 19 1 18 2 16 3 17 4 15 5 7 6 8 7 78 8 9 9 10 10 14 11 11 12
REMARK SMILES IDX 12 13 13 14 5 16 6 17 4 18 1 19 2 20 3 21 80 22 79 23 20 24
REMARK SMILES IDX 21 25 22 26 23 27 24 28 25 29 77 30 26 31 76 32 27 33 28 34
REMARK SMILES IDX 29 35 70 36 30 37 75 38 69 39 71 40 31 41 74 42 68 43 67 44
REMARK SMILES IDX 32 46 58 47 41 48 57 49 42 50 45 51 56 52 72 53 43 54 44 55
REMARK SMILES IDX 55 57 73 58 46 59 33 60 34 61 39 62 35 63 36 64 38 65 40 66
REMARK SMILES IDX 37 67 59 68 60 69 65 70 61 71 62 72 64 73 66 74 63 75 47 76
REMARK SMILES IDX 48 77 53 78 49 79 50 80 52 81 54 82 51 83
REMARK H PARENT 12 15 71 45 45 56
REMARK Flexibility Score: inf
ROOT
ATOM      1  C   UNL A   1      31.993  27.322  27.039  1.00  0.00     0.274 C 
ENDROOT
BRANCH   1   2
ATOM      2  O   UNL A   1      32.181  26.451  25.888  1.00  0.00    -0.461 OA
BRANCH   2   3
ATOM      3  C   UNL A   1      31.218  25.516  25.556  1.00  0.00     0.320 C 
ATOM      4  O   UNL A   1      30.457  25.002  26.360  1.00  0.00    -0.251 OA
BRANCH   3   5
ATOM      5  C   UNL A   1      31.205  25.356  24.008  1.00  0.00     0.139 C 
ATOM      6  N   UNL A   1      31.277  27.315  22.615  1.00  0.00    -0.336 N 
ATOM      7  C   UNL A   1      32.225  26.425  22.039  1.00  0.00     0.125 C 
ATOM      8  C   UNL A   1      30.411  26.613  23.552  1.00  0.00     0.145 C 
ATOM      9  C   UNL A   1      32.508  25.381  23.113  1.00  0.00     0.039 C 
ATOM     10  C   UNL A   1      32.879  24.098  22.297  1.00  0.00     0.068 C 
ATOM     11  C   UNL A   1      30.638  23.938  23.808  1.00  0.00     0.283 C 
ATOM     12  C   UNL A   1      32.524  22.749  22.898  1.00  0.00     0.262 C 
ATOM     13  N   UNL A   1      31.671  22.888  24.064  1.00  0.00    -0.336 N 
ATOM     14  C   UNL A   1      32.558  23.062  25.230  1.00  0.00     0.332 C 
ATOM     15  H   UNL A   1      31.107  22.065  24.273  1.00  0.00     0.347 HD
BRANCH   6  16
ATOM     16  C   UNL A   1      31.538  28.676  22.641  1.00  0.00     0.273 C 
ATOM     17  O   UNL A   1      32.672  29.123  22.752  1.00  0.00    -0.267 OA
BRANCH  16  18
ATOM     18  C   UNL A   1      30.340  29.533  22.597  1.00  0.00     0.139 A 
ATOM     19  C   UNL A   1      27.916  31.312  20.505  1.00  0.00     0.079 C 
ATOM     20  C   UNL A   1      28.726  30.692  21.589  1.00  0.00     0.090 A 
ATOM     21  N   UNL A   1      29.733  29.873  21.386  1.00  0.00    -0.236 NA
ATOM     22  S   UNL A   1      28.384  31.038  23.237  1.00  0.00    -0.127 S 
ATOM     23  C   UNL A   1      29.720  30.072  23.709  1.00  0.00     0.101 A 
ENDBRANCH  16  18
ENDBRANCH   6  16
ENDBRANCH   3   5
ENDBRANCH   2   3
ENDBRANCH   1   2
BRANCH   1  24
ATOM     24  C   UNL A   1      31.394  28.687  26.580  1.00  0.00     0.275 C 
BRANCH  24  25
ATOM     25  O   UNL A   1      32.409  29.562  26.020  1.00  0.00    -0.458 OA
BRANCH  25  26
ATOM     26  C   UNL A   1      32.716  30.713  26.703  1.00  0.00     0.338 C 
ATOM     27  O   UNL A   1      31.940  31.627  26.923  1.00  0.00    -0.246 OA
BRANCH  26  28
ATOM     28  C   UNL A   1      34.125  30.674  27.236  1.00  0.00     0.060 A 
ATOM     29  C   UNL A   1      34.825  29.483  27.245  1.00  0.00     0.016 A 
ATOM     30  C   UNL A   1      34.753  31.777  27.825  1.00  0.00     0.016 A 
ATOM     31  C   UNL A   1      35.958  29.314  28.050  1.00  0.00     0.010 A 
ATOM     32  C   UNL A   1      36.015  31.638  28.473  1.00  0.00     0.010 A 
ATOM     33  C   UNL A   1      36.621  30.380  28.666  1.00  0.00    -0.014 A 
BRANCH  33  34
ATOM     34  C   UNL A   1      37.869  30.143  29.509  1.00  0.00     0.031 A 
ATOM     35  C   UNL A   1      39.097  29.452  28.933  1.00  0.00     0.074 A 
ATOM     36  C   UNL A   1      38.006  30.592  30.785  1.00  0.00     0.049 A 
ATOM     37  N   UNL A   1      40.105  28.893  29.565  1.00  0.00    -0.248 NA
ATOM     38  C   UNL A   1      39.204  29.370  27.471  1.00  0.00     0.031 C 
ATOM     39  C   UNL A   1      37.009  31.337  31.555  1.00  0.00     0.029 A 
ATOM     40  N   UNL A   1      39.077  30.523  31.659  1.00  0.00    -0.354 N 
ATOM     41  C   UNL A   1      40.884  28.281  28.589  1.00  0.00     0.074 A 
ATOM     42  C   UNL A   1      40.266  28.587  27.316  1.00  0.00     0.031 C 
ATOM     43  C   UNL A   1      37.557  31.785  32.692  1.00  0.00     0.029 A 
ATOM     44  C   UNL A   1      38.883  31.200  32.843  1.00  0.00     0.049 A 
ATOM     45  H   UNL A   1      39.906  30.033  31.452  1.00  0.00     0.167 HD
ATOM     46  C   UNL A   1      41.996  27.516  28.737  1.00  0.00     0.037 A 
ATOM     47  C   UNL A   1      39.624  31.297  33.966  1.00  0.00     0.037 A 
ATOM     48  C   UNL A   1      42.708  27.316  29.976  1.00  0.00     0.049 A 
ATOM     49  C   UNL A   1      40.868  30.471  34.118  1.00  0.00     0.074 A 
ATOM     50  C   UNL A   1      43.809  26.510  30.224  1.00  0.00     0.029 A 
ATOM     51  N   UNL A   1      42.433  27.981  31.158  1.00  0.00    -0.354 N 
ATOM     52  N   UNL A   1      41.452  29.693  33.243  1.00  0.00    -0.248 NA
ATOM     53  C   UNL A   1      41.514  30.480  35.440  1.00  0.00     0.031 C 
ATOM     54  C   UNL A   1      44.198  26.687  31.557  1.00  0.00     0.029 A 
ATOM     55  C   UNL A   1      43.353  27.620  32.131  1.00  0.00     0.049 A 
ATOM     56  H   UNL A   1      41.692  28.616  31.289  1.00  0.00     0.167 HD
ATOM     57  C   UNL A   1      42.510  29.097  33.916  1.00  0.00     0.074 A 
ATOM     58  C   UNL A   1      42.522  29.638  35.257  1.00  0.00     0.031 C 
ATOM     59  C   UNL A   1      43.372  28.155  33.464  1.00  0.00     0.037 A 
BRANCH  46  60
ATOM     60  C   UNL A   1      42.485  26.766  27.532  1.00  0.00     0.057 A 
ATOM     61  C   UNL A   1      43.446  27.280  26.658  1.00  0.00     0.134 A 
ATOM     62  C   UNL A   1      42.008  25.471  27.281  1.00  0.00     0.134 A 
ATOM     63  F   UNL A   1      43.937  28.516  26.837  1.00  0.00    -0.206 F 
ATOM     64  C   UNL A   1      43.901  26.542  25.562  1.00  0.00     0.040 A 
ATOM     65  C   UNL A   1      42.469  24.716  26.204  1.00  0.00     0.040 A 
ATOM     66  F   UNL A   1      41.096  24.914  28.093  1.00  0.00    -0.206 F 
ATOM     67  C   UNL A   1      43.416  25.254  25.336  1.00  0.00     0.006 A 
ENDBRANCH  46  60
BRANCH  47  68
ATOM     68  C   UNL A   1      39.156  32.136  35.105  1.00  0.00     0.057 A 
ATOM     69  C   UNL A   1      39.487  33.494  35.182  1.00  0.00     0.134 A 
ATOM     70  C   UNL A   1      38.386  31.600  36.145  1.00  0.00     0.134 A 
ATOM     71  F   UNL A   1      40.257  34.057  34.241  1.00  0.00    -0.206 F 
ATOM     72  C   UNL A   1      39.062  34.290  36.249  1.00  0.00     0.040 A 
ATOM     73  C   UNL A   1      37.926  32.391  37.199  1.00  0.00     0.040 A 
ATOM     74  F   UNL A   1      38.047  30.303  36.139  1.00  0.00    -0.206 F 
ATOM     75  C   UNL A   1      38.268  33.741  37.254  1.00  0.00     0.006 A 
ENDBRANCH  47  68
BRANCH  59  76
ATOM     76  C   UNL A   1      44.402  27.653  34.428  1.00  0.00     0.057 A 
ATOM     77  C   UNL A   1      44.166  26.526  35.226  1.00  0.00     0.134 A 
ATOM     78  C   UNL A   1      45.642  28.289  34.553  1.00  0.00     0.134 A 
ATOM     79  F   UNL A   1      42.990  25.884  35.164  1.00  0.00    -0.206 F 
ATOM     80  C   UNL A   1      45.124  26.058  36.127  1.00  0.00     0.040 A 
ATOM     81  C   UNL A   1      46.613  27.821  35.441  1.00  0.00     0.040 A 
ATOM     82  F   UNL A   1      45.929  29.374  33.819  1.00  0.00    -0.206 F 
ATOM     83  C   UNL A   1      46.354  26.704  36.234  1.00  0.00     0.006 A 
ENDBRANCH  59  76
ENDBRANCH  33  34
ENDBRANCH  26  28
ENDBRANCH  25  26
ENDBRANCH  24  25
ENDBRANCH   1  24
TORSDOF 13
ENDMDL
MODEL 2
REMARK VINA RESULT:     -11.8      1.115      2.087
REMARK SMILES Cc1nc(C(=O)N2C[C@@H]3CC[N@@H+](C)C[C@]3(C(=O)OCCOC(=O)c3ccc(-c4c5nc(c(-c6c(F)cccc6F)c6ccc([nH]6)c(-c6c(F)cccc6F)c6nc(c(-c7c(F)cccc7F)c7ccc4[nH]7)C=C6)C=C5)cc3)C2)cs1
REMARK SMILES IDX 19 1 18 2 16 3 17 4 15 5 7 6 8 7 78 8 9 9 10 10 14 11 11 12
REMARK SMILES IDX 12 13 13 14 5 16 6 17 4 18 1 19 2 20 3 21 80 22 79 23 20 24
REMARK SMILES IDX 21 25 22 26 23 27 24 28 25 29 77 30 26 31 76 32 27 33 28 34
REMARK SMILES IDX 29 35 70 36 30 37 75 38 69 39 71 40 31 41 74 42 68 43 67 44
REMARK SMILES IDX 32 46 58 47 41 48 57 49 42 50 45 51 56 52 72 53 43 54 44 55
REMARK SMILES IDX 55 57 73 58 46 59 33 60 34 61 39 62 35 63 36 64 38 65 40 66
REMARK SMILES IDX 37 67 59 68 60 69 65 70 61 71 62 72 64 73 66 74 63 75 47 76
REMARK SMILES IDX 48 77 53 78 49 79 50 80 52 81 54 82 51 83
REMARK H PARENT 12 15 71 45 45 56
REMARK Flexibility Score: inf
ROOT
ATOM      1  C   UNL A   1      32.062  26.777  26.528  1.00  0.00     0.274 C 
ENDROOT
BRANCH   1   2
ATOM      2  O   UNL A   1      31.950  25.891  25.380  1.00  0.00    -0.461 OA
BRANCH   2   3
ATOM      3  C   UNL A   1      31.167  24.754  25.450  1.00  0.00     0.320 C 
ATOM      4  O   UNL A   1      30.107  24.689  26.052  1.00  0.00    -0.251 OA
BRANCH   3   5
ATOM      5  C   UNL A   1      31.803  23.663  24.540  1.00  0.00     0.139 C 
ATOM      6  N   UNL A   1      32.484  24.238  22.306  1.00  0.00    -0.336 N 
ATOM      7  C   UNL A   1      33.572  23.492  22.837  1.00  0.00     0.125 C 
ATOM      8  C   UNL A   1      31.294  24.073  23.128  1.00  0.00     0.145 C 
ATOM      9  C   UNL A   1      33.361  23.484  24.346  1.00  0.00     0.039 C 
ATOM     10  C   UNL A   1      34.021  22.141  24.807  1.00  0.00     0.068 C 
ATOM     11  C   UNL A   1      31.350  22.349  25.201  1.00  0.00     0.283 C 
ATOM     12  C   UNL A   1      33.425  21.437  26.013  1.00  0.00     0.262 C 
ATOM     13  N   UNL A   1      32.164  22.031  26.415  1.00  0.00    -0.336 N 
ATOM     14  C   UNL A   1      32.481  23.135  27.341  1.00  0.00     0.332 C 
ATOM     15  H   UNL A   1      31.551  21.406  26.937  1.00  0.00     0.347 HD
BRANCH   6  16
ATOM     16  C   UNL A   1      32.732  25.318  21.472  1.00  0.00     0.273 C 
ATOM     17  O   UNL A   1      33.275  25.193  20.383  1.00  0.00    -0.267 OA
BRANCH  16  18
ATOM     18  C   UNL A   1      32.356  26.628  22.035  1.00  0.00     0.139 A 
ATOM     19  C   UNL A   1      29.698  29.093  22.560  1.00  0.00     0.079 C 
ATOM     20  C   UNL A   1      30.951  28.289  22.510  1.00  0.00     0.090 A 
ATOM     21  N   UNL A   1      31.034  27.076  22.014  1.00  0.00    -0.236 NA
ATOM     22  S   UNL A   1      32.424  28.937  23.112  1.00  0.00    -0.127 S 
ATOM     23  C   UNL A   1      33.243  27.515  22.615  1.00  0.00     0.101 A 
ENDBRANCH  16  18
ENDBRANCH   6  16
ENDBRANCH   3   5
ENDBRANCH   2   3
ENDBRANCH   1   2
BRANCH   1  24
ATOM     24  C   UNL A   1      31.400  28.152  26.206  1.00  0.00     0.275 C 
BRANCH  24  25
ATOM     25  O   UNL A   1      31.707  29.151  27.215  1.00  0.00    -0.458 OA
BRANCH  25  26
ATOM     26  C   UNL A   1      32.339  30.301  26.811  1.00  0.00     0.338 C 
ATOM     27  O   UNL A   1      31.820  31.201  26.174  1.00  0.00    -0.246 OA
BRANCH  26  28
ATOM     28  C   UNL A   1      33.751  30.361  27.332  1.00  0.00     0.060 A 
ATOM     29  C   UNL A   1      34.570  29.252  27.234  1.00  0.00     0.016 A 
ATOM     30  C   UNL A   1      34.272  31.467  28.013  1.00  0.00     0.016 A 
ATOM     31  C   UNL A   1      35.725  29.131  28.016  1.00  0.00     0.010 A 
ATOM     32  C   UNL A   1      35.549  31.403  28.641  1.00  0.00     0.010 A 
ATOM     33  C   UNL A   1      36.284  30.202  28.720  1.00  0.00    -0.014 A 
BRANCH  33  34
ATOM     34  C   UNL A   1      37.561  30.023  29.534  1.00  0.00     0.031 A 
ATOM     35  C   UNL A   1      38.807  29.396  28.927  1.00  0.00     0.074 A 
ATOM     36  C   UNL A   1      37.704  30.472  30.809  1.00  0.00     0.049 A 
ATOM     37  N   UNL A   1      39.856  28.883  29.533  1.00  0.00    -0.248 NA
ATOM     38  C   UNL A   1      38.885  29.325  27.462  1.00  0.00     0.031 C 
ATOM     39  C   UNL A   1      36.689  31.163  31.606  1.00  0.00     0.029 A 
ATOM     40  N   UNL A   1      38.797  30.451  31.659  1.00  0.00    -0.354 N 
ATOM     41  C   UNL A   1      40.641  28.315  28.537  1.00  0.00     0.074 A 
ATOM     42  C   UNL A   1      39.980  28.596  27.279  1.00  0.00     0.031 C 
ATOM     43  C   UNL A   1      37.240  31.633  32.733  1.00  0.00     0.029 A 
ATOM     44  C   UNL A   1      38.596  31.112  32.851  1.00  0.00     0.049 A 
ATOM     45  H   UNL A   1      39.643  30.003  31.431  1.00  0.00     0.167 HD
ATOM     46  C   UNL A   1      41.792  27.605  28.656  1.00  0.00     0.037 A 
ATOM     47  C   UNL A   1      39.357  31.240  33.958  1.00  0.00     0.037 A 
ATOM     48  C   UNL A   1      42.540  27.434  29.877  1.00  0.00     0.049 A 
ATOM     49  C   UNL A   1      40.642  30.475  34.078  1.00  0.00     0.074 A 
ATOM     50  C   UNL A   1      43.685  26.681  30.097  1.00  0.00     0.029 A 
ATOM     51  N   UNL A   1      42.260  28.079  31.069  1.00  0.00    -0.354 N 
ATOM     52  N   UNL A   1      41.244  29.731  33.185  1.00  0.00    -0.248 NA
ATOM     53  C   UNL A   1      41.317  30.509  35.385  1.00  0.00     0.031 C 
ATOM     54  C   UNL A   1      44.095  26.871  31.422  1.00  0.00     0.029 A 
ATOM     55  C   UNL A   1      43.218  27.759  32.019  1.00  0.00     0.049 A 
ATOM     56  H   UNL A   1      41.492  28.677  31.220  1.00  0.00     0.167 HD
ATOM     57  C   UNL A   1      42.345  29.184  33.831  1.00  0.00     0.074 A 
ATOM     58  C   UNL A   1      42.360  29.719  35.174  1.00  0.00     0.031 C 
ATOM     59  C   UNL A   1      43.241  28.288  33.355  1.00  0.00     0.037 A 
BRANCH  46  60
ATOM     60  C   UNL A   1      42.290  26.885  27.436  1.00  0.00     0.057 A 
ATOM     61  C   UNL A   1      43.172  27.466  26.520  1.00  0.00     0.134 A 
ATOM     62  C   UNL A   1      41.907  25.554  27.212  1.00  0.00     0.134 A 
ATOM     63  F   UNL A   1      43.570  28.738  26.673  1.00  0.00    -0.206 F 
ATOM     64  C   UNL A   1      43.638  26.755  25.411  1.00  0.00     0.040 A 
ATOM     65  C   UNL A   1      42.383  24.828  26.120  1.00  0.00     0.040 A 
ATOM     66  F   UNL A   1      41.074  24.934  28.062  1.00  0.00    -0.206 F 
ATOM     67  C   UNL A   1      43.248  25.432  25.212  1.00  0.00     0.006 A 
ENDBRANCH  46  60
BRANCH  47  68
ATOM     68  C   UNL A   1      38.873  32.049  35.112  1.00  0.00     0.057 A 
ATOM     69  C   UNL A   1      38.249  31.441  36.207  1.00  0.00     0.134 A 
ATOM     70  C   UNL A   1      39.005  33.444  35.139  1.00  0.00     0.134 A 
ATOM     71  F   UNL A   1      38.052  30.115  36.223  1.00  0.00    -0.206 F 
ATOM     72  C   UNL A   1      37.782  32.189  37.291  1.00  0.00     0.040 A 
ATOM     73  C   UNL A   1      38.575  34.200  36.229  1.00  0.00     0.040 A 
ATOM     74  F   UNL A   1      39.580  34.090  34.114  1.00  0.00    -0.206 F 
ATOM     75  C   UNL A   1      37.957  33.572  37.309  1.00  0.00     0.006 A 
ENDBRANCH  47  68
BRANCH  59  76
ATOM     76  C   UNL A   1      44.316  27.832  34.292  1.00  0.00     0.057 A 
ATOM     77  C   UNL A   1      45.503  28.559  34.450  1.00  0.00     0.134 A 
ATOM     78  C   UNL A   1      44.162  26.667  35.052  1.00  0.00     0.134 A 
ATOM     79  F   UNL A   1      45.716  29.675  33.736  1.00  0.00    -0.206 F 
ATOM     80  C   UNL A   1      46.507  28.134  35.322  1.00  0.00     0.040 A 
ATOM     81  C   UNL A   1      45.155  26.239  35.937  1.00  0.00     0.040 A 
ATOM     82  F   UNL A   1      43.050  25.925  34.945  1.00  0.00    -0.206 F 
ATOM     83  C   UNL A   1      46.333  26.973  36.072  1.00  0.00     0.006 A 
ENDBRANCH  59  76
ENDBRANCH  33  34
ENDBRANCH  26  28
ENDBRANCH  25  26
ENDBRANCH  24  25
ENDBRANCH   1  24
TORSDOF 13
ENDMDL
MODEL 3
REMARK VINA RESULT:     -11.5      4.012      7.321
REMARK SMILES Cc1nc(C(=O)N2C[C@@H]3CC[N@@H+](C)C[C@]3(C(=O)OCCOC(=O)c3ccc(-c4c5nc(c(-c6c(F)cccc6F)c6ccc([nH]6)c(-c6c(F)cccc6F)c6nc(c(-c7c(F)cccc7F)c7ccc4[nH]7)C=C6)C=C5)cc3)C2)cs1
REMARK SMILES IDX 19 1 18 2 16 3 17 4 15 5 7 6 8 7 78 8 9 9 10 10 14 11 11 12
REMARK SMILES IDX 12 13 13 14 5 16 6 17 4 18 1 19 2 20 3 21 80 22 79 23 20 24
REMARK SMILES IDX 21 25 22 26 23 27 24 28 25 29 77 30 26 31 76 32 27 33 28 34
REMARK SMILES IDX 29 35 70 36 30 37 75 38 69 39 71 40 31 41 74 42 68 43 67 44
REMARK SMILES IDX 32 46 58 47 41 48 57 49 42 50 45 51 56 52 72 53 43 54 44 55
REMARK SMILES IDX 55 57 73 58 46 59 33 60 34 61 39 62 35 63 36 64 38 65 40 66
REMARK SMILES IDX 37 67 59 68 60 69 65 70 61 71 62 72 64 73 66 74 63 75 47 76
REMARK SMILES IDX 48 77 53 78 49 79 50 80 52 81 54 82 51 83
REMARK H PARENT 12 15 71 45 45 56
REMARK Flexibility Score: inf
ROOT
ATOM      1  C   UNL A   1      32.561  27.569  26.546  1.00  0.00     0.274 C 
ENDROOT
BRANCH   1   2
ATOM      2  O   UNL A   1      32.837  26.254  25.989  1.00  0.00    -0.461 OA
BRANCH   2   3
ATOM      3  C   UNL A   1      31.807  25.356  25.778  1.00  0.00     0.320 C 
ATOM      4  O   UNL A   1      31.111  24.891  26.666  1.00  0.00    -0.251 OA
BRANCH   3   5
ATOM      5  C   UNL A   1      31.629  25.167  24.243  1.00  0.00     0.139 C 
ATOM      6  N   UNL A   1      31.578  27.099  22.812  1.00  0.00    -0.336 N 
ATOM      7  C   UNL A   1      32.449  26.185  22.157  1.00  0.00     0.125 C 
ATOM      8  C   UNL A   1      30.807  26.427  23.848  1.00  0.00     0.145 C 
ATOM      9  C   UNL A   1      32.831  25.158  23.217  1.00  0.00     0.039 C 
ATOM     10  C   UNL A   1      33.099  23.854  22.392  1.00  0.00     0.068 C 
ATOM     11  C   UNL A   1      31.028  23.754  24.133  1.00  0.00     0.283 C 
ATOM     12  C   UNL A   1      32.793  22.522  23.054  1.00  0.00     0.262 C 
ATOM     13  N   UNL A   1      32.070  22.694  24.300  1.00  0.00    -0.336 N 
ATOM     14  C   UNL A   1      33.076  22.878  25.362  1.00  0.00     0.332 C 
ATOM     15  H   UNL A   1      31.520  21.883  24.583  1.00  0.00     0.347 HD
BRANCH   6  16
ATOM     16  C   UNL A   1      31.857  28.456  22.782  1.00  0.00     0.273 C 
ATOM     17  O   UNL A   1      33.000  28.890  22.811  1.00  0.00    -0.267 OA
BRANCH  16  18
ATOM     18  C   UNL A   1      30.668  29.328  22.788  1.00  0.00     0.139 A 
ATOM     19  C   UNL A   1      28.029  30.930  20.817  1.00  0.00     0.079 C 
ATOM     20  C   UNL A   1      28.956  30.408  21.859  1.00  0.00     0.090 A 
ATOM     21  N   UNL A   1      29.926  29.553  21.627  1.00  0.00    -0.236 NA
ATOM     22  S   UNL A   1      28.812  30.930  23.490  1.00  0.00    -0.127 S 
ATOM     23  C   UNL A   1      30.187  29.991  23.902  1.00  0.00     0.101 A 
ENDBRANCH  16  18
ENDBRANCH   6  16
ENDBRANCH   3   5
ENDBRANCH   2   3
ENDBRANCH   1   2
BRANCH   1  24
ATOM     24  C   UNL A   1      33.864  28.426  26.557  1.00  0.00     0.275 C 
BRANCH  24  25
ATOM     25  O   UNL A   1      34.198  28.887  27.894  1.00  0.00    -0.458 OA
BRANCH  25  26
ATOM     26  C   UNL A   1      34.845  30.091  28.018  1.00  0.00     0.338 C 
ATOM     27  O   UNL A   1      34.301  31.182  28.030  1.00  0.00    -0.246 OA
BRANCH  26  28
ATOM     28  C   UNL A   1      36.324  29.899  28.229  1.00  0.00     0.060 A 
ATOM     29  C   UNL A   1      37.210  30.203  27.213  1.00  0.00     0.016 A 
ATOM     30  C   UNL A   1      36.867  29.328  29.385  1.00  0.00     0.016 A 
ATOM     31  C   UNL A   1      38.518  29.703  27.217  1.00  0.00     0.010 A 
ATOM     32  C   UNL A   1      38.253  29.004  29.458  1.00  0.00     0.010 A 
ATOM     33  C   UNL A   1      39.107  29.119  28.342  1.00  0.00    -0.014 A 
BRANCH  33  34
ATOM     34  C   UNL A   1      40.546  28.617  28.301  1.00  0.00     0.031 A 
ATOM     35  C   UNL A   1      41.709  29.506  28.717  1.00  0.00     0.074 A 
ATOM     36  C   UNL A   1      40.884  27.342  27.973  1.00  0.00     0.049 A 
ATOM     37  N   UNL A   1      42.991  29.369  28.457  1.00  0.00    -0.248 NA
ATOM     38  C   UNL A   1      41.398  30.699  29.516  1.00  0.00     0.031 C 
ATOM     39  C   UNL A   1      39.963  26.269  27.595  1.00  0.00     0.029 A 
ATOM     40  N   UNL A   1      42.115  26.710  27.948  1.00  0.00    -0.354 N 
ATOM     41  C   UNL A   1      43.610  30.518  28.938  1.00  0.00     0.074 A 
ATOM     42  C   UNL A   1      42.573  31.316  29.559  1.00  0.00     0.031 C 
ATOM     43  C   UNL A   1      40.623  25.105  27.536  1.00  0.00     0.029 A 
ATOM     44  C   UNL A   1      42.051  25.361  27.672  1.00  0.00     0.049 A 
ATOM     45  H   UNL A   1      42.963  27.182  28.112  1.00  0.00     0.167 HD
ATOM     46  C   UNL A   1      44.913  30.887  28.850  1.00  0.00     0.037 A 
ATOM     47  C   UNL A   1      43.005  24.429  27.469  1.00  0.00     0.037 A 
ATOM     48  C   UNL A   1      45.983  30.051  28.365  1.00  0.00     0.049 A 
ATOM     49  C   UNL A   1      44.448  24.835  27.399  1.00  0.00     0.074 A 
ATOM     50  C   UNL A   1      47.322  30.368  28.189  1.00  0.00     0.029 A 
ATOM     51  N   UNL A   1      45.851  28.711  28.044  1.00  0.00    -0.354 N 
ATOM     52  N   UNL A   1      44.985  26.007  27.618  1.00  0.00    -0.248 NA
ATOM     53  C   UNL A   1      45.410  23.802  26.981  1.00  0.00     0.031 C 
ATOM     54  C   UNL A   1      47.999  29.220  27.760  1.00  0.00     0.029 A 
ATOM     55  C   UNL A   1      47.085  28.184  27.692  1.00  0.00     0.049 A 
ATOM     56  H   UNL A   1      45.006  28.207  28.062  1.00  0.00     0.167 HD
ATOM     57  C   UNL A   1      46.337  25.862  27.333  1.00  0.00     0.074 A 
ATOM     58  C   UNL A   1      46.550  24.478  26.974  1.00  0.00     0.031 C 
ATOM     59  C   UNL A   1      47.305  26.809  27.336  1.00  0.00     0.037 A 
BRANCH  46  60
ATOM     60  C   UNL A   1      45.258  32.300  29.225  1.00  0.00     0.057 A 
ATOM     61  C   UNL A   1      45.693  32.660  30.503  1.00  0.00     0.134 A 
ATOM     62  C   UNL A   1      45.197  33.309  28.253  1.00  0.00     0.134 A 
ATOM     63  F   UNL A   1      45.765  31.743  31.480  1.00  0.00    -0.206 F 
ATOM     64  C   UNL A   1      46.034  33.980  30.809  1.00  0.00     0.040 A 
ATOM     65  C   UNL A   1      45.556  34.626  28.540  1.00  0.00     0.040 A 
ATOM     66  F   UNL A   1      44.803  33.026  27.002  1.00  0.00    -0.206 F 
ATOM     67  C   UNL A   1      45.971  34.966  29.824  1.00  0.00     0.006 A 
ENDBRANCH  46  60
BRANCH  47  68
ATOM     68  C   UNL A   1      42.626  23.013  27.201  1.00  0.00     0.057 A 
ATOM     69  C   UNL A   1      42.594  22.511  25.895  1.00  0.00     0.134 A 
ATOM     70  C   UNL A   1      42.271  22.139  28.236  1.00  0.00     0.134 A 
ATOM     71  F   UNL A   1      42.880  23.309  24.856  1.00  0.00    -0.206 F 
ATOM     72  C   UNL A   1      42.230  21.188  25.629  1.00  0.00     0.040 A 
ATOM     73  C   UNL A   1      41.939  20.806  27.989  1.00  0.00     0.040 A 
ATOM     74  F   UNL A   1      42.266  22.561  29.508  1.00  0.00    -0.206 F 
ATOM     75  C   UNL A   1      41.915  20.328  26.680  1.00  0.00     0.006 A 
ENDBRANCH  47  68
BRANCH  59  76
ATOM     76  C   UNL A   1      48.683  26.378  26.943  1.00  0.00     0.057 A 
ATOM     77  C   UNL A   1      49.579  25.851  27.883  1.00  0.00     0.134 A 
ATOM     78  C   UNL A   1      49.118  26.476  25.616  1.00  0.00     0.134 A 
ATOM     79  F   UNL A   1      49.227  25.749  29.173  1.00  0.00    -0.206 F 
ATOM     80  C   UNL A   1      50.866  25.452  27.519  1.00  0.00     0.040 A 
ATOM     81  C   UNL A   1      50.399  26.066  25.238  1.00  0.00     0.040 A 
ATOM     82  F   UNL A   1      48.309  26.973  24.670  1.00  0.00    -0.206 F 
ATOM     83  C   UNL A   1      51.278  25.555  26.191  1.00  0.00     0.006 A 
ENDBRANCH  59  76
ENDBRANCH  33  34
ENDBRANCH  26  28
ENDBRANCH  25  26
ENDBRANCH  24  25
ENDBRANCH   1  24
TORSDOF 13
ENDMDL
