MODEL 1
REMARK VINA RESULT:     -10.3      0.000      0.000
REMARK SMILES C[C@@H]1C[C@H]([NH3+])CN(S(=O)(=O)CCCC(=O)OCCOC(=O)c2ccc(-c3c4nc(c(-c5c(F)cccc5F)c5ccc([nH]5)c(-c5c(F)cccc5F)c5nc(c(-c6c(F)cccc6F)c6ccc3[nH]6)C=C5)C=C4)cc2)C1
REMARK SMILES IDX 16 1 14 2 15 3 13 4 12 5 11 6 8 7 9 8 10 9 7 10 1 11 2 12
REMARK SMILES IDX 3 13 76 14 4 15 6 16 5 17 17 21 18 22 19 23 20 24 21 25
REMARK SMILES IDX 22 26 23 27 75 28 24 29 74 30 25 31 26 32 27 33 68 34 28 35
REMARK SMILES IDX 73 36 67 37 69 38 29 39 72 40 66 41 65 42 30 44 56 45 39 46
REMARK SMILES IDX 55 47 40 48 43 49 54 50 70 51 41 52 42 53 53 55 71 56 44 57
REMARK SMILES IDX 31 58 32 59 37 60 33 61 34 62 36 63 38 64 35 65 57 66 58 67
REMARK SMILES IDX 63 68 59 69 60 70 62 71 64 72 61 73 45 74 46 75 51 76 47 77
REMARK SMILES IDX 48 78 50 79 52 80 49 81
REMARK H PARENT 5 18 5 19 5 20 69 43 43 54
REMARK Flexibility Score: inf
ROOT
ATOM      1  O   UNL A   1      33.667  33.823  29.452  1.00  0.00    -0.462 OA
ENDROOT
BRANCH   1   2
ATOM      2  C   UNL A   1      34.879  33.223  29.417  1.00  0.00     0.305 C 
ATOM      3  O   UNL A   1      35.915  33.753  29.799  1.00  0.00    -0.252 OA
BRANCH   2   4
ATOM      4  C   UNL A   1      34.865  31.841  28.797  1.00  0.00     0.124 C 
BRANCH   4   5
ATOM      5  C   UNL A   1      34.107  31.673  27.490  1.00  0.00     0.029 C 
BRANCH   5   6
ATOM      6  C   UNL A   1      33.763  30.248  27.082  1.00  0.00     0.155 C 
BRANCH   6   7
ATOM      7  S   UNL A   1      32.074  29.959  26.580  1.00  0.00     0.214 S 
ATOM      8  O   UNL A   1      31.392  31.237  26.572  1.00  0.00    -0.212 OA
ATOM      9  O   UNL A   1      31.568  28.860  27.376  1.00  0.00    -0.212 OA
BRANCH   7  10
ATOM     10  N   UNL A   1      32.136  29.423  24.943  1.00  0.00    -0.196 NA
ATOM     11  C   UNL A   1      34.248  28.609  22.699  1.00  0.00     0.009 C 
ATOM     12  C   UNL A   1      33.216  27.730  23.412  1.00  0.00     0.007 C 
ATOM     13  C   UNL A   1      31.882  27.576  22.667  1.00  0.00     0.071 C 
ATOM     14  C   UNL A   1      32.996  28.187  24.856  1.00  0.00     0.106 C 
ATOM     15  C   UNL A   1      30.938  28.773  22.813  1.00  0.00     0.196 C 
ATOM     16  C   UNL A   1      30.799  29.160  24.310  1.00  0.00     0.167 C 
BRANCH  15  17
ATOM     17  N   UNL A   1      31.401  29.826  21.913  1.00  0.00    -0.354 N 
ATOM     18  H   UNL A   1      31.096  29.620  20.962  1.00  0.00     0.344 HD
ATOM     19  H   UNL A   1      32.420  29.873  21.941  1.00  0.00     0.344 HD
ATOM     20  H   UNL A   1      31.012  30.721  22.208  1.00  0.00     0.344 HD
ENDBRANCH  15  17
ENDBRANCH   7  10
ENDBRANCH   6   7
ENDBRANCH   5   6
ENDBRANCH   4   5
ENDBRANCH   2   4
ENDBRANCH   1   2
BRANCH   1  21
ATOM     21  C   UNL A   1      33.564  35.141  28.876  1.00  0.00     0.274 C 
BRANCH  21  22
ATOM     22  C   UNL A   1      32.944  36.135  29.859  1.00  0.00     0.275 C 
BRANCH  22  23
ATOM     23  O   UNL A   1      32.402  35.465  31.007  1.00  0.00    -0.458 OA
BRANCH  23  24
ATOM     24  C   UNL A   1      32.784  35.976  32.201  1.00  0.00     0.338 C 
ATOM     25  O   UNL A   1      32.254  36.872  32.834  1.00  0.00    -0.246 OA
BRANCH  24  26
ATOM     26  C   UNL A   1      33.869  35.146  32.735  1.00  0.00     0.060 A 
ATOM     27  C   UNL A   1      35.163  35.675  32.745  1.00  0.00     0.016 A 
ATOM     28  C   UNL A   1      33.623  33.851  33.179  1.00  0.00     0.016 A 
ATOM     29  C   UNL A   1      36.230  34.922  33.206  1.00  0.00     0.010 A 
ATOM     30  C   UNL A   1      34.694  33.083  33.628  1.00  0.00     0.010 A 
ATOM     31  C   UNL A   1      35.997  33.616  33.632  1.00  0.00    -0.014 A 
BRANCH  31  32
ATOM     32  C   UNL A   1      37.136  32.751  33.977  1.00  0.00     0.031 A 
ATOM     33  C   UNL A   1      37.847  33.004  35.268  1.00  0.00     0.074 A 
ATOM     34  C   UNL A   1      37.522  31.779  33.135  1.00  0.00     0.049 A 
ATOM     35  N   UNL A   1      39.003  32.557  35.676  1.00  0.00    -0.248 NA
ATOM     36  C   UNL A   1      37.165  33.893  36.224  1.00  0.00     0.031 C 
ATOM     37  C   UNL A   1      36.829  31.401  31.903  1.00  0.00     0.029 A 
ATOM     38  N   UNL A   1      38.611  30.952  33.181  1.00  0.00    -0.354 N 
ATOM     39  C   UNL A   1      39.208  33.144  36.917  1.00  0.00     0.074 A 
ATOM     40  C   UNL A   1      38.061  33.978  37.195  1.00  0.00     0.031 C 
ATOM     41  C   UNL A   1      37.531  30.433  31.291  1.00  0.00     0.029 A 
ATOM     42  C   UNL A   1      38.747  30.178  32.055  1.00  0.00     0.049 A 
ATOM     43  H   UNL A   1      39.234  30.916  33.942  1.00  0.00     0.167 HD
ATOM     44  C   UNL A   1      40.273  32.997  37.737  1.00  0.00     0.037 A 
ATOM     45  C   UNL A   1      39.773  29.399  31.669  1.00  0.00     0.037 A 
ATOM     46  C   UNL A   1      41.393  32.149  37.430  1.00  0.00     0.049 A 
ATOM     47  C   UNL A   1      40.984  29.315  32.557  1.00  0.00     0.074 A 
ATOM     48  C   UNL A   1      42.535  31.921  38.176  1.00  0.00     0.029 A 
ATOM     49  N   UNL A   1      41.503  31.384  36.277  1.00  0.00    -0.354 N 
ATOM     50  N   UNL A   1      41.203  29.900  33.712  1.00  0.00    -0.248 NA
ATOM     51  C   UNL A   1      42.095  28.478  32.087  1.00  0.00     0.031 C 
ATOM     52  C   UNL A   1      43.356  31.049  37.453  1.00  0.00     0.029 A 
ATOM     53  C   UNL A   1      42.702  30.695  36.281  1.00  0.00     0.049 A 
ATOM     54  H   UNL A   1      40.828  31.340  35.562  1.00  0.00     0.167 HD
ATOM     55  C   UNL A   1      42.461  29.480  34.121  1.00  0.00     0.074 A 
ATOM     56  C   UNL A   1      42.954  28.586  33.091  1.00  0.00     0.031 C 
ATOM     57  C   UNL A   1      43.149  29.798  35.245  1.00  0.00     0.037 A 
BRANCH  44  58
ATOM     58  C   UNL A   1      40.290  33.804  39.000  1.00  0.00     0.057 A 
ATOM     59  C   UNL A   1      40.949  35.037  39.088  1.00  0.00     0.134 A 
ATOM     60  C   UNL A   1      39.631  33.340  40.145  1.00  0.00     0.134 A 
ATOM     61  F   UNL A   1      41.618  35.528  38.034  1.00  0.00    -0.206 F 
ATOM     62  C   UNL A   1      40.969  35.770  40.277  1.00  0.00     0.040 A 
ATOM     63  C   UNL A   1      39.624  34.074  41.332  1.00  0.00     0.040 A 
ATOM     64  F   UNL A   1      38.986  32.164  40.131  1.00  0.00    -0.206 F 
ATOM     65  C   UNL A   1      40.300  35.291  41.402  1.00  0.00     0.006 A 
ENDBRANCH  44  58
BRANCH  45  66
ATOM     66  C   UNL A   1      39.717  28.681  30.371  1.00  0.00     0.057 A 
ATOM     67  C   UNL A   1      40.231  29.257  29.205  1.00  0.00     0.134 A 
ATOM     68  C   UNL A   1      39.149  27.405  30.264  1.00  0.00     0.134 A 
ATOM     69  F   UNL A   1      40.769  30.485  29.239  1.00  0.00    -0.206 F 
ATOM     70  C   UNL A   1      40.171  28.598  27.976  1.00  0.00     0.040 A 
ATOM     71  C   UNL A   1      39.107  26.722  29.046  1.00  0.00     0.040 A 
ATOM     72  F   UNL A   1      38.641  26.795  31.345  1.00  0.00    -0.206 F 
ATOM     73  C   UNL A   1      39.613  27.323  27.896  1.00  0.00     0.006 A 
ENDBRANCH  45  66
BRANCH  57  74
ATOM     74  C   UNL A   1      44.477  29.134  35.443  1.00  0.00     0.057 A 
ATOM     75  C   UNL A   1      44.594  27.881  36.056  1.00  0.00     0.134 A 
ATOM     76  C   UNL A   1      45.644  29.731  34.951  1.00  0.00     0.134 A 
ATOM     77  F   UNL A   1      43.513  27.266  36.559  1.00  0.00    -0.206 F 
ATOM     78  C   UNL A   1      45.831  27.250  36.184  1.00  0.00     0.040 A 
ATOM     79  C   UNL A   1      46.883  29.098  35.049  1.00  0.00     0.040 A 
ATOM     80  F   UNL A   1      45.595  30.927  34.344  1.00  0.00    -0.206 F 
ATOM     81  C   UNL A   1      46.978  27.854  35.671  1.00  0.00     0.006 A 
ENDBRANCH  57  74
ENDBRANCH  31  32
ENDBRANCH  24  26
ENDBRANCH  23  24
ENDBRANCH  22  23
ENDBRANCH  21  22
ENDBRANCH   1  21
TORSDOF 16
ENDMDL
MODEL 2
REMARK VINA RESULT:      -9.8      6.138      8.765
REMARK SMILES C[C@@H]1C[C@H]([NH3+])CN(S(=O)(=O)CCCC(=O)OCCOC(=O)c2ccc(-c3c4nc(c(-c5c(F)cccc5F)c5ccc([nH]5)c(-c5c(F)cccc5F)c5nc(c(-c6c(F)cccc6F)c6ccc3[nH]6)C=C5)C=C4)cc2)C1
REMARK SMILES IDX 16 1 14 2 15 3 13 4 12 5 11 6 8 7 9 8 10 9 7 10 1 11 2 12
REMARK SMILES IDX 3 13 76 14 4 15 6 16 5 17 17 21 18 22 19 23 20 24 21 25
REMARK SMILES IDX 22 26 23 27 75 28 24 29 74 30 25 31 26 32 27 33 68 34 28 35
REMARK SMILES IDX 73 36 67 37 69 38 29 39 72 40 66 41 65 42 30 44 56 45 39 46
REMARK SMILES IDX 55 47 40 48 43 49 54 50 70 51 41 52 42 53 53 55 71 56 44 57
REMARK SMILES IDX 31 58 32 59 37 60 33 61 34 62 36 63 38 64 35 65 57 66 58 67
REMARK SMILES IDX 63 68 59 69 60 70 62 71 64 72 61 73 45 74 46 75 51 76 47 77
REMARK SMILES IDX 48 78 50 79 52 80 49 81
REMARK H PARENT 5 18 5 19 5 20 69 43 43 54
REMARK Flexibility Score: inf
ROOT
ATOM      1  O   UNL A   1      32.976  29.133  27.327  1.00  0.00    -0.462 OA
ENDROOT
BRANCH   1   2
ATOM      2  C   UNL A   1      31.846  28.417  27.118  1.00  0.00     0.305 C 
ATOM      3  O   UNL A   1      31.114  28.019  28.016  1.00  0.00    -0.252 OA
BRANCH   2   4
ATOM      4  C   UNL A   1      31.587  28.087  25.662  1.00  0.00     0.124 C 
BRANCH   4   5
ATOM      5  C   UNL A   1      32.488  27.048  25.014  1.00  0.00     0.029 C 
BRANCH   5   6
ATOM      6  C   UNL A   1      32.814  25.817  25.848  1.00  0.00     0.155 C 
BRANCH   6   7
ATOM      7  S   UNL A   1      31.576  24.529  25.866  1.00  0.00     0.214 S 
ATOM      8  O   UNL A   1      30.741  24.704  24.696  1.00  0.00    -0.212 OA
ATOM      9  O   UNL A   1      30.991  24.511  27.191  1.00  0.00    -0.212 OA
BRANCH   7  10
ATOM     10  N   UNL A   1      32.417  23.041  25.654  1.00  0.00    -0.196 NA
ATOM     11  C   UNL A   1      32.460  20.489  23.745  1.00  0.00     0.009 C 
ATOM     12  C   UNL A   1      33.524  21.576  23.919  1.00  0.00     0.007 C 
ATOM     13  C   UNL A   1      34.626  21.236  24.933  1.00  0.00     0.071 C 
ATOM     14  C   UNL A   1      32.889  22.934  24.225  1.00  0.00     0.106 C 
ATOM     15  C   UNL A   1      34.217  21.426  26.396  1.00  0.00     0.196 C 
ATOM     16  C   UNL A   1      33.572  22.825  26.589  1.00  0.00     0.167 C 
BRANCH  15  17
ATOM     17  N   UNL A   1      33.401  20.280  26.790  1.00  0.00    -0.354 N 
ATOM     18  H   UNL A   1      33.142  20.368  27.772  1.00  0.00     0.344 HD
ATOM     19  H   UNL A   1      33.935  19.420  26.655  1.00  0.00     0.344 HD
ATOM     20  H   UNL A   1      32.558  20.249  26.217  1.00  0.00     0.344 HD
ENDBRANCH  15  17
ENDBRANCH   7  10
ENDBRANCH   6   7
ENDBRANCH   5   6
ENDBRANCH   4   5
ENDBRANCH   2   4
ENDBRANCH   1   2
BRANCH   1  21
ATOM     21  C   UNL A   1      32.916  30.552  27.076  1.00  0.00     0.274 C 
BRANCH  21  22
ATOM     22  C   UNL A   1      34.063  31.291  27.765  1.00  0.00     0.275 C 
BRANCH  22  23
ATOM     23  O   UNL A   1      35.140  30.398  28.089  1.00  0.00    -0.458 OA
BRANCH  23  24
ATOM     24  C   UNL A   1      35.935  30.806  29.107  1.00  0.00     0.338 C 
ATOM     25  O   UNL A   1      35.628  31.489  30.067  1.00  0.00    -0.246 OA
BRANCH  24  26
ATOM     26  C   UNL A   1      37.233  30.136  28.978  1.00  0.00     0.060 A 
ATOM     27  C   UNL A   1      37.898  29.751  30.146  1.00  0.00     0.016 A 
ATOM     28  C   UNL A   1      37.807  29.929  27.727  1.00  0.00     0.016 A 
ATOM     29  C   UNL A   1      39.142  29.146  30.082  1.00  0.00     0.010 A 
ATOM     30  C   UNL A   1      39.065  29.336  27.658  1.00  0.00     0.010 A 
ATOM     31  C   UNL A   1      39.735  28.954  28.836  1.00  0.00    -0.014 A 
BRANCH  31  32
ATOM     32  C   UNL A   1      41.117  28.457  28.758  1.00  0.00     0.031 A 
ATOM     33  C   UNL A   1      42.230  29.443  28.913  1.00  0.00     0.074 A 
ATOM     34  C   UNL A   1      41.351  27.153  28.537  1.00  0.00     0.049 A 
ATOM     35  N   UNL A   1      43.499  29.305  28.643  1.00  0.00    -0.248 NA
ATOM     36  C   UNL A   1      41.857  30.770  29.430  1.00  0.00     0.031 C 
ATOM     37  C   UNL A   1      40.330  26.108  28.470  1.00  0.00     0.029 A 
ATOM     38  N   UNL A   1      42.528  26.495  28.301  1.00  0.00    -0.354 N 
ATOM     39  C   UNL A   1      44.071  30.540  28.916  1.00  0.00     0.074 A 
ATOM     40  C   UNL A   1      43.012  31.414  29.371  1.00  0.00     0.031 C 
ATOM     41  C   UNL A   1      40.924  24.940  28.178  1.00  0.00     0.029 A 
ATOM     42  C   UNL A   1      42.350  25.174  27.974  1.00  0.00     0.049 A 
ATOM     43  H   UNL A   1      43.412  26.925  28.358  1.00  0.00     0.167 HD
ATOM     44  C   UNL A   1      45.367  30.901  28.784  1.00  0.00     0.037 A 
ATOM     45  C   UNL A   1      43.238  24.279  27.506  1.00  0.00     0.037 A 
ATOM     46  C   UNL A   1      46.394  30.000  28.338  1.00  0.00     0.049 A 
ATOM     47  C   UNL A   1      44.658  24.725  27.287  1.00  0.00     0.074 A 
ATOM     48  C   UNL A   1      47.743  30.247  28.157  1.00  0.00     0.029 A 
ATOM     49  N   UNL A   1      46.178  28.669  28.007  1.00  0.00    -0.354 N 
ATOM     50  N   UNL A   1      45.196  25.902  27.503  1.00  0.00    -0.248 NA
ATOM     51  C   UNL A   1      45.590  23.727  26.748  1.00  0.00     0.031 C 
ATOM     52  C   UNL A   1      48.335  29.075  27.675  1.00  0.00     0.029 A 
ATOM     53  C   UNL A   1      47.365  28.084  27.605  1.00  0.00     0.049 A 
ATOM     54  H   UNL A   1      45.309  28.210  28.051  1.00  0.00     0.167 HD
ATOM     55  C   UNL A   1      46.534  25.781  27.156  1.00  0.00     0.074 A 
ATOM     56  C   UNL A   1      46.726  24.411  26.719  1.00  0.00     0.031 C 
ATOM     57  C   UNL A   1      47.519  26.712  27.196  1.00  0.00     0.037 A 
BRANCH  44  58
ATOM     58  C   UNL A   1      45.720  32.328  29.075  1.00  0.00     0.057 A 
ATOM     59  C   UNL A   1      46.099  32.756  30.354  1.00  0.00     0.134 A 
ATOM     60  C   UNL A   1      45.684  33.289  28.057  1.00  0.00     0.134 A 
ATOM     61  F   UNL A   1      46.132  31.891  31.379  1.00  0.00    -0.206 F 
ATOM     62  C   UNL A   1      46.410  34.093  30.613  1.00  0.00     0.040 A 
ATOM     63  C   UNL A   1      46.016  34.623  28.298  1.00  0.00     0.040 A 
ATOM     64  F   UNL A   1      45.324  32.947  26.810  1.00  0.00    -0.206 F 
ATOM     65  C   UNL A   1      46.375  35.029  29.582  1.00  0.00     0.006 A 
ENDBRANCH  44  58
BRANCH  45  66
ATOM     66  C   UNL A   1      42.802  22.900  27.174  1.00  0.00     0.057 A 
ATOM     67  C   UNL A   1      42.663  22.487  25.845  1.00  0.00     0.134 A 
ATOM     68  C   UNL A   1      42.514  21.961  28.173  1.00  0.00     0.134 A 
ATOM     69  F   UNL A   1      42.905  23.346  24.842  1.00  0.00    -0.206 F 
ATOM     70  C   UNL A   1      42.240  21.197  25.519  1.00  0.00     0.040 A 
ATOM     71  C   UNL A   1      42.116  20.659  27.862  1.00  0.00     0.040 A 
ATOM     72  F   UNL A   1      42.631  22.291  29.467  1.00  0.00    -0.206 F 
ATOM     73  C   UNL A   1      41.972  20.277  26.531  1.00  0.00     0.006 A 
ENDBRANCH  45  66
BRANCH  57  74
ATOM     74  C   UNL A   1      48.896  26.264  26.809  1.00  0.00     0.057 A 
ATOM     75  C   UNL A   1      49.397  26.445  25.515  1.00  0.00     0.134 A 
ATOM     76  C   UNL A   1      49.752  25.708  27.768  1.00  0.00     0.134 A 
ATOM     77  F   UNL A   1      48.619  26.961  24.551  1.00  0.00    -0.206 F 
ATOM     78  C   UNL A   1      50.700  26.074  25.183  1.00  0.00     0.040 A 
ATOM     79  C   UNL A   1      51.065  25.358  27.455  1.00  0.00     0.040 A 
ATOM     80  F   UNL A   1      49.333  25.519  29.029  1.00  0.00    -0.206 F 
ATOM     81  C   UNL A   1      51.541  25.538  26.157  1.00  0.00     0.006 A 
ENDBRANCH  57  74
ENDBRANCH  31  32
ENDBRANCH  24  26
ENDBRANCH  23  24
ENDBRANCH  22  23
ENDBRANCH  21  22
ENDBRANCH   1  21
TORSDOF 16
ENDMDL
MODEL 3
REMARK VINA RESULT:      -9.8      3.396      8.397
REMARK SMILES C[C@@H]1C[C@H]([NH3+])CN(S(=O)(=O)CCCC(=O)OCCOC(=O)c2ccc(-c3c4nc(c(-c5c(F)cccc5F)c5ccc([nH]5)c(-c5c(F)cccc5F)c5nc(c(-c6c(F)cccc6F)c6ccc3[nH]6)C=C5)C=C4)cc2)C1
REMARK SMILES IDX 16 1 14 2 15 3 13 4 12 5 11 6 8 7 9 8 10 9 7 10 1 11 2 12
REMARK SMILES IDX 3 13 76 14 4 15 6 16 5 17 17 21 18 22 19 23 20 24 21 25
REMARK SMILES IDX 22 26 23 27 75 28 24 29 74 30 25 31 26 32 27 33 68 34 28 35
REMARK SMILES IDX 73 36 67 37 69 38 29 39 72 40 66 41 65 42 30 44 56 45 39 46
REMARK SMILES IDX 55 47 40 48 43 49 54 50 70 51 41 52 42 53 53 55 71 56 44 57
REMARK SMILES IDX 31 58 32 59 37 60 33 61 34 62 36 63 38 64 35 65 57 66 58 67
REMARK SMILES IDX 63 68 59 69 60 70 62 71 64 72 61 73 45 74 46 75 51 76 47 77
REMARK SMILES IDX 48 78 50 79 52 80 49 81
REMARK H PARENT 5 18 5 19 5 20 69 43 43 54
REMARK Flexibility Score: inf
ROOT
ATOM      1  O   UNL A   1      30.337  28.701  24.181  1.00  0.00    -0.462 OA
ENDROOT
BRANCH   1   2
ATOM      2  C   UNL A   1      30.081  27.696  23.311  1.00  0.00     0.305 C 
ATOM      3  O   UNL A   1      30.303  27.762  22.108  1.00  0.00    -0.252 OA
BRANCH   2   4
ATOM      4  C   UNL A   1      29.427  26.485  23.944  1.00  0.00     0.124 C 
BRANCH   4   5
ATOM      5  C   UNL A   1      30.028  25.970  25.242  1.00  0.00     0.029 C 
BRANCH   5   6
ATOM      6  C   UNL A   1      30.751  24.632  25.171  1.00  0.00     0.155 C 
BRANCH   6   7
ATOM      7  S   UNL A   1      32.436  24.678  24.582  1.00  0.00     0.214 S 
ATOM      8  O   UNL A   1      33.115  25.756  25.271  1.00  0.00    -0.212 OA
ATOM      9  O   UNL A   1      32.389  24.644  23.135  1.00  0.00    -0.212 OA
BRANCH   7  10
ATOM     10  N   UNL A   1      33.177  23.214  25.107  1.00  0.00    -0.196 NA
ATOM     11  C   UNL A   1      32.649  20.071  25.163  1.00  0.00     0.009 C 
ATOM     12  C   UNL A   1      33.715  20.852  24.391  1.00  0.00     0.007 C 
ATOM     13  C   UNL A   1      35.071  20.962  25.105  1.00  0.00     0.071 C 
ATOM     14  C   UNL A   1      33.200  22.229  23.965  1.00  0.00     0.106 C 
ATOM     15  C   UNL A   1      35.117  22.022  26.209  1.00  0.00     0.196 C 
ATOM     16  C   UNL A   1      34.559  23.369  25.674  1.00  0.00     0.167 C 
BRANCH  15  17
ATOM     17  N   UNL A   1      34.458  21.473  27.390  1.00  0.00    -0.354 N 
ATOM     18  H   UNL A   1      34.039  22.232  27.929  1.00  0.00     0.344 HD
ATOM     19  H   UNL A   1      35.144  20.985  27.967  1.00  0.00     0.344 HD
ATOM     20  H   UNL A   1      33.730  20.820  27.102  1.00  0.00     0.344 HD
ENDBRANCH  15  17
ENDBRANCH   7  10
ENDBRANCH   6   7
ENDBRANCH   5   6
ENDBRANCH   4   5
ENDBRANCH   2   4
ENDBRANCH   1   2
BRANCH   1  21
ATOM     21  C   UNL A   1      31.714  28.920  24.551  1.00  0.00     0.274 C 
BRANCH  21  22
ATOM     22  C   UNL A   1      31.826  29.779  25.811  1.00  0.00     0.275 C 
BRANCH  22  23
ATOM     23  O   UNL A   1      33.133  30.361  25.931  1.00  0.00    -0.458 OA
BRANCH  23  24
ATOM     24  C   UNL A   1      33.276  31.240  26.951  1.00  0.00     0.338 C 
ATOM     25  O   UNL A   1      32.435  31.989  27.415  1.00  0.00    -0.246 OA
BRANCH  24  26
ATOM     26  C   UNL A   1      34.592  31.030  27.563  1.00  0.00     0.060 A 
ATOM     27  C   UNL A   1      34.945  29.731  27.942  1.00  0.00     0.016 A 
ATOM     28  C   UNL A   1      35.447  32.102  27.800  1.00  0.00     0.016 A 
ATOM     29  C   UNL A   1      36.162  29.483  28.556  1.00  0.00     0.010 A 
ATOM     30  C   UNL A   1      36.664  31.859  28.432  1.00  0.00     0.010 A 
ATOM     31  C   UNL A   1      37.016  30.552  28.817  1.00  0.00    -0.014 A 
BRANCH  31  32
ATOM     32  C   UNL A   1      38.238  30.329  29.604  1.00  0.00     0.031 A 
ATOM     33  C   UNL A   1      39.295  29.441  29.030  1.00  0.00     0.074 A 
ATOM     34  C   UNL A   1      38.374  30.903  30.811  1.00  0.00     0.049 A 
ATOM     35  N   UNL A   1      40.327  28.899  29.616  1.00  0.00    -0.248 NA
ATOM     36  C   UNL A   1      39.160  29.109  27.602  1.00  0.00     0.031 C 
ATOM     37  C   UNL A   1      37.439  31.858  31.405  1.00  0.00     0.029 A 
ATOM     38  N   UNL A   1      39.345  30.739  31.762  1.00  0.00    -0.354 N 
ATOM     39  C   UNL A   1      40.942  28.127  28.640  1.00  0.00     0.074 A 
ATOM     40  C   UNL A   1      40.168  28.269  27.426  1.00  0.00     0.031 C 
ATOM     41  C   UNL A   1      37.868  32.172  32.639  1.00  0.00     0.029 A 
ATOM     42  C   UNL A   1      39.064  31.392  32.936  1.00  0.00     0.049 A 
ATOM     43  H   UNL A   1      40.161  30.208  31.619  1.00  0.00     0.167 HD
ATOM     44  C   UNL A   1      42.049  27.363  28.764  1.00  0.00     0.037 A 
ATOM     45  C   UNL A   1      39.678  31.312  34.130  1.00  0.00     0.037 A 
ATOM     46  C   UNL A   1      42.800  27.254  29.986  1.00  0.00     0.049 A 
ATOM     47  C   UNL A   1      40.859  30.391  34.268  1.00  0.00     0.074 A 
ATOM     48  C   UNL A   1      43.935  26.508  30.240  1.00  0.00     0.029 A 
ATOM     49  N   UNL A   1      42.482  27.923  31.161  1.00  0.00    -0.354 N 
ATOM     50  N   UNL A   1      41.421  29.626  33.361  1.00  0.00    -0.248 NA
ATOM     51  C   UNL A   1      41.485  30.310  35.594  1.00  0.00     0.031 C 
ATOM     52  C   UNL A   1      44.281  26.693  31.583  1.00  0.00     0.029 A 
ATOM     53  C   UNL A   1      43.390  27.594  32.150  1.00  0.00     0.049 A 
ATOM     54  H   UNL A   1      41.723  28.539  31.273  1.00  0.00     0.167 HD
ATOM     55  C   UNL A   1      42.482  28.996  33.996  1.00  0.00     0.074 A 
ATOM     56  C   UNL A   1      42.488  29.473  35.366  1.00  0.00     0.031 C 
ATOM     57  C   UNL A   1      43.374  28.106  33.497  1.00  0.00     0.037 A 
BRANCH  44  58
ATOM     58  C   UNL A   1      42.473  26.559  27.572  1.00  0.00     0.057 A 
ATOM     59  C   UNL A   1      42.038  25.243  27.367  1.00  0.00     0.134 A 
ATOM     60  C   UNL A   1      43.327  27.114  26.610  1.00  0.00     0.134 A 
ATOM     61  F   UNL A   1      41.238  24.644  28.262  1.00  0.00    -0.206 F 
ATOM     62  C   UNL A   1      42.455  24.502  26.259  1.00  0.00     0.040 A 
ATOM     63  C   UNL A   1      43.730  26.392  25.487  1.00  0.00     0.040 A 
ATOM     64  F   UNL A   1      43.784  28.368  26.748  1.00  0.00    -0.206 F 
ATOM     65  C   UNL A   1      43.298  25.079  25.312  1.00  0.00     0.006 A 
ENDBRANCH  44  58
BRANCH  45  66
ATOM     66  C   UNL A   1      39.162  32.085  35.287  1.00  0.00     0.057 A 
ATOM     67  C   UNL A   1      38.327  31.491  36.238  1.00  0.00     0.134 A 
ATOM     68  C   UNL A   1      39.491  33.435  35.472  1.00  0.00     0.134 A 
ATOM     69  F   UNL A   1      37.960  30.208  36.106  1.00  0.00    -0.206 F 
ATOM     70  C   UNL A   1      37.823  32.211  37.323  1.00  0.00     0.040 A 
ATOM     71  C   UNL A   1      39.017  34.161  36.567  1.00  0.00     0.040 A 
ATOM     72  F   UNL A   1      40.291  34.064  34.598  1.00  0.00    -0.206 F 
ATOM     73  C   UNL A   1      38.175  33.550  37.492  1.00  0.00     0.006 A 
ENDBRANCH  45  66
BRANCH  57  74
ATOM     74  C   UNL A   1      44.458  27.636  34.419  1.00  0.00     0.057 A 
ATOM     75  C   UNL A   1      45.655  28.346  34.575  1.00  0.00     0.134 A 
ATOM     76  C   UNL A   1      44.268  26.496  35.209  1.00  0.00     0.134 A 
ATOM     77  F   UNL A   1      45.900  29.438  33.836  1.00  0.00    -0.206 F 
ATOM     78  C   UNL A   1      46.633  27.928  35.478  1.00  0.00     0.040 A 
ATOM     79  C   UNL A   1      45.226  26.084  36.134  1.00  0.00     0.040 A 
ATOM     80  F   UNL A   1      43.137  25.781  35.112  1.00  0.00    -0.206 F 
ATOM     81  C   UNL A   1      46.415  26.799  36.267  1.00  0.00     0.006 A 
ENDBRANCH  57  74
ENDBRANCH  31  32
ENDBRANCH  24  26
ENDBRANCH  23  24
ENDBRANCH  22  23
ENDBRANCH  21  22
ENDBRANCH   1  21
TORSDOF 16
ENDMDL
