MODEL 1
REMARK VINA RESULT:      -9.9      0.000      0.000
REMARK SMILES CCc1ccc2c(c1)C=C(C(=O)OCCOC(=O)c1ccc(-c3c4nc(c(-c5c(F)cccc5F)c5ccc([nH]5)c(-c5c(F)cccc5F)c5nc(c(-c6c(F)cccc6F)c6ccc3[nH]6)C=C5)C=C4)cc1)[C@H](C(F)(F)F)O2
REMARK SMILES IDX 15 1 14 2 13 3 11 4 12 5 10 6 3 7 4 8 8 9 5 10 7 11 6 12
REMARK SMILES IDX 9 13 78 14 73 15 2 16 1 17 74 18 75 19 76 20 77 21 16 22
REMARK SMILES IDX 17 23 18 24 19 25 20 26 72 27 21 28 71 29 22 30 23 31 24 32
REMARK SMILES IDX 65 33 25 34 70 35 64 36 66 37 26 38 69 39 63 40 62 41 27 43
REMARK SMILES IDX 53 44 36 45 52 46 37 47 40 48 51 49 67 50 38 51 39 52 50 54
REMARK SMILES IDX 68 55 41 56 28 57 29 58 34 59 30 60 31 61 33 62 35 63 32 64
REMARK SMILES IDX 54 65 55 66 60 67 56 68 57 69 59 70 61 71 58 72 42 73 43 74
REMARK SMILES IDX 48 75 44 76 45 77 47 78 49 79 46 80
REMARK H PARENT 66 42 40 53
REMARK Flexibility Score: inf
ROOT
ATOM      1  C   UNL A   1      40.722  20.136  26.784  1.00  0.00     0.275 C 
ENDROOT
BRANCH   1   2
ATOM      2  C   UNL A   1      42.086  20.115  26.089  1.00  0.00     0.275 C 
BRANCH   2   3
ATOM      3  O   UNL A   1      42.994  21.087  26.652  1.00  0.00    -0.459 OA
BRANCH   3   4
ATOM      4  C   UNL A   1      43.291  22.153  25.862  1.00  0.00     0.338 C 
ATOM      5  O   UNL A   1      42.710  22.445  24.836  1.00  0.00    -0.246 OA
BRANCH   4   6
ATOM      6  C   UNL A   1      44.402  22.963  26.419  1.00  0.00     0.087 C 
ATOM      7  C   UNL A   1      46.581  25.421  29.990  1.00  0.00    -0.047 A 
ATOM      8  C   UNL A   1      47.688  25.604  29.145  1.00  0.00     0.007 A 
ATOM      9  C   UNL A   1      45.480  24.694  29.506  1.00  0.00     0.015 A 
ATOM     10  C   UNL A   1      47.719  25.036  27.873  1.00  0.00     0.047 A 
ATOM     11  C   UNL A   1      45.498  24.132  28.220  1.00  0.00     0.018 A 
ATOM     12  C   UNL A   1      46.632  24.294  27.425  1.00  0.00     0.128 A 
ATOM     13  C   UNL A   1      44.385  23.331  27.714  1.00  0.00     0.027 C 
ATOM     14  O   UNL A   1      46.777  23.668  26.219  1.00  0.00    -0.475 OA
ATOM     15  C   UNL A   1      45.544  23.380  25.504  1.00  0.00     0.316 C 
BRANCH   7  16
ATOM     16  C   UNL A   1      46.683  25.967  31.396  1.00  0.00     0.032 C 
ATOM     17  C   UNL A   1      45.495  26.757  31.925  1.00  0.00     0.009 C 
ENDBRANCH   7  16
BRANCH  15  18
ATOM     18  C   UNL A   1      45.920  22.471  24.316  1.00  0.00     0.430 C 
ATOM     19  F   UNL A   1      45.080  22.624  23.268  1.00  0.00    -0.167 F 
ATOM     20  F   UNL A   1      47.150  22.807  23.840  1.00  0.00    -0.167 F 
ATOM     21  F   UNL A   1      45.972  21.164  24.651  1.00  0.00    -0.167 F 
ENDBRANCH  15  18
ENDBRANCH   4   6
ENDBRANCH   3   4
ENDBRANCH   2   3
ENDBRANCH   1   2
BRANCH   1  22
ATOM     22  O   UNL A   1      40.457  21.413  27.393  1.00  0.00    -0.458 OA
BRANCH  22  23
ATOM     23  C   UNL A   1      39.729  22.267  26.635  1.00  0.00     0.338 C 
ATOM     24  O   UNL A   1      38.797  21.983  25.901  1.00  0.00    -0.246 OA
BRANCH  23  25
ATOM     25  C   UNL A   1      40.076  23.661  26.974  1.00  0.00     0.060 A 
ATOM     26  C   UNL A   1      40.625  23.878  28.239  1.00  0.00     0.016 A 
ATOM     27  C   UNL A   1      39.870  24.735  26.105  1.00  0.00     0.016 A 
ATOM     28  C   UNL A   1      41.049  25.149  28.618  1.00  0.00     0.010 A 
ATOM     29  C   UNL A   1      40.245  26.025  26.508  1.00  0.00     0.010 A 
ATOM     30  C   UNL A   1      40.852  26.236  27.758  1.00  0.00    -0.014 A 
BRANCH  30  31
ATOM     31  C   UNL A   1      41.197  27.599  28.229  1.00  0.00     0.031 A 
ATOM     32  C   UNL A   1      42.632  28.037  28.220  1.00  0.00     0.074 A 
ATOM     33  C   UNL A   1      40.235  28.459  28.612  1.00  0.00     0.049 A 
ATOM     34  N   UNL A   1      43.157  29.173  28.602  1.00  0.00    -0.248 NA
ATOM     35  C   UNL A   1      43.606  27.067  27.695  1.00  0.00     0.031 C 
ATOM     36  C   UNL A   1      38.799  28.187  28.590  1.00  0.00     0.029 A 
ATOM     37  N   UNL A   1      40.329  29.741  29.094  1.00  0.00    -0.354 N 
ATOM     38  C   UNL A   1      44.518  29.059  28.360  1.00  0.00     0.074 A 
ATOM     39  C   UNL A   1      44.742  27.738  27.814  1.00  0.00     0.031 C 
ATOM     40  C   UNL A   1      38.146  29.264  29.061  1.00  0.00     0.029 A 
ATOM     41  C   UNL A   1      39.118  30.287  29.446  1.00  0.00     0.049 A 
ATOM     42  H   UNL A   1      41.183  30.225  29.179  1.00  0.00     0.167 HD
ATOM     43  C   UNL A   1      45.494  29.975  28.575  1.00  0.00     0.037 A 
ATOM     44  C   UNL A   1      38.833  31.463  30.040  1.00  0.00     0.037 A 
ATOM     45  C   UNL A   1      45.276  31.279  29.142  1.00  0.00     0.049 A 
ATOM     46  C   UNL A   1      39.952  32.414  30.378  1.00  0.00     0.074 A 
ATOM     47  C   UNL A   1      46.208  32.268  29.408  1.00  0.00     0.029 A 
ATOM     48  N   UNL A   1      44.045  31.771  29.548  1.00  0.00    -0.354 N 
ATOM     49  N   UNL A   1      41.237  32.306  30.136  1.00  0.00    -0.248 NA
ATOM     50  C   UNL A   1      39.582  33.655  31.076  1.00  0.00     0.031 C 
ATOM     51  C   UNL A   1      45.549  33.334  30.029  1.00  0.00     0.029 A 
ATOM     52  C   UNL A   1      44.198  33.036  30.093  1.00  0.00     0.049 A 
ATOM     53  H   UNL A   1      43.189  31.292  29.462  1.00  0.00     0.167 HD
ATOM     54  C   UNL A   1      41.818  33.473  30.620  1.00  0.00     0.074 A 
ATOM     55  C   UNL A   1      40.746  34.282  31.157  1.00  0.00     0.031 C 
ATOM     56  C   UNL A   1      43.124  33.841  30.617  1.00  0.00     0.037 A 
BRANCH  43  57
ATOM     57  C   UNL A   1      46.899  29.572  28.237  1.00  0.00     0.057 A 
ATOM     58  C   UNL A   1      47.387  29.608  26.924  1.00  0.00     0.134 A 
ATOM     59  C   UNL A   1      47.783  29.170  29.246  1.00  0.00     0.134 A 
ATOM     60  F   UNL A   1      46.586  29.968  25.910  1.00  0.00    -0.206 F 
ATOM     61  C   UNL A   1      48.699  29.238  26.626  1.00  0.00     0.040 A 
ATOM     62  C   UNL A   1      49.105  28.823  28.963  1.00  0.00     0.040 A 
ATOM     63  F   UNL A   1      47.380  29.115  30.525  1.00  0.00    -0.206 F 
ATOM     64  C   UNL A   1      49.564  28.851  27.648  1.00  0.00     0.006 A 
ENDBRANCH  43  57
BRANCH  44  65
ATOM     65  C   UNL A   1      37.431  31.804  30.398  1.00  0.00     0.057 A 
ATOM     66  C   UNL A   1      36.617  32.549  29.537  1.00  0.00     0.134 A 
ATOM     67  C   UNL A   1      36.893  31.447  31.641  1.00  0.00     0.134 A 
ATOM     68  F   UNL A   1      37.083  32.950  28.345  1.00  0.00    -0.206 F 
ATOM     69  C   UNL A   1      35.331  32.948  29.907  1.00  0.00     0.040 A 
ATOM     70  C   UNL A   1      35.599  31.814  32.013  1.00  0.00     0.040 A 
ATOM     71  F   UNL A   1      37.623  30.741  32.518  1.00  0.00    -0.206 F 
ATOM     72  C   UNL A   1      34.817  32.577  31.148  1.00  0.00     0.006 A 
ENDBRANCH  44  65
BRANCH  56  73
ATOM     73  C   UNL A   1      43.466  35.196  31.173  1.00  0.00     0.057 A 
ATOM     74  C   UNL A   1      43.723  35.399  32.535  1.00  0.00     0.134 A 
ATOM     75  C   UNL A   1      43.581  36.304  30.324  1.00  0.00     0.134 A 
ATOM     76  F   UNL A   1      43.620  34.383  33.406  1.00  0.00    -0.206 F 
ATOM     77  C   UNL A   1      44.059  36.659  33.035  1.00  0.00     0.040 A 
ATOM     78  C   UNL A   1      43.945  37.562  30.807  1.00  0.00     0.040 A 
ATOM     79  F   UNL A   1      43.360  36.180  29.006  1.00  0.00    -0.206 F 
ATOM     80  C   UNL A   1      44.178  37.744  32.168  1.00  0.00     0.006 A 
ENDBRANCH  56  73
ENDBRANCH  30  31
ENDBRANCH  23  25
ENDBRANCH  22  23
ENDBRANCH   1  22
TORSDOF 13
ENDMDL
MODEL 2
REMARK VINA RESULT:      -9.9      4.340     10.900
REMARK SMILES CCc1ccc2c(c1)C=C(C(=O)OCCOC(=O)c1ccc(-c3c4nc(c(-c5c(F)cccc5F)c5ccc([nH]5)c(-c5c(F)cccc5F)c5nc(c(-c6c(F)cccc6F)c6ccc3[nH]6)C=C5)C=C4)cc1)[C@H](C(F)(F)F)O2
REMARK SMILES IDX 15 1 14 2 13 3 11 4 12 5 10 6 3 7 4 8 8 9 5 10 7 11 6 12
REMARK SMILES IDX 9 13 78 14 73 15 2 16 1 17 74 18 75 19 76 20 77 21 16 22
REMARK SMILES IDX 17 23 18 24 19 25 20 26 72 27 21 28 71 29 22 30 23 31 24 32
REMARK SMILES IDX 65 33 25 34 70 35 64 36 66 37 26 38 69 39 63 40 62 41 27 43
REMARK SMILES IDX 53 44 36 45 52 46 37 47 40 48 51 49 67 50 38 51 39 52 50 54
REMARK SMILES IDX 68 55 41 56 28 57 29 58 34 59 30 60 31 61 33 62 35 63 32 64
REMARK SMILES IDX 54 65 55 66 60 67 56 68 57 69 59 70 61 71 58 72 42 73 43 74
REMARK SMILES IDX 48 75 44 76 45 77 47 78 49 79 46 80
REMARK H PARENT 66 42 40 53
REMARK Flexibility Score: inf
ROOT
ATOM      1  C   UNL A   1      33.949  33.635  28.210  1.00  0.00     0.275 C 
ENDROOT
BRANCH   1   2
ATOM      2  C   UNL A   1      34.642  34.724  29.033  1.00  0.00     0.275 C 
BRANCH   2   3
ATOM      3  O   UNL A   1      34.325  34.623  30.438  1.00  0.00    -0.459 OA
BRANCH   3   4
ATOM      4  C   UNL A   1      34.817  33.532  31.083  1.00  0.00     0.338 C 
ATOM      5  O   UNL A   1      34.245  32.465  31.185  1.00  0.00    -0.246 OA
BRANCH   4   6
ATOM      6  C   UNL A   1      36.174  33.776  31.630  1.00  0.00     0.087 C 
ATOM      7  C   UNL A   1      40.979  34.280  31.184  1.00  0.00    -0.047 A 
ATOM      8  C   UNL A   1      41.040  34.606  32.549  1.00  0.00     0.007 A 
ATOM      9  C   UNL A   1      39.725  34.002  30.614  1.00  0.00     0.015 A 
ATOM     10  C   UNL A   1      39.878  34.701  33.314  1.00  0.00     0.047 A 
ATOM     11  C   UNL A   1      38.553  34.080  31.383  1.00  0.00     0.018 A 
ATOM     12  C   UNL A   1      38.644  34.451  32.724  1.00  0.00     0.128 A 
ATOM     13  C   UNL A   1      37.233  33.843  30.801  1.00  0.00     0.027 C 
ATOM     14  O   UNL A   1      37.542  34.678  33.499  1.00  0.00    -0.475 OA
ATOM     15  C   UNL A   1      36.349  33.932  33.134  1.00  0.00     0.316 C 
BRANCH   7  16
ATOM     16  C   UNL A   1      42.273  34.321  30.403  1.00  0.00     0.032 C 
ATOM     17  C   UNL A   1      42.996  33.000  30.183  1.00  0.00     0.009 C 
ENDBRANCH   7  16
BRANCH  15  18
ATOM     18  C   UNL A   1      35.187  34.514  33.964  1.00  0.00     0.430 C 
ATOM     19  F   UNL A   1      34.105  33.704  33.969  1.00  0.00    -0.167 F 
ATOM     20  F   UNL A   1      35.555  34.627  35.270  1.00  0.00    -0.167 F 
ATOM     21  F   UNL A   1      34.815  35.745  33.554  1.00  0.00    -0.167 F 
ENDBRANCH  15  18
ENDBRANCH   4   6
ENDBRANCH   3   4
ENDBRANCH   2   3
ENDBRANCH   1   2
BRANCH   1  22
ATOM     22  O   UNL A   1      34.897  32.694  27.671  1.00  0.00    -0.458 OA
BRANCH  22  23
ATOM     23  C   UNL A   1      34.639  31.397  27.960  1.00  0.00     0.338 C 
ATOM     24  O   UNL A   1      33.638  30.765  27.665  1.00  0.00    -0.246 OA
BRANCH  23  25
ATOM     25  C   UNL A   1      35.848  30.755  28.513  1.00  0.00     0.060 A 
ATOM     26  C   UNL A   1      37.076  31.228  28.045  1.00  0.00     0.016 A 
ATOM     27  C   UNL A   1      35.807  29.719  29.448  1.00  0.00     0.016 A 
ATOM     28  C   UNL A   1      38.269  30.732  28.563  1.00  0.00     0.010 A 
ATOM     29  C   UNL A   1      37.008  29.179  29.929  1.00  0.00     0.010 A 
ATOM     30  C   UNL A   1      38.245  29.695  29.502  1.00  0.00    -0.014 A 
BRANCH  30  31
ATOM     31  C   UNL A   1      39.526  29.097  29.949  1.00  0.00     0.031 A 
ATOM     32  C   UNL A   1      40.214  29.657  31.159  1.00  0.00     0.074 A 
ATOM     33  C   UNL A   1      40.046  28.030  29.315  1.00  0.00     0.049 A 
ATOM     34  N   UNL A   1      41.345  29.299  31.711  1.00  0.00    -0.248 NA
ATOM     35  C   UNL A   1      39.526  30.761  31.847  1.00  0.00     0.031 C 
ATOM     36  C   UNL A   1      39.436  27.340  28.179  1.00  0.00     0.029 A 
ATOM     37  N   UNL A   1      41.211  27.340  29.543  1.00  0.00    -0.354 N 
ATOM     38  C   UNL A   1      41.504  30.128  32.814  1.00  0.00     0.074 A 
ATOM     39  C   UNL A   1      40.363  31.017  32.843  1.00  0.00     0.031 C 
ATOM     40  C   UNL A   1      40.245  26.338  27.795  1.00  0.00     0.029 A 
ATOM     41  C   UNL A   1      41.443  26.335  28.635  1.00  0.00     0.049 A 
ATOM     42  H   UNL A   1      41.824  27.546  30.286  1.00  0.00     0.167 HD
ATOM     43  C   UNL A   1      42.511  30.144  33.720  1.00  0.00     0.037 A 
ATOM     44  C   UNL A   1      42.512  25.529  28.483  1.00  0.00     0.037 A 
ATOM     45  C   UNL A   1      43.660  29.279  33.676  1.00  0.00     0.049 A 
ATOM     46  C   UNL A   1      43.675  25.651  29.434  1.00  0.00     0.074 A 
ATOM     47  C   UNL A   1      44.737  29.234  34.545  1.00  0.00     0.029 A 
ATOM     48  N   UNL A   1      43.892  28.318  32.704  1.00  0.00    -0.354 N 
ATOM     49  N   UNL A   1      43.814  26.428  30.482  1.00  0.00    -0.248 NA
ATOM     50  C   UNL A   1      44.835  24.782  29.180  1.00  0.00     0.031 C 
ATOM     51  C   UNL A   1      45.648  28.288  34.065  1.00  0.00     0.029 A 
ATOM     52  C   UNL A   1      45.110  27.698  32.933  1.00  0.00     0.049 A 
ATOM     53  H   UNL A   1      43.281  28.107  31.961  1.00  0.00     0.167 HD
ATOM     54  C   UNL A   1      45.055  26.118  31.027  1.00  0.00     0.074 A 
ATOM     55  C   UNL A   1      45.625  25.073  30.204  1.00  0.00     0.031 C 
ATOM     56  C   UNL A   1      45.667  26.651  32.114  1.00  0.00     0.037 A 
BRANCH  43  57
ATOM     57  C   UNL A   1      42.436  31.171  34.810  1.00  0.00     0.057 A 
ATOM     58  C   UNL A   1      42.987  32.451  34.665  1.00  0.00     0.134 A 
ATOM     59  C   UNL A   1      41.777  30.882  36.012  1.00  0.00     0.134 A 
ATOM     60  F   UNL A   1      43.645  32.785  33.545  1.00  0.00    -0.206 F 
ATOM     61  C   UNL A   1      42.902  33.400  35.685  1.00  0.00     0.040 A 
ATOM     62  C   UNL A   1      41.663  31.832  37.028  1.00  0.00     0.040 A 
ATOM     63  F   UNL A   1      41.225  29.676  36.214  1.00  0.00    -0.206 F 
ATOM     64  C   UNL A   1      42.232  33.093  36.869  1.00  0.00     0.006 A 
ENDBRANCH  43  57
BRANCH  44  65
ATOM     65  C   UNL A   1      42.565  24.554  27.361  1.00  0.00     0.057 A 
ATOM     66  C   UNL A   1      42.141  23.230  27.522  1.00  0.00     0.134 A 
ATOM     67  C   UNL A   1      43.104  24.909  26.118  1.00  0.00     0.134 A 
ATOM     68  F   UNL A   1      41.646  22.818  28.698  1.00  0.00    -0.206 F 
ATOM     69  C   UNL A   1      42.274  22.289  26.498  1.00  0.00     0.040 A 
ATOM     70  C   UNL A   1      43.216  23.988  25.076  1.00  0.00     0.040 A 
ATOM     71  F   UNL A   1      43.539  26.160  25.899  1.00  0.00    -0.206 F 
ATOM     72  C   UNL A   1      42.810  22.669  25.269  1.00  0.00     0.006 A 
ENDBRANCH  44  65
BRANCH  56  73
ATOM     73  C   UNL A   1      47.004  26.087  32.506  1.00  0.00     0.057 A 
ATOM     74  C   UNL A   1      48.203  26.563  31.959  1.00  0.00     0.134 A 
ATOM     75  C   UNL A   1      47.095  25.082  33.478  1.00  0.00     0.134 A 
ATOM     76  F   UNL A   1      48.189  27.518  31.016  1.00  0.00    -0.206 F 
ATOM     77  C   UNL A   1      49.440  26.044  32.347  1.00  0.00     0.040 A 
ATOM     78  C   UNL A   1      48.327  24.574  33.895  1.00  0.00     0.040 A 
ATOM     79  F   UNL A   1      45.988  24.586  34.052  1.00  0.00    -0.206 F 
ATOM     80  C   UNL A   1      49.505  25.051  33.324  1.00  0.00     0.006 A 
ENDBRANCH  56  73
ENDBRANCH  30  31
ENDBRANCH  23  25
ENDBRANCH  22  23
ENDBRANCH   1  22
TORSDOF 13
ENDMDL
MODEL 3
REMARK VINA RESULT:      -9.8      3.928      6.887
REMARK SMILES CCc1ccc2c(c1)C=C(C(=O)OCCOC(=O)c1ccc(-c3c4nc(c(-c5c(F)cccc5F)c5ccc([nH]5)c(-c5c(F)cccc5F)c5nc(c(-c6c(F)cccc6F)c6ccc3[nH]6)C=C5)C=C4)cc1)[C@H](C(F)(F)F)O2
REMARK SMILES IDX 15 1 14 2 13 3 11 4 12 5 10 6 3 7 4 8 8 9 5 10 7 11 6 12
REMARK SMILES IDX 9 13 78 14 73 15 2 16 1 17 74 18 75 19 76 20 77 21 16 22
REMARK SMILES IDX 17 23 18 24 19 25 20 26 72 27 21 28 71 29 22 30 23 31 24 32
REMARK SMILES IDX 65 33 25 34 70 35 64 36 66 37 26 38 69 39 63 40 62 41 27 43
REMARK SMILES IDX 53 44 36 45 52 46 37 47 40 48 51 49 67 50 38 51 39 52 50 54
REMARK SMILES IDX 68 55 41 56 28 57 29 58 34 59 30 60 31 61 33 62 35 63 32 64
REMARK SMILES IDX 54 65 55 66 60 67 56 68 57 69 59 70 61 71 58 72 42 73 43 74
REMARK SMILES IDX 48 75 44 76 45 77 47 78 49 79 46 80
REMARK H PARENT 66 42 40 53
REMARK Flexibility Score: inf
ROOT
ATOM      1  C   UNL A   1      43.611  21.922  25.044  1.00  0.00     0.275 C 
ENDROOT
BRANCH   1   2
ATOM      2  C   UNL A   1      42.458  21.219  25.766  1.00  0.00     0.275 C 
BRANCH   2   3
ATOM      3  O   UNL A   1      41.217  21.946  25.638  1.00  0.00    -0.459 OA
BRANCH   3   4
ATOM      4  C   UNL A   1      40.276  21.690  26.586  1.00  0.00     0.338 C 
ATOM      5  O   UNL A   1      40.500  21.216  27.681  1.00  0.00    -0.246 OA
BRANCH   4   6
ATOM      6  C   UNL A   1      38.919  22.096  26.143  1.00  0.00     0.087 C 
ATOM      7  C   UNL A   1      34.410  21.141  24.630  1.00  0.00    -0.047 A 
ATOM      8  C   UNL A   1      34.135  22.518  24.681  1.00  0.00     0.007 A 
ATOM      9  C   UNL A   1      35.691  20.697  25.001  1.00  0.00     0.015 A 
ATOM     10  C   UNL A   1      35.092  23.421  25.138  1.00  0.00     0.047 A 
ATOM     11  C   UNL A   1      36.665  21.604  25.446  1.00  0.00     0.018 A 
ATOM     12  C   UNL A   1      36.344  22.958  25.530  1.00  0.00     0.128 A 
ATOM     13  C   UNL A   1      37.987  21.160  25.884  1.00  0.00     0.027 C 
ATOM     14  O   UNL A   1      37.190  23.880  26.077  1.00  0.00    -0.475 OA
ATOM     15  C   UNL A   1      38.608  23.576  25.973  1.00  0.00     0.316 C 
BRANCH   7  16
ATOM     16  C   UNL A   1      33.274  20.221  24.240  1.00  0.00     0.032 C 
ATOM     17  C   UNL A   1      33.542  18.723  24.295  1.00  0.00     0.009 C 
ENDBRANCH   7  16
BRANCH  15  18
ATOM     18  C   UNL A   1      39.350  24.601  26.855  1.00  0.00     0.430 C 
ATOM     19  F   UNL A   1      40.366  25.202  26.197  1.00  0.00    -0.167 F 
ATOM     20  F   UNL A   1      38.507  25.610  27.209  1.00  0.00    -0.167 F 
ATOM     21  F   UNL A   1      39.822  24.064  28.000  1.00  0.00    -0.167 F 
ENDBRANCH  15  18
ENDBRANCH   4   6
ENDBRANCH   3   4
ENDBRANCH   2   3
ENDBRANCH   1   2
BRANCH   1  22
ATOM     22  O   UNL A   1      43.288  23.291  24.737  1.00  0.00    -0.458 OA
BRANCH  22  23
ATOM     23  C   UNL A   1      44.188  24.201  25.178  1.00  0.00     0.338 C 
ATOM     24  O   UNL A   1      45.250  24.495  24.654  1.00  0.00    -0.246 OA
BRANCH  23  25
ATOM     25  C   UNL A   1      43.614  24.974  26.297  1.00  0.00     0.060 A 
ATOM     26  C   UNL A   1      43.578  26.362  26.144  1.00  0.00     0.016 A 
ATOM     27  C   UNL A   1      43.135  24.386  27.469  1.00  0.00     0.016 A 
ATOM     28  C   UNL A   1      42.989  27.166  27.116  1.00  0.00     0.010 A 
ATOM     29  C   UNL A   1      42.593  25.200  28.474  1.00  0.00     0.010 A 
ATOM     30  C   UNL A   1      42.501  26.592  28.295  1.00  0.00    -0.014 A 
BRANCH  30  31
ATOM     31  C   UNL A   1      41.992  27.476  29.370  1.00  0.00     0.031 A 
ATOM     32  C   UNL A   1      42.686  27.489  30.700  1.00  0.00     0.074 A 
ATOM     33  C   UNL A   1      40.952  28.302  29.148  1.00  0.00     0.049 A 
ATOM     34  N   UNL A   1      42.401  28.170  31.780  1.00  0.00    -0.248 NA
ATOM     35  C   UNL A   1      43.873  26.627  30.824  1.00  0.00     0.031 C 
ATOM     36  C   UNL A   1      40.243  28.446  27.878  1.00  0.00     0.029 A 
ATOM     37  N   UNL A   1      40.314  29.177  29.993  1.00  0.00    -0.354 N 
ATOM     38  C   UNL A   1      43.372  27.826  32.710  1.00  0.00     0.074 A 
ATOM     39  C   UNL A   1      44.245  26.863  32.074  1.00  0.00     0.031 C 
ATOM     40  C   UNL A   1      39.251  29.340  28.034  1.00  0.00     0.029 A 
ATOM     41  C   UNL A   1      39.236  29.807  29.421  1.00  0.00     0.049 A 
ATOM     42  H   UNL A   1      40.602  29.337  30.921  1.00  0.00     0.167 HD
ATOM     43  C   UNL A   1      43.521  28.272  33.981  1.00  0.00     0.037 A 
ATOM     44  C   UNL A   1      38.326  30.639  29.964  1.00  0.00     0.037 A 
ATOM     45  C   UNL A   1      42.638  29.209  34.624  1.00  0.00     0.049 A 
ATOM     46  C   UNL A   1      38.446  31.026  31.416  1.00  0.00     0.074 A 
ATOM     47  C   UNL A   1      42.704  29.709  35.913  1.00  0.00     0.029 A 
ATOM     48  N   UNL A   1      41.518  29.776  34.033  1.00  0.00    -0.354 N 
ATOM     49  N   UNL A   1      39.373  30.706  32.287  1.00  0.00    -0.248 NA
ATOM     50  C   UNL A   1      37.390  31.891  31.963  1.00  0.00     0.031 C 
ATOM     51  C   UNL A   1      41.592  30.530  36.122  1.00  0.00     0.029 A 
ATOM     52  C   UNL A   1      40.867  30.593  34.943  1.00  0.00     0.049 A 
ATOM     53  H   UNL A   1      41.229  29.620  33.105  1.00  0.00     0.167 HD
ATOM     54  C   UNL A   1      39.031  31.356  33.468  1.00  0.00     0.074 A 
ATOM     55  C   UNL A   1      37.818  32.098  33.200  1.00  0.00     0.031 C 
ATOM     56  C   UNL A   1      39.665  31.338  34.667  1.00  0.00     0.037 A 
BRANCH  43  57
ATOM     57  C   UNL A   1      44.660  27.709  34.777  1.00  0.00     0.057 A 
ATOM     58  C   UNL A   1      44.534  26.529  35.522  1.00  0.00     0.134 A 
ATOM     59  C   UNL A   1      45.910  28.342  34.772  1.00  0.00     0.134 A 
ATOM     60  F   UNL A   1      43.360  25.884  35.581  1.00  0.00    -0.206 F 
ATOM     61  C   UNL A   1      45.605  26.012  36.251  1.00  0.00     0.040 A 
ATOM     62  C   UNL A   1      46.995  27.819  35.477  1.00  0.00     0.040 A 
ATOM     63  F   UNL A   1      46.098  29.474  34.077  1.00  0.00    -0.206 F 
ATOM     64  C   UNL A   1      46.843  26.654  36.224  1.00  0.00     0.006 A 
ENDBRANCH  43  57
BRANCH  44  65
ATOM     65  C   UNL A   1      37.186  31.140  29.151  1.00  0.00     0.057 A 
ATOM     66  C   UNL A   1      37.142  32.460  28.687  1.00  0.00     0.134 A 
ATOM     67  C   UNL A   1      36.080  30.326  28.874  1.00  0.00     0.134 A 
ATOM     68  F   UNL A   1      38.155  33.301  28.947  1.00  0.00    -0.206 F 
ATOM     69  C   UNL A   1      36.033  32.960  28.001  1.00  0.00     0.040 A 
ATOM     70  C   UNL A   1      34.977  30.802  28.164  1.00  0.00     0.040 A 
ATOM     71  F   UNL A   1      36.052  29.053  29.298  1.00  0.00    -0.206 F 
ATOM     72  C   UNL A   1      34.947  32.128  27.735  1.00  0.00     0.006 A 
ENDBRANCH  44  65
BRANCH  56  73
ATOM     73  C   UNL A   1      39.087  32.180  35.771  1.00  0.00     0.057 A 
ATOM     74  C   UNL A   1      38.193  31.658  36.715  1.00  0.00     0.134 A 
ATOM     75  C   UNL A   1      39.468  33.520  35.916  1.00  0.00     0.134 A 
ATOM     76  F   UNL A   1      37.778  30.385  36.629  1.00  0.00    -0.206 F 
ATOM     77  C   UNL A   1      37.680  32.446  37.748  1.00  0.00     0.040 A 
ATOM     78  C   UNL A   1      38.985  34.310  36.961  1.00  0.00     0.040 A 
ATOM     79  F   UNL A   1      40.329  34.082  35.055  1.00  0.00    -0.206 F 
ATOM     80  C   UNL A   1      38.082  33.775  37.877  1.00  0.00     0.006 A 
ENDBRANCH  56  73
ENDBRANCH  30  31
ENDBRANCH  23  25
ENDBRANCH  22  23
ENDBRANCH   1  22
TORSDOF 13
ENDMDL
