MODEL 1
REMARK VINA RESULT:     -11.7      0.000      0.000
REMARK SMILES CC(C)c1cc2c(cc1Cl)C=C(C(=O)OCCOC(=O)c1ccc(-c3c4nc(c(-c5c(F)cccc5F)c5ccc([nH]5)c(-c5c(F)cccc5F)c5nc(c(-c6c(F)cccc6F)c6ccc3[nH]6)C=C5)C=C4)cc1)[C@@H](C(F)(F)F)O2
REMARK SMILES IDX 17 1 16 2 15 3 13 4 14 5 12 6 4 7 5 8 9 9 6 10 8 11 10 12
REMARK SMILES IDX 7 13 80 14 11 15 75 16 2 17 1 18 3 19 76 20 77 21 78 22
REMARK SMILES IDX 79 23 18 24 19 25 20 26 21 27 22 28 74 29 23 30 73 31 24 32
REMARK SMILES IDX 25 33 26 34 67 35 27 36 72 37 66 38 68 39 28 40 71 41 65 42
REMARK SMILES IDX 64 43 29 45 55 46 38 47 54 48 39 49 42 50 53 51 69 52 40 53
REMARK SMILES IDX 41 54 52 56 70 57 43 58 30 59 31 60 36 61 32 62 33 63 35 64
REMARK SMILES IDX 37 65 34 66 56 67 57 68 62 69 58 70 59 71 61 72 63 73 60 74
REMARK SMILES IDX 44 75 45 76 50 77 46 78 47 79 49 80 51 81 48 82
REMARK H PARENT 68 44 42 55
REMARK Flexibility Score: inf
ROOT
ATOM      1  C   UNL A   1      36.953  20.141  24.771  1.00  0.00     0.275 C 
ENDROOT
BRANCH   1   2
ATOM      2  C   UNL A   1      35.447  20.220  25.018  1.00  0.00     0.275 C 
BRANCH   2   3
ATOM      3  O   UNL A   1      34.839  21.285  24.252  1.00  0.00    -0.459 OA
BRANCH   3   4
ATOM      4  C   UNL A   1      33.510  21.453  24.449  1.00  0.00     0.338 C 
ATOM      5  O   UNL A   1      32.640  20.606  24.315  1.00  0.00    -0.246 OA
BRANCH   4   6
ATOM      6  C   UNL A   1      33.220  22.817  24.927  1.00  0.00     0.087 C 
ATOM      7  C   UNL A   1      33.302  27.839  25.512  1.00  0.00    -0.023 A 
ATOM      8  C   UNL A   1      32.905  26.737  26.319  1.00  0.00     0.052 A 
ATOM      9  C   UNL A   1      33.727  27.559  24.203  1.00  0.00     0.045 A 
ATOM     10  C   UNL A   1      32.959  25.420  25.861  1.00  0.00     0.128 A 
ATOM     11  C   UNL A   1      33.805  26.236  23.756  1.00  0.00     0.032 A 
ATOM     12  Cl  UNL A   1      34.155  28.745  23.026  1.00  0.00    -0.084 Cl
ATOM     13  C   UNL A   1      33.435  25.177  24.585  1.00  0.00     0.019 A 
ATOM     14  O   UNL A   1      32.528  24.437  26.707  1.00  0.00    -0.475 OA
ATOM     15  C   UNL A   1      33.583  23.818  24.121  1.00  0.00     0.027 C 
ATOM     16  C   UNL A   1      32.675  23.037  26.311  1.00  0.00     0.316 C 
BRANCH   7  17
ATOM     17  C   UNL A   1      33.187  29.215  26.164  1.00  0.00     0.014 C 
ATOM     18  C   UNL A   1      31.907  29.567  26.927  1.00  0.00     0.012 C 
ATOM     19  C   UNL A   1      34.405  29.474  27.058  1.00  0.00     0.012 C 
ENDBRANCH   7  17
BRANCH  16  20
ATOM     20  C   UNL A   1      33.533  22.328  27.371  1.00  0.00     0.430 C 
ATOM     21  F   UNL A   1      33.393  20.983  27.299  1.00  0.00    -0.167 F 
ATOM     22  F   UNL A   1      34.852  22.589  27.204  1.00  0.00    -0.167 F 
ATOM     23  F   UNL A   1      33.202  22.705  28.627  1.00  0.00    -0.167 F 
ENDBRANCH  16  20
ENDBRANCH   4   6
ENDBRANCH   3   4
ENDBRANCH   2   3
ENDBRANCH   1   2
BRANCH   1  24
ATOM     24  O   UNL A   1      37.620  21.251  25.400  1.00  0.00    -0.458 OA
BRANCH  24  25
ATOM     25  C   UNL A   1      38.849  20.990  25.901  1.00  0.00     0.338 C 
ATOM     26  O   UNL A   1      39.466  19.941  25.852  1.00  0.00    -0.246 OA
BRANCH  25  27
ATOM     27  C   UNL A   1      39.415  22.216  26.486  1.00  0.00     0.060 A 
ATOM     28  C   UNL A   1      40.562  22.177  27.273  1.00  0.00     0.016 A 
ATOM     29  C   UNL A   1      38.876  23.439  26.111  1.00  0.00     0.016 A 
ATOM     30  C   UNL A   1      41.147  23.380  27.689  1.00  0.00     0.010 A 
ATOM     31  C   UNL A   1      39.557  24.624  26.380  1.00  0.00     0.010 A 
ATOM     32  C   UNL A   1      40.680  24.624  27.216  1.00  0.00    -0.014 A 
BRANCH  32  33
ATOM     33  C   UNL A   1      41.323  25.914  27.614  1.00  0.00     0.031 A 
ATOM     34  C   UNL A   1      42.725  26.258  27.152  1.00  0.00     0.074 A 
ATOM     35  C   UNL A   1      40.675  26.773  28.430  1.00  0.00     0.049 A 
ATOM     36  N   UNL A   1      43.455  27.314  27.427  1.00  0.00    -0.248 NA
ATOM     37  C   UNL A   1      43.420  25.269  26.313  1.00  0.00     0.031 C 
ATOM     38  C   UNL A   1      39.365  26.545  29.043  1.00  0.00     0.029 A 
ATOM     39  N   UNL A   1      41.029  28.026  28.873  1.00  0.00    -0.354 N 
ATOM     40  C   UNL A   1      44.695  27.085  26.838  1.00  0.00     0.074 A 
ATOM     41  C   UNL A   1      44.646  25.764  26.257  1.00  0.00     0.031 C 
ATOM     42  C   UNL A   1      38.993  27.646  29.716  1.00  0.00     0.029 A 
ATOM     43  C   UNL A   1      40.054  28.643  29.621  1.00  0.00     0.049 A 
ATOM     44  H   UNL A   1      41.899  28.442  28.675  1.00  0.00     0.167 HD
ATOM     45  C   UNL A   1      45.765  27.911  26.739  1.00  0.00     0.037 A 
ATOM     46  C   UNL A   1      40.009  29.878  30.156  1.00  0.00     0.037 A 
ATOM     47  C   UNL A   1      45.793  29.261  27.233  1.00  0.00     0.049 A 
ATOM     48  C   UNL A   1      41.176  30.808  29.967  1.00  0.00     0.074 A 
ATOM     49  C   UNL A   1      46.792  30.210  27.100  1.00  0.00     0.029 A 
ATOM     50  N   UNL A   1      44.763  29.859  27.941  1.00  0.00    -0.354 N 
ATOM     51  N   UNL A   1      42.305  30.601  29.336  1.00  0.00    -0.248 NA
ATOM     52  C   UNL A   1      41.056  32.147  30.561  1.00  0.00     0.031 C 
ATOM     53  C   UNL A   1      46.373  31.378  27.744  1.00  0.00     0.029 A 
ATOM     54  C   UNL A   1      45.102  31.165  28.252  1.00  0.00     0.049 A 
ATOM     55  H   UNL A   1      43.917  29.421  28.187  1.00  0.00     0.167 HD
ATOM     56  C   UNL A   1      43.018  31.789  29.436  1.00  0.00     0.074 A 
ATOM     57  C   UNL A   1      42.187  32.718  30.171  1.00  0.00     0.031 C 
ATOM     58  C   UNL A   1      44.256  32.082  28.967  1.00  0.00     0.037 A 
BRANCH  45  59
ATOM     59  C   UNL A   1      46.983  27.385  26.031  1.00  0.00     0.057 A 
ATOM     60  C   UNL A   1      48.008  26.746  26.741  1.00  0.00     0.134 A 
ATOM     61  C   UNL A   1      47.149  27.525  24.647  1.00  0.00     0.134 A 
ATOM     62  F   UNL A   1      47.922  26.589  28.070  1.00  0.00    -0.206 F 
ATOM     63  C   UNL A   1      49.147  26.258  26.097  1.00  0.00     0.040 A 
ATOM     64  C   UNL A   1      48.269  27.014  23.988  1.00  0.00     0.040 A 
ATOM     65  F   UNL A   1      46.202  28.119  23.904  1.00  0.00    -0.206 F 
ATOM     66  C   UNL A   1      49.275  26.382  24.715  1.00  0.00     0.006 A 
ENDBRANCH  45  59
BRANCH  46  67
ATOM     67  C   UNL A   1      38.795  30.340  30.877  1.00  0.00     0.057 A 
ATOM     68  C   UNL A   1      37.751  30.996  30.216  1.00  0.00     0.134 A 
ATOM     69  C   UNL A   1      38.646  30.108  32.250  1.00  0.00     0.134 A 
ATOM     70  F   UNL A   1      37.837  31.255  28.903  1.00  0.00    -0.206 F 
ATOM     71  C   UNL A   1      36.600  31.403  30.894  1.00  0.00     0.040 A 
ATOM     72  C   UNL A   1      37.490  30.487  32.935  1.00  0.00     0.040 A 
ATOM     73  F   UNL A   1      39.605  29.467  32.934  1.00  0.00    -0.206 F 
ATOM     74  C   UNL A   1      36.464  31.139  32.256  1.00  0.00     0.006 A 
ENDBRANCH  46  67
BRANCH  58  75
ATOM     75  C   UNL A   1      44.763  33.473  29.201  1.00  0.00     0.057 A 
ATOM     76  C   UNL A   1      44.504  34.490  28.275  1.00  0.00     0.134 A 
ATOM     77  C   UNL A   1      45.530  33.798  30.326  1.00  0.00     0.134 A 
ATOM     78  F   UNL A   1      43.782  34.241  27.172  1.00  0.00    -0.206 F 
ATOM     79  C   UNL A   1      44.991  35.784  28.461  1.00  0.00     0.040 A 
ATOM     80  C   UNL A   1      46.003  35.094  30.536  1.00  0.00     0.040 A 
ATOM     81  F   UNL A   1      45.800  32.869  31.256  1.00  0.00    -0.206 F 
ATOM     82  C   UNL A   1      45.737  36.091  29.597  1.00  0.00     0.006 A 
ENDBRANCH  58  75
ENDBRANCH  32  33
ENDBRANCH  25  27
ENDBRANCH  24  25
ENDBRANCH   1  24
TORSDOF 13
ENDMDL
MODEL 2
REMARK VINA RESULT:     -11.7      5.227     10.549
REMARK SMILES CC(C)c1cc2c(cc1Cl)C=C(C(=O)OCCOC(=O)c1ccc(-c3c4nc(c(-c5c(F)cccc5F)c5ccc([nH]5)c(-c5c(F)cccc5F)c5nc(c(-c6c(F)cccc6F)c6ccc3[nH]6)C=C5)C=C4)cc1)[C@@H](C(F)(F)F)O2
REMARK SMILES IDX 17 1 16 2 15 3 13 4 14 5 12 6 4 7 5 8 9 9 6 10 8 11 10 12
REMARK SMILES IDX 7 13 80 14 11 15 75 16 2 17 1 18 3 19 76 20 77 21 78 22
REMARK SMILES IDX 79 23 18 24 19 25 20 26 21 27 22 28 74 29 23 30 73 31 24 32
REMARK SMILES IDX 25 33 26 34 67 35 27 36 72 37 66 38 68 39 28 40 71 41 65 42
REMARK SMILES IDX 64 43 29 45 55 46 38 47 54 48 39 49 42 50 53 51 69 52 40 53
REMARK SMILES IDX 41 54 52 56 70 57 43 58 30 59 31 60 36 61 32 62 33 63 35 64
REMARK SMILES IDX 37 65 34 66 56 67 57 68 62 69 58 70 59 71 61 72 63 73 60 74
REMARK SMILES IDX 44 75 45 76 50 77 46 78 47 79 49 80 51 81 48 82
REMARK H PARENT 68 44 42 55
REMARK Flexibility Score: inf
ROOT
ATOM      1  C   UNL A   1      33.640  33.734  28.266  1.00  0.00     0.275 C 
ENDROOT
BRANCH   1   2
ATOM      2  C   UNL A   1      34.285  34.781  29.173  1.00  0.00     0.275 C 
BRANCH   2   3
ATOM      3  O   UNL A   1      34.036  34.499  30.569  1.00  0.00    -0.459 OA
BRANCH   3   4
ATOM      4  C   UNL A   1      34.758  33.479  31.090  1.00  0.00     0.338 C 
ATOM      5  O   UNL A   1      34.448  32.297  31.103  1.00  0.00    -0.246 OA
BRANCH   4   6
ATOM      6  C   UNL A   1      36.050  33.964  31.609  1.00  0.00     0.087 C 
ATOM      7  C   UNL A   1      41.010  34.668  32.298  1.00  0.00    -0.023 A 
ATOM      8  C   UNL A   1      39.847  34.846  33.097  1.00  0.00     0.052 A 
ATOM      9  C   UNL A   1      40.822  34.261  30.967  1.00  0.00     0.045 A 
ATOM     10  C   UNL A   1      38.563  34.601  32.608  1.00  0.00     0.128 A 
ATOM     11  C   UNL A   1      39.536  33.990  30.489  1.00  0.00     0.032 A 
ATOM     12  Cl  UNL A   1      42.078  34.080  29.800  1.00  0.00    -0.084 Cl
ATOM     13  C   UNL A   1      38.418  34.148  31.309  1.00  0.00     0.019 A 
ATOM     14  O   UNL A   1      37.510  34.830  33.450  1.00  0.00    -0.475 OA
ATOM     15  C   UNL A   1      37.109  33.804  30.810  1.00  0.00     0.027 C 
ATOM     16  C   UNL A   1      36.159  34.477  33.018  1.00  0.00     0.316 C 
BRANCH   7  17
ATOM     17  C   UNL A   1      42.339  34.974  32.984  1.00  0.00     0.014 C 
ATOM     18  C   UNL A   1      43.485  35.556  32.150  1.00  0.00     0.012 C 
ATOM     19  C   UNL A   1      42.102  35.855  34.216  1.00  0.00     0.012 C 
ENDBRANCH   7  17
BRANCH  16  20
ATOM     20  C   UNL A   1      35.582  33.471  34.027  1.00  0.00     0.430 C 
ATOM     21  F   UNL A   1      36.037  32.218  33.789  1.00  0.00    -0.167 F 
ATOM     22  F   UNL A   1      35.939  33.778  35.297  1.00  0.00    -0.167 F 
ATOM     23  F   UNL A   1      34.231  33.428  33.984  1.00  0.00    -0.167 F 
ENDBRANCH  16  20
ENDBRANCH   4   6
ENDBRANCH   3   4
ENDBRANCH   2   3
ENDBRANCH   1   2
BRANCH   1  24
ATOM     24  O   UNL A   1      34.653  32.925  27.639  1.00  0.00    -0.458 OA
BRANCH  24  25
ATOM     25  C   UNL A   1      34.501  31.588  27.769  1.00  0.00     0.338 C 
ATOM     26  O   UNL A   1      33.490  30.932  27.590  1.00  0.00    -0.246 OA
BRANCH  25  27
ATOM     27  C   UNL A   1      35.794  30.973  28.108  1.00  0.00     0.060 A 
ATOM     28  C   UNL A   1      36.983  31.686  27.994  1.00  0.00     0.016 A 
ATOM     29  C   UNL A   1      35.797  29.715  28.696  1.00  0.00     0.016 A 
ATOM     30  C   UNL A   1      38.173  31.112  28.463  1.00  0.00     0.010 A 
ATOM     31  C   UNL A   1      36.944  29.225  29.314  1.00  0.00     0.010 A 
ATOM     32  C   UNL A   1      38.167  29.890  29.168  1.00  0.00    -0.014 A 
BRANCH  32  33
ATOM     33  C   UNL A   1      39.422  29.288  29.715  1.00  0.00     0.031 A 
ATOM     34  C   UNL A   1      39.973  29.725  31.058  1.00  0.00     0.074 A 
ATOM     35  C   UNL A   1      40.107  28.372  28.996  1.00  0.00     0.049 A 
ATOM     36  N   UNL A   1      41.066  29.339  31.674  1.00  0.00    -0.248 NA
ATOM     37  C   UNL A   1      39.230  30.768  31.784  1.00  0.00     0.031 C 
ATOM     38  C   UNL A   1      39.767  27.920  27.646  1.00  0.00     0.029 A 
ATOM     39  N   UNL A   1      41.229  27.643  29.311  1.00  0.00    -0.354 N 
ATOM     40  C   UNL A   1      41.157  30.123  32.820  1.00  0.00     0.074 A 
ATOM     41  C   UNL A   1      40.055  31.056  32.778  1.00  0.00     0.031 C 
ATOM     42  C   UNL A   1      40.611  26.942  27.280  1.00  0.00     0.029 A 
ATOM     43  C   UNL A   1      41.580  26.724  28.349  1.00  0.00     0.049 A 
ATOM     44  H   UNL A   1      41.736  27.768  30.146  1.00  0.00     0.167 HD
ATOM     45  C   UNL A   1      42.040  30.049  33.845  1.00  0.00     0.037 A 
ATOM     46  C   UNL A   1      42.558  25.800  28.335  1.00  0.00     0.037 A 
ATOM     47  C   UNL A   1      43.086  29.066  33.942  1.00  0.00     0.049 A 
ATOM     48  C   UNL A   1      43.480  25.681  29.518  1.00  0.00     0.074 A 
ATOM     49  C   UNL A   1      43.972  28.846  34.982  1.00  0.00     0.029 A 
ATOM     50  N   UNL A   1      43.371  28.125  32.966  1.00  0.00    -0.354 N 
ATOM     51  N   UNL A   1      43.497  26.378  30.627  1.00  0.00    -0.248 NA
ATOM     52  C   UNL A   1      44.516  24.640  29.446  1.00  0.00     0.031 C 
ATOM     53  C   UNL A   1      44.807  27.782  34.627  1.00  0.00     0.029 A 
ATOM     54  C   UNL A   1      44.420  27.321  33.379  1.00  0.00     0.049 A 
ATOM     55  H   UNL A   1      42.898  28.040  32.107  1.00  0.00     0.167 HD
ATOM     56  C   UNL A   1      44.525  25.845  31.393  1.00  0.00     0.074 A 
ATOM     57  C   UNL A   1      45.096  24.755  30.632  1.00  0.00     0.031 C 
ATOM     58  C   UNL A   1      44.963  26.229  32.617  1.00  0.00     0.037 A 
BRANCH  45  59
ATOM     59  C   UNL A   1      41.886  31.039  34.966  1.00  0.00     0.057 A 
ATOM     60  C   UNL A   1      42.774  32.114  35.104  1.00  0.00     0.134 A 
ATOM     61  C   UNL A   1      40.866  30.919  35.920  1.00  0.00     0.134 A 
ATOM     62  F   UNL A   1      43.781  32.283  34.235  1.00  0.00    -0.206 F 
ATOM     63  C   UNL A   1      42.645  33.037  36.143  1.00  0.00     0.040 A 
ATOM     64  C   UNL A   1      40.710  31.853  36.946  1.00  0.00     0.040 A 
ATOM     65  F   UNL A   1      39.976  29.918  35.842  1.00  0.00    -0.206 F 
ATOM     66  C   UNL A   1      41.605  32.915  37.062  1.00  0.00     0.006 A 
ENDBRANCH  45  59
BRANCH  46  67
ATOM     67  C   UNL A   1      42.692  24.866  27.188  1.00  0.00     0.057 A 
ATOM     68  C   UNL A   1      43.513  25.156  26.093  1.00  0.00     0.134 A 
ATOM     69  C   UNL A   1      42.012  23.641  27.178  1.00  0.00     0.134 A 
ATOM     70  F   UNL A   1      44.184  26.316  26.039  1.00  0.00    -0.206 F 
ATOM     71  C   UNL A   1      43.656  24.261  25.031  1.00  0.00     0.040 A 
ATOM     72  C   UNL A   1      42.166  22.726  26.135  1.00  0.00     0.040 A 
ATOM     73  F   UNL A   1      41.225  23.298  28.209  1.00  0.00    -0.206 F 
ATOM     74  C   UNL A   1      42.989  23.038  25.055  1.00  0.00     0.006 A 
ENDBRANCH  46  67
BRANCH  58  75
ATOM     75  C   UNL A   1      46.086  25.439  33.220  1.00  0.00     0.057 A 
ATOM     76  C   UNL A   1      47.417  25.793  32.975  1.00  0.00     0.134 A 
ATOM     77  C   UNL A   1      45.848  24.315  34.021  1.00  0.00     0.134 A 
ATOM     78  F   UNL A   1      47.712  26.855  32.210  1.00  0.00    -0.206 F 
ATOM     79  C   UNL A   1      48.475  25.055  33.506  1.00  0.00     0.040 A 
ATOM     80  C   UNL A   1      46.898  23.582  34.577  1.00  0.00     0.040 A 
ATOM     81  F   UNL A   1      44.593  23.935  34.303  1.00  0.00    -0.206 F 
ATOM     82  C   UNL A   1      48.217  23.950  34.314  1.00  0.00     0.006 A 
ENDBRANCH  58  75
ENDBRANCH  32  33
ENDBRANCH  25  27
ENDBRANCH  24  25
ENDBRANCH   1  24
TORSDOF 13
ENDMDL
MODEL 3
REMARK VINA RESULT:     -11.6      4.199      8.976
REMARK SMILES CC(C)c1cc2c(cc1Cl)C=C(C(=O)OCCOC(=O)c1ccc(-c3c4nc(c(-c5c(F)cccc5F)c5ccc([nH]5)c(-c5c(F)cccc5F)c5nc(c(-c6c(F)cccc6F)c6ccc3[nH]6)C=C5)C=C4)cc1)[C@@H](C(F)(F)F)O2
REMARK SMILES IDX 17 1 16 2 15 3 13 4 14 5 12 6 4 7 5 8 9 9 6 10 8 11 10 12
REMARK SMILES IDX 7 13 80 14 11 15 75 16 2 17 1 18 3 19 76 20 77 21 78 22
REMARK SMILES IDX 79 23 18 24 19 25 20 26 21 27 22 28 74 29 23 30 73 31 24 32
REMARK SMILES IDX 25 33 26 34 67 35 27 36 72 37 66 38 68 39 28 40 71 41 65 42
REMARK SMILES IDX 64 43 29 45 55 46 38 47 54 48 39 49 42 50 53 51 69 52 40 53
REMARK SMILES IDX 41 54 52 56 70 57 43 58 30 59 31 60 36 61 32 62 33 63 35 64
REMARK SMILES IDX 37 65 34 66 56 67 57 68 62 69 58 70 59 71 61 72 63 73 60 74
REMARK SMILES IDX 44 75 45 76 50 77 46 78 47 79 49 80 51 81 48 82
REMARK H PARENT 68 44 42 55
REMARK Flexibility Score: inf
ROOT
ATOM      1  C   UNL A   1      31.366  30.822  26.109  1.00  0.00     0.275 C 
ENDROOT
BRANCH   1   2
ATOM      2  C   UNL A   1      31.023  30.089  24.812  1.00  0.00     0.275 C 
BRANCH   2   3
ATOM      3  O   UNL A   1      30.773  28.684  25.046  1.00  0.00    -0.459 OA
BRANCH   3   4
ATOM      4  C   UNL A   1      30.731  27.912  23.935  1.00  0.00     0.338 C 
ATOM      5  O   UNL A   1      29.944  28.013  23.006  1.00  0.00    -0.246 OA
BRANCH   4   6
ATOM      6  C   UNL A   1      31.830  26.929  23.939  1.00  0.00     0.087 C 
ATOM      7  C   UNL A   1      35.275  23.556  25.463  1.00  0.00    -0.023 A 
ATOM      8  C   UNL A   1      35.135  24.414  24.337  1.00  0.00     0.052 A 
ATOM      9  C   UNL A   1      34.221  23.532  26.391  1.00  0.00     0.045 A 
ATOM     10  C   UNL A   1      34.018  25.232  24.158  1.00  0.00     0.128 A 
ATOM     11  C   UNL A   1      33.117  24.373  26.222  1.00  0.00     0.032 A 
ATOM     12  Cl  UNL A   1      34.138  22.498  27.768  1.00  0.00    -0.084 Cl
ATOM     13  C   UNL A   1      33.024  25.224  25.120  1.00  0.00     0.019 A 
ATOM     14  O   UNL A   1      33.968  25.998  23.027  1.00  0.00    -0.475 OA
ATOM     15  C   UNL A   1      31.903  26.124  25.002  1.00  0.00     0.027 C 
ATOM     16  C   UNL A   1      32.874  26.953  22.858  1.00  0.00     0.316 C 
BRANCH   7  17
ATOM     17  C   UNL A   1      36.559  22.731  25.512  1.00  0.00     0.014 C 
ATOM     18  C   UNL A   1      36.978  21.941  24.268  1.00  0.00     0.012 C 
ATOM     19  C   UNL A   1      37.726  23.606  25.982  1.00  0.00     0.012 C 
ENDBRANCH   7  17
BRANCH  16  20
ATOM     20  C   UNL A   1      33.484  28.355  22.697  1.00  0.00     0.430 C 
ATOM     21  F   UNL A   1      33.874  28.862  23.890  1.00  0.00    -0.167 F 
ATOM     22  F   UNL A   1      34.584  28.334  21.907  1.00  0.00    -0.167 F 
ATOM     23  F   UNL A   1      32.608  29.229  22.150  1.00  0.00    -0.167 F 
ENDBRANCH  16  20
ENDBRANCH   4   6
ENDBRANCH   3   4
ENDBRANCH   2   3
ENDBRANCH   1   2
BRANCH   1  24
ATOM     24  O   UNL A   1      32.788  30.800  26.333  1.00  0.00    -0.458 OA
BRANCH  24  25
ATOM     25  C   UNL A   1      33.274  31.794  27.111  1.00  0.00     0.338 C 
ATOM     26  O   UNL A   1      32.729  32.842  27.409  1.00  0.00    -0.246 OA
BRANCH  25  27
ATOM     27  C   UNL A   1      34.591  31.406  27.642  1.00  0.00     0.060 A 
ATOM     28  C   UNL A   1      35.552  32.361  27.956  1.00  0.00     0.016 A 
ATOM     29  C   UNL A   1      34.805  30.075  27.977  1.00  0.00     0.016 A 
ATOM     30  C   UNL A   1      36.733  31.960  28.593  1.00  0.00     0.010 A 
ATOM     31  C   UNL A   1      35.895  29.710  28.761  1.00  0.00     0.010 A 
ATOM     32  C   UNL A   1      36.908  30.635  29.044  1.00  0.00    -0.014 A 
BRANCH  32  33
ATOM     33  C   UNL A   1      38.143  30.201  29.767  1.00  0.00     0.031 A 
ATOM     34  C   UNL A   1      38.388  30.615  31.205  1.00  0.00     0.074 A 
ATOM     35  C   UNL A   1      39.082  29.467  29.131  1.00  0.00     0.049 A 
ATOM     36  N   UNL A   1      39.418  30.363  31.978  1.00  0.00    -0.248 NA
ATOM     37  C   UNL A   1      37.370  31.464  31.844  1.00  0.00     0.031 C 
ATOM     38  C   UNL A   1      39.046  29.073  27.721  1.00  0.00     0.029 A 
ATOM     39  N   UNL A   1      40.247  28.906  29.596  1.00  0.00    -0.354 N 
ATOM     40  C   UNL A   1      39.187  31.059  33.161  1.00  0.00     0.074 A 
ATOM     41  C   UNL A   1      37.962  31.803  32.978  1.00  0.00     0.031 C 
ATOM     42  C   UNL A   1      40.093  28.276  27.457  1.00  0.00     0.029 A 
ATOM     43  C   UNL A   1      40.900  28.135  28.663  1.00  0.00     0.049 A 
ATOM     44  H   UNL A   1      40.585  29.046  30.511  1.00  0.00     0.167 HD
ATOM     45  C   UNL A   1      39.894  31.049  34.317  1.00  0.00     0.037 A 
ATOM     46  C   UNL A   1      42.013  27.384  28.771  1.00  0.00     0.037 A 
ATOM     47  C   UNL A   1      41.064  30.243  34.542  1.00  0.00     0.049 A 
ATOM     48  C   UNL A   1      42.740  27.323  30.086  1.00  0.00     0.074 A 
ATOM     49  C   UNL A   1      41.797  30.088  35.706  1.00  0.00     0.029 A 
ATOM     50  N   UNL A   1      41.659  29.439  33.583  1.00  0.00    -0.354 N 
ATOM     51  N   UNL A   1      42.458  27.924  31.216  1.00  0.00    -0.248 NA
ATOM     52  C   UNL A   1      43.937  26.472  30.140  1.00  0.00     0.031 C 
ATOM     53  C   UNL A   1      42.848  29.203  35.446  1.00  0.00     0.029 A 
ATOM     54  C   UNL A   1      42.751  28.785  34.129  1.00  0.00     0.049 A 
ATOM     55  H   UNL A   1      41.352  29.347  32.652  1.00  0.00     0.167 HD
ATOM     56  C   UNL A   1      43.426  27.506  32.119  1.00  0.00     0.074 A 
ATOM     57  C   UNL A   1      44.291  26.585  31.412  1.00  0.00     0.031 C 
ATOM     58  C   UNL A   1      43.590  27.858  33.417  1.00  0.00     0.037 A 
BRANCH  45  59
ATOM     59  C   UNL A   1      39.394  31.909  35.444  1.00  0.00     0.057 A 
ATOM     60  C   UNL A   1      39.831  33.232  35.586  1.00  0.00     0.134 A 
ATOM     61  C   UNL A   1      38.490  31.423  36.397  1.00  0.00     0.134 A 
ATOM     62  F   UNL A   1      40.705  33.760  34.717  1.00  0.00    -0.206 F 
ATOM     63  C   UNL A   1      39.379  34.041  36.631  1.00  0.00     0.040 A 
ATOM     64  C   UNL A   1      38.008  32.231  37.429  1.00  0.00     0.040 A 
ATOM     65  F   UNL A   1      38.024  30.167  36.315  1.00  0.00    -0.206 F 
ATOM     66  C   UNL A   1      38.456  33.545  37.550  1.00  0.00     0.006 A 
ENDBRANCH  45  59
BRANCH  46  67
ATOM     67  C   UNL A   1      42.487  26.577  27.617  1.00  0.00     0.057 A 
ATOM     68  C   UNL A   1      42.046  25.267  27.404  1.00  0.00     0.134 A 
ATOM     69  C   UNL A   1      43.381  27.117  26.684  1.00  0.00     0.134 A 
ATOM     70  F   UNL A   1      41.196  24.689  28.266  1.00  0.00    -0.206 F 
ATOM     71  C   UNL A   1      42.474  24.523  26.302  1.00  0.00     0.040 A 
ATOM     72  C   UNL A   1      43.798  26.394  25.565  1.00  0.00     0.040 A 
ATOM     73  F   UNL A   1      43.825  28.375  26.825  1.00  0.00    -0.206 F 
ATOM     74  C   UNL A   1      43.344  25.091  25.374  1.00  0.00     0.006 A 
ENDBRANCH  46  67
BRANCH  58  75
ATOM     75  C   UNL A   1      44.720  27.215  34.163  1.00  0.00     0.057 A 
ATOM     76  C   UNL A   1      45.981  27.819  34.205  1.00  0.00     0.134 A 
ATOM     77  C   UNL A   1      44.566  25.986  34.817  1.00  0.00     0.134 A 
ATOM     78  F   UNL A   1      46.196  28.993  33.591  1.00  0.00    -0.206 F 
ATOM     79  C   UNL A   1      47.052  27.223  34.871  1.00  0.00     0.040 A 
ATOM     80  C   UNL A   1      45.623  25.391  35.507  1.00  0.00     0.040 A 
ATOM     81  F   UNL A   1      43.377  25.365  34.825  1.00  0.00    -0.206 F 
ATOM     82  C   UNL A   1      46.873  26.009  35.530  1.00  0.00     0.006 A 
ENDBRANCH  58  75
ENDBRANCH  32  33
ENDBRANCH  25  27
ENDBRANCH  24  25
ENDBRANCH   1  24
TORSDOF 13
ENDMDL
