MODEL 1
REMARK VINA RESULT:     -13.0      0.000      0.000
REMARK SMILES Cc1ccccc1[C@@H]1[NH2+][C@H](C(=O)OCCOC(=O)c2ccc(-c3c4nc(c(-c5c(F)cccc5F)c5ccc([nH]5)c(-c5c(F)cccc5F)c5nc(c(-c6c(F)cccc6F)c6ccc3[nH]6)C=C5)C=C4)cc2)CC2=c3ccccc3=N[C@H]21
REMARK SMILES IDX 15 1 14 2 13 3 11 4 12 5 10 6 8 7 9 8 82 9 74 12 81 13 73 14
REMARK SMILES IDX 75 15 80 16 76 17 79 18 77 19 78 20 7 21 1 22 2 23 3 24 4 25
REMARK SMILES IDX 6 26 5 27 16 28 17 29 18 30 19 31 20 32 72 33 21 34 71 35
REMARK SMILES IDX 22 36 23 37 24 38 65 39 25 40 70 41 64 42 66 43 26 44 69 45
REMARK SMILES IDX 63 46 62 47 27 49 53 50 36 51 52 52 37 53 40 54 51 55 67 56
REMARK SMILES IDX 38 57 39 58 50 60 68 61 41 62 28 63 29 64 34 65 30 66 31 67
REMARK SMILES IDX 33 68 35 69 32 70 54 71 55 72 60 73 56 74 57 75 59 76 61 77
REMARK SMILES IDX 58 78 42 79 43 80 48 81 44 82 45 83 47 84 49 85 46 86
REMARK H PARENT 9 10 9 11 66 48 40 59
REMARK Flexibility Score: inf
ROOT
ATOM      1  C   UNL A   1      32.741  32.479  27.548  1.00  0.00     0.275 C 
ENDROOT
BRANCH   1   2
ATOM      2  C   UNL A   1      33.523  31.201  27.251  1.00  0.00     0.274 C 
BRANCH   2   3
ATOM      3  O   UNL A   1      32.654  30.071  27.152  1.00  0.00    -0.458 OA
BRANCH   3   4
ATOM      4  C   UNL A   1      33.297  28.942  26.773  1.00  0.00     0.365 C 
ATOM      5  O   UNL A   1      34.381  28.581  27.228  1.00  0.00    -0.245 OA
BRANCH   4   6
ATOM      6  C   UNL A   1      32.680  28.224  25.601  1.00  0.00     0.298 C 
ATOM      7  C   UNL A   1      30.980  27.899  23.858  1.00  0.00     0.243 C 
ATOM      8  N   UNL A   1      31.429  28.767  25.007  1.00  0.00    -0.326 N 
ATOM      9  C   UNL A   1      32.108  27.394  22.855  1.00  0.00     0.196 C 
ATOM     10  H   UNL A   1      30.700  28.788  25.719  1.00  0.00     0.347 HD
ATOM     11  H   UNL A   1      31.606  29.710  24.662  1.00  0.00     0.347 HD
ATOM     12  C   UNL A   1      33.362  27.143  23.630  1.00  0.00    -0.024 C 
ATOM     13  N   UNL A   1      31.755  26.048  22.296  1.00  0.00    -0.270 NA
ATOM     14  C   UNL A   1      33.793  28.205  24.555  1.00  0.00     0.111 C 
ATOM     15  C   UNL A   1      33.651  25.851  23.705  1.00  0.00     0.002 A 
ATOM     16  C   UNL A   1      32.630  25.255  22.837  1.00  0.00     0.066 A 
ATOM     17  C   UNL A   1      34.441  25.079  24.606  1.00  0.00     0.010 A 
ATOM     18  C   UNL A   1      32.674  23.785  22.725  1.00  0.00     0.028 A 
ATOM     19  C   UNL A   1      34.317  23.745  24.561  1.00  0.00     0.001 A 
ATOM     20  C   UNL A   1      33.473  23.101  23.565  1.00  0.00     0.002 A 
BRANCH   7  21
ATOM     21  C   UNL A   1      29.848  28.532  23.050  1.00  0.00     0.015 A 
ATOM     22  C   UNL A   1      28.047  26.890  23.877  1.00  0.00     0.045 C 
ATOM     23  C   UNL A   1      28.499  28.124  23.144  1.00  0.00    -0.042 A 
ATOM     24  C   UNL A   1      27.496  28.949  22.600  1.00  0.00     0.004 A 
ATOM     25  C   UNL A   1      27.814  30.118  21.912  1.00  0.00     0.000 A 
ATOM     26  C   UNL A   1      30.151  29.688  22.296  1.00  0.00     0.010 A 
ATOM     27  C   UNL A   1      29.143  30.471  21.731  1.00  0.00     0.001 A 
ENDBRANCH   7  21
ENDBRANCH   4   6
ENDBRANCH   3   4
ENDBRANCH   2   3
ENDBRANCH   1   2
BRANCH   1  28
ATOM     28  O   UNL A   1      33.449  33.610  28.147  1.00  0.00    -0.458 OA
BRANCH  28  29
ATOM     29  C   UNL A   1      34.117  33.698  29.324  1.00  0.00     0.338 C 
ATOM     30  O   UNL A   1      33.701  34.360  30.269  1.00  0.00    -0.246 OA
BRANCH  29  31
ATOM     31  C   UNL A   1      35.389  32.974  29.454  1.00  0.00     0.060 A 
ATOM     32  C   UNL A   1      36.548  33.457  28.814  1.00  0.00     0.016 A 
ATOM     33  C   UNL A   1      35.437  31.859  30.276  1.00  0.00     0.016 A 
ATOM     34  C   UNL A   1      37.789  32.891  29.102  1.00  0.00     0.010 A 
ATOM     35  C   UNL A   1      36.664  31.394  30.667  1.00  0.00     0.010 A 
ATOM     36  C   UNL A   1      37.836  31.877  30.053  1.00  0.00    -0.014 A 
BRANCH  36  37
ATOM     37  C   UNL A   1      38.975  31.007  30.288  1.00  0.00     0.031 A 
ATOM     38  C   UNL A   1      39.275  29.797  29.509  1.00  0.00     0.074 A 
ATOM     39  C   UNL A   1      39.888  31.620  31.075  1.00  0.00     0.049 A 
ATOM     40  N   UNL A   1      40.239  29.000  29.811  1.00  0.00    -0.248 NA
ATOM     41  C   UNL A   1      38.536  29.345  28.339  1.00  0.00     0.031 C 
ATOM     42  C   UNL A   1      41.323  31.440  31.169  1.00  0.00     0.029 A 
ATOM     43  N   UNL A   1      39.611  32.600  32.030  1.00  0.00    -0.354 N 
ATOM     44  C   UNL A   1      40.457  28.153  28.745  1.00  0.00     0.074 A 
ATOM     45  C   UNL A   1      39.303  28.334  27.901  1.00  0.00     0.031 C 
ATOM     46  C   UNL A   1      41.763  32.059  32.281  1.00  0.00     0.029 A 
ATOM     47  C   UNL A   1      40.590  32.512  33.017  1.00  0.00     0.049 A 
ATOM     48  H   UNL A   1      38.859  33.237  32.010  1.00  0.00     0.167 HD
ATOM     49  C   UNL A   1      41.668  27.522  28.672  1.00  0.00     0.037 A 
ATOM     50  C   UNL A   1      40.204  32.071  34.250  1.00  0.00     0.037 A 
ATOM     51  C   UNL A   1      42.460  27.862  29.855  1.00  0.00     0.049 A 
ATOM     52  C   UNL A   1      40.820  30.727  34.550  1.00  0.00     0.074 A 
ATOM     53  C   UNL A   1      43.453  28.803  30.072  1.00  0.00     0.029 A 
ATOM     54  N   UNL A   1      42.022  27.447  31.105  1.00  0.00    -0.354 N 
ATOM     55  N   UNL A   1      41.132  29.837  33.644  1.00  0.00    -0.248 NA
ATOM     56  C   UNL A   1      41.245  30.341  35.888  1.00  0.00     0.031 C 
ATOM     57  C   UNL A   1      43.582  28.978  31.474  1.00  0.00     0.029 A 
ATOM     58  C   UNL A   1      42.680  28.135  32.102  1.00  0.00     0.049 A 
ATOM     59  H   UNL A   1      41.337  26.755  31.258  1.00  0.00     0.167 HD
ATOM     60  C   UNL A   1      41.864  28.832  34.228  1.00  0.00     0.074 A 
ATOM     61  C   UNL A   1      41.887  29.188  35.635  1.00  0.00     0.031 C 
ATOM     62  C   UNL A   1      42.440  27.822  33.504  1.00  0.00     0.037 A 
BRANCH  49  63
ATOM     63  C   UNL A   1      42.282  26.807  27.482  1.00  0.00     0.057 A 
ATOM     64  C   UNL A   1      42.673  25.450  27.593  1.00  0.00     0.134 A 
ATOM     65  C   UNL A   1      42.542  27.368  26.222  1.00  0.00     0.134 A 
ATOM     66  F   UNL A   1      42.439  24.733  28.701  1.00  0.00    -0.206 F 
ATOM     67  C   UNL A   1      43.328  24.744  26.575  1.00  0.00     0.040 A 
ATOM     68  C   UNL A   1      43.211  26.675  25.195  1.00  0.00     0.040 A 
ATOM     69  F   UNL A   1      42.131  28.597  25.896  1.00  0.00    -0.206 F 
ATOM     70  C   UNL A   1      43.617  25.362  25.373  1.00  0.00     0.006 A 
ENDBRANCH  49  63
BRANCH  50  71
ATOM     71  C   UNL A   1      38.818  32.531  34.599  1.00  0.00     0.057 A 
ATOM     72  C   UNL A   1      38.654  33.893  34.935  1.00  0.00     0.134 A 
ATOM     73  C   UNL A   1      37.669  31.851  34.178  1.00  0.00     0.134 A 
ATOM     74  F   UNL A   1      39.710  34.615  35.345  1.00  0.00    -0.206 F 
ATOM     75  C   UNL A   1      37.452  34.578  34.718  1.00  0.00     0.040 A 
ATOM     76  C   UNL A   1      36.452  32.525  33.980  1.00  0.00     0.040 A 
ATOM     77  F   UNL A   1      37.727  30.556  33.837  1.00  0.00    -0.206 F 
ATOM     78  C   UNL A   1      36.355  33.899  34.203  1.00  0.00     0.006 A 
ENDBRANCH  50  71
BRANCH  62  79
ATOM     79  C   UNL A   1      42.951  26.492  34.028  1.00  0.00     0.057 A 
ATOM     80  C   UNL A   1      44.285  26.069  33.969  1.00  0.00     0.134 A 
ATOM     81  C   UNL A   1      42.102  25.630  34.775  1.00  0.00     0.134 A 
ATOM     82  F   UNL A   1      45.246  26.821  33.423  1.00  0.00    -0.206 F 
ATOM     83  C   UNL A   1      44.723  24.864  34.534  1.00  0.00     0.040 A 
ATOM     84  C   UNL A   1      42.545  24.466  35.405  1.00  0.00     0.040 A 
ATOM     85  F   UNL A   1      40.800  25.886  34.965  1.00  0.00    -0.206 F 
ATOM     86  C   UNL A   1      43.860  24.064  35.267  1.00  0.00     0.006 A 
ENDBRANCH  62  79
ENDBRANCH  36  37
ENDBRANCH  29  31
ENDBRANCH  28  29
ENDBRANCH   1  28
TORSDOF 12
ENDMDL
MODEL 2
REMARK VINA RESULT:     -12.9      1.798      2.706
REMARK SMILES Cc1ccccc1[C@@H]1[NH2+][C@H](C(=O)OCCOC(=O)c2ccc(-c3c4nc(c(-c5c(F)cccc5F)c5ccc([nH]5)c(-c5c(F)cccc5F)c5nc(c(-c6c(F)cccc6F)c6ccc3[nH]6)C=C5)C=C4)cc2)CC2=c3ccccc3=N[C@H]21
REMARK SMILES IDX 15 1 14 2 13 3 11 4 12 5 10 6 8 7 9 8 82 9 74 12 81 13 73 14
REMARK SMILES IDX 75 15 80 16 76 17 79 18 77 19 78 20 7 21 1 22 2 23 3 24 4 25
REMARK SMILES IDX 6 26 5 27 16 28 17 29 18 30 19 31 20 32 72 33 21 34 71 35
REMARK SMILES IDX 22 36 23 37 24 38 65 39 25 40 70 41 64 42 66 43 26 44 69 45
REMARK SMILES IDX 63 46 62 47 27 49 53 50 36 51 52 52 37 53 40 54 51 55 67 56
REMARK SMILES IDX 38 57 39 58 50 60 68 61 41 62 28 63 29 64 34 65 30 66 31 67
REMARK SMILES IDX 33 68 35 69 32 70 54 71 55 72 60 73 56 74 57 75 59 76 61 77
REMARK SMILES IDX 58 78 42 79 43 80 48 81 44 82 45 83 47 84 49 85 46 86
REMARK H PARENT 9 10 9 11 66 48 40 59
REMARK Flexibility Score: inf
ROOT
ATOM      1  C   UNL A   1      33.716  31.575  27.866  1.00  0.00     0.275 C 
ENDROOT
BRANCH   1   2
ATOM      2  C   UNL A   1      32.977  30.734  26.828  1.00  0.00     0.274 C 
BRANCH   2   3
ATOM      3  O   UNL A   1      32.724  29.414  27.311  1.00  0.00    -0.458 OA
BRANCH   3   4
ATOM      4  C   UNL A   1      33.475  28.471  26.695  1.00  0.00     0.365 C 
ATOM      5  O   UNL A   1      34.650  28.237  26.973  1.00  0.00    -0.245 OA
BRANCH   4   6
ATOM      6  C   UNL A   1      32.829  27.832  25.494  1.00  0.00     0.298 C 
ATOM      7  C   UNL A   1      31.077  27.609  23.787  1.00  0.00     0.243 C 
ATOM      8  N   UNL A   1      31.553  28.398  24.980  1.00  0.00    -0.326 N 
ATOM      9  C   UNL A   1      32.178  27.195  22.714  1.00  0.00     0.196 C 
ATOM     10  H   UNL A   1      30.847  28.356  25.716  1.00  0.00     0.347 HD
ATOM     11  H   UNL A   1      31.707  29.366  24.700  1.00  0.00     0.347 HD
ATOM     12  C   UNL A   1      33.460  26.906  23.428  1.00  0.00    -0.024 C 
ATOM     13  N   UNL A   1      31.823  25.888  22.069  1.00  0.00    -0.270 NA
ATOM     14  C   UNL A   1      33.907  27.905  24.415  1.00  0.00     0.111 C 
ATOM     15  C   UNL A   1      33.767  25.617  23.400  1.00  0.00     0.002 A 
ATOM     16  C   UNL A   1      32.725  25.071  22.524  1.00  0.00     0.066 A 
ATOM     17  C   UNL A   1      34.596  24.793  24.217  1.00  0.00     0.010 A 
ATOM     18  C   UNL A   1      32.784  23.613  22.303  1.00  0.00     0.028 A 
ATOM     19  C   UNL A   1      34.486  23.464  24.078  1.00  0.00     0.001 A 
ATOM     20  C   UNL A   1      33.618  22.882  23.065  1.00  0.00     0.002 A 
BRANCH   7  21
ATOM     21  C   UNL A   1      29.912  28.282  23.063  1.00  0.00     0.015 A 
ATOM     22  C   UNL A   1      28.125  26.680  23.992  1.00  0.00     0.045 C 
ATOM     23  C   UNL A   1      28.562  27.910  23.243  1.00  0.00    -0.042 A 
ATOM     24  C   UNL A   1      27.548  28.768  22.777  1.00  0.00     0.004 A 
ATOM     25  C   UNL A   1      27.851  29.937  22.080  1.00  0.00     0.000 A 
ATOM     26  C   UNL A   1      30.195  29.438  22.303  1.00  0.00     0.010 A 
ATOM     27  C   UNL A   1      29.174  30.255  21.814  1.00  0.00     0.001 A 
ENDBRANCH   7  21
ENDBRANCH   4   6
ENDBRANCH   3   4
ENDBRANCH   2   3
ENDBRANCH   1   2
BRANCH   1  28
ATOM     28  O   UNL A   1      34.933  31.033  28.470  1.00  0.00    -0.458 OA
BRANCH  28  29
ATOM     29  C   UNL A   1      36.177  31.565  28.554  1.00  0.00     0.338 C 
ATOM     30  O   UNL A   1      36.404  32.748  28.325  1.00  0.00    -0.246 OA
BRANCH  29  31
ATOM     31  C   UNL A   1      37.287  30.675  28.923  1.00  0.00     0.060 A 
ATOM     32  C   UNL A   1      37.028  29.355  29.344  1.00  0.00     0.016 A 
ATOM     33  C   UNL A   1      38.586  31.138  28.775  1.00  0.00     0.016 A 
ATOM     34  C   UNL A   1      38.081  28.454  29.495  1.00  0.00     0.010 A 
ATOM     35  C   UNL A   1      39.604  30.223  28.785  1.00  0.00     0.010 A 
ATOM     36  C   UNL A   1      39.364  28.895  29.185  1.00  0.00    -0.014 A 
BRANCH  36  37
ATOM     37  C   UNL A   1      40.590  28.195  29.523  1.00  0.00     0.031 A 
ATOM     38  C   UNL A   1      41.109  27.024  28.802  1.00  0.00     0.074 A 
ATOM     39  C   UNL A   1      41.352  28.942  30.354  1.00  0.00     0.049 A 
ATOM     40  N   UNL A   1      42.147  26.373  29.192  1.00  0.00    -0.248 NA
ATOM     41  C   UNL A   1      40.526  26.453  27.595  1.00  0.00     0.031 C 
ATOM     42  C   UNL A   1      42.786  28.963  30.554  1.00  0.00     0.029 A 
ATOM     43  N   UNL A   1      40.874  29.892  31.260  1.00  0.00    -0.354 N 
ATOM     44  C   UNL A   1      42.557  25.545  28.168  1.00  0.00     0.074 A 
ATOM     45  C   UNL A   1      41.454  25.549  27.241  1.00  0.00     0.031 C 
ATOM     46  C   UNL A   1      43.055  29.657  31.677  1.00  0.00     0.029 A 
ATOM     47  C   UNL A   1      41.781  29.957  32.315  1.00  0.00     0.049 A 
ATOM     48  H   UNL A   1      40.046  30.418  31.169  1.00  0.00     0.167 HD
ATOM     49  C   UNL A   1      43.844  25.086  28.199  1.00  0.00     0.037 A 
ATOM     50  C   UNL A   1      41.369  29.490  33.530  1.00  0.00     0.037 A 
ATOM     51  C   UNL A   1      44.493  25.552  29.424  1.00  0.00     0.049 A 
ATOM     52  C   UNL A   1      42.138  28.249  33.910  1.00  0.00     0.074 A 
ATOM     53  C   UNL A   1      45.330  26.625  29.684  1.00  0.00     0.029 A 
ATOM     54  N   UNL A   1      44.026  25.104  30.652  1.00  0.00    -0.354 N 
ATOM     55  N   UNL A   1      42.634  27.395  33.054  1.00  0.00    -0.248 NA
ATOM     56  C   UNL A   1      42.513  27.950  35.285  1.00  0.00     0.031 C 
ATOM     57  C   UNL A   1      45.331  26.842  31.086  1.00  0.00     0.029 A 
ATOM     58  C   UNL A   1      44.509  25.894  31.673  1.00  0.00     0.049 A 
ATOM     59  H   UNL A   1      43.432  24.327  30.776  1.00  0.00     0.167 HD
ATOM     60  C   UNL A   1      43.451  26.510  33.715  1.00  0.00     0.074 A 
ATOM     61  C   UNL A   1      43.322  26.892  35.111  1.00  0.00     0.031 C 
ATOM     62  C   UNL A   1      44.211  25.576  33.062  1.00  0.00     0.037 A 
BRANCH  49  63
ATOM     63  C   UNL A   1      44.635  24.440  27.075  1.00  0.00     0.057 A 
ATOM     64  C   UNL A   1      44.469  23.063  26.790  1.00  0.00     0.134 A 
ATOM     65  C   UNL A   1      45.580  25.077  26.255  1.00  0.00     0.134 A 
ATOM     66  F   UNL A   1      43.560  22.311  27.426  1.00  0.00    -0.206 F 
ATOM     67  C   UNL A   1      45.224  22.370  25.833  1.00  0.00     0.040 A 
ATOM     68  C   UNL A   1      46.355  24.392  25.301  1.00  0.00     0.040 A 
ATOM     69  F   UNL A   1      45.780  26.397  26.299  1.00  0.00    -0.206 F 
ATOM     70  C   UNL A   1      46.187  23.031  25.093  1.00  0.00     0.006 A 
ENDBRANCH  49  63
BRANCH  50  71
ATOM     71  C   UNL A   1      39.911  29.761  33.767  1.00  0.00     0.057 A 
ATOM     72  C   UNL A   1      39.554  31.063  34.184  1.00  0.00     0.134 A 
ATOM     73  C   UNL A   1      38.896  28.994  33.183  1.00  0.00     0.134 A 
ATOM     74  F   UNL A   1      40.474  31.861  34.751  1.00  0.00    -0.206 F 
ATOM     75  C   UNL A   1      38.305  31.625  33.895  1.00  0.00     0.040 A 
ATOM     76  C   UNL A   1      37.631  29.542  32.911  1.00  0.00     0.040 A 
ATOM     77  F   UNL A   1      39.140  27.747  32.756  1.00  0.00    -0.206 F 
ATOM     78  C   UNL A   1      37.350  30.872  33.222  1.00  0.00     0.006 A 
ENDBRANCH  50  71
BRANCH  62  79
ATOM     79  C   UNL A   1      44.858  24.339  33.658  1.00  0.00     0.057 A 
ATOM     80  C   UNL A   1      46.229  24.196  33.906  1.00  0.00     0.134 A 
ATOM     81  C   UNL A   1      44.064  23.273  34.160  1.00  0.00     0.134 A 
ATOM     82  F   UNL A   1      47.109  25.162  33.624  1.00  0.00    -0.206 F 
ATOM     83  C   UNL A   1      46.772  23.063  34.528  1.00  0.00     0.040 A 
ATOM     84  C   UNL A   1      44.587  22.175  34.847  1.00  0.00     0.040 A 
ATOM     85  F   UNL A   1      42.728  23.250  34.041  1.00  0.00    -0.206 F 
ATOM     86  C   UNL A   1      45.953  22.055  35.014  1.00  0.00     0.006 A 
ENDBRANCH  62  79
ENDBRANCH  36  37
ENDBRANCH  29  31
ENDBRANCH  28  29
ENDBRANCH   1  28
TORSDOF 12
ENDMDL
MODEL 3
REMARK VINA RESULT:     -12.7      4.030      9.564
REMARK SMILES Cc1ccccc1[C@@H]1[NH2+][C@H](C(=O)OCCOC(=O)c2ccc(-c3c4nc(c(-c5c(F)cccc5F)c5ccc([nH]5)c(-c5c(F)cccc5F)c5nc(c(-c6c(F)cccc6F)c6ccc3[nH]6)C=C5)C=C4)cc2)CC2=c3ccccc3=N[C@H]21
REMARK SMILES IDX 15 1 14 2 13 3 11 4 12 5 10 6 8 7 9 8 82 9 74 12 81 13 73 14
REMARK SMILES IDX 75 15 80 16 76 17 79 18 77 19 78 20 7 21 1 22 2 23 3 24 4 25
REMARK SMILES IDX 6 26 5 27 16 28 17 29 18 30 19 31 20 32 72 33 21 34 71 35
REMARK SMILES IDX 22 36 23 37 24 38 65 39 25 40 70 41 64 42 66 43 26 44 69 45
REMARK SMILES IDX 63 46 62 47 27 49 53 50 36 51 52 52 37 53 40 54 51 55 67 56
REMARK SMILES IDX 38 57 39 58 50 60 68 61 41 62 28 63 29 64 34 65 30 66 31 67
REMARK SMILES IDX 33 68 35 69 32 70 54 71 55 72 60 73 56 74 57 75 59 76 61 77
REMARK SMILES IDX 58 78 42 79 43 80 48 81 44 82 45 83 47 84 49 85 46 86
REMARK H PARENT 9 10 9 11 66 48 40 59
REMARK Flexibility Score: inf
ROOT
ATOM      1  C   UNL A   1      39.977  20.310  25.825  1.00  0.00     0.275 C 
ENDROOT
BRANCH   1   2
ATOM      2  C   UNL A   1      39.193  21.585  26.126  1.00  0.00     0.274 C 
BRANCH   2   3
ATOM      3  O   UNL A   1      38.118  21.766  25.202  1.00  0.00    -0.458 OA
BRANCH   3   4
ATOM      4  C   UNL A   1      37.414  22.900  25.425  1.00  0.00     0.365 C 
ATOM      5  O   UNL A   1      37.886  23.916  25.932  1.00  0.00    -0.245 OA
BRANCH   4   6
ATOM      6  C   UNL A   1      35.933  22.784  25.176  1.00  0.00     0.298 C 
ATOM      7  C   UNL A   1      33.896  21.597  24.486  1.00  0.00     0.243 C 
ATOM      8  N   UNL A   1      35.389  21.495  24.673  1.00  0.00    -0.326 N 
ATOM      9  C   UNL A   1      33.077  22.339  25.632  1.00  0.00     0.196 C 
ATOM     10  H   UNL A   1      35.826  21.271  23.780  1.00  0.00     0.347 HD
ATOM     11  H   UNL A   1      35.590  20.761  25.353  1.00  0.00     0.347 HD
ATOM     12  C   UNL A   1      33.914  23.455  26.174  1.00  0.00    -0.024 C 
ATOM     13  N   UNL A   1      31.878  23.033  25.061  1.00  0.00    -0.270 NA
ATOM     14  C   UNL A   1      35.306  23.127  26.526  1.00  0.00     0.111 C 
ATOM     15  C   UNL A   1      33.430  24.644  25.846  1.00  0.00     0.002 A 
ATOM     16  C   UNL A   1      32.167  24.293  25.188  1.00  0.00     0.066 A 
ATOM     17  C   UNL A   1      34.013  25.942  25.751  1.00  0.00     0.010 A 
ATOM     18  C   UNL A   1      31.382  25.434  24.678  1.00  0.00     0.028 A 
ATOM     19  C   UNL A   1      33.308  26.900  25.132  1.00  0.00     0.001 A 
ATOM     20  C   UNL A   1      31.957  26.650  24.654  1.00  0.00     0.002 A 
BRANCH   7  21
ATOM     21  C   UNL A   1      33.244  20.243  24.211  1.00  0.00     0.015 A 
ATOM     22  C   UNL A   1      31.992  21.029  22.104  1.00  0.00     0.045 C 
ATOM     23  C   UNL A   1      32.458  19.973  23.070  1.00  0.00    -0.042 A 
ATOM     24  C   UNL A   1      32.153  18.636  22.750  1.00  0.00     0.004 A 
ATOM     25  C   UNL A   1      32.549  17.585  23.576  1.00  0.00     0.000 A 
ATOM     26  C   UNL A   1      33.581  19.169  25.065  1.00  0.00     0.010 A 
ATOM     27  C   UNL A   1      33.235  17.854  24.751  1.00  0.00     0.001 A 
ENDBRANCH   7  21
ENDBRANCH   4   6
ENDBRANCH   3   4
ENDBRANCH   2   3
ENDBRANCH   1   2
BRANCH   1  28
ATOM     28  O   UNL A   1      41.369  20.223  26.268  1.00  0.00    -0.458 OA
BRANCH  28  29
ATOM     29  C   UNL A   1      42.399  21.086  26.084  1.00  0.00     0.338 C 
ATOM     30  O   UNL A   1      43.385  20.800  25.413  1.00  0.00    -0.246 OA
BRANCH  29  31
ATOM     31  C   UNL A   1      42.321  22.404  26.727  1.00  0.00     0.060 A 
ATOM     32  C   UNL A   1      42.204  22.504  28.128  1.00  0.00     0.016 A 
ATOM     33  C   UNL A   1      42.440  23.537  25.936  1.00  0.00     0.016 A 
ATOM     34  C   UNL A   1      42.336  23.744  28.751  1.00  0.00     0.010 A 
ATOM     35  C   UNL A   1      42.710  24.730  26.550  1.00  0.00     0.010 A 
ATOM     36  C   UNL A   1      42.617  24.847  27.950  1.00  0.00    -0.014 A 
BRANCH  36  37
ATOM     37  C   UNL A   1      42.532  26.232  28.379  1.00  0.00     0.031 A 
ATOM     38  C   UNL A   1      41.289  27.015  28.427  1.00  0.00     0.074 A 
ATOM     39  C   UNL A   1      43.656  26.597  29.036  1.00  0.00     0.049 A 
ATOM     40  N   UNL A   1      41.270  28.267  28.721  1.00  0.00    -0.248 NA
ATOM     41  C   UNL A   1      39.957  26.498  28.143  1.00  0.00     0.031 C 
ATOM     42  C   UNL A   1      43.866  27.602  30.058  1.00  0.00     0.029 A 
ATOM     43  N   UNL A   1      44.928  26.057  28.831  1.00  0.00    -0.354 N 
ATOM     44  C   UNL A   1      39.967  28.637  28.982  1.00  0.00     0.074 A 
ATOM     45  C   UNL A   1      39.178  27.531  28.502  1.00  0.00     0.031 C 
ATOM     46  C   UNL A   1      45.190  27.801  30.201  1.00  0.00     0.029 A 
ATOM     47  C   UNL A   1      45.858  27.044  29.152  1.00  0.00     0.049 A 
ATOM     48  H   UNL A   1      45.130  25.145  28.518  1.00  0.00     0.167 HD
ATOM     49  C   UNL A   1      39.764  29.780  29.703  1.00  0.00     0.037 A 
ATOM     50  C   UNL A   1      46.590  27.575  28.128  1.00  0.00     0.037 A 
ATOM     51  C   UNL A   1      41.054  30.414  29.975  1.00  0.00     0.049 A 
ATOM     52  C   UNL A   1      46.225  29.022  27.910  1.00  0.00     0.074 A 
ATOM     53  C   UNL A   1      41.891  30.386  31.079  1.00  0.00     0.029 A 
ATOM     54  N   UNL A   1      41.806  30.903  28.916  1.00  0.00    -0.354 N 
ATOM     55  N   UNL A   1      45.048  29.534  28.159  1.00  0.00    -0.248 NA
ATOM     56  C   UNL A   1      47.202  30.025  27.511  1.00  0.00     0.031 C 
ATOM     57  C   UNL A   1      43.172  30.829  30.660  1.00  0.00     0.029 A 
ATOM     58  C   UNL A   1      43.105  31.138  29.311  1.00  0.00     0.049 A 
ATOM     59  H   UNL A   1      41.459  31.060  28.007  1.00  0.00     0.167 HD
ATOM     60  C   UNL A   1      45.116  30.902  28.058  1.00  0.00     0.074 A 
ATOM     61  C   UNL A   1      46.481  31.153  27.631  1.00  0.00     0.031 C 
ATOM     62  C   UNL A   1      44.069  31.720  28.388  1.00  0.00     0.037 A 
BRANCH  49  63
ATOM     63  C   UNL A   1      38.490  30.242  30.389  1.00  0.00     0.057 A 
ATOM     64  C   UNL A   1      37.936  31.508  30.081  1.00  0.00     0.134 A 
ATOM     65  C   UNL A   1      37.769  29.531  31.361  1.00  0.00     0.134 A 
ATOM     66  F   UNL A   1      38.452  32.295  29.127  1.00  0.00    -0.206 F 
ATOM     67  C   UNL A   1      36.818  32.047  30.732  1.00  0.00     0.040 A 
ATOM     68  C   UNL A   1      36.653  30.065  32.033  1.00  0.00     0.040 A 
ATOM     69  F   UNL A   1      38.073  28.272  31.689  1.00  0.00    -0.206 F 
ATOM     70  C   UNL A   1      36.179  31.331  31.728  1.00  0.00     0.006 A 
ENDBRANCH  49  63
BRANCH  50  71
ATOM     71  C   UNL A   1      46.905  26.550  27.077  1.00  0.00     0.057 A 
ATOM     72  C   UNL A   1      46.144  26.587  25.888  1.00  0.00     0.134 A 
ATOM     73  C   UNL A   1      48.144  25.901  27.004  1.00  0.00     0.134 A 
ATOM     74  F   UNL A   1      44.945  27.195  25.878  1.00  0.00    -0.206 F 
ATOM     75  C   UNL A   1      46.650  26.144  24.661  1.00  0.00     0.040 A 
ATOM     76  C   UNL A   1      48.650  25.430  25.780  1.00  0.00     0.040 A 
ATOM     77  F   UNL A   1      48.937  25.817  28.080  1.00  0.00    -0.206 F 
ATOM     78  C   UNL A   1      47.925  25.595  24.600  1.00  0.00     0.006 A 
ENDBRANCH  50  71
BRANCH  62  79
ATOM     79  C   UNL A   1      43.881  33.175  27.996  1.00  0.00     0.057 A 
ATOM     80  C   UNL A   1      43.924  34.254  28.887  1.00  0.00     0.134 A 
ATOM     81  C   UNL A   1      43.800  33.555  26.629  1.00  0.00     0.134 A 
ATOM     82  F   UNL A   1      44.132  34.088  30.197  1.00  0.00    -0.206 F 
ATOM     83  C   UNL A   1      43.819  35.588  28.468  1.00  0.00     0.040 A 
ATOM     84  C   UNL A   1      43.771  34.883  26.196  1.00  0.00     0.040 A 
ATOM     85  F   UNL A   1      43.778  32.660  25.631  1.00  0.00    -0.206 F 
ATOM     86  C   UNL A   1      43.758  35.909  27.120  1.00  0.00     0.006 A 
ENDBRANCH  62  79
ENDBRANCH  36  37
ENDBRANCH  29  31
ENDBRANCH  28  29
ENDBRANCH   1  28
TORSDOF 12
ENDMDL
