MODEL 1
REMARK VINA RESULT:     -10.9      0.000      0.000
REMARK SMILES C[C@@](NC(=O)NCC(N)=O)(C(=O)OCCOC(=O)c1ccc(-c2c3nc(c(-c4c(F)cccc4F)c4ccc([nH]4)c(-c4c(F)cccc4F)c4nc(c(-c5c(F)cccc5F)c5ccc2[nH]5)C=C4)C=C3)cc1)C(F)(F)F
REMARK SMILES IDX 14 1 13 2 11 3 12 4 2 5 1 6 3 7 4 8 5 10 6 11 7 13 8 14 9 15
REMARK SMILES IDX 10 16 73 19 74 20 75 21 76 22 15 23 16 24 17 25 18 26 19 27
REMARK SMILES IDX 20 28 72 29 21 30 71 31 22 32 23 33 24 34 65 35 25 36 70 37
REMARK SMILES IDX 64 38 66 39 26 40 69 41 63 42 62 43 27 45 53 46 36 47 52 48
REMARK SMILES IDX 37 49 40 50 51 51 67 52 38 53 39 54 50 56 68 57 41 58 28 59
REMARK SMILES IDX 29 60 34 61 30 62 31 63 33 64 35 65 32 66 54 67 55 68 60 69
REMARK SMILES IDX 56 70 57 71 59 72 61 73 58 74 42 75 43 76 48 77 44 78 45 79
REMARK SMILES IDX 47 80 49 81 46 82
REMARK H PARENT 3 9 6 12 9 17 9 18 66 44 40 55
REMARK Flexibility Score: inf
ROOT
ATOM      1  C   UNL A   1      31.974  29.743  25.107  1.00  0.00     0.274 C 
ENDROOT
BRANCH   1   2
ATOM      2  O   UNL A   1      32.552  28.473  25.492  1.00  0.00    -0.460 OA
BRANCH   2   3
ATOM      3  C   UNL A   1      33.202  27.808  24.492  1.00  0.00     0.341 C 
ATOM      4  O   UNL A   1      33.755  28.409  23.591  1.00  0.00    -0.249 OA
BRANCH   3   5
ATOM      5  C   UNL A   1      32.995  26.291  24.511  1.00  0.00     0.232 C 
ATOM      6  C   UNL A   1      31.615  25.999  25.147  1.00  0.00     0.058 C 
BRANCH   5   7
ATOM      7  N   UNL A   1      33.014  25.653  23.142  1.00  0.00    -0.315 N 
ATOM      8  C   UNL A   1      32.676  25.988  21.889  1.00  0.00     0.316 C 
ATOM      9  H   UNL A   1      33.376  24.737  23.180  1.00  0.00     0.166 HD
ATOM     10  O   UNL A   1      33.294  25.417  20.987  1.00  0.00    -0.249 OA
ATOM     11  N   UNL A   1      31.710  26.842  21.545  1.00  0.00    -0.329 N 
ATOM     12  H   UNL A   1      31.707  27.097  20.595  1.00  0.00     0.165 HD
BRANCH  11  13
ATOM     13  C   UNL A   1      30.674  27.451  22.329  1.00  0.00     0.217 C 
BRANCH  13  14
ATOM     14  C   UNL A   1      30.240  28.883  22.054  1.00  0.00     0.236 C 
ATOM     15  N   UNL A   1      31.301  29.730  21.842  1.00  0.00    -0.368 N 
ATOM     16  O   UNL A   1      29.078  29.260  21.979  1.00  0.00    -0.273 OA
ATOM     17  H   UNL A   1      32.223  29.390  21.911  1.00  0.00     0.159 HD
ATOM     18  H   UNL A   1      31.140  30.676  21.620  1.00  0.00     0.159 HD
ENDBRANCH  13  14
ENDBRANCH  11  13
ENDBRANCH   5   7
BRANCH   5  19
ATOM     19  C   UNL A   1      34.039  25.692  25.476  1.00  0.00     0.422 C 
ATOM     20  F   UNL A   1      34.679  26.658  26.178  1.00  0.00    -0.168 F 
ATOM     21  F   UNL A   1      33.440  24.893  26.396  1.00  0.00    -0.168 F 
ATOM     22  F   UNL A   1      34.981  24.942  24.873  1.00  0.00    -0.168 F 
ENDBRANCH   5  19
ENDBRANCH   3   5
ENDBRANCH   2   3
ENDBRANCH   1   2
BRANCH   1  23
ATOM     23  C   UNL A   1      31.625  30.707  26.256  1.00  0.00     0.275 C 
BRANCH  23  24
ATOM     24  O   UNL A   1      32.543  30.655  27.371  1.00  0.00    -0.458 OA
BRANCH  24  25
ATOM     25  C   UNL A   1      33.312  31.760  27.521  1.00  0.00     0.338 C 
ATOM     26  O   UNL A   1      32.917  32.921  27.542  1.00  0.00    -0.246 OA
BRANCH  25  27
ATOM     27  C   UNL A   1      34.721  31.419  27.791  1.00  0.00     0.060 A 
ATOM     28  C   UNL A   1      35.028  30.091  28.104  1.00  0.00     0.016 A 
ATOM     29  C   UNL A   1      35.684  32.410  27.964  1.00  0.00     0.016 A 
ATOM     30  C   UNL A   1      36.256  29.742  28.645  1.00  0.00     0.010 A 
ATOM     31  C   UNL A   1      36.932  32.060  28.496  1.00  0.00     0.010 A 
ATOM     32  C   UNL A   1      37.208  30.731  28.879  1.00  0.00    -0.014 A 
BRANCH  32  33
ATOM     33  C   UNL A   1      38.411  30.409  29.679  1.00  0.00     0.031 A 
ATOM     34  C   UNL A   1      39.459  29.520  29.075  1.00  0.00     0.074 A 
ATOM     35  C   UNL A   1      38.602  30.936  30.902  1.00  0.00     0.049 A 
ATOM     36  N   UNL A   1      40.439  28.880  29.653  1.00  0.00    -0.248 NA
ATOM     37  C   UNL A   1      39.379  29.320  27.619  1.00  0.00     0.031 C 
ATOM     38  C   UNL A   1      37.740  31.927  31.545  1.00  0.00     0.029 A 
ATOM     39  N   UNL A   1      39.588  30.695  31.826  1.00  0.00    -0.354 N 
ATOM     40  C   UNL A   1      41.049  28.143  28.644  1.00  0.00     0.074 A 
ATOM     41  C   UNL A   1      40.340  28.432  27.416  1.00  0.00     0.031 C 
ATOM     42  C   UNL A   1      38.224  32.195  32.769  1.00  0.00     0.029 A 
ATOM     43  C   UNL A   1      39.376  31.335  33.022  1.00  0.00     0.049 A 
ATOM     44  H   UNL A   1      40.368  30.121  31.649  1.00  0.00     0.167 HD
ATOM     45  C   UNL A   1      42.094  27.290  28.748  1.00  0.00     0.037 A 
ATOM     46  C   UNL A   1      39.998  31.188  34.206  1.00  0.00     0.037 A 
ATOM     47  C   UNL A   1      42.816  27.058  29.972  1.00  0.00     0.049 A 
ATOM     48  C   UNL A   1      41.113  30.187  34.325  1.00  0.00     0.074 A 
ATOM     49  C   UNL A   1      43.880  26.205  30.203  1.00  0.00     0.029 A 
ATOM     50  N   UNL A   1      42.552  27.705  31.171  1.00  0.00    -0.354 N 
ATOM     51  N   UNL A   1      41.620  29.403  33.403  1.00  0.00    -0.248 NA
ATOM     52  C   UNL A   1      41.727  30.032  35.650  1.00  0.00     0.031 C 
ATOM     53  C   UNL A   1      44.237  26.312  31.551  1.00  0.00     0.029 A 
ATOM     54  C   UNL A   1      43.426  27.264  32.148  1.00  0.00     0.049 A 
ATOM     55  H   UNL A   1      41.847  28.379  31.306  1.00  0.00     0.167 HD
ATOM     56  C   UNL A   1      42.625  28.679  34.030  1.00  0.00     0.074 A 
ATOM     57  C   UNL A   1      42.659  29.120  35.409  1.00  0.00     0.031 C 
ATOM     58  C   UNL A   1      43.447  27.733  33.511  1.00  0.00     0.037 A 
BRANCH  45  59
ATOM     59  C   UNL A   1      42.464  26.501  27.528  1.00  0.00     0.057 A 
ATOM     60  C   UNL A   1      43.320  26.999  26.538  1.00  0.00     0.134 A 
ATOM     61  C   UNL A   1      41.940  25.214  27.340  1.00  0.00     0.134 A 
ATOM     62  F   UNL A   1      43.839  28.231  26.645  1.00  0.00    -0.206 F 
ATOM     63  C   UNL A   1      43.619  26.257  25.392  1.00  0.00     0.040 A 
ATOM     64  C   UNL A   1      42.252  24.453  26.213  1.00  0.00     0.040 A 
ATOM     65  F   UNL A   1      41.112  24.676  28.248  1.00  0.00    -0.206 F 
ATOM     66  C   UNL A   1      43.088  24.979  25.230  1.00  0.00     0.006 A 
ENDBRANCH  45  59
BRANCH  46  67
ATOM     67  C   UNL A   1      39.527  31.960  35.383  1.00  0.00     0.057 A 
ATOM     68  C   UNL A   1      40.027  33.237  35.659  1.00  0.00     0.134 A 
ATOM     69  C   UNL A   1      38.549  31.449  36.245  1.00  0.00     0.134 A 
ATOM     70  F   UNL A   1      40.981  33.771  34.884  1.00  0.00    -0.206 F 
ATOM     71  C   UNL A   1      39.570  33.979  36.751  1.00  0.00     0.040 A 
ATOM     72  C   UNL A   1      38.065  32.189  37.326  1.00  0.00     0.040 A 
ATOM     73  F   UNL A   1      38.031  30.230  36.035  1.00  0.00    -0.206 F 
ATOM     74  C   UNL A   1      38.580  33.458  37.582  1.00  0.00     0.006 A 
ENDBRANCH  46  67
BRANCH  58  75
ATOM     75  C   UNL A   1      44.485  27.153  34.424  1.00  0.00     0.057 A 
ATOM     76  C   UNL A   1      44.264  25.970  35.138  1.00  0.00     0.134 A 
ATOM     77  C   UNL A   1      45.741  27.761  34.543  1.00  0.00     0.134 A 
ATOM     78  F   UNL A   1      43.077  25.348  35.074  1.00  0.00    -0.206 F 
ATOM     79  C   UNL A   1      45.255  25.417  35.951  1.00  0.00     0.040 A 
ATOM     80  C   UNL A   1      46.747  27.207  35.335  1.00  0.00     0.040 A 
ATOM     81  F   UNL A   1      46.016  28.893  33.876  1.00  0.00    -0.206 F 
ATOM     82  C   UNL A   1      46.503  26.033  36.044  1.00  0.00     0.006 A 
ENDBRANCH  58  75
ENDBRANCH  32  33
ENDBRANCH  25  27
ENDBRANCH  24  25
ENDBRANCH  23  24
ENDBRANCH   1  23
TORSDOF 15
ENDMDL
MODEL 2
REMARK VINA RESULT:     -10.5      0.892      1.737
REMARK SMILES C[C@@](NC(=O)NCC(N)=O)(C(=O)OCCOC(=O)c1ccc(-c2c3nc(c(-c4c(F)cccc4F)c4ccc([nH]4)c(-c4c(F)cccc4F)c4nc(c(-c5c(F)cccc5F)c5ccc2[nH]5)C=C4)C=C3)cc1)C(F)(F)F
REMARK SMILES IDX 14 1 13 2 11 3 12 4 2 5 1 6 3 7 4 8 5 10 6 11 7 13 8 14 9 15
REMARK SMILES IDX 10 16 73 19 74 20 75 21 76 22 15 23 16 24 17 25 18 26 19 27
REMARK SMILES IDX 20 28 72 29 21 30 71 31 22 32 23 33 24 34 65 35 25 36 70 37
REMARK SMILES IDX 64 38 66 39 26 40 69 41 63 42 62 43 27 45 53 46 36 47 52 48
REMARK SMILES IDX 37 49 40 50 51 51 67 52 38 53 39 54 50 56 68 57 41 58 28 59
REMARK SMILES IDX 29 60 34 61 30 62 31 63 33 64 35 65 32 66 54 67 55 68 60 69
REMARK SMILES IDX 56 70 57 71 59 72 61 73 58 74 42 75 43 76 48 77 44 78 45 79
REMARK SMILES IDX 47 80 49 81 46 82
REMARK H PARENT 3 9 6 12 9 17 9 18 66 44 40 55
REMARK Flexibility Score: inf
ROOT
ATOM      1  C   UNL A   1      31.783  28.112  27.298  1.00  0.00     0.274 C 
ENDROOT
BRANCH   1   2
ATOM      2  O   UNL A   1      31.375  27.419  26.094  1.00  0.00    -0.460 OA
BRANCH   2   3
ATOM      3  C   UNL A   1      32.357  26.691  25.486  1.00  0.00     0.341 C 
ATOM      4  O   UNL A   1      33.503  27.095  25.441  1.00  0.00    -0.249 OA
BRANCH   3   5
ATOM      5  C   UNL A   1      31.847  25.467  24.723  1.00  0.00     0.232 C 
ATOM      6  C   UNL A   1      30.314  25.601  24.563  1.00  0.00     0.058 C 
BRANCH   5   7
ATOM      7  N   UNL A   1      32.441  25.315  23.341  1.00  0.00    -0.315 N 
ATOM      8  C   UNL A   1      32.710  26.100  22.288  1.00  0.00     0.316 C 
ATOM      9  H   UNL A   1      32.704  24.382  23.167  1.00  0.00     0.166 HD
ATOM     10  O   UNL A   1      33.636  25.734  21.560  1.00  0.00    -0.249 OA
ATOM     11  N   UNL A   1      32.038  27.201  21.946  1.00  0.00    -0.329 N 
ATOM     12  H   UNL A   1      32.469  27.744  21.248  1.00  0.00     0.165 HD
BRANCH  11  13
ATOM     13  C   UNL A   1      30.792  27.726  22.425  1.00  0.00     0.217 C 
BRANCH  13  14
ATOM     14  C   UNL A   1      30.660  29.202  22.772  1.00  0.00     0.236 C 
ATOM     15  N   UNL A   1      30.669  30.013  21.662  1.00  0.00    -0.368 N 
ATOM     16  O   UNL A   1      30.516  29.646  23.903  1.00  0.00    -0.273 OA
ATOM     17  H   UNL A   1      30.787  29.620  20.767  1.00  0.00     0.159 HD
ATOM     18  H   UNL A   1      30.555  30.986  21.762  1.00  0.00     0.159 HD
ENDBRANCH  13  14
ENDBRANCH  11  13
ENDBRANCH   5   7
BRANCH   5  19
ATOM     19  C   UNL A   1      32.072  24.233  25.620  1.00  0.00     0.422 C 
ATOM     20  F   UNL A   1      31.380  23.158  25.170  1.00  0.00    -0.168 F 
ATOM     21  F   UNL A   1      33.380  23.867  25.614  1.00  0.00    -0.168 F 
ATOM     22  F   UNL A   1      31.732  24.419  26.910  1.00  0.00    -0.168 F 
ENDBRANCH   5  19
ENDBRANCH   3   5
ENDBRANCH   2   3
ENDBRANCH   1   2
BRANCH   1  23
ATOM     23  C   UNL A   1      31.784  29.650  27.230  1.00  0.00     0.275 C 
BRANCH  23  24
ATOM     24  O   UNL A   1      32.956  30.214  26.599  1.00  0.00    -0.458 OA
BRANCH  24  25
ATOM     25  C   UNL A   1      33.485  31.282  27.241  1.00  0.00     0.338 C 
ATOM     26  O   UNL A   1      32.878  32.286  27.601  1.00  0.00    -0.246 OA
BRANCH  25  27
ATOM     27  C   UNL A   1      34.900  31.067  27.595  1.00  0.00     0.060 A 
ATOM     28  C   UNL A   1      35.325  29.759  27.846  1.00  0.00     0.016 A 
ATOM     29  C   UNL A   1      35.739  32.137  27.901  1.00  0.00     0.016 A 
ATOM     30  C   UNL A   1      36.544  29.500  28.456  1.00  0.00     0.010 A 
ATOM     31  C   UNL A   1      36.978  31.879  28.503  1.00  0.00     0.010 A 
ATOM     32  C   UNL A   1      37.366  30.562  28.821  1.00  0.00    -0.014 A 
BRANCH  32  33
ATOM     33  C   UNL A   1      38.540  30.308  29.688  1.00  0.00     0.031 A 
ATOM     34  C   UNL A   1      39.638  29.426  29.170  1.00  0.00     0.074 A 
ATOM     35  C   UNL A   1      38.659  30.890  30.895  1.00  0.00     0.049 A 
ATOM     36  N   UNL A   1      40.608  28.840  29.818  1.00  0.00    -0.248 NA
ATOM     37  C   UNL A   1      39.632  29.165  27.722  1.00  0.00     0.031 C 
ATOM     38  C   UNL A   1      37.741  31.880  31.457  1.00  0.00     0.029 A 
ATOM     39  N   UNL A   1      39.607  30.716  31.872  1.00  0.00    -0.354 N 
ATOM     40  C   UNL A   1      41.284  28.081  28.870  1.00  0.00     0.074 A 
ATOM     41  C   UNL A   1      40.625  28.298  27.600  1.00  0.00     0.031 C 
ATOM     42  C   UNL A   1      38.159  32.212  32.688  1.00  0.00     0.029 A 
ATOM     43  C   UNL A   1      39.322  31.397  33.029  1.00  0.00     0.049 A 
ATOM     44  H   UNL A   1      40.409  30.159  31.755  1.00  0.00     0.167 HD
ATOM     45  C   UNL A   1      42.347  27.264  29.057  1.00  0.00     0.037 A 
ATOM     46  C   UNL A   1      39.892  31.318  34.246  1.00  0.00     0.037 A 
ATOM     47  C   UNL A   1      43.017  27.103  30.321  1.00  0.00     0.049 A 
ATOM     48  C   UNL A   1      41.027  30.356  34.457  1.00  0.00     0.074 A 
ATOM     49  C   UNL A   1      44.092  26.293  30.635  1.00  0.00     0.029 A 
ATOM     50  N   UNL A   1      42.680  27.791  31.479  1.00  0.00    -0.354 N 
ATOM     51  N   UNL A   1      41.598  29.550  33.593  1.00  0.00    -0.248 NA
ATOM     52  C   UNL A   1      41.583  30.273  35.814  1.00  0.00     0.031 C 
ATOM     53  C   UNL A   1      44.384  26.464  31.993  1.00  0.00     0.029 A 
ATOM     54  C   UNL A   1      43.519  27.416  32.512  1.00  0.00     0.049 A 
ATOM     55  H   UNL A   1      41.951  28.448  31.553  1.00  0.00     0.167 HD
ATOM     56  C   UNL A   1      42.593  28.882  34.295  1.00  0.00     0.074 A 
ATOM     57  C   UNL A   1      42.551  29.380  35.654  1.00  0.00     0.031 C 
ATOM     58  C   UNL A   1      43.464  27.940  33.853  1.00  0.00     0.037 A 
BRANCH  45  59
ATOM     59  C   UNL A   1      42.794  26.437  27.889  1.00  0.00     0.057 A 
ATOM     60  C   UNL A   1      42.287  25.158  27.632  1.00  0.00     0.134 A 
ATOM     61  C   UNL A   1      43.763  26.936  27.007  1.00  0.00     0.134 A 
ATOM     62  F   UNL A   1      41.374  24.611  28.449  1.00  0.00    -0.206 F 
ATOM     63  C   UNL A   1      42.748  24.393  26.558  1.00  0.00     0.040 A 
ATOM     64  C   UNL A   1      44.212  26.193  25.915  1.00  0.00     0.040 A 
ATOM     65  F   UNL A   1      44.292  28.155  27.195  1.00  0.00    -0.206 F 
ATOM     66  C   UNL A   1      43.710  24.913  25.693  1.00  0.00     0.006 A 
ENDBRANCH  45  59
BRANCH  46  67
ATOM     67  C   UNL A   1      39.346  32.123  35.366  1.00  0.00     0.057 A 
ATOM     68  C   UNL A   1      39.724  33.457  35.552  1.00  0.00     0.134 A 
ATOM     69  C   UNL A   1      38.415  31.584  36.264  1.00  0.00     0.134 A 
ATOM     70  F   UNL A   1      40.628  34.021  34.740  1.00  0.00    -0.206 F 
ATOM     71  C   UNL A   1      39.195  34.227  36.590  1.00  0.00     0.040 A 
ATOM     72  C   UNL A   1      37.860  32.350  37.291  1.00  0.00     0.040 A 
ATOM     73  F   UNL A   1      38.013  30.311  36.140  1.00  0.00    -0.206 F 
ATOM     74  C   UNL A   1      38.253  33.675  37.457  1.00  0.00     0.006 A 
ENDBRANCH  46  67
BRANCH  58  75
ATOM     75  C   UNL A   1      44.474  27.429  34.836  1.00  0.00     0.057 A 
ATOM     76  C   UNL A   1      45.698  28.075  35.042  1.00  0.00     0.134 A 
ATOM     77  C   UNL A   1      44.188  26.308  35.624  1.00  0.00     0.134 A 
ATOM     78  F   UNL A   1      46.034  29.148  34.309  1.00  0.00    -0.206 F 
ATOM     79  C   UNL A   1      46.611  27.614  35.992  1.00  0.00     0.040 A 
ATOM     80  C   UNL A   1      45.083  25.850  36.592  1.00  0.00     0.040 A 
ATOM     81  F   UNL A   1      43.027  25.651  35.479  1.00  0.00    -0.206 F 
ATOM     82  C   UNL A   1      46.300  26.502  36.775  1.00  0.00     0.006 A 
ENDBRANCH  58  75
ENDBRANCH  32  33
ENDBRANCH  25  27
ENDBRANCH  24  25
ENDBRANCH  23  24
ENDBRANCH   1  23
TORSDOF 15
ENDMDL
MODEL 3
REMARK VINA RESULT:     -10.3      1.426      2.288
REMARK SMILES C[C@@](NC(=O)NCC(N)=O)(C(=O)OCCOC(=O)c1ccc(-c2c3nc(c(-c4c(F)cccc4F)c4ccc([nH]4)c(-c4c(F)cccc4F)c4nc(c(-c5c(F)cccc5F)c5ccc2[nH]5)C=C4)C=C3)cc1)C(F)(F)F
REMARK SMILES IDX 14 1 13 2 11 3 12 4 2 5 1 6 3 7 4 8 5 10 6 11 7 13 8 14 9 15
REMARK SMILES IDX 10 16 73 19 74 20 75 21 76 22 15 23 16 24 17 25 18 26 19 27
REMARK SMILES IDX 20 28 72 29 21 30 71 31 22 32 23 33 24 34 65 35 25 36 70 37
REMARK SMILES IDX 64 38 66 39 26 40 69 41 63 42 62 43 27 45 53 46 36 47 52 48
REMARK SMILES IDX 37 49 40 50 51 51 67 52 38 53 39 54 50 56 68 57 41 58 28 59
REMARK SMILES IDX 29 60 34 61 30 62 31 63 33 64 35 65 32 66 54 67 55 68 60 69
REMARK SMILES IDX 56 70 57 71 59 72 61 73 58 74 42 75 43 76 48 77 44 78 45 79
REMARK SMILES IDX 47 80 49 81 46 82
REMARK H PARENT 3 9 6 12 9 17 9 18 66 44 40 55
REMARK Flexibility Score: inf
ROOT
ATOM      1  C   UNL A   1      30.944  28.668  25.294  1.00  0.00     0.274 C 
ENDROOT
BRANCH   1   2
ATOM      2  O   UNL A   1      31.560  27.366  25.154  1.00  0.00    -0.460 OA
BRANCH   2   3
ATOM      3  C   UNL A   1      31.797  26.975  23.867  1.00  0.00     0.341 C 
ATOM      4  O   UNL A   1      30.891  26.603  23.145  1.00  0.00    -0.249 OA
BRANCH   3   5
ATOM      5  C   UNL A   1      33.281  26.862  23.510  1.00  0.00     0.232 C 
ATOM      6  C   UNL A   1      34.098  26.895  24.823  1.00  0.00     0.058 C 
BRANCH   5   7
ATOM      7  N   UNL A   1      33.639  25.590  22.777  1.00  0.00    -0.315 N 
ATOM      8  C   UNL A   1      33.267  24.302  22.789  1.00  0.00     0.316 C 
ATOM      9  H   UNL A   1      34.341  25.752  22.104  1.00  0.00     0.166 HD
ATOM     10  O   UNL A   1      33.409  23.685  21.730  1.00  0.00    -0.249 OA
ATOM     11  N   UNL A   1      32.806  23.635  23.848  1.00  0.00    -0.329 N 
ATOM     12  H   UNL A   1      32.425  22.752  23.643  1.00  0.00     0.165 HD
BRANCH  11  13
ATOM     13  C   UNL A   1      32.772  23.990  25.238  1.00  0.00     0.217 C 
BRANCH  13  14
ATOM     14  C   UNL A   1      31.463  23.944  26.014  1.00  0.00     0.236 C 
ATOM     15  N   UNL A   1      30.422  23.439  25.272  1.00  0.00    -0.368 N 
ATOM     16  O   UNL A   1      31.332  24.273  27.185  1.00  0.00    -0.273 OA
ATOM     17  H   UNL A   1      30.566  23.185  24.332  1.00  0.00     0.159 HD
ATOM     18  H   UNL A   1      29.533  23.330  25.681  1.00  0.00     0.159 HD
ENDBRANCH  13  14
ENDBRANCH  11  13
ENDBRANCH   5   7
BRANCH   5  19
ATOM     19  C   UNL A   1      33.671  28.139  22.738  1.00  0.00     0.422 C 
ATOM     20  F   UNL A   1      34.267  27.844  21.558  1.00  0.00    -0.168 F 
ATOM     21  F   UNL A   1      32.569  28.870  22.431  1.00  0.00    -0.168 F 
ATOM     22  F   UNL A   1      34.500  28.960  23.412  1.00  0.00    -0.168 F 
ENDBRANCH   5  19
ENDBRANCH   3   5
ENDBRANCH   2   3
ENDBRANCH   1   2
BRANCH   1  23
ATOM     23  C   UNL A   1      31.901  29.850  25.534  1.00  0.00     0.275 C 
BRANCH  23  24
ATOM     24  O   UNL A   1      32.433  29.917  26.877  1.00  0.00    -0.458 OA
BRANCH  24  25
ATOM     25  C   UNL A   1      33.030  31.092  27.190  1.00  0.00     0.338 C 
ATOM     26  O   UNL A   1      32.472  32.175  27.325  1.00  0.00    -0.246 OA
BRANCH  25  27
ATOM     27  C   UNL A   1      34.464  30.919  27.486  1.00  0.00     0.060 A 
ATOM     28  C   UNL A   1      34.935  29.625  27.728  1.00  0.00     0.016 A 
ATOM     29  C   UNL A   1      35.284  32.014  27.750  1.00  0.00     0.016 A 
ATOM     30  C   UNL A   1      36.185  29.404  28.289  1.00  0.00     0.010 A 
ATOM     31  C   UNL A   1      36.554  31.795  28.301  1.00  0.00     0.010 A 
ATOM     32  C   UNL A   1      36.992  30.491  28.612  1.00  0.00    -0.014 A 
BRANCH  32  33
ATOM     33  C   UNL A   1      38.207  30.278  29.432  1.00  0.00     0.031 A 
ATOM     34  C   UNL A   1      39.305  29.418  28.877  1.00  0.00     0.074 A 
ATOM     35  C   UNL A   1      38.361  30.876  30.627  1.00  0.00     0.049 A 
ATOM     36  N   UNL A   1      40.316  28.864  29.490  1.00  0.00    -0.248 NA
ATOM     37  C   UNL A   1      39.244  29.140  27.433  1.00  0.00     0.031 C 
ATOM     38  C   UNL A   1      37.442  31.848  31.216  1.00  0.00     0.029 A 
ATOM     39  N   UNL A   1      39.353  30.737  31.564  1.00  0.00    -0.354 N 
ATOM     40  C   UNL A   1      40.971  28.112  28.522  1.00  0.00     0.074 A 
ATOM     41  C   UNL A   1      40.254  28.297  27.279  1.00  0.00     0.031 C 
ATOM     42  C   UNL A   1      37.903  32.205  32.426  1.00  0.00     0.029 A 
ATOM     43  C   UNL A   1      39.099  31.424  32.726  1.00  0.00     0.049 A 
ATOM     44  H   UNL A   1      40.164  30.199  31.419  1.00  0.00     0.167 HD
ATOM     45  C   UNL A   1      42.061  27.324  28.672  1.00  0.00     0.037 A 
ATOM     46  C   UNL A   1      39.722  31.372  33.918  1.00  0.00     0.037 A 
ATOM     47  C   UNL A   1      42.787  27.194  29.908  1.00  0.00     0.049 A 
ATOM     48  C   UNL A   1      40.889  30.442  34.091  1.00  0.00     0.074 A 
ATOM     49  C   UNL A   1      43.895  26.415  30.186  1.00  0.00     0.029 A 
ATOM     50  N   UNL A   1      42.481  27.886  31.073  1.00  0.00    -0.354 N 
ATOM     51  N   UNL A   1      41.444  29.641  33.212  1.00  0.00    -0.248 NA
ATOM     52  C   UNL A   1      41.503  30.388  35.424  1.00  0.00     0.031 C 
ATOM     53  C   UNL A   1      44.239  26.609  31.528  1.00  0.00     0.029 A 
ATOM     54  C   UNL A   1      43.372  27.544  32.073  1.00  0.00     0.049 A 
ATOM     55  H   UNL A   1      41.739  28.526  31.171  1.00  0.00     0.167 HD
ATOM     56  C   UNL A   1      42.484  29.006  33.878  1.00  0.00     0.074 A 
ATOM     57  C   UNL A   1      42.486  29.519  35.233  1.00  0.00     0.031 C 
ATOM     58  C   UNL A   1      43.360  28.082  33.410  1.00  0.00     0.037 A 
BRANCH  45  59
ATOM     59  C   UNL A   1      42.481  26.495  27.495  1.00  0.00     0.057 A 
ATOM     60  C   UNL A   1      43.354  26.972  26.510  1.00  0.00     0.134 A 
ATOM     61  C   UNL A   1      41.988  25.191  27.344  1.00  0.00     0.134 A 
ATOM     62  F   UNL A   1      43.845  28.219  26.582  1.00  0.00    -0.206 F 
ATOM     63  C   UNL A   1      43.700  26.193  25.403  1.00  0.00     0.040 A 
ATOM     64  C   UNL A   1      42.347  24.394  26.258  1.00  0.00     0.040 A 
ATOM     65  F   UNL A   1      41.146  24.672  28.251  1.00  0.00    -0.206 F 
ATOM     66  C   UNL A   1      43.200  24.898  25.278  1.00  0.00     0.006 A 
ENDBRANCH  45  59
BRANCH  46  67
ATOM     67  C   UNL A   1      39.202  32.176  35.052  1.00  0.00     0.057 A 
ATOM     68  C   UNL A   1      39.527  33.529  35.190  1.00  0.00     0.134 A 
ATOM     69  C   UNL A   1      38.349  31.615  36.012  1.00  0.00     0.134 A 
ATOM     70  F   UNL A   1      40.357  34.117  34.317  1.00  0.00    -0.206 F 
ATOM     71  C   UNL A   1      39.022  34.297  36.242  1.00  0.00     0.040 A 
ATOM     72  C   UNL A   1      37.817  32.376  37.054  1.00  0.00     0.040 A 
ATOM     73  F   UNL A   1      38.001  30.322  35.936  1.00  0.00    -0.206 F 
ATOM     74  C   UNL A   1      38.157  33.722  37.172  1.00  0.00     0.006 A 
ENDBRANCH  46  67
BRANCH  58  75
ATOM     75  C   UNL A   1      44.423  27.608  34.355  1.00  0.00     0.057 A 
ATOM     76  C   UNL A   1      45.635  28.290  34.508  1.00  0.00     0.134 A 
ATOM     77  C   UNL A   1      44.202  26.484  35.161  1.00  0.00     0.134 A 
ATOM     78  F   UNL A   1      45.909  29.367  33.755  1.00  0.00    -0.206 F 
ATOM     79  C   UNL A   1      46.598  27.863  35.422  1.00  0.00     0.040 A 
ATOM     80  C   UNL A   1      45.147  26.060  36.095  1.00  0.00     0.040 A 
ATOM     81  F   UNL A   1      43.055  25.793  35.066  1.00  0.00    -0.206 F 
ATOM     82  C   UNL A   1      46.351  26.748  36.224  1.00  0.00     0.006 A 
ENDBRANCH  58  75
ENDBRANCH  32  33
ENDBRANCH  25  27
ENDBRANCH  24  25
ENDBRANCH  23  24
ENDBRANCH   1  23
TORSDOF 15
ENDMDL
