MODEL 1
REMARK VINA RESULT:     -10.1      0.000      0.000
REMARK SMILES CCc1cc(C)c2c(c1)C=C(C(=O)OCCOC(=O)c1ccc(-c3c4nc(c(-c5c(F)cccc5F)c5ccc([nH]5)c(-c5c(F)cccc5F)c5nc(c(-c6c(F)cccc6F)c6ccc3[nH]6)C=C5)C=C4)cc1)[C@@H](C(F)(F)F)O2
REMARK SMILES IDX 16 1 15 2 14 3 12 4 13 5 11 6 3 7 4 8 9 9 5 10 8 11 6 12
REMARK SMILES IDX 7 13 10 14 79 15 74 16 2 17 1 18 75 19 76 20 77 21 78 22
REMARK SMILES IDX 17 23 18 24 19 25 20 26 21 27 73 28 22 29 72 30 23 31 24 32
REMARK SMILES IDX 25 33 66 34 26 35 71 36 65 37 67 38 27 39 70 40 64 41 63 42
REMARK SMILES IDX 28 44 54 45 37 46 53 47 38 48 41 49 52 50 68 51 39 52 40 53
REMARK SMILES IDX 51 55 69 56 42 57 29 58 30 59 35 60 31 61 32 62 34 63 36 64
REMARK SMILES IDX 33 65 55 66 56 67 61 68 57 69 58 70 60 71 62 72 59 73 43 74
REMARK SMILES IDX 44 75 49 76 45 77 46 78 48 79 50 80 47 81
REMARK H PARENT 67 43 41 54
REMARK Flexibility Score: inf
ROOT
ATOM      1  C   UNL A   1      33.773  33.826  28.155  1.00  0.00     0.275 C 
ENDROOT
BRANCH   1   2
ATOM      2  C   UNL A   1      34.377  34.849  29.118  1.00  0.00     0.275 C 
BRANCH   2   3
ATOM      3  O   UNL A   1      34.050  34.533  30.488  1.00  0.00    -0.459 OA
BRANCH   3   4
ATOM      4  C   UNL A   1      34.742  33.500  31.019  1.00  0.00     0.338 C 
ATOM      5  O   UNL A   1      34.409  32.325  31.022  1.00  0.00    -0.246 OA
BRANCH   4   6
ATOM      6  C   UNL A   1      36.017  33.968  31.587  1.00  0.00     0.087 C 
ATOM      7  C   UNL A   1      40.820  34.135  31.211  1.00  0.00    -0.047 A 
ATOM      8  C   UNL A   1      40.893  34.579  32.540  1.00  0.00     0.011 A 
ATOM      9  C   UNL A   1      39.557  33.921  30.653  1.00  0.00     0.015 A 
ATOM     10  C   UNL A   1      39.732  34.824  33.297  1.00  0.00    -0.008 A 
ATOM     11  C   UNL A   1      38.395  34.152  31.400  1.00  0.00     0.018 A 
ATOM     12  C   UNL A   1      39.848  35.279  34.724  1.00  0.00     0.048 C 
ATOM     13  C   UNL A   1      38.476  34.606  32.716  1.00  0.00     0.130 A 
ATOM     14  C   UNL A   1      37.102  33.866  30.814  1.00  0.00     0.027 C 
ATOM     15  O   UNL A   1      37.368  34.864  33.481  1.00  0.00    -0.475 OA
ATOM     16  C   UNL A   1      36.070  34.394  33.024  1.00  0.00     0.316 C 
BRANCH   7  17
ATOM     17  C   UNL A   1      42.080  33.809  30.442  1.00  0.00     0.032 C 
ATOM     18  C   UNL A   1      42.372  32.319  30.307  1.00  0.00     0.009 C 
ENDBRANCH   7  17
BRANCH  16  19
ATOM     19  C   UNL A   1      35.582  33.275  33.958  1.00  0.00     0.430 C 
ATOM     20  F   UNL A   1      35.972  33.493  35.237  1.00  0.00    -0.167 F 
ATOM     21  F   UNL A   1      34.230  33.199  33.976  1.00  0.00    -0.167 F 
ATOM     22  F   UNL A   1      36.050  32.061  33.592  1.00  0.00    -0.167 F 
ENDBRANCH  16  19
ENDBRANCH   4   6
ENDBRANCH   3   4
ENDBRANCH   2   3
ENDBRANCH   1   2
BRANCH   1  23
ATOM     23  O   UNL A   1      34.797  32.964  27.626  1.00  0.00    -0.458 OA
BRANCH  23  24
ATOM     24  C   UNL A   1      34.568  31.640  27.766  1.00  0.00     0.338 C 
ATOM     25  O   UNL A   1      33.504  31.054  27.652  1.00  0.00    -0.246 OA
BRANCH  24  26
ATOM     26  C   UNL A   1      35.824  30.935  28.065  1.00  0.00     0.060 A 
ATOM     27  C   UNL A   1      35.793  29.595  28.439  1.00  0.00     0.016 A 
ATOM     28  C   UNL A   1      37.017  31.654  28.136  1.00  0.00     0.016 A 
ATOM     29  C   UNL A   1      36.914  29.011  29.021  1.00  0.00     0.010 A 
ATOM     30  C   UNL A   1      38.177  31.024  28.598  1.00  0.00     0.010 A 
ATOM     31  C   UNL A   1      38.127  29.710  29.095  1.00  0.00    -0.014 A 
BRANCH  31  32
ATOM     32  C   UNL A   1      39.328  29.074  29.704  1.00  0.00     0.031 A 
ATOM     33  C   UNL A   1      39.887  29.580  31.010  1.00  0.00     0.074 A 
ATOM     34  C   UNL A   1      39.916  28.027  29.092  1.00  0.00     0.049 A 
ATOM     35  N   UNL A   1      40.992  29.243  31.626  1.00  0.00    -0.248 NA
ATOM     36  C   UNL A   1      39.103  30.611  31.710  1.00  0.00     0.031 C 
ATOM     37  C   UNL A   1      39.462  27.411  27.842  1.00  0.00     0.029 A 
ATOM     38  N   UNL A   1      41.017  27.286  29.441  1.00  0.00    -0.354 N 
ATOM     39  C   UNL A   1      41.060  30.048  32.759  1.00  0.00     0.074 A 
ATOM     40  C   UNL A   1      39.892  30.903  32.735  1.00  0.00     0.031 C 
ATOM     41  C   UNL A   1      40.249  26.364  27.554  1.00  0.00     0.029 A 
ATOM     42  C   UNL A   1      41.312  26.285  28.547  1.00  0.00     0.049 A 
ATOM     43  H   UNL A   1      41.545  27.455  30.254  1.00  0.00     0.167 HD
ATOM     44  C   UNL A   1      42.006  30.070  33.729  1.00  0.00     0.037 A 
ATOM     45  C   UNL A   1      42.344  25.423  28.506  1.00  0.00     0.037 A 
ATOM     46  C   UNL A   1      43.151  29.196  33.767  1.00  0.00     0.049 A 
ATOM     47  C   UNL A   1      43.403  25.501  29.566  1.00  0.00     0.074 A 
ATOM     48  C   UNL A   1      44.162  29.133  34.710  1.00  0.00     0.029 A 
ATOM     49  N   UNL A   1      43.433  28.224  32.818  1.00  0.00    -0.354 N 
ATOM     50  N   UNL A   1      43.472  26.291  30.610  1.00  0.00    -0.248 NA
ATOM     51  C   UNL A   1      44.535  24.575  29.432  1.00  0.00     0.031 C 
ATOM     52  C   UNL A   1      45.074  28.148  34.313  1.00  0.00     0.029 A 
ATOM     53  C   UNL A   1      44.608  27.567  33.146  1.00  0.00     0.049 A 
ATOM     54  H   UNL A   1      42.878  28.029  32.028  1.00  0.00     0.167 HD
ATOM     55  C   UNL A   1      44.647  25.950  31.264  1.00  0.00     0.074 A 
ATOM     56  C   UNL A   1      45.243  24.863  30.514  1.00  0.00     0.031 C 
ATOM     57  C   UNL A   1      45.190  26.491  32.383  1.00  0.00     0.037 A 
BRANCH  44  58
ATOM     58  C   UNL A   1      41.855  31.096  34.817  1.00  0.00     0.057 A 
ATOM     59  C   UNL A   1      40.988  30.868  35.895  1.00  0.00     0.134 A 
ATOM     60  C   UNL A   1      42.551  32.312  34.798  1.00  0.00     0.134 A 
ATOM     61  F   UNL A   1      40.285  29.728  35.973  1.00  0.00    -0.206 F 
ATOM     62  C   UNL A   1      40.824  31.809  36.914  1.00  0.00     0.040 A 
ATOM     63  C   UNL A   1      42.414  33.249  35.825  1.00  0.00     0.040 A 
ATOM     64  F   UNL A   1      43.408  32.589  33.803  1.00  0.00    -0.206 F 
ATOM     65  C   UNL A   1      41.544  33.000  36.885  1.00  0.00     0.006 A 
ENDBRANCH  44  58
BRANCH  45  66
ATOM     66  C   UNL A   1      42.445  24.434  27.403  1.00  0.00     0.057 A 
ATOM     67  C   UNL A   1      43.049  24.757  26.182  1.00  0.00     0.134 A 
ATOM     68  C   UNL A   1      41.947  23.134  27.552  1.00  0.00     0.134 A 
ATOM     69  F   UNL A   1      43.543  25.987  25.975  1.00  0.00    -0.206 F 
ATOM     70  C   UNL A   1      43.145  23.829  25.144  1.00  0.00     0.040 A 
ATOM     71  C   UNL A   1      42.063  22.187  26.534  1.00  0.00     0.040 A 
ATOM     72  F   UNL A   1      41.379  22.757  28.707  1.00  0.00    -0.206 F 
ATOM     73  C   UNL A   1      42.657  22.537  25.322  1.00  0.00     0.006 A 
ENDBRANCH  45  66
BRANCH  57  74
ATOM     74  C   UNL A   1      46.474  25.887  32.866  1.00  0.00     0.057 A 
ATOM     75  C   UNL A   1      47.707  26.383  32.426  1.00  0.00     0.134 A 
ATOM     76  C   UNL A   1      46.492  24.824  33.780  1.00  0.00     0.134 A 
ATOM     77  F   UNL A   1      47.759  27.396  31.546  1.00  0.00    -0.206 F 
ATOM     78  C   UNL A   1      48.912  25.850  32.884  1.00  0.00     0.040 A 
ATOM     79  C   UNL A   1      47.692  24.302  34.265  1.00  0.00     0.040 A 
ATOM     80  F   UNL A   1      45.345  24.317  34.255  1.00  0.00    -0.206 F 
ATOM     81  C   UNL A   1      48.906  24.814  33.814  1.00  0.00     0.006 A 
ENDBRANCH  57  74
ENDBRANCH  31  32
ENDBRANCH  24  26
ENDBRANCH  23  24
ENDBRANCH   1  23
TORSDOF 13
ENDMDL
MODEL 2
REMARK VINA RESULT:     -10.0      4.392     10.752
REMARK SMILES CCc1cc(C)c2c(c1)C=C(C(=O)OCCOC(=O)c1ccc(-c3c4nc(c(-c5c(F)cccc5F)c5ccc([nH]5)c(-c5c(F)cccc5F)c5nc(c(-c6c(F)cccc6F)c6ccc3[nH]6)C=C5)C=C4)cc1)[C@@H](C(F)(F)F)O2
REMARK SMILES IDX 16 1 15 2 14 3 12 4 13 5 11 6 3 7 4 8 9 9 5 10 8 11 6 12
REMARK SMILES IDX 7 13 10 14 79 15 74 16 2 17 1 18 75 19 76 20 77 21 78 22
REMARK SMILES IDX 17 23 18 24 19 25 20 26 21 27 73 28 22 29 72 30 23 31 24 32
REMARK SMILES IDX 25 33 66 34 26 35 71 36 65 37 67 38 27 39 70 40 64 41 63 42
REMARK SMILES IDX 28 44 54 45 37 46 53 47 38 48 41 49 52 50 68 51 39 52 40 53
REMARK SMILES IDX 51 55 69 56 42 57 29 58 30 59 35 60 31 61 32 62 34 63 36 64
REMARK SMILES IDX 33 65 55 66 56 67 61 68 57 69 58 70 60 71 62 72 59 73 43 74
REMARK SMILES IDX 44 75 49 76 45 77 46 78 48 79 50 80 47 81
REMARK H PARENT 67 43 41 54
REMARK Flexibility Score: inf
ROOT
ATOM      1  C   UNL A   1      40.785  20.517  26.464  1.00  0.00     0.275 C 
ENDROOT
BRANCH   1   2
ATOM      2  C   UNL A   1      42.186  20.313  27.038  1.00  0.00     0.275 C 
BRANCH   2   3
ATOM      3  O   UNL A   1      43.201  20.630  26.062  1.00  0.00    -0.459 OA
BRANCH   3   4
ATOM      4  C   UNL A   1      43.285  21.937  25.725  1.00  0.00     0.338 C 
ATOM      5  O   UNL A   1      42.554  22.540  24.956  1.00  0.00    -0.246 OA
BRANCH   4   6
ATOM      6  C   UNL A   1      44.387  22.589  26.454  1.00  0.00     0.087 C 
ATOM      7  C   UNL A   1      45.726  25.423  30.117  1.00  0.00    -0.047 A 
ATOM      8  C   UNL A   1      46.994  25.554  29.531  1.00  0.00     0.011 A 
ATOM      9  C   UNL A   1      44.788  24.601  29.487  1.00  0.00     0.015 A 
ATOM     10  C   UNL A   1      47.332  24.867  28.349  1.00  0.00    -0.008 A 
ATOM     11  C   UNL A   1      45.109  23.920  28.306  1.00  0.00     0.018 A 
ATOM     12  C   UNL A   1      48.693  25.047  27.739  1.00  0.00     0.048 C 
ATOM     13  C   UNL A   1      46.376  24.046  27.737  1.00  0.00     0.130 A 
ATOM     14  C   UNL A   1      44.098  23.122  27.644  1.00  0.00     0.027 C 
ATOM     15  O   UNL A   1      46.745  23.386  26.594  1.00  0.00    -0.475 OA
ATOM     16  C   UNL A   1      45.717  22.753  25.781  1.00  0.00     0.316 C 
BRANCH   7  17
ATOM     17  C   UNL A   1      45.361  26.227  31.344  1.00  0.00     0.032 C 
ATOM     18  C   UNL A   1      43.924  26.734  31.365  1.00  0.00     0.009 C 
ENDBRANCH   7  17
BRANCH  16  19
ATOM     19  C   UNL A   1      45.584  23.516  24.454  1.00  0.00     0.430 C 
ATOM     20  F   UNL A   1      46.778  24.010  24.046  1.00  0.00    -0.167 F 
ATOM     21  F   UNL A   1      45.143  22.707  23.460  1.00  0.00    -0.167 F 
ATOM     22  F   UNL A   1      44.723  24.554  24.543  1.00  0.00    -0.167 F 
ENDBRANCH  16  19
ENDBRANCH   4   6
ENDBRANCH   3   4
ENDBRANCH   2   3
ENDBRANCH   1   2
BRANCH   1  23
ATOM     23  O   UNL A   1      40.041  21.454  27.266  1.00  0.00    -0.458 OA
BRANCH  23  24
ATOM     24  C   UNL A   1      39.451  22.459  26.584  1.00  0.00     0.338 C 
ATOM     25  O   UNL A   1      38.502  22.382  25.821  1.00  0.00    -0.246 OA
BRANCH  24  26
ATOM     26  C   UNL A   1      40.103  23.740  26.900  1.00  0.00     0.060 A 
ATOM     27  C   UNL A   1      40.723  23.914  28.134  1.00  0.00     0.016 A 
ATOM     28  C   UNL A   1      39.949  24.823  26.035  1.00  0.00     0.016 A 
ATOM     29  C   UNL A   1      41.059  25.193  28.567  1.00  0.00     0.010 A 
ATOM     30  C   UNL A   1      40.409  26.085  26.421  1.00  0.00     0.010 A 
ATOM     31  C   UNL A   1      40.923  26.295  27.712  1.00  0.00    -0.014 A 
BRANCH  31  32
ATOM     32  C   UNL A   1      41.301  27.660  28.175  1.00  0.00     0.031 A 
ATOM     33  C   UNL A   1      42.739  28.112  28.141  1.00  0.00     0.074 A 
ATOM     34  C   UNL A   1      40.349  28.506  28.618  1.00  0.00     0.049 A 
ATOM     35  N   UNL A   1      43.277  29.206  28.620  1.00  0.00    -0.248 NA
ATOM     36  C   UNL A   1      43.702  27.208  27.491  1.00  0.00     0.031 C 
ATOM     37  C   UNL A   1      38.914  28.213  28.674  1.00  0.00     0.029 A 
ATOM     38  N   UNL A   1      40.441  29.789  29.096  1.00  0.00    -0.354 N 
ATOM     39  C   UNL A   1      44.641  29.103  28.370  1.00  0.00     0.074 A 
ATOM     40  C   UNL A   1      44.852  27.830  27.713  1.00  0.00     0.031 C 
ATOM     41  C   UNL A   1      38.260  29.297  29.116  1.00  0.00     0.029 A 
ATOM     42  C   UNL A   1      39.230  30.328  29.457  1.00  0.00     0.049 A 
ATOM     43  H   UNL A   1      41.293  30.275  29.174  1.00  0.00     0.167 HD
ATOM     44  C   UNL A   1      45.627  29.988  28.660  1.00  0.00     0.037 A 
ATOM     45  C   UNL A   1      38.933  31.507  30.034  1.00  0.00     0.037 A 
ATOM     46  C   UNL A   1      45.410  31.268  29.286  1.00  0.00     0.049 A 
ATOM     47  C   UNL A   1      40.047  32.447  30.387  1.00  0.00     0.074 A 
ATOM     48  C   UNL A   1      46.339  32.240  29.613  1.00  0.00     0.029 A 
ATOM     49  N   UNL A   1      44.171  31.757  29.672  1.00  0.00    -0.354 N 
ATOM     50  N   UNL A   1      41.335  32.320  30.180  1.00  0.00    -0.248 NA
ATOM     51  C   UNL A   1      39.665  33.690  31.071  1.00  0.00     0.031 C 
ATOM     52  C   UNL A   1      45.667  33.301  30.231  1.00  0.00     0.029 A 
ATOM     53  C   UNL A   1      44.313  33.010  30.247  1.00  0.00     0.049 A 
ATOM     54  H   UNL A   1      43.315  31.284  29.554  1.00  0.00     0.167 HD
ATOM     55  C   UNL A   1      41.916  33.470  30.694  1.00  0.00     0.074 A 
ATOM     56  C   UNL A   1      40.837  34.294  31.199  1.00  0.00     0.031 C 
ATOM     57  C   UNL A   1      43.227  33.813  30.750  1.00  0.00     0.037 A 
BRANCH  44  58
ATOM     58  C   UNL A   1      47.036  29.585  28.327  1.00  0.00     0.057 A 
ATOM     59  C   UNL A   1      47.554  29.803  27.043  1.00  0.00     0.134 A 
ATOM     60  C   UNL A   1      47.877  28.971  29.264  1.00  0.00     0.134 A 
ATOM     61  F   UNL A   1      46.801  30.379  26.094  1.00  0.00    -0.206 F 
ATOM     62  C   UNL A   1      48.857  29.431  26.706  1.00  0.00     0.040 A 
ATOM     63  C   UNL A   1      49.191  28.618  28.946  1.00  0.00     0.040 A 
ATOM     64  F   UNL A   1      47.450  28.746  30.516  1.00  0.00    -0.206 F 
ATOM     65  C   UNL A   1      49.683  28.844  27.662  1.00  0.00     0.006 A 
ENDBRANCH  44  58
BRANCH  45  66
ATOM     66  C   UNL A   1      37.522  31.849  30.345  1.00  0.00     0.057 A 
ATOM     67  C   UNL A   1      36.730  32.573  29.446  1.00  0.00     0.134 A 
ATOM     68  C   UNL A   1      36.930  31.447  31.547  1.00  0.00     0.134 A 
ATOM     69  F   UNL A   1      37.239  32.990  28.277  1.00  0.00    -0.206 F 
ATOM     70  C   UNL A   1      35.403  32.896  29.735  1.00  0.00     0.040 A 
ATOM     71  C   UNL A   1      35.596  31.738  31.837  1.00  0.00     0.040 A 
ATOM     72  F   UNL A   1      37.631  30.731  32.438  1.00  0.00    -0.206 F 
ATOM     73  C   UNL A   1      34.831  32.471  30.931  1.00  0.00     0.006 A 
ENDBRANCH  45  66
BRANCH  57  74
ATOM     74  C   UNL A   1      43.547  35.148  31.353  1.00  0.00     0.057 A 
ATOM     75  C   UNL A   1      43.709  36.277  30.542  1.00  0.00     0.134 A 
ATOM     76  C   UNL A   1      43.676  35.321  32.738  1.00  0.00     0.134 A 
ATOM     77  F   UNL A   1      43.603  36.179  29.208  1.00  0.00    -0.206 F 
ATOM     78  C   UNL A   1      43.981  37.533  31.087  1.00  0.00     0.040 A 
ATOM     79  C   UNL A   1      43.921  36.576  33.295  1.00  0.00     0.040 A 
ATOM     80  F   UNL A   1      43.513  34.282  33.571  1.00  0.00    -0.206 F 
ATOM     81  C   UNL A   1      44.077  37.687  32.467  1.00  0.00     0.006 A 
ENDBRANCH  57  74
ENDBRANCH  31  32
ENDBRANCH  24  26
ENDBRANCH  23  24
ENDBRANCH   1  23
TORSDOF 13
ENDMDL
MODEL 3
REMARK VINA RESULT:      -9.7      4.286      9.419
REMARK SMILES CCc1cc(C)c2c(c1)C=C(C(=O)OCCOC(=O)c1ccc(-c3c4nc(c(-c5c(F)cccc5F)c5ccc([nH]5)c(-c5c(F)cccc5F)c5nc(c(-c6c(F)cccc6F)c6ccc3[nH]6)C=C5)C=C4)cc1)[C@@H](C(F)(F)F)O2
REMARK SMILES IDX 16 1 15 2 14 3 12 4 13 5 11 6 3 7 4 8 9 9 5 10 8 11 6 12
REMARK SMILES IDX 7 13 10 14 79 15 74 16 2 17 1 18 75 19 76 20 77 21 78 22
REMARK SMILES IDX 17 23 18 24 19 25 20 26 21 27 73 28 22 29 72 30 23 31 24 32
REMARK SMILES IDX 25 33 66 34 26 35 71 36 65 37 67 38 27 39 70 40 64 41 63 42
REMARK SMILES IDX 28 44 54 45 37 46 53 47 38 48 41 49 52 50 68 51 39 52 40 53
REMARK SMILES IDX 51 55 69 56 42 57 29 58 30 59 35 60 31 61 32 62 34 63 36 64
REMARK SMILES IDX 33 65 55 66 56 67 61 68 57 69 58 70 60 71 62 72 59 73 43 74
REMARK SMILES IDX 44 75 49 76 45 77 46 78 48 79 50 80 47 81
REMARK H PARENT 67 43 41 54
REMARK Flexibility Score: inf
ROOT
ATOM      1  C   UNL A   1      31.662  30.080  25.349  1.00  0.00     0.275 C 
ENDROOT
BRANCH   1   2
ATOM      2  C   UNL A   1      31.627  28.663  24.777  1.00  0.00     0.275 C 
BRANCH   2   3
ATOM      3  O   UNL A   1      32.378  27.748  25.602  1.00  0.00    -0.459 OA
BRANCH   3   4
ATOM      4  C   UNL A   1      31.641  26.797  26.220  1.00  0.00     0.338 C 
ATOM      5  O   UNL A   1      30.653  26.978  26.914  1.00  0.00    -0.246 OA
BRANCH   4   6
ATOM      6  C   UNL A   1      32.168  25.456  25.917  1.00  0.00     0.087 C 
ATOM      7  C   UNL A   1      36.041  22.657  25.273  1.00  0.00    -0.047 A 
ATOM      8  C   UNL A   1      35.216  21.675  24.704  1.00  0.00     0.011 A 
ATOM      9  C   UNL A   1      35.443  23.826  25.751  1.00  0.00     0.015 A 
ATOM     10  C   UNL A   1      33.820  21.841  24.628  1.00  0.00    -0.008 A 
ATOM     11  C   UNL A   1      34.057  24.007  25.672  1.00  0.00     0.018 A 
ATOM     12  C   UNL A   1      32.971  20.776  23.995  1.00  0.00     0.048 C 
ATOM     13  C   UNL A   1      33.243  23.020  25.118  1.00  0.00     0.130 A 
ATOM     14  C   UNL A   1      33.473  25.254  26.122  1.00  0.00     0.027 C 
ATOM     15  O   UNL A   1      31.880  23.142  25.035  1.00  0.00    -0.475 OA
ATOM     16  C   UNL A   1      31.272  24.443  25.269  1.00  0.00     0.316 C 
BRANCH   7  17
ATOM     17  C   UNL A   1      37.543  22.489  25.277  1.00  0.00     0.032 C 
ATOM     18  C   UNL A   1      38.292  23.509  26.126  1.00  0.00     0.009 C 
ENDBRANCH   7  17
BRANCH  16  19
ATOM     19  C   UNL A   1      30.692  24.972  23.948  1.00  0.00     0.430 C 
ATOM     20  F   UNL A   1      29.631  25.787  24.166  1.00  0.00    -0.167 F 
ATOM     21  F   UNL A   1      31.604  25.702  23.264  1.00  0.00    -0.167 F 
ATOM     22  F   UNL A   1      30.278  23.975  23.133  1.00  0.00    -0.167 F 
ENDBRANCH  16  19
ENDBRANCH   4   6
ENDBRANCH   3   4
ENDBRANCH   2   3
ENDBRANCH   1   2
BRANCH   1  23
ATOM     23  O   UNL A   1      32.201  30.073  26.684  1.00  0.00    -0.458 OA
BRANCH  23  24
ATOM     24  C   UNL A   1      32.810  31.216  27.068  1.00  0.00     0.338 C 
ATOM     25  O   UNL A   1      32.348  32.345  27.056  1.00  0.00    -0.246 OA
BRANCH  24  26
ATOM     26  C   UNL A   1      34.168  30.929  27.556  1.00  0.00     0.060 A 
ATOM     27  C   UNL A   1      34.576  29.610  27.731  1.00  0.00     0.016 A 
ATOM     28  C   UNL A   1      34.976  31.976  28.000  1.00  0.00     0.016 A 
ATOM     29  C   UNL A   1      35.718  29.329  28.476  1.00  0.00     0.010 A 
ATOM     30  C   UNL A   1      36.190  31.691  28.633  1.00  0.00     0.010 A 
ATOM     31  C   UNL A   1      36.550  30.364  28.924  1.00  0.00    -0.014 A 
BRANCH  31  32
ATOM     32  C   UNL A   1      37.780  30.057  29.707  1.00  0.00     0.031 A 
ATOM     33  C   UNL A   1      38.869  29.196  29.119  1.00  0.00     0.074 A 
ATOM     34  C   UNL A   1      37.929  30.563  30.948  1.00  0.00     0.049 A 
ATOM     35  N   UNL A   1      39.945  28.714  29.690  1.00  0.00    -0.248 NA
ATOM     36  C   UNL A   1      38.723  28.817  27.704  1.00  0.00     0.031 C 
ATOM     37  C   UNL A   1      36.971  31.438  31.628  1.00  0.00     0.029 A 
ATOM     38  N   UNL A   1      38.948  30.422  31.857  1.00  0.00    -0.354 N 
ATOM     39  C   UNL A   1      40.579  27.942  28.722  1.00  0.00     0.074 A 
ATOM     40  C   UNL A   1      39.758  28.006  27.532  1.00  0.00     0.031 C 
ATOM     41  C   UNL A   1      37.466  31.790  32.823  1.00  0.00     0.029 A 
ATOM     42  C   UNL A   1      38.731  31.099  33.033  1.00  0.00     0.049 A 
ATOM     43  H   UNL A   1      39.755  29.888  31.683  1.00  0.00     0.167 HD
ATOM     44  C   UNL A   1      41.740  27.248  28.815  1.00  0.00     0.037 A 
ATOM     45  C   UNL A   1      39.450  31.132  34.170  1.00  0.00     0.037 A 
ATOM     46  C   UNL A   1      42.572  27.213  29.991  1.00  0.00     0.049 A 
ATOM     47  C   UNL A   1      40.705  30.317  34.263  1.00  0.00     0.074 A 
ATOM     48  C   UNL A   1      43.770  26.547  30.185  1.00  0.00     0.029 A 
ATOM     49  N   UNL A   1      42.294  27.881  31.175  1.00  0.00    -0.354 N 
ATOM     50  N   UNL A   1      41.273  29.563  33.353  1.00  0.00    -0.248 NA
ATOM     51  C   UNL A   1      41.412  30.346  35.550  1.00  0.00     0.031 C 
ATOM     52  C   UNL A   1      44.198  26.783  31.497  1.00  0.00     0.029 A 
ATOM     53  C   UNL A   1      43.289  27.632  32.106  1.00  0.00     0.049 A 
ATOM     54  H   UNL A   1      41.505  28.450  31.330  1.00  0.00     0.167 HD
ATOM     55  C   UNL A   1      42.409  29.038  33.952  1.00  0.00     0.074 A 
ATOM     56  C   UNL A   1      42.463  29.582  35.294  1.00  0.00     0.031 C 
ATOM     57  C   UNL A   1      43.324  28.177  33.440  1.00  0.00     0.037 A 
BRANCH  44  58
ATOM     58  C   UNL A   1      42.162  26.445  27.618  1.00  0.00     0.057 A 
ATOM     59  C   UNL A   1      41.738  25.117  27.466  1.00  0.00     0.134 A 
ATOM     60  C   UNL A   1      42.994  26.972  26.621  1.00  0.00     0.134 A 
ATOM     61  F   UNL A   1      40.946  24.547  28.386  1.00  0.00    -0.206 F 
ATOM     62  C   UNL A   1      42.122  24.347  26.366  1.00  0.00     0.040 A 
ATOM     63  C   UNL A   1      43.363  26.219  25.503  1.00  0.00     0.040 A 
ATOM     64  F   UNL A   1      43.424  28.241  26.696  1.00  0.00    -0.206 F 
ATOM     65  C   UNL A   1      42.930  24.900  25.376  1.00  0.00     0.006 A 
ENDBRANCH  44  58
BRANCH  45  66
ATOM     66  C   UNL A   1      38.981  31.941  35.323  1.00  0.00     0.057 A 
ATOM     67  C   UNL A   1      38.218  31.375  36.352  1.00  0.00     0.134 A 
ATOM     68  C   UNL A   1      39.299  33.299  35.429  1.00  0.00     0.134 A 
ATOM     69  F   UNL A   1      37.877  30.078  36.308  1.00  0.00    -0.206 F 
ATOM     70  C   UNL A   1      37.776  32.133  37.438  1.00  0.00     0.040 A 
ATOM     71  C   UNL A   1      38.889  34.062  36.524  1.00  0.00     0.040 A 
ATOM     72  F   UNL A   1      40.047  33.893  34.488  1.00  0.00    -0.206 F 
ATOM     73  C   UNL A   1      38.119  33.479  37.529  1.00  0.00     0.006 A 
ENDBRANCH  45  66
BRANCH  57  74
ATOM     74  C   UNL A   1      44.468  27.805  34.334  1.00  0.00     0.057 A 
ATOM     75  C   UNL A   1      45.628  28.588  34.372  1.00  0.00     0.134 A 
ATOM     76  C   UNL A   1      44.417  26.682  35.171  1.00  0.00     0.134 A 
ATOM     77  F   UNL A   1      45.743  29.674  33.592  1.00  0.00    -0.206 F 
ATOM     78  C   UNL A   1      46.693  28.272  35.217  1.00  0.00     0.040 A 
ATOM     79  C   UNL A   1      45.465  26.372  36.039  1.00  0.00     0.040 A 
ATOM     80  F   UNL A   1      43.325  25.902  35.196  1.00  0.00    -0.206 F 
ATOM     81  C   UNL A   1      46.608  27.168  36.060  1.00  0.00     0.006 A 
ENDBRANCH  57  74
ENDBRANCH  31  32
ENDBRANCH  24  26
ENDBRANCH  23  24
ENDBRANCH   1  23
TORSDOF 13
ENDMDL
