MODEL 1
REMARK VINA RESULT:     -11.3      0.000      0.000
REMARK SMILES O=C(Cc1cccn1-c1ccccc1F)OCCOC(=O)c1ccc(-c2c3nc(c(-c4c(F)cccc4F)c4ccc([nH]4)c(-c4c(F)cccc4F)c4nc(c(-c5c(F)cccc5F)c5ccc2[nH]5)C=C4)C=C3)cc1
REMARK SMILES IDX 17 1 16 2 2 3 1 4 3 5 4 6 5 7 8 8 6 9 7 10 9 11 10 12 14 13
REMARK SMILES IDX 11 14 13 15 15 16 12 17 18 18 19 19 20 20 21 21 22 22 23 23
REMARK SMILES IDX 75 24 24 25 74 26 25 27 26 28 27 29 68 30 28 31 73 32 67 33
REMARK SMILES IDX 69 34 29 35 72 36 66 37 65 38 30 40 56 41 39 42 55 43 40 44
REMARK SMILES IDX 43 45 54 46 70 47 41 48 42 49 53 51 71 52 44 53 31 54 32 55
REMARK SMILES IDX 37 56 33 57 34 58 36 59 38 60 35 61 57 62 58 63 63 64 59 65
REMARK SMILES IDX 60 66 62 67 64 68 61 69 45 70 46 71 51 72 47 73 48 74 50 75
REMARK SMILES IDX 52 76 49 77
REMARK H PARENT 69 39 43 50
REMARK Flexibility Score: inf
ROOT
ATOM      1  C   UNL A   1      38.361  21.350  25.367  1.00  0.00     0.274 C 
ENDROOT
BRANCH   1   2
ATOM      2  O   UNL A   1      37.349  21.489  24.355  1.00  0.00    -0.462 OA
BRANCH   2   3
ATOM      3  C   UNL A   1      36.800  22.683  23.998  1.00  0.00     0.311 C 
ATOM      4  O   UNL A   1      36.680  22.961  22.806  1.00  0.00    -0.252 OA
BRANCH   3   5
ATOM      5  C   UNL A   1      36.477  23.703  25.086  1.00  0.00     0.177 C 
BRANCH   5   6
ATOM      6  C   UNL A   1      35.185  23.422  25.796  1.00  0.00     0.034 A 
ATOM      7  C   UNL A   1      34.912  22.423  26.718  1.00  0.00     0.024 A 
ATOM      8  N   UNL A   1      34.009  24.135  25.603  1.00  0.00    -0.318 N 
ATOM      9  C   UNL A   1      33.564  22.554  27.117  1.00  0.00     0.020 A 
ATOM     10  C   UNL A   1      33.046  23.637  26.447  1.00  0.00     0.091 A 
BRANCH   8  11
ATOM     11  C   UNL A   1      33.791  25.212  24.730  1.00  0.00     0.081 A 
ATOM     12  C   UNL A   1      33.836  26.518  25.236  1.00  0.00     0.030 A 
ATOM     13  C   UNL A   1      33.633  24.982  23.362  1.00  0.00     0.147 A 
ATOM     14  C   UNL A   1      33.768  27.592  24.345  1.00  0.00     0.002 A 
ATOM     15  C   UNL A   1      33.543  26.058  22.480  1.00  0.00     0.041 A 
ATOM     16  F   UNL A   1      33.632  23.737  22.867  1.00  0.00    -0.205 F 
ATOM     17  C   UNL A   1      33.627  27.365  22.971  1.00  0.00     0.003 A 
ENDBRANCH   8  11
ENDBRANCH   5   6
ENDBRANCH   3   5
ENDBRANCH   2   3
ENDBRANCH   1   2
BRANCH   1  18
ATOM     18  C   UNL A   1      39.121  20.035  25.397  1.00  0.00     0.275 C 
BRANCH  18  19
ATOM     19  O   UNL A   1      40.010  19.994  26.501  1.00  0.00    -0.458 OA
BRANCH  19  20
ATOM     20  C   UNL A   1      41.226  19.513  26.163  1.00  0.00     0.338 C 
ATOM     21  O   UNL A   1      41.499  18.390  25.786  1.00  0.00    -0.246 OA
BRANCH  20  22
ATOM     22  C   UNL A   1      42.244  20.502  26.500  1.00  0.00     0.060 A 
ATOM     23  C   UNL A   1      42.227  20.908  27.834  1.00  0.00     0.016 A 
ATOM     24  C   UNL A   1      42.823  21.259  25.471  1.00  0.00     0.016 A 
ATOM     25  C   UNL A   1      42.548  22.210  28.104  1.00  0.00     0.010 A 
ATOM     26  C   UNL A   1      43.112  22.572  25.734  1.00  0.00     0.010 A 
ATOM     27  C   UNL A   1      42.912  23.038  27.036  1.00  0.00    -0.014 A 
BRANCH  27  28
ATOM     28  C   UNL A   1      43.260  24.410  27.370  1.00  0.00     0.031 A 
ATOM     29  C   UNL A   1      41.949  25.215  27.543  1.00  0.00     0.074 A 
ATOM     30  C   UNL A   1      44.610  24.652  27.362  1.00  0.00     0.049 A 
ATOM     31  N   UNL A   1      41.724  26.484  27.432  1.00  0.00    -0.248 NA
ATOM     32  C   UNL A   1      40.669  24.487  27.826  1.00  0.00     0.031 C 
ATOM     33  C   UNL A   1      45.682  23.633  27.182  1.00  0.00     0.029 A 
ATOM     34  N   UNL A   1      45.369  25.791  27.478  1.00  0.00    -0.354 N 
ATOM     35  C   UNL A   1      40.391  26.726  27.830  1.00  0.00     0.074 A 
ATOM     36  C   UNL A   1      39.761  25.453  27.966  1.00  0.00     0.031 C 
ATOM     37  C   UNL A   1      46.900  24.216  27.076  1.00  0.00     0.029 A 
ATOM     38  C   UNL A   1      46.757  25.651  27.191  1.00  0.00     0.049 A 
ATOM     39  H   UNL A   1      44.976  26.653  27.743  1.00  0.00     0.167 HD
ATOM     40  C   UNL A   1      39.918  27.971  28.118  1.00  0.00     0.037 A 
ATOM     41  C   UNL A   1      47.680  26.648  26.991  1.00  0.00     0.037 A 
ATOM     42  C   UNL A   1      40.916  28.944  27.828  1.00  0.00     0.049 A 
ATOM     43  C   UNL A   1      46.927  27.877  27.278  1.00  0.00     0.074 A 
ATOM     44  C   UNL A   1      41.346  29.429  26.620  1.00  0.00     0.029 A 
ATOM     45  N   UNL A   1      41.885  29.158  28.777  1.00  0.00    -0.354 N 
ATOM     46  N   UNL A   1      46.520  28.238  28.459  1.00  0.00    -0.248 NA
ATOM     47  C   UNL A   1      46.436  28.667  26.144  1.00  0.00     0.031 C 
ATOM     48  C   UNL A   1      42.747  29.424  26.767  1.00  0.00     0.029 A 
ATOM     49  C   UNL A   1      43.086  29.251  28.114  1.00  0.00     0.049 A 
ATOM     50  H   UNL A   1      41.745  29.230  29.750  1.00  0.00     0.167 HD
ATOM     51  C   UNL A   1      45.468  29.071  28.167  1.00  0.00     0.074 A 
ATOM     52  C   UNL A   1      45.662  29.522  26.804  1.00  0.00     0.031 C 
ATOM     53  C   UNL A   1      44.296  28.962  28.846  1.00  0.00     0.037 A 
BRANCH  40  54
ATOM     54  C   UNL A   1      38.662  28.434  28.782  1.00  0.00     0.057 A 
ATOM     55  C   UNL A   1      38.367  28.189  30.126  1.00  0.00     0.134 A 
ATOM     56  C   UNL A   1      37.896  29.439  28.149  1.00  0.00     0.134 A 
ATOM     57  F   UNL A   1      39.038  27.267  30.828  1.00  0.00    -0.206 F 
ATOM     58  C   UNL A   1      37.423  28.959  30.822  1.00  0.00     0.040 A 
ATOM     59  C   UNL A   1      36.986  30.236  28.842  1.00  0.00     0.040 A 
ATOM     60  F   UNL A   1      38.063  29.718  26.847  1.00  0.00    -0.206 F 
ATOM     61  C   UNL A   1      36.762  30.010  30.192  1.00  0.00     0.006 A 
ENDBRANCH  40  54
BRANCH  41  62
ATOM     62  C   UNL A   1      49.076  26.827  26.427  1.00  0.00     0.057 A 
ATOM     63  C   UNL A   1      50.119  27.318  27.267  1.00  0.00     0.134 A 
ATOM     64  C   UNL A   1      49.463  26.671  25.094  1.00  0.00     0.134 A 
ATOM     65  F   UNL A   1      49.991  27.357  28.600  1.00  0.00    -0.206 F 
ATOM     66  C   UNL A   1      51.342  27.810  26.801  1.00  0.00     0.040 A 
ATOM     67  C   UNL A   1      50.721  27.109  24.616  1.00  0.00     0.040 A 
ATOM     68  F   UNL A   1      48.658  26.085  24.202  1.00  0.00    -0.206 F 
ATOM     69  C   UNL A   1      51.640  27.730  25.458  1.00  0.00     0.006 A 
ENDBRANCH  41  62
BRANCH  53  70
ATOM     70  C   UNL A   1      44.390  28.248  30.185  1.00  0.00     0.057 A 
ATOM     71  C   UNL A   1      43.862  26.976  30.460  1.00  0.00     0.134 A 
ATOM     72  C   UNL A   1      45.124  28.822  31.229  1.00  0.00     0.134 A 
ATOM     73  F   UNL A   1      43.138  26.322  29.558  1.00  0.00    -0.206 F 
ATOM     74  C   UNL A   1      44.047  26.308  31.679  1.00  0.00     0.040 A 
ATOM     75  C   UNL A   1      45.323  28.169  32.456  1.00  0.00     0.040 A 
ATOM     76  F   UNL A   1      45.664  30.040  31.080  1.00  0.00    -0.206 F 
ATOM     77  C   UNL A   1      44.785  26.906  32.686  1.00  0.00     0.006 A 
ENDBRANCH  53  70
ENDBRANCH  27  28
ENDBRANCH  20  22
ENDBRANCH  19  20
ENDBRANCH  18  19
ENDBRANCH   1  18
TORSDOF 13
ENDMDL
MODEL 2
REMARK VINA RESULT:     -11.2      1.676      2.607
REMARK SMILES O=C(Cc1cccn1-c1ccccc1F)OCCOC(=O)c1ccc(-c2c3nc(c(-c4c(F)cccc4F)c4ccc([nH]4)c(-c4c(F)cccc4F)c4nc(c(-c5c(F)cccc5F)c5ccc2[nH]5)C=C4)C=C3)cc1
REMARK SMILES IDX 17 1 16 2 2 3 1 4 3 5 4 6 5 7 8 8 6 9 7 10 9 11 10 12 14 13
REMARK SMILES IDX 11 14 13 15 15 16 12 17 18 18 19 19 20 20 21 21 22 22 23 23
REMARK SMILES IDX 75 24 24 25 74 26 25 27 26 28 27 29 68 30 28 31 73 32 67 33
REMARK SMILES IDX 69 34 29 35 72 36 66 37 65 38 30 40 56 41 39 42 55 43 40 44
REMARK SMILES IDX 43 45 54 46 70 47 41 48 42 49 53 51 71 52 44 53 31 54 32 55
REMARK SMILES IDX 37 56 33 57 34 58 36 59 38 60 35 61 57 62 58 63 63 64 59 65
REMARK SMILES IDX 60 66 62 67 64 68 61 69 45 70 46 71 51 72 47 73 48 74 50 75
REMARK SMILES IDX 52 76 49 77
REMARK H PARENT 69 39 43 50
REMARK Flexibility Score: inf
ROOT
ATOM      1  C   UNL A   1      37.997  20.108  24.972  1.00  0.00     0.274 C 
ENDROOT
BRANCH   1   2
ATOM      2  O   UNL A   1      37.865  21.480  25.379  1.00  0.00    -0.462 OA
BRANCH   2   3
ATOM      3  C   UNL A   1      37.098  22.391  24.719  1.00  0.00     0.311 C 
ATOM      4  O   UNL A   1      37.527  23.531  24.547  1.00  0.00    -0.252 OA
BRANCH   3   5
ATOM      5  C   UNL A   1      35.670  22.015  24.334  1.00  0.00     0.177 C 
BRANCH   5   6
ATOM      6  C   UNL A   1      34.795  21.719  25.518  1.00  0.00     0.034 A 
ATOM      7  C   UNL A   1      34.696  22.422  26.708  1.00  0.00     0.024 A 
ATOM      8  N   UNL A   1      33.941  20.629  25.612  1.00  0.00    -0.318 N 
ATOM      9  C   UNL A   1      33.742  21.772  27.521  1.00  0.00     0.020 A 
ATOM     10  C   UNL A   1      33.265  20.698  26.807  1.00  0.00     0.091 A 
BRANCH   8  11
ATOM     11  C   UNL A   1      33.735  19.614  24.664  1.00  0.00     0.081 A 
ATOM     12  C   UNL A   1      34.583  18.499  24.668  1.00  0.00     0.030 A 
ATOM     13  C   UNL A   1      32.639  19.674  23.802  1.00  0.00     0.147 A 
ATOM     14  C   UNL A   1      34.289  17.422  23.827  1.00  0.00     0.002 A 
ATOM     15  C   UNL A   1      32.363  18.607  22.949  1.00  0.00     0.041 A 
ATOM     16  F   UNL A   1      31.800  20.719  23.824  1.00  0.00    -0.205 F 
ATOM     17  C   UNL A   1      33.181  17.472  22.973  1.00  0.00     0.003 A 
ENDBRANCH   8  11
ENDBRANCH   5   6
ENDBRANCH   3   5
ENDBRANCH   2   3
ENDBRANCH   1   2
BRANCH   1  18
ATOM     18  C   UNL A   1      39.107  19.304  25.629  1.00  0.00     0.275 C 
BRANCH  18  19
ATOM     19  O   UNL A   1      40.125  20.161  26.118  1.00  0.00    -0.458 OA
BRANCH  19  20
ATOM     20  C   UNL A   1      41.353  19.606  26.022  1.00  0.00     0.338 C 
ATOM     21  O   UNL A   1      41.624  18.445  25.790  1.00  0.00    -0.246 OA
BRANCH  20  22
ATOM     22  C   UNL A   1      42.354  20.583  26.436  1.00  0.00     0.060 A 
ATOM     23  C   UNL A   1      42.283  20.939  27.784  1.00  0.00     0.016 A 
ATOM     24  C   UNL A   1      42.972  21.378  25.460  1.00  0.00     0.016 A 
ATOM     25  C   UNL A   1      42.590  22.230  28.114  1.00  0.00     0.010 A 
ATOM     26  C   UNL A   1      43.247  22.681  25.783  1.00  0.00     0.010 A 
ATOM     27  C   UNL A   1      42.994  23.098  27.092  1.00  0.00    -0.014 A 
BRANCH  27  28
ATOM     28  C   UNL A   1      43.326  24.457  27.491  1.00  0.00     0.031 A 
ATOM     29  C   UNL A   1      42.006  25.250  27.654  1.00  0.00     0.074 A 
ATOM     30  C   UNL A   1      44.674  24.703  27.536  1.00  0.00     0.049 A 
ATOM     31  N   UNL A   1      41.780  26.522  27.587  1.00  0.00    -0.248 NA
ATOM     32  C   UNL A   1      40.721  24.508  27.868  1.00  0.00     0.031 C 
ATOM     33  C   UNL A   1      45.756  23.695  27.349  1.00  0.00     0.029 A 
ATOM     34  N   UNL A   1      45.424  25.839  27.720  1.00  0.00    -0.354 N 
ATOM     35  C   UNL A   1      40.434  26.744  27.951  1.00  0.00     0.074 A 
ATOM     36  C   UNL A   1      39.805  25.465  28.017  1.00  0.00     0.031 C 
ATOM     37  C   UNL A   1      46.974  24.286  27.305  1.00  0.00     0.029 A 
ATOM     38  C   UNL A   1      46.821  25.715  27.471  1.00  0.00     0.049 A 
ATOM     39  H   UNL A   1      45.019  26.689  28.006  1.00  0.00     0.167 HD
ATOM     40  C   UNL A   1      39.946  27.975  28.273  1.00  0.00     0.037 A 
ATOM     41  C   UNL A   1      47.745  26.721  27.340  1.00  0.00     0.037 A 
ATOM     42  C   UNL A   1      40.949  28.962  28.053  1.00  0.00     0.049 A 
ATOM     43  C   UNL A   1      46.979  27.937  27.652  1.00  0.00     0.074 A 
ATOM     44  C   UNL A   1      41.415  29.496  26.879  1.00  0.00     0.029 A 
ATOM     45  N   UNL A   1      41.886  29.141  29.040  1.00  0.00    -0.354 N 
ATOM     46  N   UNL A   1      46.533  28.249  28.832  1.00  0.00    -0.248 NA
ATOM     47  C   UNL A   1      46.520  28.769  26.534  1.00  0.00     0.031 C 
ATOM     48  C   UNL A   1      42.810  29.489  27.070  1.00  0.00     0.029 A 
ATOM     49  C   UNL A   1      43.108  29.264  28.419  1.00  0.00     0.049 A 
ATOM     50  H   UNL A   1      41.716  29.175  30.010  1.00  0.00     0.167 HD
ATOM     51  C   UNL A   1      45.487  29.089  28.540  1.00  0.00     0.074 A 
ATOM     52  C   UNL A   1      45.722  29.594  27.202  1.00  0.00     0.031 C 
ATOM     53  C   UNL A   1      44.295  28.950  29.177  1.00  0.00     0.037 A 
BRANCH  40  54
ATOM     54  C   UNL A   1      38.668  28.407  28.914  1.00  0.00     0.057 A 
ATOM     55  C   UNL A   1      38.358  28.161  30.255  1.00  0.00     0.134 A 
ATOM     56  C   UNL A   1      37.886  29.389  28.264  1.00  0.00     0.134 A 
ATOM     57  F   UNL A   1      39.042  27.260  30.972  1.00  0.00    -0.206 F 
ATOM     58  C   UNL A   1      37.383  28.908  30.932  1.00  0.00     0.040 A 
ATOM     59  C   UNL A   1      36.944  30.165  28.939  1.00  0.00     0.040 A 
ATOM     60  F   UNL A   1      38.066  29.666  26.964  1.00  0.00    -0.206 F 
ATOM     61  C   UNL A   1      36.705  29.939  30.286  1.00  0.00     0.006 A 
ENDBRANCH  40  54
BRANCH  41  62
ATOM     62  C   UNL A   1      49.157  26.928  26.828  1.00  0.00     0.057 A 
ATOM     63  C   UNL A   1      49.519  26.438  25.537  1.00  0.00     0.134 A 
ATOM     64  C   UNL A   1      50.233  27.463  27.539  1.00  0.00     0.134 A 
ATOM     65  F   UNL A   1      48.596  26.059  24.643  1.00  0.00    -0.206 F 
ATOM     66  C   UNL A   1      50.836  26.292  25.088  1.00  0.00     0.040 A 
ATOM     67  C   UNL A   1      51.566  27.379  27.073  1.00  0.00     0.040 A 
ATOM     68  F   UNL A   1      50.048  28.098  28.702  1.00  0.00    -0.206 F 
ATOM     69  C   UNL A   1      51.875  26.743  25.873  1.00  0.00     0.006 A 
ENDBRANCH  41  62
BRANCH  53  70
ATOM     70  C   UNL A   1      44.350  28.185  30.489  1.00  0.00     0.057 A 
ATOM     71  C   UNL A   1      43.819  26.901  30.697  1.00  0.00     0.134 A 
ATOM     72  C   UNL A   1      45.048  28.719  31.578  1.00  0.00     0.134 A 
ATOM     73  F   UNL A   1      43.128  26.280  29.747  1.00  0.00    -0.206 F 
ATOM     74  C   UNL A   1      43.969  26.185  31.894  1.00  0.00     0.040 A 
ATOM     75  C   UNL A   1      45.211  28.020  32.784  1.00  0.00     0.040 A 
ATOM     76  F   UNL A   1      45.586  29.944  31.493  1.00  0.00    -0.206 F 
ATOM     77  C   UNL A   1      44.672  26.747  32.947  1.00  0.00     0.006 A 
ENDBRANCH  53  70
ENDBRANCH  27  28
ENDBRANCH  20  22
ENDBRANCH  19  20
ENDBRANCH  18  19
ENDBRANCH   1  18
TORSDOF 13
ENDMDL
MODEL 3
REMARK VINA RESULT:     -11.0      5.119     10.169
REMARK SMILES O=C(Cc1cccn1-c1ccccc1F)OCCOC(=O)c1ccc(-c2c3nc(c(-c4c(F)cccc4F)c4ccc([nH]4)c(-c4c(F)cccc4F)c4nc(c(-c5c(F)cccc5F)c5ccc2[nH]5)C=C4)C=C3)cc1
REMARK SMILES IDX 17 1 16 2 2 3 1 4 3 5 4 6 5 7 8 8 6 9 7 10 9 11 10 12 14 13
REMARK SMILES IDX 11 14 13 15 15 16 12 17 18 18 19 19 20 20 21 21 22 22 23 23
REMARK SMILES IDX 75 24 24 25 74 26 25 27 26 28 27 29 68 30 28 31 73 32 67 33
REMARK SMILES IDX 69 34 29 35 72 36 66 37 65 38 30 40 56 41 39 42 55 43 40 44
REMARK SMILES IDX 43 45 54 46 70 47 41 48 42 49 53 51 71 52 44 53 31 54 32 55
REMARK SMILES IDX 37 56 33 57 34 58 36 59 38 60 35 61 57 62 58 63 63 64 59 65
REMARK SMILES IDX 60 66 62 67 64 68 61 69 45 70 46 71 51 72 47 73 48 74 50 75
REMARK SMILES IDX 52 76 49 77
REMARK H PARENT 69 39 43 50
REMARK Flexibility Score: inf
ROOT
ATOM      1  C   UNL A   1      32.862  31.119  27.282  1.00  0.00     0.274 C 
ENDROOT
BRANCH   1   2
ATOM      2  O   UNL A   1      31.882  30.076  27.151  1.00  0.00    -0.462 OA
BRANCH   2   3
ATOM      3  C   UNL A   1      32.166  28.752  27.306  1.00  0.00     0.311 C 
ATOM      4  O   UNL A   1      31.390  28.037  27.938  1.00  0.00    -0.252 OA
BRANCH   3   5
ATOM      5  C   UNL A   1      33.508  28.222  26.811  1.00  0.00     0.177 C 
BRANCH   5   6
ATOM      6  C   UNL A   1      33.491  27.824  25.364  1.00  0.00     0.034 A 
ATOM      7  C   UNL A   1      33.715  28.622  24.253  1.00  0.00     0.024 A 
ATOM      8  N   UNL A   1      33.203  26.547  24.901  1.00  0.00    -0.318 N 
ATOM      9  C   UNL A   1      33.599  27.811  23.102  1.00  0.00     0.020 A 
ATOM     10  C   UNL A   1      33.324  26.534  23.532  1.00  0.00     0.091 A 
BRANCH   8  11
ATOM     11  C   UNL A   1      32.870  25.414  25.659  1.00  0.00     0.081 A 
ATOM     12  C   UNL A   1      31.519  25.138  25.912  1.00  0.00     0.030 A 
ATOM     13  C   UNL A   1      33.868  24.526  26.064  1.00  0.00     0.147 A 
ATOM     14  C   UNL A   1      31.179  23.934  26.536  1.00  0.00     0.002 A 
ATOM     15  C   UNL A   1      33.524  23.337  26.706  1.00  0.00     0.041 A 
ATOM     16  F   UNL A   1      35.157  24.763  25.787  1.00  0.00    -0.205 F 
ATOM     17  C   UNL A   1      32.177  23.034  26.928  1.00  0.00     0.003 A 
ENDBRANCH   8  11
ENDBRANCH   5   6
ENDBRANCH   3   5
ENDBRANCH   2   3
ENDBRANCH   1   2
BRANCH   1  18
ATOM     18  C   UNL A   1      32.337  32.543  27.351  1.00  0.00     0.275 C 
BRANCH  18  19
ATOM     19  O   UNL A   1      33.408  33.470  27.425  1.00  0.00    -0.458 OA
BRANCH  19  20
ATOM     20  C   UNL A   1      33.207  34.411  28.373  1.00  0.00     0.338 C 
ATOM     21  O   UNL A   1      32.345  35.267  28.395  1.00  0.00    -0.246 OA
BRANCH  20  22
ATOM     22  C   UNL A   1      34.321  34.389  29.315  1.00  0.00     0.060 A 
ATOM     23  C   UNL A   1      35.573  34.569  28.726  1.00  0.00     0.016 A 
ATOM     24  C   UNL A   1      34.139  33.785  30.568  1.00  0.00     0.016 A 
ATOM     25  C   UNL A   1      36.631  33.895  29.268  1.00  0.00     0.010 A 
ATOM     26  C   UNL A   1      35.190  33.080  31.093  1.00  0.00     0.010 A 
ATOM     27  C   UNL A   1      36.403  33.101  30.399  1.00  0.00    -0.014 A 
BRANCH  27  28
ATOM     28  C   UNL A   1      37.560  32.414  30.952  1.00  0.00     0.031 A 
ATOM     29  C   UNL A   1      37.796  31.124  30.129  1.00  0.00     0.074 A 
ATOM     30  C   UNL A   1      38.074  33.017  32.071  1.00  0.00     0.049 A 
ATOM     31  N   UNL A   1      38.394  30.023  30.451  1.00  0.00    -0.248 NA
ATOM     32  C   UNL A   1      37.225  31.016  28.747  1.00  0.00     0.031 C 
ATOM     33  C   UNL A   1      37.639  34.323  32.642  1.00  0.00     0.029 A 
ATOM     34  N   UNL A   1      39.042  32.661  32.977  1.00  0.00    -0.354 N 
ATOM     35  C   UNL A   1      38.464  29.213  29.297  1.00  0.00     0.074 A 
ATOM     36  C   UNL A   1      37.644  29.830  28.305  1.00  0.00     0.031 C 
ATOM     37  C   UNL A   1      38.242  34.564  33.831  1.00  0.00     0.029 A 
ATOM     38  C   UNL A   1      39.131  33.467  34.148  1.00  0.00     0.049 A 
ATOM     39  H   UNL A   1      39.639  31.893  32.827  1.00  0.00     0.167 HD
ATOM     40  C   UNL A   1      39.281  28.126  29.202  1.00  0.00     0.037 A 
ATOM     41  C   UNL A   1      39.822  33.200  35.304  1.00  0.00     0.037 A 
ATOM     42  C   UNL A   1      39.911  27.888  30.457  1.00  0.00     0.049 A 
ATOM     43  C   UNL A   1      40.552  31.963  34.992  1.00  0.00     0.074 A 
ATOM     44  C   UNL A   1      39.399  27.355  31.611  1.00  0.00     0.029 A 
ATOM     45  N   UNL A   1      41.029  28.628  30.753  1.00  0.00    -0.354 N 
ATOM     46  N   UNL A   1      41.546  31.879  34.159  1.00  0.00    -0.248 NA
ATOM     47  C   UNL A   1      40.016  30.697  35.504  1.00  0.00     0.031 C 
ATOM     48  C   UNL A   1      39.900  28.223  32.600  1.00  0.00     0.029 A 
ATOM     49  C   UNL A   1      40.917  29.022  32.066  1.00  0.00     0.049 A 
ATOM     50  H   UNL A   1      41.772  28.838  30.140  1.00  0.00     0.167 HD
ATOM     51  C   UNL A   1      41.518  30.554  33.797  1.00  0.00     0.074 A 
ATOM     52  C   UNL A   1      40.802  29.854  34.844  1.00  0.00     0.031 C 
ATOM     53  C   UNL A   1      41.642  30.194  32.493  1.00  0.00     0.037 A 
BRANCH  40  54
ATOM     54  C   UNL A   1      39.705  27.293  28.037  1.00  0.00     0.057 A 
ATOM     55  C   UNL A   1      40.475  27.784  26.980  1.00  0.00     0.134 A 
ATOM     56  C   UNL A   1      39.629  25.886  28.151  1.00  0.00     0.134 A 
ATOM     57  F   UNL A   1      40.627  29.100  26.783  1.00  0.00    -0.206 F 
ATOM     58  C   UNL A   1      41.197  26.926  26.136  1.00  0.00     0.040 A 
ATOM     59  C   UNL A   1      40.374  25.026  27.345  1.00  0.00     0.040 A 
ATOM     60  F   UNL A   1      38.875  25.310  29.100  1.00  0.00    -0.206 F 
ATOM     61  C   UNL A   1      41.180  25.549  26.344  1.00  0.00     0.006 A 
ENDBRANCH  40  54
BRANCH  41  62
ATOM     62  C   UNL A   1      39.890  33.678  36.741  1.00  0.00     0.057 A 
ATOM     63  C   UNL A   1      41.158  33.947  37.337  1.00  0.00     0.134 A 
ATOM     64  C   UNL A   1      38.823  33.787  37.636  1.00  0.00     0.134 A 
ATOM     65  F   UNL A   1      42.271  34.071  36.600  1.00  0.00    -0.206 F 
ATOM     66  C   UNL A   1      41.371  34.091  38.712  1.00  0.00     0.040 A 
ATOM     67  C   UNL A   1      39.016  33.992  39.022  1.00  0.00     0.040 A 
ATOM     68  F   UNL A   1      37.556  33.712  37.215  1.00  0.00    -0.206 F 
ATOM     69  C   UNL A   1      40.293  34.087  39.570  1.00  0.00     0.006 A 
ENDBRANCH  41  62
BRANCH  53  70
ATOM     70  C   UNL A   1      42.266  31.246  31.590  1.00  0.00     0.057 A 
ATOM     71  C   UNL A   1      41.580  31.975  30.606  1.00  0.00     0.134 A 
ATOM     72  C   UNL A   1      43.604  31.614  31.773  1.00  0.00     0.134 A 
ATOM     73  F   UNL A   1      40.306  31.722  30.326  1.00  0.00    -0.206 F 
ATOM     74  C   UNL A   1      42.167  33.004  29.854  1.00  0.00     0.040 A 
ATOM     75  C   UNL A   1      44.210  32.642  31.033  1.00  0.00     0.040 A 
ATOM     76  F   UNL A   1      44.358  30.975  32.679  1.00  0.00    -0.206 F 
ATOM     77  C   UNL A   1      43.491  33.343  30.069  1.00  0.00     0.006 A 
ENDBRANCH  53  70
ENDBRANCH  27  28
ENDBRANCH  20  22
ENDBRANCH  19  20
ENDBRANCH  18  19
ENDBRANCH   1  18
TORSDOF 13
ENDMDL
