MODEL 1
REMARK VINA RESULT:     -11.3      0.000      0.000
REMARK SMILES CC(=O)c1c[nH]c(C(=O)N[C@H]2C=C[C@H](C(=O)OCCOC(=O)c3ccc(-c4c5nc(c(-c6c(F)cccc6F)c6ccc([nH]6)c(-c6c(F)cccc6F)c6nc(c(-c7c(F)cccc7F)c7ccc4[nH]7)C=C6)C=C5)cc3)C2)c1
REMARK SMILES IDX 18 1 17 2 15 3 16 4 14 5 11 6 12 7 77 8 13 9 10 10 8 11 9 12
REMARK SMILES IDX 7 14 4 15 5 16 78 17 6 18 2 20 1 21 3 22 19 23 20 24 21 25
REMARK SMILES IDX 22 26 23 27 24 28 76 29 25 30 75 31 26 32 27 33 28 34 69 35
REMARK SMILES IDX 29 36 74 37 68 38 70 39 30 40 73 41 67 42 66 43 31 45 57 46
REMARK SMILES IDX 40 47 56 48 41 49 44 50 55 51 71 52 42 53 43 54 54 56 72 57
REMARK SMILES IDX 45 58 32 59 33 60 38 61 34 62 35 63 37 64 39 65 36 66 58 67
REMARK SMILES IDX 59 68 64 69 60 70 61 71 63 72 65 73 62 74 46 75 47 76 52 77
REMARK SMILES IDX 48 78 49 79 51 80 53 81 50 82
REMARK H PARENT 10 13 6 19 70 44 44 55
REMARK Flexibility Score: inf
ROOT
ATOM      1  C   UNL A   1      32.068  31.777  26.638  1.00  0.00     0.274 C 
ENDROOT
BRANCH   1   2
ATOM      2  O   UNL A   1      32.466  30.722  27.534  1.00  0.00    -0.462 OA
BRANCH   2   3
ATOM      3  C   UNL A   1      33.736  30.225  27.378  1.00  0.00     0.312 C 
ATOM      4  O   UNL A   1      34.743  30.909  27.376  1.00  0.00    -0.252 OA
BRANCH   3   5
ATOM      5  C   UNL A   1      33.713  28.696  27.224  1.00  0.00     0.124 C 
ATOM      6  C   UNL A   1      32.395  28.184  25.211  1.00  0.00     0.106 C 
ATOM      7  C   UNL A   1      31.643  27.866  26.477  1.00  0.00    -0.006 C 
ATOM      8  C   UNL A   1      33.824  28.259  25.760  1.00  0.00     0.048 C 
ATOM      9  C   UNL A   1      32.365  28.138  27.573  1.00  0.00    -0.014 C 
BRANCH   6  10
ATOM     10  N   UNL A   1      32.027  27.186  24.216  1.00  0.00    -0.345 N 
ATOM     11  C   UNL A   1      31.083  27.041  23.234  1.00  0.00     0.268 C 
ATOM     12  O   UNL A   1      31.052  25.949  22.661  1.00  0.00    -0.268 OA
ATOM     13  H   UNL A   1      32.620  26.401  24.261  1.00  0.00     0.164 HD
BRANCH  11  14
ATOM     14  C   UNL A   1      30.248  28.126  22.792  1.00  0.00     0.105 A 
ATOM     15  C   UNL A   1      28.899  29.941  22.698  1.00  0.00     0.035 A 
ATOM     16  C   UNL A   1      29.831  30.052  21.688  1.00  0.00     0.094 A 
ATOM     17  C   UNL A   1      29.045  28.635  23.224  1.00  0.00     0.045 A 
ATOM     18  N   UNL A   1      30.591  28.906  21.702  1.00  0.00    -0.356 N 
ATOM     19  H   UNL A   1      31.279  28.675  21.036  1.00  0.00     0.166 HD
BRANCH  15  20
ATOM     20  C   UNL A   1      28.032  30.982  23.225  1.00  0.00     0.161 C 
ATOM     21  C   UNL A   1      28.466  32.412  23.096  1.00  0.00     0.093 C 
ATOM     22  O   UNL A   1      26.956  30.690  23.746  1.00  0.00    -0.294 OA
ENDBRANCH  15  20
ENDBRANCH  11  14
ENDBRANCH   6  10
ENDBRANCH   3   5
ENDBRANCH   2   3
ENDBRANCH   1   2
BRANCH   1  23
ATOM     23  C   UNL A   1      32.000  33.167  27.280  1.00  0.00     0.275 C 
BRANCH  23  24
ATOM     24  O   UNL A   1      33.282  33.758  27.531  1.00  0.00    -0.458 OA
BRANCH  24  25
ATOM     25  C   UNL A   1      33.241  34.638  28.548  1.00  0.00     0.338 C 
ATOM     26  O   UNL A   1      32.501  35.606  28.660  1.00  0.00    -0.246 OA
BRANCH  25  27
ATOM     27  C   UNL A   1      34.334  34.459  29.497  1.00  0.00     0.060 A 
ATOM     28  C   UNL A   1      35.622  34.596  28.981  1.00  0.00     0.016 A 
ATOM     29  C   UNL A   1      34.087  33.765  30.684  1.00  0.00     0.016 A 
ATOM     30  C   UNL A   1      36.654  33.871  29.539  1.00  0.00     0.010 A 
ATOM     31  C   UNL A   1      35.135  33.079  31.280  1.00  0.00     0.010 A 
ATOM     32  C   UNL A   1      36.400  33.090  30.671  1.00  0.00    -0.014 A 
BRANCH  32  33
ATOM     33  C   UNL A   1      37.562  32.473  31.332  1.00  0.00     0.031 A 
ATOM     34  C   UNL A   1      37.956  31.177  30.619  1.00  0.00     0.074 A 
ATOM     35  C   UNL A   1      38.068  33.091  32.441  1.00  0.00     0.049 A 
ATOM     36  N   UNL A   1      38.596  30.147  31.073  1.00  0.00    -0.248 NA
ATOM     37  C   UNL A   1      37.497  30.951  29.215  1.00  0.00     0.031 C 
ATOM     38  C   UNL A   1      37.517  34.325  33.041  1.00  0.00     0.029 A 
ATOM     39  N   UNL A   1      39.125  32.821  33.291  1.00  0.00    -0.354 N 
ATOM     40  C   UNL A   1      38.807  29.281  29.981  1.00  0.00     0.074 A 
ATOM     41  C   UNL A   1      37.974  29.743  28.916  1.00  0.00     0.031 C 
ATOM     42  C   UNL A   1      38.192  34.656  34.164  1.00  0.00     0.029 A 
ATOM     43  C   UNL A   1      39.263  33.704  34.395  1.00  0.00     0.049 A 
ATOM     44  H   UNL A   1      39.740  32.066  33.141  1.00  0.00     0.167 HD
ATOM     45  C   UNL A   1      39.799  28.348  29.954  1.00  0.00     0.037 A 
ATOM     46  C   UNL A   1      40.166  33.667  35.426  1.00  0.00     0.037 A 
ATOM     47  C   UNL A   1      40.538  28.382  31.168  1.00  0.00     0.049 A 
ATOM     48  C   UNL A   1      41.164  32.657  35.048  1.00  0.00     0.074 A 
ATOM     49  C   UNL A   1      40.221  28.012  32.448  1.00  0.00     0.029 A 
ATOM     50  N   UNL A   1      41.638  29.207  31.189  1.00  0.00    -0.354 N 
ATOM     51  N   UNL A   1      42.035  32.808  34.095  1.00  0.00    -0.248 NA
ATOM     52  C   UNL A   1      41.187  31.373  35.757  1.00  0.00     0.031 C 
ATOM     53  C   UNL A   1      40.863  28.985  33.236  1.00  0.00     0.029 A 
ATOM     54  C   UNL A   1      41.701  29.773  32.435  1.00  0.00     0.049 A 
ATOM     55  H   UNL A   1      42.264  29.364  30.445  1.00  0.00     0.167 HD
ATOM     56  C   UNL A   1      42.438  31.516  33.862  1.00  0.00     0.074 A 
ATOM     57  C   UNL A   1      42.156  30.770  35.071  1.00  0.00     0.031 C 
ATOM     58  C   UNL A   1      42.376  31.044  32.591  1.00  0.00     0.037 A 
BRANCH  45  59
ATOM     59  C   UNL A   1      40.388  27.565  28.825  1.00  0.00     0.057 A 
ATOM     60  C   UNL A   1      41.148  28.265  27.861  1.00  0.00     0.134 A 
ATOM     61  C   UNL A   1      39.949  26.289  28.456  1.00  0.00     0.134 A 
ATOM     62  F   UNL A   1      41.639  29.487  28.127  1.00  0.00    -0.206 F 
ATOM     63  C   UNL A   1      41.351  27.778  26.570  1.00  0.00     0.040 A 
ATOM     64  C   UNL A   1      40.188  25.771  27.177  1.00  0.00     0.040 A 
ATOM     65  F   UNL A   1      39.192  25.546  29.273  1.00  0.00    -0.206 F 
ATOM     66  C   UNL A   1      40.853  26.531  26.218  1.00  0.00     0.006 A 
ENDBRANCH  45  59
BRANCH  46  67
ATOM     67  C   UNL A   1      40.393  34.318  36.776  1.00  0.00     0.057 A 
ATOM     68  C   UNL A   1      41.535  35.016  37.173  1.00  0.00     0.134 A 
ATOM     69  C   UNL A   1      39.323  34.393  37.716  1.00  0.00     0.134 A 
ATOM     70  F   UNL A   1      42.659  34.987  36.450  1.00  0.00    -0.206 F 
ATOM     71  C   UNL A   1      41.571  35.805  38.343  1.00  0.00     0.040 A 
ATOM     72  C   UNL A   1      39.322  35.220  38.845  1.00  0.00     0.040 A 
ATOM     73  F   UNL A   1      38.198  33.677  37.571  1.00  0.00    -0.206 F 
ATOM     74  C   UNL A   1      40.451  35.948  39.156  1.00  0.00     0.006 A 
ENDBRANCH  46  67
BRANCH  58  75
ATOM     75  C   UNL A   1      42.586  32.111  31.527  1.00  0.00     0.057 A 
ATOM     76  C   UNL A   1      43.808  32.798  31.446  1.00  0.00     0.134 A 
ATOM     77  C   UNL A   1      41.587  32.580  30.664  1.00  0.00     0.134 A 
ATOM     78  F   UNL A   1      44.850  32.413  32.200  1.00  0.00    -0.206 F 
ATOM     79  C   UNL A   1      44.000  33.901  30.601  1.00  0.00     0.040 A 
ATOM     80  C   UNL A   1      41.758  33.679  29.811  1.00  0.00     0.040 A 
ATOM     81  F   UNL A   1      40.399  31.985  30.614  1.00  0.00    -0.206 F 
ATOM     82  C   UNL A   1      42.968  34.354  29.785  1.00  0.00     0.006 A 
ENDBRANCH  58  75
ENDBRANCH  32  33
ENDBRANCH  25  27
ENDBRANCH  24  25
ENDBRANCH  23  24
ENDBRANCH   1  23
TORSDOF 14
ENDMDL
MODEL 2
REMARK VINA RESULT:     -10.9      4.306      8.343
REMARK SMILES CC(=O)c1c[nH]c(C(=O)N[C@H]2C=C[C@H](C(=O)OCCOC(=O)c3ccc(-c4c5nc(c(-c6c(F)cccc6F)c6ccc([nH]6)c(-c6c(F)cccc6F)c6nc(c(-c7c(F)cccc7F)c7ccc4[nH]7)C=C6)C=C5)cc3)C2)c1
REMARK SMILES IDX 18 1 17 2 15 3 16 4 14 5 11 6 12 7 77 8 13 9 10 10 8 11 9 12
REMARK SMILES IDX 7 14 4 15 5 16 78 17 6 18 2 20 1 21 3 22 19 23 20 24 21 25
REMARK SMILES IDX 22 26 23 27 24 28 76 29 25 30 75 31 26 32 27 33 28 34 69 35
REMARK SMILES IDX 29 36 74 37 68 38 70 39 30 40 73 41 67 42 66 43 31 45 57 46
REMARK SMILES IDX 40 47 56 48 41 49 44 50 55 51 71 52 42 53 43 54 54 56 72 57
REMARK SMILES IDX 45 58 32 59 33 60 38 61 34 62 35 63 37 64 39 65 36 66 58 67
REMARK SMILES IDX 59 68 64 69 60 70 61 71 63 72 65 73 62 74 46 75 47 76 52 77
REMARK SMILES IDX 48 78 49 79 51 80 53 81 50 82
REMARK H PARENT 10 13 6 19 70 44 44 55
REMARK Flexibility Score: inf
ROOT
ATOM      1  C   UNL A   1      34.349  33.038  28.481  1.00  0.00     0.274 C 
ENDROOT
BRANCH   1   2
ATOM      2  O   UNL A   1      35.490  33.652  29.110  1.00  0.00    -0.462 OA
BRANCH   2   3
ATOM      3  C   UNL A   1      35.310  34.129  30.384  1.00  0.00     0.312 C 
ATOM      4  O   UNL A   1      34.385  34.844  30.723  1.00  0.00    -0.252 OA
BRANCH   3   5
ATOM      5  C   UNL A   1      36.421  33.628  31.321  1.00  0.00     0.124 C 
ATOM      6  C   UNL A   1      35.958  31.260  31.801  1.00  0.00     0.106 C 
ATOM      7  C   UNL A   1      35.643  32.148  32.977  1.00  0.00    -0.006 C 
ATOM      8  C   UNL A   1      36.858  32.198  30.989  1.00  0.00     0.048 C 
ATOM      9  C   UNL A   1      35.903  33.437  32.716  1.00  0.00    -0.014 C 
BRANCH   6  10
ATOM     10  N   UNL A   1      36.467  29.999  32.323  1.00  0.00    -0.345 N 
ATOM     11  C   UNL A   1      37.470  29.583  33.158  1.00  0.00     0.268 C 
ATOM     12  O   UNL A   1      37.630  28.365  33.258  1.00  0.00    -0.268 OA
ATOM     13  H   UNL A   1      35.946  29.236  31.983  1.00  0.00     0.164 HD
BRANCH  11  14
ATOM     14  C   UNL A   1      38.225  30.494  33.978  1.00  0.00     0.105 A 
ATOM     15  C   UNL A   1      39.220  32.330  34.851  1.00  0.00     0.035 A 
ATOM     16  C   UNL A   1      38.693  31.596  35.892  1.00  0.00     0.094 A 
ATOM     17  C   UNL A   1      39.106  31.514  33.700  1.00  0.00     0.045 A 
ATOM     18  N   UNL A   1      38.166  30.444  35.359  1.00  0.00    -0.356 N 
ATOM     19  H   UNL A   1      37.799  29.694  35.882  1.00  0.00     0.166 HD
BRANCH  15  20
ATOM     20  C   UNL A   1      39.674  33.711  34.878  1.00  0.00     0.161 C 
ATOM     21  C   UNL A   1      39.225  34.635  33.785  1.00  0.00     0.093 C 
ATOM     22  O   UNL A   1      40.395  34.110  35.791  1.00  0.00    -0.294 OA
ENDBRANCH  15  20
ENDBRANCH  11  14
ENDBRANCH   6  10
ENDBRANCH   3   5
ENDBRANCH   2   3
ENDBRANCH   1   2
BRANCH   1  23
ATOM     23  C   UNL A   1      34.567  31.585  28.044  1.00  0.00     0.275 C 
BRANCH  23  24
ATOM     24  O   UNL A   1      35.874  31.322  27.518  1.00  0.00    -0.458 OA
BRANCH  24  25
ATOM     25  C   UNL A   1      36.171  30.010  27.535  1.00  0.00     0.338 C 
ATOM     26  O   UNL A   1      35.486  29.091  27.106  1.00  0.00    -0.246 OA
BRANCH  25  27
ATOM     27  C   UNL A   1      37.367  29.710  28.314  1.00  0.00     0.060 A 
ATOM     28  C   UNL A   1      38.586  29.958  27.684  1.00  0.00     0.016 A 
ATOM     29  C   UNL A   1      37.263  28.832  29.395  1.00  0.00     0.016 A 
ATOM     30  C   UNL A   1      39.680  29.180  27.999  1.00  0.00     0.010 A 
ATOM     31  C   UNL A   1      38.377  28.086  29.753  1.00  0.00     0.010 A 
ATOM     32  C   UNL A   1      39.563  28.223  29.014  1.00  0.00    -0.014 A 
BRANCH  32  33
ATOM     33  C   UNL A   1      40.797  27.538  29.433  1.00  0.00     0.031 A 
ATOM     34  C   UNL A   1      41.069  26.330  28.532  1.00  0.00     0.074 A 
ATOM     35  C   UNL A   1      41.462  28.030  30.521  1.00  0.00     0.049 A 
ATOM     36  N   UNL A   1      41.751  25.257  28.775  1.00  0.00    -0.248 NA
ATOM     37  C   UNL A   1      40.414  26.261  27.191  1.00  0.00     0.031 C 
ATOM     38  C   UNL A   1      41.019  29.189  31.325  1.00  0.00     0.029 A 
ATOM     39  N   UNL A   1      42.624  27.668  31.179  1.00  0.00    -0.354 N 
ATOM     40  C   UNL A   1      41.794  24.518  27.577  1.00  0.00     0.074 A 
ATOM     41  C   UNL A   1      40.827  25.095  26.696  1.00  0.00     0.031 C 
ATOM     42  C   UNL A   1      41.849  29.394  32.371  1.00  0.00     0.029 A 
ATOM     43  C   UNL A   1      42.927  28.423  32.342  1.00  0.00     0.049 A 
ATOM     44  H   UNL A   1      43.200  26.936  30.861  1.00  0.00     0.167 HD
ATOM     45  C   UNL A   1      42.759  23.594  27.308  1.00  0.00     0.037 A 
ATOM     46  C   UNL A   1      43.966  28.273  33.226  1.00  0.00     0.037 A 
ATOM     47  C   UNL A   1      43.661  23.494  28.402  1.00  0.00     0.049 A 
ATOM     48  C   UNL A   1      44.887  27.313  32.602  1.00  0.00     0.074 A 
ATOM     49  C   UNL A   1      43.522  22.984  29.664  1.00  0.00     0.029 A 
ATOM     50  N   UNL A   1      44.765  24.314  28.358  1.00  0.00    -0.354 N 
ATOM     51  N   UNL A   1      45.617  27.570  31.558  1.00  0.00    -0.248 NA
ATOM     52  C   UNL A   1      44.990  25.958  33.155  1.00  0.00     0.031 C 
ATOM     53  C   UNL A   1      44.281  23.864  30.457  1.00  0.00     0.029 A 
ATOM     54  C   UNL A   1      45.010  24.738  29.638  1.00  0.00     0.049 A 
ATOM     55  H   UNL A   1      45.284  24.552  27.555  1.00  0.00     0.167 HD
ATOM     56  C   UNL A   1      45.964  26.312  31.130  1.00  0.00     0.074 A 
ATOM     57  C   UNL A   1      45.844  25.436  32.277  1.00  0.00     0.031 C 
ATOM     58  C   UNL A   1      45.719  25.984  29.836  1.00  0.00     0.037 A 
BRANCH  45  59
ATOM     59  C   UNL A   1      43.173  22.942  26.027  1.00  0.00     0.057 A 
ATOM     60  C   UNL A   1      43.299  21.535  26.013  1.00  0.00     0.134 A 
ATOM     61  C   UNL A   1      43.787  23.628  24.974  1.00  0.00     0.134 A 
ATOM     62  F   UNL A   1      42.725  20.783  26.965  1.00  0.00    -0.206 F 
ATOM     63  C   UNL A   1      44.090  20.864  25.080  1.00  0.00     0.040 A 
ATOM     64  C   UNL A   1      44.544  22.959  24.005  1.00  0.00     0.040 A 
ATOM     65  F   UNL A   1      43.765  24.964  24.901  1.00  0.00    -0.206 F 
ATOM     66  C   UNL A   1      44.733  21.581  24.080  1.00  0.00     0.006 A 
ENDBRANCH  45  59
BRANCH  46  67
ATOM     67  C   UNL A   1      44.389  28.770  34.594  1.00  0.00     0.057 A 
ATOM     68  C   UNL A   1      43.916  28.306  35.822  1.00  0.00     0.134 A 
ATOM     69  C   UNL A   1      45.477  29.686  34.710  1.00  0.00     0.134 A 
ATOM     70  F   UNL A   1      42.850  27.503  35.903  1.00  0.00    -0.206 F 
ATOM     71  C   UNL A   1      44.537  28.636  37.046  1.00  0.00     0.040 A 
ATOM     72  C   UNL A   1      46.141  29.972  35.907  1.00  0.00     0.040 A 
ATOM     73  F   UNL A   1      45.972  30.339  33.649  1.00  0.00    -0.206 F 
ATOM     74  C   UNL A   1      45.679  29.430  37.088  1.00  0.00     0.006 A 
ENDBRANCH  46  67
BRANCH  58  75
ATOM     75  C   UNL A   1      45.793  27.163  28.877  1.00  0.00     0.057 A 
ATOM     76  C   UNL A   1      46.996  27.868  28.716  1.00  0.00     0.134 A 
ATOM     77  C   UNL A   1      44.692  27.711  28.206  1.00  0.00     0.134 A 
ATOM     78  F   UNL A   1      48.125  27.416  29.285  1.00  0.00    -0.206 F 
ATOM     79  C   UNL A   1      47.080  29.060  27.980  1.00  0.00     0.040 A 
ATOM     80  C   UNL A   1      44.755  28.898  27.463  1.00  0.00     0.040 A 
ATOM     81  F   UNL A   1      43.506  27.112  28.243  1.00  0.00    -0.206 F 
ATOM     82  C   UNL A   1      45.954  29.586  27.357  1.00  0.00     0.006 A 
ENDBRANCH  58  75
ENDBRANCH  32  33
ENDBRANCH  25  27
ENDBRANCH  24  25
ENDBRANCH  23  24
ENDBRANCH   1  23
TORSDOF 14
ENDMDL
MODEL 3
REMARK VINA RESULT:     -10.9      6.332     11.103
REMARK SMILES CC(=O)c1c[nH]c(C(=O)N[C@H]2C=C[C@H](C(=O)OCCOC(=O)c3ccc(-c4c5nc(c(-c6c(F)cccc6F)c6ccc([nH]6)c(-c6c(F)cccc6F)c6nc(c(-c7c(F)cccc7F)c7ccc4[nH]7)C=C6)C=C5)cc3)C2)c1
REMARK SMILES IDX 18 1 17 2 15 3 16 4 14 5 11 6 12 7 77 8 13 9 10 10 8 11 9 12
REMARK SMILES IDX 7 14 4 15 5 16 78 17 6 18 2 20 1 21 3 22 19 23 20 24 21 25
REMARK SMILES IDX 22 26 23 27 24 28 76 29 25 30 75 31 26 32 27 33 28 34 69 35
REMARK SMILES IDX 29 36 74 37 68 38 70 39 30 40 73 41 67 42 66 43 31 45 57 46
REMARK SMILES IDX 40 47 56 48 41 49 44 50 55 51 71 52 42 53 43 54 54 56 72 57
REMARK SMILES IDX 45 58 32 59 33 60 38 61 34 62 35 63 37 64 39 65 36 66 58 67
REMARK SMILES IDX 59 68 64 69 60 70 61 71 63 72 65 73 62 74 46 75 47 76 52 77
REMARK SMILES IDX 48 78 49 79 51 80 53 81 50 82
REMARK H PARENT 10 13 6 19 70 44 44 55
REMARK Flexibility Score: inf
ROOT
ATOM      1  C   UNL A   1      38.647  19.586  25.380  1.00  0.00     0.274 C 
ENDROOT
BRANCH   1   2
ATOM      2  O   UNL A   1      38.164  20.855  24.901  1.00  0.00    -0.462 OA
BRANCH   2   3
ATOM      3  C   UNL A   1      38.416  21.950  25.688  1.00  0.00     0.312 C 
ATOM      4  O   UNL A   1      39.322  22.016  26.500  1.00  0.00    -0.252 OA
BRANCH   3   5
ATOM      5  C   UNL A   1      37.416  23.081  25.397  1.00  0.00     0.124 C 
ATOM      6  C   UNL A   1      35.159  22.161  25.723  1.00  0.00     0.106 C 
ATOM      7  C   UNL A   1      35.488  22.348  24.265  1.00  0.00    -0.006 C 
ATOM      8  C   UNL A   1      36.224  23.062  26.357  1.00  0.00     0.048 C 
ATOM      9  C   UNL A   1      36.716  22.857  24.089  1.00  0.00    -0.014 C 
BRANCH   6  10
ATOM     10  N   UNL A   1      33.740  22.443  25.895  1.00  0.00    -0.345 N 
ATOM     11  C   UNL A   1      32.548  21.824  25.625  1.00  0.00     0.268 C 
ATOM     12  O   UNL A   1      31.528  22.481  25.846  1.00  0.00    -0.268 OA
ATOM     13  H   UNL A   1      33.599  23.318  26.322  1.00  0.00     0.164 HD
BRANCH  11  14
ATOM     14  C   UNL A   1      32.462  20.444  25.226  1.00  0.00     0.105 A 
ATOM     15  C   UNL A   1      32.634  18.481  24.112  1.00  0.00     0.035 A 
ATOM     16  C   UNL A   1      32.867  18.234  25.449  1.00  0.00     0.094 A 
ATOM     17  C   UNL A   1      32.170  19.816  24.037  1.00  0.00     0.045 A 
ATOM     18  N   UNL A   1      32.678  19.416  26.125  1.00  0.00    -0.356 N 
ATOM     19  H   UNL A   1      32.694  19.516  27.105  1.00  0.00     0.166 HD
BRANCH  15  20
ATOM     20  C   UNL A   1      32.930  17.614  22.984  1.00  0.00     0.161 C 
ATOM     21  C   UNL A   1      34.027  16.601  23.124  1.00  0.00     0.093 C 
ATOM     22  O   UNL A   1      32.276  17.702  21.945  1.00  0.00    -0.294 OA
ENDBRANCH  15  20
ENDBRANCH  11  14
ENDBRANCH   6  10
ENDBRANCH   3   5
ENDBRANCH   2   3
ENDBRANCH   1   2
BRANCH   1  23
ATOM     23  C   UNL A   1      39.982  19.655  26.131  1.00  0.00     0.275 C 
BRANCH  23  24
ATOM     24  O   UNL A   1      41.103  19.176  25.376  1.00  0.00    -0.458 OA
BRANCH  24  25
ATOM     25  C   UNL A   1      42.194  19.008  26.144  1.00  0.00     0.338 C 
ATOM     26  O   UNL A   1      42.517  18.001  26.759  1.00  0.00    -0.246 OA
BRANCH  25  27
ATOM     27  C   UNL A   1      42.932  20.246  26.359  1.00  0.00     0.060 A 
ATOM     28  C   UNL A   1      42.740  20.868  27.593  1.00  0.00     0.016 A 
ATOM     29  C   UNL A   1      43.410  20.947  25.249  1.00  0.00     0.016 A 
ATOM     30  C   UNL A   1      42.831  22.241  27.678  1.00  0.00     0.010 A 
ATOM     31  C   UNL A   1      43.556  22.323  25.347  1.00  0.00     0.010 A 
ATOM     32  C   UNL A   1      43.211  22.969  26.545  1.00  0.00    -0.014 A 
BRANCH  32  33
ATOM     33  C   UNL A   1      43.462  24.408  26.727  1.00  0.00     0.031 A 
ATOM     34  C   UNL A   1      42.146  25.153  26.969  1.00  0.00     0.074 A 
ATOM     35  C   UNL A   1      44.751  24.849  26.624  1.00  0.00     0.049 A 
ATOM     36  N   UNL A   1      41.852  26.397  26.762  1.00  0.00    -0.248 NA
ATOM     37  C   UNL A   1      40.950  24.385  27.428  1.00  0.00     0.031 C 
ATOM     38  C   UNL A   1      45.913  23.987  26.320  1.00  0.00     0.029 A 
ATOM     39  N   UNL A   1      45.353  26.089  26.742  1.00  0.00    -0.354 N 
ATOM     40  C   UNL A   1      40.551  26.600  27.265  1.00  0.00     0.074 A 
ATOM     41  C   UNL A   1      39.991  25.308  27.506  1.00  0.00     0.031 C 
ATOM     42  C   UNL A   1      47.044  24.721  26.222  1.00  0.00     0.029 A 
ATOM     43  C   UNL A   1      46.748  26.118  26.482  1.00  0.00     0.049 A 
ATOM     44  H   UNL A   1      44.847  26.896  26.990  1.00  0.00     0.167 HD
ATOM     45  C   UNL A   1      40.081  27.824  27.635  1.00  0.00     0.037 A 
ATOM     46  C   UNL A   1      47.604  27.189  26.467  1.00  0.00     0.037 A 
ATOM     47  C   UNL A   1      41.075  28.818  27.419  1.00  0.00     0.049 A 
ATOM     48  C   UNL A   1      46.847  28.315  27.030  1.00  0.00     0.074 A 
ATOM     49  C   UNL A   1      41.596  29.362  26.276  1.00  0.00     0.029 A 
ATOM     50  N   UNL A   1      41.913  29.081  28.476  1.00  0.00    -0.354 N 
ATOM     51  N   UNL A   1      46.505  28.417  28.279  1.00  0.00    -0.248 NA
ATOM     52  C   UNL A   1      46.409  29.398  26.142  1.00  0.00     0.031 C 
ATOM     53  C   UNL A   1      42.954  29.547  26.594  1.00  0.00     0.029 A 
ATOM     54  C   UNL A   1      43.162  29.310  27.961  1.00  0.00     0.049 A 
ATOM     55  H   UNL A   1      41.663  29.102  29.429  1.00  0.00     0.167 HD
ATOM     56  C   UNL A   1      45.515  29.368  28.233  1.00  0.00     0.074 A 
ATOM     57  C   UNL A   1      45.729  30.131  27.022  1.00  0.00     0.031 C 
ATOM     58  C   UNL A   1      44.317  29.074  28.800  1.00  0.00     0.037 A 
BRANCH  45  59
ATOM     59  C   UNL A   1      38.896  28.219  28.457  1.00  0.00     0.057 A 
ATOM     60  C   UNL A   1      38.103  29.295  27.998  1.00  0.00     0.134 A 
ATOM     61  C   UNL A   1      38.729  27.858  29.798  1.00  0.00     0.134 A 
ATOM     62  F   UNL A   1      38.170  29.703  26.720  1.00  0.00    -0.206 F 
ATOM     63  C   UNL A   1      37.290  30.043  28.850  1.00  0.00     0.040 A 
ATOM     64  C   UNL A   1      37.879  28.573  30.651  1.00  0.00     0.040 A 
ATOM     65  F   UNL A   1      39.451  26.877  30.354  1.00  0.00    -0.206 F 
ATOM     66  C   UNL A   1      37.191  29.692  30.190  1.00  0.00     0.006 A 
ENDBRANCH  45  59
BRANCH  46  67
ATOM     67  C   UNL A   1      49.018  27.522  26.033  1.00  0.00     0.057 A 
ATOM     68  C   UNL A   1      50.044  27.989  26.855  1.00  0.00     0.134 A 
ATOM     69  C   UNL A   1      49.447  27.205  24.710  1.00  0.00     0.134 A 
ATOM     70  F   UNL A   1      49.806  28.406  28.103  1.00  0.00    -0.206 F 
ATOM     71  C   UNL A   1      51.391  28.033  26.435  1.00  0.00     0.040 A 
ATOM     72  C   UNL A   1      50.784  27.184  24.299  1.00  0.00     0.040 A 
ATOM     73  F   UNL A   1      48.580  26.872  23.742  1.00  0.00    -0.206 F 
ATOM     74  C   UNL A   1      51.771  27.586  25.173  1.00  0.00     0.006 A 
ENDBRANCH  46  67
BRANCH  58  75
ATOM     75  C   UNL A   1      44.413  28.131  29.990  1.00  0.00     0.057 A 
ATOM     76  C   UNL A   1      45.132  28.508  31.135  1.00  0.00     0.134 A 
ATOM     77  C   UNL A   1      43.936  26.813  29.999  1.00  0.00     0.134 A 
ATOM     78  F   UNL A   1      45.606  29.759  31.252  1.00  0.00    -0.206 F 
ATOM     79  C   UNL A   1      45.396  27.619  32.188  1.00  0.00     0.040 A 
ATOM     80  C   UNL A   1      44.186  25.910  31.042  1.00  0.00     0.040 A 
ATOM     81  F   UNL A   1      43.203  26.349  28.992  1.00  0.00    -0.206 F 
ATOM     82  C   UNL A   1      44.931  26.310  32.141  1.00  0.00     0.006 A 
ENDBRANCH  58  75
ENDBRANCH  32  33
ENDBRANCH  25  27
ENDBRANCH  24  25
ENDBRANCH  23  24
ENDBRANCH   1  23
TORSDOF 14
ENDMDL
