MODEL 1
REMARK VINA RESULT:      -9.9      0.000      0.000
REMARK SMILES COc1cc(OC)cc(-c2ccc([C@@H](C)C(=O)OCCOC(=O)c3ccc(-c4c5nc(c(-c6c(F)cccc6F)c6ccc([nH]6)c(-c6c(F)cccc6F)c6nc(c(-c7c(F)cccc7F)c7ccc4[nH]7)C=C6)C=C5)cc3)cc2F)c1
REMARK SMILES IDX 19 1 18 2 16 3 17 4 14 5 15 6 13 7 10 8 11 9 79 10 12 11
REMARK SMILES IDX 78 12 80 13 9 14 3 15 4 16 81 17 5 18 8 19 2 20 1 21 6 22
REMARK SMILES IDX 7 23 20 24 21 25 22 26 23 27 24 28 25 29 77 30 26 31 76 32
REMARK SMILES IDX 27 33 28 34 29 35 70 36 30 37 75 38 69 39 71 40 31 41 74 42
REMARK SMILES IDX 68 43 67 44 32 46 58 47 41 48 57 49 42 50 45 51 56 52 72 53
REMARK SMILES IDX 43 54 44 55 55 57 73 58 46 59 33 60 34 61 39 62 35 63 36 64
REMARK SMILES IDX 38 65 40 66 37 67 59 68 60 69 65 70 61 71 62 72 64 73 66 74
REMARK SMILES IDX 63 75 47 76 48 77 53 78 49 79 50 80 52 81 54 82 51 83
REMARK H PARENT 71 45 45 56
REMARK Flexibility Score: inf
ROOT
ATOM      1  C   UNL A   1      32.891  35.817  30.154  1.00  0.00     0.274 C 
ENDROOT
BRANCH   1   2
ATOM      2  O   UNL A   1      32.182  36.622  31.115  1.00  0.00    -0.462 OA
BRANCH   2   3
ATOM      3  C   UNL A   1      32.056  36.116  32.370  1.00  0.00     0.313 C 
ATOM      4  O   UNL A   1      31.045  35.566  32.796  1.00  0.00    -0.252 OA
BRANCH   3   5
ATOM      5  C   UNL A   1      33.287  36.335  33.240  1.00  0.00     0.126 C 
ATOM      6  C   UNL A   1      34.037  37.582  32.776  1.00  0.00     0.025 C 
BRANCH   5   7
ATOM      7  C   UNL A   1      34.200  35.128  33.404  1.00  0.00    -0.031 A 
ATOM      8  C   UNL A   1      35.976  32.919  33.672  1.00  0.00     0.018 A 
ATOM      9  C   UNL A   1      34.781  32.808  32.944  1.00  0.00     0.012 A 
ATOM     10  C   UNL A   1      36.241  34.144  34.294  1.00  0.00     0.131 A 
ATOM     11  C   UNL A   1      33.909  33.894  32.807  1.00  0.00     0.005 A 
ATOM     12  C   UNL A   1      35.379  35.233  34.159  1.00  0.00     0.044 A 
ATOM     13  F   UNL A   1      37.369  34.315  35.001  1.00  0.00    -0.206 F 
BRANCH   8  14
ATOM     14  C   UNL A   1      36.943  31.811  33.690  1.00  0.00    -0.008 A 
ATOM     15  C   UNL A   1      38.969  30.743  34.503  1.00  0.00     0.123 A 
ATOM     16  C   UNL A   1      38.768  29.686  33.613  1.00  0.00     0.092 A 
ATOM     17  C   UNL A   1      38.069  31.811  34.530  1.00  0.00     0.055 A 
ATOM     18  C   UNL A   1      37.660  29.667  32.768  1.00  0.00     0.123 A 
ATOM     19  C   UNL A   1      36.753  30.722  32.818  1.00  0.00     0.055 A 
BRANCH  15  20
ATOM     20  O   UNL A   1      40.104  30.654  35.264  1.00  0.00    -0.497 OA
ATOM     21  C   UNL A   1      40.822  29.432  35.136  1.00  0.00     0.278 C 
ENDBRANCH  15  20
BRANCH  18  22
ATOM     22  O   UNL A   1      37.570  28.576  31.947  1.00  0.00    -0.497 OA
ATOM     23  C   UNL A   1      38.522  27.540  32.158  1.00  0.00     0.278 C 
ENDBRANCH  18  22
ENDBRANCH   8  14
ENDBRANCH   5   7
ENDBRANCH   3   5
ENDBRANCH   2   3
ENDBRANCH   1   2
BRANCH   1  24
ATOM     24  C   UNL A   1      32.858  36.460  28.766  1.00  0.00     0.275 C 
BRANCH  24  25
ATOM     25  O   UNL A   1      33.445  35.590  27.779  1.00  0.00    -0.458 OA
BRANCH  25  26
ATOM     26  C   UNL A   1      33.260  34.268  27.994  1.00  0.00     0.338 C 
ATOM     27  O   UNL A   1      32.242  33.621  27.825  1.00  0.00    -0.246 OA
BRANCH  26  28
ATOM     28  C   UNL A   1      34.543  33.653  28.363  1.00  0.00     0.060 A 
ATOM     29  C   UNL A   1      34.520  32.571  29.245  1.00  0.00     0.016 A 
ATOM     30  C   UNL A   1      35.754  34.184  27.919  1.00  0.00     0.016 A 
ATOM     31  C   UNL A   1      35.710  32.022  29.709  1.00  0.00     0.010 A 
ATOM     32  C   UNL A   1      36.951  33.624  28.376  1.00  0.00     0.010 A 
ATOM     33  C   UNL A   1      36.936  32.551  29.285  1.00  0.00    -0.014 A 
BRANCH  33  34
ATOM     34  C   UNL A   1      38.194  32.004  29.841  1.00  0.00     0.031 A 
ATOM     35  C   UNL A   1      38.722  30.689  29.345  1.00  0.00     0.074 A 
ATOM     36  C   UNL A   1      38.881  32.706  30.759  1.00  0.00     0.049 A 
ATOM     37  N   UNL A   1      39.777  30.021  29.737  1.00  0.00    -0.248 NA
ATOM     38  C   UNL A   1      37.962  30.042  28.265  1.00  0.00     0.031 C 
ATOM     39  C   UNL A   1      38.495  34.017  31.282  1.00  0.00     0.029 A 
ATOM     40  N   UNL A   1      40.054  32.417  31.408  1.00  0.00    -0.354 N 
ATOM     41  C   UNL A   1      39.800  28.868  28.963  1.00  0.00     0.074 A 
ATOM     42  C   UNL A   1      38.645  28.918  28.093  1.00  0.00     0.031 C 
ATOM     43  C   UNL A   1      39.421  34.423  32.167  1.00  0.00     0.029 A 
ATOM     44  C   UNL A   1      40.441  33.386  32.301  1.00  0.00     0.049 A 
ATOM     45  H   UNL A   1      40.570  31.593  31.250  1.00  0.00     0.167 HD
ATOM     46  C   UNL A   1      40.706  27.861  28.976  1.00  0.00     0.037 A 
ATOM     47  C   UNL A   1      41.489  33.424  33.143  1.00  0.00     0.037 A 
ATOM     48  C   UNL A   1      41.861  27.817  29.832  1.00  0.00     0.049 A 
ATOM     49  C   UNL A   1      42.450  32.269  33.177  1.00  0.00     0.074 A 
ATOM     50  C   UNL A   1      42.839  26.840  29.919  1.00  0.00     0.029 A 
ATOM     51  N   UNL A   1      42.197  28.799  30.754  1.00  0.00    -0.354 N 
ATOM     52  N   UNL A   1      42.452  31.175  32.455  1.00  0.00    -0.248 NA
ATOM     53  C   UNL A   1      43.549  32.351  34.149  1.00  0.00     0.031 C 
ATOM     54  C   UNL A   1      43.748  27.216  30.913  1.00  0.00     0.029 A 
ATOM     55  C   UNL A   1      43.357  28.444  31.422  1.00  0.00     0.049 A 
ATOM     56  H   UNL A   1      41.686  29.626  30.909  1.00  0.00     0.167 HD
ATOM     57  C   UNL A   1      43.557  30.446  32.873  1.00  0.00     0.074 A 
ATOM     58  C   UNL A   1      44.211  31.230  33.901  1.00  0.00     0.031 C 
ATOM     59  C   UNL A   1      43.992  29.236  32.444  1.00  0.00     0.037 A 
BRANCH  46  60
ATOM     60  C   UNL A   1      40.460  26.708  28.048  1.00  0.00     0.057 A 
ATOM     61  C   UNL A   1      39.565  25.681  28.369  1.00  0.00     0.134 A 
ATOM     62  C   UNL A   1      41.118  26.634  26.815  1.00  0.00     0.134 A 
ATOM     63  F   UNL A   1      38.915  25.686  29.544  1.00  0.00    -0.206 F 
ATOM     64  C   UNL A   1      39.349  24.606  27.504  1.00  0.00     0.040 A 
ATOM     65  C   UNL A   1      40.895  25.576  25.933  1.00  0.00     0.040 A 
ATOM     66  F   UNL A   1      41.986  27.588  26.447  1.00  0.00    -0.206 F 
ATOM     67  C   UNL A   1      40.013  24.555  26.279  1.00  0.00     0.006 A 
ENDBRANCH  46  60
BRANCH  47  68
ATOM     68  C   UNL A   1      41.679  34.595  34.032  1.00  0.00     0.057 A 
ATOM     69  C   UNL A   1      42.431  35.700  33.621  1.00  0.00     0.134 A 
ATOM     70  C   UNL A   1      41.114  34.635  35.312  1.00  0.00     0.134 A 
ATOM     71  F   UNL A   1      43.015  35.707  32.413  1.00  0.00    -0.206 F 
ATOM     72  C   UNL A   1      42.620  36.804  34.453  1.00  0.00     0.040 A 
ATOM     73  C   UNL A   1      41.279  35.741  36.148  1.00  0.00     0.040 A 
ATOM     74  F   UNL A   1      40.384  33.605  35.764  1.00  0.00    -0.206 F 
ATOM     75  C   UNL A   1      42.038  36.828  35.719  1.00  0.00     0.006 A 
ENDBRANCH  47  68
BRANCH  59  76
ATOM     76  C   UNL A   1      45.242  28.701  33.075  1.00  0.00     0.057 A 
ATOM     77  C   UNL A   1      45.200  27.888  34.214  1.00  0.00     0.134 A 
ATOM     78  C   UNL A   1      46.498  28.983  32.523  1.00  0.00     0.134 A 
ATOM     79  F   UNL A   1      44.028  27.594  34.797  1.00  0.00    -0.206 F 
ATOM     80  C   UNL A   1      46.367  27.391  34.796  1.00  0.00     0.040 A 
ATOM     81  C   UNL A   1      47.670  28.475  33.083  1.00  0.00     0.040 A 
ATOM     82  F   UNL A   1      46.603  29.752  31.429  1.00  0.00    -0.206 F 
ATOM     83  C   UNL A   1      47.606  27.680  34.227  1.00  0.00     0.006 A 
ENDBRANCH  59  76
ENDBRANCH  33  34
ENDBRANCH  26  28
ENDBRANCH  25  26
ENDBRANCH  24  25
ENDBRANCH   1  24
TORSDOF 15
ENDMDL
MODEL 2
REMARK VINA RESULT:      -9.6      0.318      6.167
REMARK SMILES COc1cc(OC)cc(-c2ccc([C@@H](C)C(=O)OCCOC(=O)c3ccc(-c4c5nc(c(-c6c(F)cccc6F)c6ccc([nH]6)c(-c6c(F)cccc6F)c6nc(c(-c7c(F)cccc7F)c7ccc4[nH]7)C=C6)C=C5)cc3)cc2F)c1
REMARK SMILES IDX 19 1 18 2 16 3 17 4 14 5 15 6 13 7 10 8 11 9 79 10 12 11
REMARK SMILES IDX 78 12 80 13 9 14 3 15 4 16 81 17 5 18 8 19 2 20 1 21 6 22
REMARK SMILES IDX 7 23 20 24 21 25 22 26 23 27 24 28 25 29 77 30 26 31 76 32
REMARK SMILES IDX 27 33 28 34 29 35 70 36 30 37 75 38 69 39 71 40 31 41 74 42
REMARK SMILES IDX 68 43 67 44 32 46 58 47 41 48 57 49 42 50 45 51 56 52 72 53
REMARK SMILES IDX 43 54 44 55 55 57 73 58 46 59 33 60 34 61 39 62 35 63 36 64
REMARK SMILES IDX 38 65 40 66 37 67 59 68 60 69 65 70 61 71 62 72 64 73 66 74
REMARK SMILES IDX 63 75 47 76 48 77 53 78 49 79 50 80 52 81 54 82 51 83
REMARK H PARENT 71 45 45 56
REMARK Flexibility Score: inf
ROOT
ATOM      1  C   UNL A   1      32.556  35.730  30.124  1.00  0.00     0.274 C 
ENDROOT
BRANCH   1   2
ATOM      2  O   UNL A   1      32.194  36.603  31.211  1.00  0.00    -0.462 OA
BRANCH   2   3
ATOM      3  C   UNL A   1      32.098  36.044  32.446  1.00  0.00     0.313 C 
ATOM      4  O   UNL A   1      31.102  35.466  32.870  1.00  0.00    -0.252 OA
BRANCH   3   5
ATOM      5  C   UNL A   1      33.346  36.238  33.299  1.00  0.00     0.126 C 
ATOM      6  C   UNL A   1      34.093  37.492  32.850  1.00  0.00     0.025 C 
BRANCH   5   7
ATOM      7  C   UNL A   1      34.256  35.024  33.419  1.00  0.00    -0.031 A 
ATOM      8  C   UNL A   1      36.032  32.810  33.638  1.00  0.00     0.018 A 
ATOM      9  C   UNL A   1      35.078  32.879  32.610  1.00  0.00     0.012 A 
ATOM     10  C   UNL A   1      36.050  33.850  34.573  1.00  0.00     0.131 A 
ATOM     11  C   UNL A   1      34.208  33.969  32.499  1.00  0.00     0.005 A 
ATOM     12  C   UNL A   1      35.188  34.943  34.466  1.00  0.00     0.044 A 
ATOM     13  F   UNL A   1      36.941  33.845  35.577  1.00  0.00    -0.206 F 
BRANCH   8  14
ATOM     14  C   UNL A   1      37.027  31.727  33.659  1.00  0.00    -0.008 A 
ATOM     15  C   UNL A   1      39.072  30.706  34.486  1.00  0.00     0.123 A 
ATOM     16  C   UNL A   1      38.906  29.650  33.588  1.00  0.00     0.092 A 
ATOM     17  C   UNL A   1      38.144  31.751  34.510  1.00  0.00     0.055 A 
ATOM     18  C   UNL A   1      37.808  29.607  32.732  1.00  0.00     0.123 A 
ATOM     19  C   UNL A   1      36.873  30.639  32.780  1.00  0.00     0.055 A 
BRANCH  15  20
ATOM     20  O   UNL A   1      40.201  30.642  35.258  1.00  0.00    -0.497 OA
ATOM     21  C   UNL A   1      40.955  29.442  35.125  1.00  0.00     0.278 C 
ENDBRANCH  15  20
BRANCH  18  22
ATOM     22  O   UNL A   1      37.753  28.519  31.904  1.00  0.00    -0.497 OA
ATOM     23  C   UNL A   1      38.593  27.421  32.240  1.00  0.00     0.278 C 
ENDBRANCH  18  22
ENDBRANCH   8  14
ENDBRANCH   5   7
ENDBRANCH   3   5
ENDBRANCH   2   3
ENDBRANCH   1   2
BRANCH   1  24
ATOM     24  C   UNL A   1      32.911  36.531  28.870  1.00  0.00     0.275 C 
BRANCH  24  25
ATOM     25  O   UNL A   1      33.642  35.722  27.929  1.00  0.00    -0.458 OA
BRANCH  25  26
ATOM     26  C   UNL A   1      33.446  34.389  28.042  1.00  0.00     0.338 C 
ATOM     27  O   UNL A   1      32.424  33.765  27.817  1.00  0.00    -0.246 OA
BRANCH  26  28
ATOM     28  C   UNL A   1      34.721  33.737  28.373  1.00  0.00     0.060 A 
ATOM     29  C   UNL A   1      34.676  32.473  28.966  1.00  0.00     0.016 A 
ATOM     30  C   UNL A   1      35.938  34.391  28.184  1.00  0.00     0.016 A 
ATOM     31  C   UNL A   1      35.848  31.861  29.395  1.00  0.00     0.010 A 
ATOM     32  C   UNL A   1      37.118  33.769  28.604  1.00  0.00     0.010 A 
ATOM     33  C   UNL A   1      37.077  32.508  29.226  1.00  0.00    -0.014 A 
BRANCH  33  34
ATOM     34  C   UNL A   1      38.309  31.876  29.752  1.00  0.00     0.031 A 
ATOM     35  C   UNL A   1      39.117  32.574  30.807  1.00  0.00     0.074 A 
ATOM     36  C   UNL A   1      38.677  30.660  29.311  1.00  0.00     0.049 A 
ATOM     37  N   UNL A   1      40.245  32.210  31.359  1.00  0.00    -0.248 NA
ATOM     38  C   UNL A   1      38.582  33.850  31.306  1.00  0.00     0.031 C 
ATOM     39  C   UNL A   1      37.948  29.863  28.325  1.00  0.00     0.029 A 
ATOM     40  N   UNL A   1      39.756  29.880  29.643  1.00  0.00    -0.354 N 
ATOM     41  C   UNL A   1      40.566  33.218  32.259  1.00  0.00     0.074 A 
ATOM     42  C   UNL A   1      39.522  34.217  32.166  1.00  0.00     0.031 C 
ATOM     43  C   UNL A   1      38.596  28.701  28.139  1.00  0.00     0.029 A 
ATOM     44  C   UNL A   1      39.803  28.691  28.961  1.00  0.00     0.049 A 
ATOM     45  H   UNL A   1      40.431  30.149  30.308  1.00  0.00     0.167 HD
ATOM     46  C   UNL A   1      41.632  33.300  33.091  1.00  0.00     0.037 A 
ATOM     47  C   UNL A   1      40.725  27.711  28.984  1.00  0.00     0.037 A 
ATOM     48  C   UNL A   1      42.662  32.301  33.193  1.00  0.00     0.049 A 
ATOM     49  C   UNL A   1      41.927  27.851  29.876  1.00  0.00     0.074 A 
ATOM     50  C   UNL A   1      43.782  32.293  34.007  1.00  0.00     0.029 A 
ATOM     51  N   UNL A   1      42.697  31.127  32.454  1.00  0.00    -0.354 N 
ATOM     52  N   UNL A   1      42.230  28.816  30.708  1.00  0.00    -0.248 NA
ATOM     53  C   UNL A   1      42.919  26.769  29.822  1.00  0.00     0.031 C 
ATOM     54  C   UNL A   1      44.511  31.128  33.739  1.00  0.00     0.029 A 
ATOM     55  C   UNL A   1      43.826  30.394  32.783  1.00  0.00     0.049 A 
ATOM     56  H   UNL A   1      42.019  30.855  31.795  1.00  0.00     0.167 HD
ATOM     57  C   UNL A   1      43.436  28.452  31.290  1.00  0.00     0.074 A 
ATOM     58  C   UNL A   1      43.803  27.169  30.726  1.00  0.00     0.031 C 
ATOM     59  C   UNL A   1      44.175  29.121  32.209  1.00  0.00     0.037 A 
BRANCH  46  60
ATOM     60  C   UNL A   1      41.746  34.533  33.937  1.00  0.00     0.057 A 
ATOM     61  C   UNL A   1      41.183  34.605  35.217  1.00  0.00     0.134 A 
ATOM     62  C   UNL A   1      42.438  35.657  33.469  1.00  0.00     0.134 A 
ATOM     63  F   UNL A   1      40.493  33.568  35.716  1.00  0.00    -0.206 F 
ATOM     64  C   UNL A   1      41.286  35.761  35.994  1.00  0.00     0.040 A 
ATOM     65  C   UNL A   1      42.565  36.810  34.243  1.00  0.00     0.040 A 
ATOM     66  F   UNL A   1      43.002  35.650  32.252  1.00  0.00    -0.206 F 
ATOM     67  C   UNL A   1      41.983  36.866  35.508  1.00  0.00     0.006 A 
ENDBRANCH  46  60
BRANCH  47  68
ATOM     68  C   UNL A   1      40.552  26.514  28.127  1.00  0.00     0.057 A 
ATOM     69  C   UNL A   1      41.283  26.361  26.944  1.00  0.00     0.134 A 
ATOM     70  C   UNL A   1      39.654  25.497  28.471  1.00  0.00     0.134 A 
ATOM     71  F   UNL A   1      42.141  27.315  26.553  1.00  0.00    -0.206 F 
ATOM     72  C   UNL A   1      41.122  25.241  26.128  1.00  0.00     0.040 A 
ATOM     73  C   UNL A   1      39.498  24.362  27.674  1.00  0.00     0.040 A 
ATOM     74  F   UNL A   1      38.924  25.587  29.592  1.00  0.00    -0.206 F 
ATOM     75  C   UNL A   1      40.232  24.234  26.496  1.00  0.00     0.006 A 
ENDBRANCH  47  68
BRANCH  59  76
ATOM     76  C   UNL A   1      45.441  28.464  32.671  1.00  0.00     0.057 A 
ATOM     77  C   UNL A   1      46.667  28.703  32.038  1.00  0.00     0.134 A 
ATOM     78  C   UNL A   1      45.437  27.600  33.774  1.00  0.00     0.134 A 
ATOM     79  F   UNL A   1      46.733  29.509  30.967  1.00  0.00    -0.206 F 
ATOM     80  C   UNL A   1      47.843  28.089  32.474  1.00  0.00     0.040 A 
ATOM     81  C   UNL A   1      46.608  26.998  34.231  1.00  0.00     0.040 A 
ATOM     82  F   UNL A   1      44.294  27.335  34.425  1.00  0.00    -0.206 F 
ATOM     83  C   UNL A   1      47.815  27.238  33.577  1.00  0.00     0.006 A 
ENDBRANCH  59  76
ENDBRANCH  33  34
ENDBRANCH  26  28
ENDBRANCH  25  26
ENDBRANCH  24  25
ENDBRANCH   1  24
TORSDOF 15
ENDMDL
MODEL 3
REMARK VINA RESULT:      -9.3      4.703      9.138
REMARK SMILES COc1cc(OC)cc(-c2ccc([C@@H](C)C(=O)OCCOC(=O)c3ccc(-c4c5nc(c(-c6c(F)cccc6F)c6ccc([nH]6)c(-c6c(F)cccc6F)c6nc(c(-c7c(F)cccc7F)c7ccc4[nH]7)C=C6)C=C5)cc3)cc2F)c1
REMARK SMILES IDX 19 1 18 2 16 3 17 4 14 5 15 6 13 7 10 8 11 9 79 10 12 11
REMARK SMILES IDX 78 12 80 13 9 14 3 15 4 16 81 17 5 18 8 19 2 20 1 21 6 22
REMARK SMILES IDX 7 23 20 24 21 25 22 26 23 27 24 28 25 29 77 30 26 31 76 32
REMARK SMILES IDX 27 33 28 34 29 35 70 36 30 37 75 38 69 39 71 40 31 41 74 42
REMARK SMILES IDX 68 43 67 44 32 46 58 47 41 48 57 49 42 50 45 51 56 52 72 53
REMARK SMILES IDX 43 54 44 55 55 57 73 58 46 59 33 60 34 61 39 62 35 63 36 64
REMARK SMILES IDX 38 65 40 66 37 67 59 68 60 69 65 70 61 71 62 72 64 73 66 74
REMARK SMILES IDX 63 75 47 76 48 77 53 78 49 79 50 80 52 81 54 82 51 83
REMARK H PARENT 71 45 45 56
REMARK Flexibility Score: inf
ROOT
ATOM      1  C   UNL A   1      34.409  34.458  31.358  1.00  0.00     0.274 C 
ENDROOT
BRANCH   1   2
ATOM      2  O   UNL A   1      33.521  34.171  30.261  1.00  0.00    -0.462 OA
BRANCH   2   3
ATOM      3  C   UNL A   1      34.060  34.177  29.013  1.00  0.00     0.313 C 
ATOM      4  O   UNL A   1      33.954  35.105  28.218  1.00  0.00    -0.252 OA
BRANCH   3   5
ATOM      5  C   UNL A   1      34.785  32.885  28.660  1.00  0.00     0.126 C 
ATOM      6  C   UNL A   1      36.096  33.202  27.943  1.00  0.00     0.025 C 
BRANCH   5   7
ATOM      7  C   UNL A   1      33.952  31.843  27.926  1.00  0.00    -0.031 A 
ATOM      8  C   UNL A   1      32.459  29.893  26.487  1.00  0.00     0.018 A 
ATOM      9  C   UNL A   1      31.905  31.141  26.810  1.00  0.00     0.012 A 
ATOM     10  C   UNL A   1      33.758  29.628  26.934  1.00  0.00     0.131 A 
ATOM     11  C   UNL A   1      32.639  32.103  27.513  1.00  0.00     0.005 A 
ATOM     12  C   UNL A   1      34.499  30.583  27.632  1.00  0.00     0.044 A 
ATOM     13  F   UNL A   1      34.346  28.455  26.654  1.00  0.00    -0.206 F 
BRANCH   8  14
ATOM     14  C   UNL A   1      31.724  28.950  25.631  1.00  0.00    -0.008 A 
ATOM     15  C   UNL A   1      30.690  26.791  25.207  1.00  0.00     0.123 A 
ATOM     16  C   UNL A   1      30.375  27.198  23.909  1.00  0.00     0.092 A 
ATOM     17  C   UNL A   1      31.378  27.658  26.061  1.00  0.00     0.055 A 
ATOM     18  C   UNL A   1      30.711  28.473  23.460  1.00  0.00     0.123 A 
ATOM     19  C   UNL A   1      31.373  29.342  24.325  1.00  0.00     0.055 A 
BRANCH  15  20
ATOM     20  O   UNL A   1      30.325  25.509  25.520  1.00  0.00    -0.497 OA
ATOM     21  C   UNL A   1      31.058  24.492  24.846  1.00  0.00     0.278 C 
ENDBRANCH  15  20
BRANCH  18  22
ATOM     22  O   UNL A   1      30.343  28.756  22.173  1.00  0.00    -0.497 OA
ATOM     23  C   UNL A   1      29.535  29.912  21.982  1.00  0.00     0.278 C 
ENDBRANCH  18  22
ENDBRANCH   8  14
ENDBRANCH   5   7
ENDBRANCH   3   5
ENDBRANCH   2   3
ENDBRANCH   1   2
BRANCH   1  24
ATOM     24  C   UNL A   1      34.303  33.388  32.447  1.00  0.00     0.275 C 
BRANCH  24  25
ATOM     25  O   UNL A   1      35.102  32.236  32.120  1.00  0.00    -0.458 OA
BRANCH  25  26
ATOM     26  C   UNL A   1      36.195  32.055  32.895  1.00  0.00     0.338 C 
ATOM     27  O   UNL A   1      36.303  32.262  34.090  1.00  0.00    -0.246 OA
BRANCH  26  28
ATOM     28  C   UNL A   1      37.259  31.430  32.095  1.00  0.00     0.060 A 
ATOM     29  C   UNL A   1      38.338  30.860  32.772  1.00  0.00     0.016 A 
ATOM     30  C   UNL A   1      37.239  31.480  30.701  1.00  0.00     0.016 A 
ATOM     31  C   UNL A   1      39.420  30.353  32.061  1.00  0.00     0.010 A 
ATOM     32  C   UNL A   1      38.321  30.958  29.986  1.00  0.00     0.010 A 
ATOM     33  C   UNL A   1      39.424  30.406  30.662  1.00  0.00    -0.014 A 
BRANCH  33  34
ATOM     34  C   UNL A   1      40.612  29.927  29.920  1.00  0.00     0.031 A 
ATOM     35  C   UNL A   1      41.774  30.849  29.693  1.00  0.00     0.074 A 
ATOM     36  C   UNL A   1      40.663  28.654  29.489  1.00  0.00     0.049 A 
ATOM     37  N   UNL A   1      42.882  30.635  29.030  1.00  0.00    -0.248 NA
ATOM     38  C   UNL A   1      41.677  32.188  30.292  1.00  0.00     0.031 C 
ATOM     39  C   UNL A   1      39.617  27.651  29.692  1.00  0.00     0.029 A 
ATOM     40  N   UNL A   1      41.640  27.986  28.795  1.00  0.00    -0.354 N 
ATOM     41  C   UNL A   1      43.607  31.816  29.117  1.00  0.00     0.074 A 
ATOM     42  C   UNL A   1      42.807  32.749  29.883  1.00  0.00     0.031 C 
ATOM     43  C   UNL A   1      40.014  26.491  29.142  1.00  0.00     0.029 A 
ATOM     44  C   UNL A   1      41.319  26.681  28.517  1.00  0.00     0.049 A 
ATOM     45  H   UNL A   1      42.489  28.403  28.523  1.00  0.00     0.167 HD
ATOM     46  C   UNL A   1      44.831  32.095  28.610  1.00  0.00     0.037 A 
ATOM     47  C   UNL A   1      41.995  25.750  27.820  1.00  0.00     0.037 A 
ATOM     48  C   UNL A   1      45.632  31.163  27.861  1.00  0.00     0.049 A 
ATOM     49  C   UNL A   1      43.328  26.101  27.220  1.00  0.00     0.074 A 
ATOM     50  C   UNL A   1      46.887  31.351  27.305  1.00  0.00     0.029 A 
ATOM     51  N   UNL A   1      45.255  29.861  27.563  1.00  0.00    -0.354 N 
ATOM     52  N   UNL A   1      43.995  27.226  27.292  1.00  0.00    -0.248 NA
ATOM     53  C   UNL A   1      43.995  25.054  26.433  1.00  0.00     0.031 C 
ATOM     54  C   UNL A   1      47.255  30.173  26.645  1.00  0.00     0.029 A 
ATOM     55  C   UNL A   1      46.246  29.240  26.820  1.00  0.00     0.049 A 
ATOM     56  H   UNL A   1      44.409  29.441  27.840  1.00  0.00     0.167 HD
ATOM     57  C   UNL A   1      45.167  27.020  26.577  1.00  0.00     0.074 A 
ATOM     58  C   UNL A   1      45.126  25.656  26.090  1.00  0.00     0.031 C 
ATOM     59  C   UNL A   1      46.186  27.883  26.343  1.00  0.00     0.037 A 
BRANCH  46  60
ATOM     60  C   UNL A   1      45.363  33.480  28.828  1.00  0.00     0.057 A 
ATOM     61  C   UNL A   1      46.215  33.784  29.896  1.00  0.00     0.134 A 
ATOM     62  C   UNL A   1      45.028  34.518  27.950  1.00  0.00     0.134 A 
ATOM     63  F   UNL A   1      46.560  32.837  30.782  1.00  0.00    -0.206 F 
ATOM     64  C   UNL A   1      46.697  35.079  30.097  1.00  0.00     0.040 A 
ATOM     65  C   UNL A   1      45.519  35.811  28.128  1.00  0.00     0.040 A 
ATOM     66  F   UNL A   1      44.217  34.291  26.905  1.00  0.00    -0.206 F 
ATOM     67  C   UNL A   1      46.352  36.096  29.208  1.00  0.00     0.006 A 
ENDBRANCH  46  60
BRANCH  47  68
ATOM     68  C   UNL A   1      41.417  24.396  27.643  1.00  0.00     0.057 A 
ATOM     69  C   UNL A   1      41.868  23.313  28.405  1.00  0.00     0.134 A 
ATOM     70  C   UNL A   1      40.402  24.155  26.710  1.00  0.00     0.134 A 
ATOM     71  F   UNL A   1      42.854  23.481  29.298  1.00  0.00    -0.206 F 
ATOM     72  C   UNL A   1      41.334  22.034  28.241  1.00  0.00     0.040 A 
ATOM     73  C   UNL A   1      39.845  22.885  26.550  1.00  0.00     0.040 A 
ATOM     74  F   UNL A   1      39.929  25.153  25.949  1.00  0.00    -0.206 F 
ATOM     75  C   UNL A   1      40.315  21.820  27.315  1.00  0.00     0.006 A 
ENDBRANCH  47  68
BRANCH  59  76
ATOM     76  C   UNL A   1      47.343  27.366  25.542  1.00  0.00     0.057 A 
ATOM     77  C   UNL A   1      47.423  27.558  24.158  1.00  0.00     0.134 A 
ATOM     78  C   UNL A   1      48.399  26.690  26.167  1.00  0.00     0.134 A 
ATOM     79  F   UNL A   1      46.435  28.185  23.500  1.00  0.00    -0.206 F 
ATOM     80  C   UNL A   1      48.504  27.076  23.417  1.00  0.00     0.040 A 
ATOM     81  C   UNL A   1      49.494  26.222  25.441  1.00  0.00     0.040 A 
ATOM     82  F   UNL A   1      48.383  26.480  27.492  1.00  0.00    -0.206 F 
ATOM     83  C   UNL A   1      49.545  26.410  24.061  1.00  0.00     0.006 A 
ENDBRANCH  59  76
ENDBRANCH  33  34
ENDBRANCH  26  28
ENDBRANCH  25  26
ENDBRANCH  24  25
ENDBRANCH   1  24
TORSDOF 15
ENDMDL
