MODEL 1
REMARK VINA RESULT:      -9.6      0.000      0.000
REMARK SMILES Cc1noc(C)c1COc1ccc(C(=O)OCCOC(=O)c2ccc(-c3c4nc(c(-c5c(F)cccc5F)c5ccc([nH]5)c(-c5c(F)cccc5F)c5nc(c(-c6c(F)cccc6F)c6ccc3[nH]6)C=C5)C=C4)cc2)cc1
REMARK SMILES IDX 17 1 16 2 14 3 15 4 13 5 10 6 11 7 77 8 12 9 76 10 9 11 8 12
REMARK SMILES IDX 7 13 1 14 2 15 3 16 4 17 5 18 6 19 18 20 19 21 20 22 21 23
REMARK SMILES IDX 22 24 23 25 75 26 24 27 74 28 25 29 26 30 27 31 68 32 28 33
REMARK SMILES IDX 73 34 67 35 69 36 29 37 72 38 66 39 65 40 30 42 56 43 39 44
REMARK SMILES IDX 55 45 40 46 43 47 54 48 70 49 41 50 42 51 53 53 71 54 44 55
REMARK SMILES IDX 31 56 32 57 37 58 33 59 34 60 36 61 38 62 35 63 57 64 58 65
REMARK SMILES IDX 63 66 59 67 60 68 62 69 64 70 61 71 45 72 46 73 51 74 47 75
REMARK SMILES IDX 48 76 50 77 52 78 49 79
REMARK H PARENT 69 41 43 52
REMARK Flexibility Score: inf
ROOT
ATOM      1  C   UNL A   1      32.853  36.073  31.372  1.00  0.00     0.275 C 
ENDROOT
BRANCH   1   2
ATOM      2  O   UNL A   1      33.524  35.082  32.171  1.00  0.00    -0.458 OA
BRANCH   2   3
ATOM      3  C   UNL A   1      34.556  35.524  32.929  1.00  0.00     0.338 C 
ATOM      4  O   UNL A   1      34.759  36.674  33.283  1.00  0.00    -0.246 OA
BRANCH   3   5
ATOM      5  C   UNL A   1      35.400  34.386  33.376  1.00  0.00     0.060 A 
ATOM      6  C   UNL A   1      36.996  32.306  34.319  1.00  0.00     0.119 A 
ATOM      7  C   UNL A   1      37.115  33.568  34.892  1.00  0.00     0.047 A 
ATOM      8  C   UNL A   1      36.064  32.063  33.310  1.00  0.00     0.047 A 
ATOM      9  C   UNL A   1      36.332  34.613  34.403  1.00  0.00     0.019 A 
ATOM     10  C   UNL A   1      35.270  33.105  32.830  1.00  0.00     0.019 A 
BRANCH   6  11
ATOM     11  O   UNL A   1      37.779  31.289  34.791  1.00  0.00    -0.489 OA
BRANCH  11  12
ATOM     12  C   UNL A   1      39.070  31.297  34.151  1.00  0.00     0.271 C 
BRANCH  12  13
ATOM     13  C   UNL A   1      39.527  29.937  33.761  1.00  0.00     0.055 A 
ATOM     14  C   UNL A   1      41.684  29.689  35.212  1.00  0.00     0.071 C 
ATOM     15  C   UNL A   1      40.675  29.238  34.224  1.00  0.00     0.087 A 
ATOM     16  N   UNL A   1      40.757  28.018  33.681  1.00  0.00    -0.085 NA
ATOM     17  O   UNL A   1      39.647  27.893  32.868  1.00  0.00    -0.361 OA
ATOM     18  C   UNL A   1      38.907  29.031  32.927  1.00  0.00     0.140 A 
ATOM     19  C   UNL A   1      37.652  29.038  32.153  1.00  0.00     0.091 C 
ENDBRANCH  12  13
ENDBRANCH  11  12
ENDBRANCH   6  11
ENDBRANCH   3   5
ENDBRANCH   2   3
ENDBRANCH   1   2
BRANCH   1  20
ATOM     20  C   UNL A   1      33.107  35.817  29.888  1.00  0.00     0.275 C 
BRANCH  20  21
ATOM     21  O   UNL A   1      32.461  34.593  29.490  1.00  0.00    -0.458 OA
BRANCH  21  22
ATOM     22  C   UNL A   1      32.908  34.031  28.345  1.00  0.00     0.338 C 
ATOM     23  O   UNL A   1      32.355  33.994  27.261  1.00  0.00    -0.246 OA
BRANCH  22  24
ATOM     24  C   UNL A   1      34.238  33.451  28.586  1.00  0.00     0.060 A 
ATOM     25  C   UNL A   1      34.357  32.363  29.449  1.00  0.00     0.016 A 
ATOM     26  C   UNL A   1      35.375  34.053  28.050  1.00  0.00     0.016 A 
ATOM     27  C   UNL A   1      35.617  31.897  29.821  1.00  0.00     0.010 A 
ATOM     28  C   UNL A   1      36.638  33.546  28.375  1.00  0.00     0.010 A 
ATOM     29  C   UNL A   1      36.774  32.480  29.286  1.00  0.00    -0.014 A 
BRANCH  29  30
ATOM     30  C   UNL A   1      38.121  32.024  29.727  1.00  0.00     0.031 A 
ATOM     31  C   UNL A   1      38.681  30.725  29.211  1.00  0.00     0.074 A 
ATOM     32  C   UNL A   1      38.861  32.771  30.570  1.00  0.00     0.049 A 
ATOM     33  N   UNL A   1      39.746  30.068  29.598  1.00  0.00    -0.248 NA
ATOM     34  C   UNL A   1      37.936  30.074  28.121  1.00  0.00     0.031 C 
ATOM     35  C   UNL A   1      38.473  34.075  31.111  1.00  0.00     0.029 A 
ATOM     36  N   UNL A   1      40.100  32.540  31.116  1.00  0.00    -0.354 N 
ATOM     37  C   UNL A   1      39.765  28.900  28.844  1.00  0.00     0.074 A 
ATOM     38  C   UNL A   1      38.610  28.941  27.972  1.00  0.00     0.031 C 
ATOM     39  C   UNL A   1      39.466  34.542  31.884  1.00  0.00     0.029 A 
ATOM     40  C   UNL A   1      40.526  33.540  31.955  1.00  0.00     0.049 A 
ATOM     41  H   UNL A   1      40.631  31.734  30.924  1.00  0.00     0.167 HD
ATOM     42  C   UNL A   1      40.662  27.886  28.879  1.00  0.00     0.037 A 
ATOM     43  C   UNL A   1      41.627  33.629  32.726  1.00  0.00     0.037 A 
ATOM     44  C   UNL A   1      41.844  27.872  29.699  1.00  0.00     0.049 A 
ATOM     45  C   UNL A   1      42.603  32.486  32.757  1.00  0.00     0.074 A 
ATOM     46  C   UNL A   1      42.817  26.890  29.795  1.00  0.00     0.029 A 
ATOM     47  N   UNL A   1      42.226  28.898  30.549  1.00  0.00    -0.354 N 
ATOM     48  N   UNL A   1      42.574  31.357  32.092  1.00  0.00    -0.248 NA
ATOM     49  C   UNL A   1      43.753  32.621  33.664  1.00  0.00     0.031 C 
ATOM     50  C   UNL A   1      43.777  27.314  30.721  1.00  0.00     0.029 A 
ATOM     51  C   UNL A   1      43.418  28.572  31.176  1.00  0.00     0.049 A 
ATOM     52  H   UNL A   1      41.726  29.734  30.687  1.00  0.00     0.167 HD
ATOM     53  C   UNL A   1      43.700  30.651  32.494  1.00  0.00     0.074 A 
ATOM     54  C   UNL A   1      44.403  31.487  33.444  1.00  0.00     0.031 C 
ATOM     55  C   UNL A   1      44.109  29.417  32.114  1.00  0.00     0.037 A 
BRANCH  42  56
ATOM     56  C   UNL A   1      40.381  26.686  28.024  1.00  0.00     0.057 A 
ATOM     57  C   UNL A   1      40.988  26.501  26.776  1.00  0.00     0.134 A 
ATOM     58  C   UNL A   1      39.513  25.685  28.478  1.00  0.00     0.134 A 
ATOM     59  F   UNL A   1      41.817  27.431  26.279  1.00  0.00    -0.206 F 
ATOM     60  C   UNL A   1      40.726  25.370  26.000  1.00  0.00     0.040 A 
ATOM     61  C   UNL A   1      39.261  24.538  27.722  1.00  0.00     0.040 A 
ATOM     62  F   UNL A   1      38.905  25.799  29.668  1.00  0.00    -0.206 F 
ATOM     63  C   UNL A   1      39.865  24.382  26.476  1.00  0.00     0.006 A 
ENDBRANCH  42  56
BRANCH  43  64
ATOM     64  C   UNL A   1      41.848  34.833  33.565  1.00  0.00     0.057 A 
ATOM     65  C   UNL A   1      42.674  35.874  33.132  1.00  0.00     0.134 A 
ATOM     66  C   UNL A   1      41.234  34.973  34.816  1.00  0.00     0.134 A 
ATOM     67  F   UNL A   1      43.310  35.786  31.953  1.00  0.00    -0.206 F 
ATOM     68  C   UNL A   1      42.889  37.011  33.913  1.00  0.00     0.040 A 
ATOM     69  C   UNL A   1      41.419  36.113  35.597  1.00  0.00     0.040 A 
ATOM     70  F   UNL A   1      40.431  34.008  35.287  1.00  0.00    -0.206 F 
ATOM     71  C   UNL A   1      42.253  37.135  35.147  1.00  0.00     0.006 A 
ENDBRANCH  43  64
BRANCH  55  72
ATOM     72  C   UNL A   1      45.386  28.909  32.709  1.00  0.00     0.057 A 
ATOM     73  C   UNL A   1      46.632  29.225  32.153  1.00  0.00     0.134 A 
ATOM     74  C   UNL A   1      45.371  28.124  33.868  1.00  0.00     0.134 A 
ATOM     75  F   UNL A   1      46.711  29.962  31.035  1.00  0.00    -0.206 F 
ATOM     76  C   UNL A   1      47.820  28.762  32.722  1.00  0.00     0.040 A 
ATOM     77  C   UNL A   1      46.553  27.671  34.456  1.00  0.00     0.040 A 
ATOM     78  F   UNL A   1      44.210  27.792  34.451  1.00  0.00    -0.206 F 
ATOM     79  C   UNL A   1      47.782  27.986  33.880  1.00  0.00     0.006 A 
ENDBRANCH  55  72
ENDBRANCH  29  30
ENDBRANCH  22  24
ENDBRANCH  21  22
ENDBRANCH  20  21
ENDBRANCH   1  20
TORSDOF 14
ENDMDL
MODEL 2
REMARK VINA RESULT:      -9.2      4.225     10.302
REMARK SMILES Cc1noc(C)c1COc1ccc(C(=O)OCCOC(=O)c2ccc(-c3c4nc(c(-c5c(F)cccc5F)c5ccc([nH]5)c(-c5c(F)cccc5F)c5nc(c(-c6c(F)cccc6F)c6ccc3[nH]6)C=C5)C=C4)cc2)cc1
REMARK SMILES IDX 17 1 16 2 14 3 15 4 13 5 10 6 11 7 77 8 12 9 76 10 9 11 8 12
REMARK SMILES IDX 7 13 1 14 2 15 3 16 4 17 5 18 6 19 18 20 19 21 20 22 21 23
REMARK SMILES IDX 22 24 23 25 75 26 24 27 74 28 25 29 26 30 27 31 68 32 28 33
REMARK SMILES IDX 73 34 67 35 69 36 29 37 72 38 66 39 65 40 30 42 56 43 39 44
REMARK SMILES IDX 55 45 40 46 43 47 54 48 70 49 41 50 42 51 53 53 71 54 44 55
REMARK SMILES IDX 31 56 32 57 37 58 33 59 34 60 36 61 38 62 35 63 57 64 58 65
REMARK SMILES IDX 63 66 59 67 60 68 62 69 64 70 61 71 45 72 46 73 51 74 47 75
REMARK SMILES IDX 48 76 50 77 52 78 49 79
REMARK H PARENT 69 41 43 52
REMARK Flexibility Score: inf
ROOT
ATOM      1  C   UNL A   1      42.349  20.591  25.923  1.00  0.00     0.275 C 
ENDROOT
BRANCH   1   2
ATOM      2  O   UNL A   1      41.051  21.109  25.578  1.00  0.00    -0.458 OA
BRANCH   2   3
ATOM      3  C   UNL A   1      40.207  21.343  26.611  1.00  0.00     0.338 C 
ATOM      4  O   UNL A   1      40.455  21.210  27.799  1.00  0.00    -0.246 OA
BRANCH   3   5
ATOM      5  C   UNL A   1      38.918  21.893  26.118  1.00  0.00     0.060 A 
ATOM      6  C   UNL A   1      36.550  23.032  25.192  1.00  0.00     0.119 A 
ATOM      7  C   UNL A   1      37.471  23.829  25.863  1.00  0.00     0.047 A 
ATOM      8  C   UNL A   1      36.815  21.685  24.944  1.00  0.00     0.047 A 
ATOM      9  C   UNL A   1      38.645  23.252  26.347  1.00  0.00     0.019 A 
ATOM     10  C   UNL A   1      37.996  21.111  25.415  1.00  0.00     0.019 A 
BRANCH   6  11
ATOM     11  O   UNL A   1      35.393  23.600  24.736  1.00  0.00    -0.489 OA
BRANCH  11  12
ATOM     12  C   UNL A   1      34.922  24.609  25.649  1.00  0.00     0.271 C 
BRANCH  12  13
ATOM     13  C   UNL A   1      33.615  24.261  26.268  1.00  0.00     0.055 A 
ATOM     14  C   UNL A   1      32.074  26.125  25.286  1.00  0.00     0.071 C 
ATOM     15  C   UNL A   1      32.372  24.930  26.111  1.00  0.00     0.087 A 
ATOM     16  N   UNL A   1      31.397  24.317  26.793  1.00  0.00    -0.085 NA
ATOM     17  O   UNL A   1      31.989  23.222  27.391  1.00  0.00    -0.361 OA
ATOM     18  C   UNL A   1      33.307  23.180  27.067  1.00  0.00     0.140 A 
ATOM     19  C   UNL A   1      34.074  22.033  27.585  1.00  0.00     0.091 C 
ENDBRANCH  12  13
ENDBRANCH  11  12
ENDBRANCH   6  11
ENDBRANCH   3   5
ENDBRANCH   2   3
ENDBRANCH   1   2
BRANCH   1  20
ATOM     20  C   UNL A   1      43.440  21.574  25.505  1.00  0.00     0.275 C 
BRANCH  20  21
ATOM     21  O   UNL A   1      42.837  22.778  24.996  1.00  0.00    -0.458 OA
BRANCH  21  22
ATOM     22  C   UNL A   1      43.604  23.891  25.040  1.00  0.00     0.338 C 
ATOM     23  O   UNL A   1      44.611  24.133  24.400  1.00  0.00    -0.246 OA
BRANCH  22  24
ATOM     24  C   UNL A   1      43.020  24.836  26.003  1.00  0.00     0.060 A 
ATOM     25  C   UNL A   1      43.442  26.164  25.991  1.00  0.00     0.016 A 
ATOM     26  C   UNL A   1      42.143  24.384  26.987  1.00  0.00     0.016 A 
ATOM     27  C   UNL A   1      43.029  27.041  26.992  1.00  0.00     0.010 A 
ATOM     28  C   UNL A   1      41.679  25.280  27.957  1.00  0.00     0.010 A 
ATOM     29  C   UNL A   1      42.139  26.611  27.987  1.00  0.00    -0.014 A 
BRANCH  29  30
ATOM     30  C   UNL A   1      41.742  27.528  29.091  1.00  0.00     0.031 A 
ATOM     31  C   UNL A   1      42.546  27.565  30.363  1.00  0.00     0.074 A 
ATOM     32  C   UNL A   1      40.678  28.345  28.960  1.00  0.00     0.049 A 
ATOM     33  N   UNL A   1      42.275  28.155  31.500  1.00  0.00    -0.248 NA
ATOM     34  C   UNL A   1      43.821  26.829  30.358  1.00  0.00     0.031 C 
ATOM     35  C   UNL A   1      39.836  28.457  27.768  1.00  0.00     0.029 A 
ATOM     36  N   UNL A   1      40.127  29.242  29.842  1.00  0.00    -0.354 N 
ATOM     37  C   UNL A   1      43.311  27.814  32.361  1.00  0.00     0.074 A 
ATOM     38  C   UNL A   1      44.220  26.970  31.615  1.00  0.00     0.031 C 
ATOM     39  C   UNL A   1      38.897  29.392  27.981  1.00  0.00     0.029 A 
ATOM     40  C   UNL A   1      39.022  29.891  29.348  1.00  0.00     0.049 A 
ATOM     41  H   UNL A   1      40.490  29.405  30.742  1.00  0.00     0.167 HD
ATOM     42  C   UNL A   1      43.486  28.169  33.656  1.00  0.00     0.037 A 
ATOM     43  C   UNL A   1      38.178  30.760  29.937  1.00  0.00     0.037 A 
ATOM     44  C   UNL A   1      42.617  29.058  34.382  1.00  0.00     0.049 A 
ATOM     45  C   UNL A   1      38.385  31.131  31.379  1.00  0.00     0.074 A 
ATOM     46  C   UNL A   1      42.718  29.483  35.696  1.00  0.00     0.029 A 
ATOM     47  N   UNL A   1      41.497  29.677  33.847  1.00  0.00    -0.354 N 
ATOM     48  N   UNL A   1      39.329  30.747  32.202  1.00  0.00    -0.248 NA
ATOM     49  C   UNL A   1      37.396  32.039  31.978  1.00  0.00     0.031 C 
ATOM     50  C   UNL A   1      41.646  30.342  35.963  1.00  0.00     0.029 A 
ATOM     51  C   UNL A   1      40.897  30.477  34.806  1.00  0.00     0.049 A 
ATOM     52  H   UNL A   1      41.176  29.565  32.924  1.00  0.00     0.167 HD
ATOM     53  C   UNL A   1      39.052  31.368  33.413  1.00  0.00     0.074 A 
ATOM     54  C   UNL A   1      37.864  32.171  33.210  1.00  0.00     0.031 C 
ATOM     55  C   UNL A   1      39.719  31.275  34.588  1.00  0.00     0.037 A 
BRANCH  42  56
ATOM     56  C   UNL A   1      44.649  27.568  34.387  1.00  0.00     0.057 A 
ATOM     57  C   UNL A   1      45.881  28.224  34.496  1.00  0.00     0.134 A 
ATOM     58  C   UNL A   1      44.518  26.324  35.019  1.00  0.00     0.134 A 
ATOM     59  F   UNL A   1      46.074  29.410  33.901  1.00  0.00    -0.206 F 
ATOM     60  C   UNL A   1      46.948  27.655  35.193  1.00  0.00     0.040 A 
ATOM     61  C   UNL A   1      45.570  25.755  35.738  1.00  0.00     0.040 A 
ATOM     62  F   UNL A   1      43.361  25.647  34.956  1.00  0.00    -0.206 F 
ATOM     63  C   UNL A   1      46.793  26.420  35.821  1.00  0.00     0.006 A 
ENDBRANCH  42  56
BRANCH  43  64
ATOM     64  C   UNL A   1      37.034  31.313  29.172  1.00  0.00     0.057 A 
ATOM     65  C   UNL A   1      37.060  32.620  28.675  1.00  0.00     0.134 A 
ATOM     66  C   UNL A   1      35.889  30.547  28.916  1.00  0.00     0.134 A 
ATOM     67  F   UNL A   1      38.118  33.411  28.910  1.00  0.00    -0.206 F 
ATOM     68  C   UNL A   1      35.988  33.150  27.955  1.00  0.00     0.040 A 
ATOM     69  C   UNL A   1      34.821  31.055  28.177  1.00  0.00     0.040 A 
ATOM     70  F   UNL A   1      35.803  29.288  29.368  1.00  0.00    -0.206 F 
ATOM     71  C   UNL A   1      34.867  32.363  27.697  1.00  0.00     0.006 A 
ENDBRANCH  43  64
BRANCH  55  72
ATOM     72  C   UNL A   1      39.193  32.079  35.737  1.00  0.00     0.057 A 
ATOM     73  C   UNL A   1      39.565  33.415  35.930  1.00  0.00     0.134 A 
ATOM     74  C   UNL A   1      38.279  31.521  36.639  1.00  0.00     0.134 A 
ATOM     75  F   UNL A   1      40.447  34.001  35.106  1.00  0.00    -0.206 F 
ATOM     76  C   UNL A   1      39.058  34.164  36.993  1.00  0.00     0.040 A 
ATOM     77  C   UNL A   1      37.751  32.266  37.695  1.00  0.00     0.040 A 
ATOM     78  F   UNL A   1      37.880  30.248  36.504  1.00  0.00    -0.206 F 
ATOM     79  C   UNL A   1      38.145  33.590  37.877  1.00  0.00     0.006 A 
ENDBRANCH  55  72
ENDBRANCH  29  30
ENDBRANCH  22  24
ENDBRANCH  21  22
ENDBRANCH  20  21
ENDBRANCH   1  20
TORSDOF 14
ENDMDL
MODEL 3
REMARK VINA RESULT:      -9.1      4.205     10.407
REMARK SMILES Cc1noc(C)c1COc1ccc(C(=O)OCCOC(=O)c2ccc(-c3c4nc(c(-c5c(F)cccc5F)c5ccc([nH]5)c(-c5c(F)cccc5F)c5nc(c(-c6c(F)cccc6F)c6ccc3[nH]6)C=C5)C=C4)cc2)cc1
REMARK SMILES IDX 17 1 16 2 14 3 15 4 13 5 10 6 11 7 77 8 12 9 76 10 9 11 8 12
REMARK SMILES IDX 7 13 1 14 2 15 3 16 4 17 5 18 6 19 18 20 19 21 20 22 21 23
REMARK SMILES IDX 22 24 23 25 75 26 24 27 74 28 25 29 26 30 27 31 68 32 28 33
REMARK SMILES IDX 73 34 67 35 69 36 29 37 72 38 66 39 65 40 30 42 56 43 39 44
REMARK SMILES IDX 55 45 40 46 43 47 54 48 70 49 41 50 42 51 53 53 71 54 44 55
REMARK SMILES IDX 31 56 32 57 37 58 33 59 34 60 36 61 38 62 35 63 57 64 58 65
REMARK SMILES IDX 63 66 59 67 60 68 62 69 64 70 61 71 45 72 46 73 51 74 47 75
REMARK SMILES IDX 48 76 50 77 52 78 49 79
REMARK H PARENT 69 41 43 52
REMARK Flexibility Score: inf
ROOT
ATOM      1  C   UNL A   1      42.064  20.579  26.516  1.00  0.00     0.275 C 
ENDROOT
BRANCH   1   2
ATOM      2  O   UNL A   1      40.755  21.162  26.378  1.00  0.00    -0.458 OA
BRANCH   2   3
ATOM      3  C   UNL A   1      39.789  20.350  25.886  1.00  0.00     0.338 C 
ATOM      4  O   UNL A   1      39.844  19.135  25.777  1.00  0.00    -0.246 OA
BRANCH   3   5
ATOM      5  C   UNL A   1      38.565  21.129  25.568  1.00  0.00     0.060 A 
ATOM      6  C   UNL A   1      36.334  22.689  24.976  1.00  0.00     0.119 A 
ATOM      7  C   UNL A   1      37.419  23.272  25.621  1.00  0.00     0.047 A 
ATOM      8  C   UNL A   1      36.366  21.350  24.588  1.00  0.00     0.047 A 
ATOM      9  C   UNL A   1      38.525  22.484  25.939  1.00  0.00     0.019 A 
ATOM     10  C   UNL A   1      37.478  20.564  24.892  1.00  0.00     0.019 A 
BRANCH   6  11
ATOM     11  O   UNL A   1      35.245  23.463  24.683  1.00  0.00    -0.489 OA
BRANCH  11  12
ATOM     12  C   UNL A   1      34.935  24.347  25.778  1.00  0.00     0.271 C 
BRANCH  12  13
ATOM     13  C   UNL A   1      33.573  24.123  26.330  1.00  0.00     0.055 A 
ATOM     14  C   UNL A   1      33.876  21.811  27.506  1.00  0.00     0.071 C 
ATOM     15  C   UNL A   1      33.112  23.008  27.082  1.00  0.00     0.087 A 
ATOM     16  N   UNL A   1      31.832  23.158  27.443  1.00  0.00    -0.085 NA
ATOM     17  O   UNL A   1      31.443  24.388  26.949  1.00  0.00    -0.361 OA
ATOM     18  C   UNL A   1      32.485  24.968  26.298  1.00  0.00     0.140 A 
ATOM     19  C   UNL A   1      32.248  26.319  25.755  1.00  0.00     0.091 C 
ENDBRANCH  12  13
ENDBRANCH  11  12
ENDBRANCH   6  11
ENDBRANCH   3   5
ENDBRANCH   2   3
ENDBRANCH   1   2
BRANCH   1  20
ATOM     20  C   UNL A   1      43.090  21.392  25.730  1.00  0.00     0.275 C 
BRANCH  20  21
ATOM     21  O   UNL A   1      42.469  22.581  25.207  1.00  0.00    -0.458 OA
BRANCH  21  22
ATOM     22  C   UNL A   1      43.245  23.687  25.164  1.00  0.00     0.338 C 
ATOM     23  O   UNL A   1      44.222  23.892  24.467  1.00  0.00    -0.246 OA
BRANCH  22  24
ATOM     24  C   UNL A   1      42.716  24.678  26.112  1.00  0.00     0.060 A 
ATOM     25  C   UNL A   1      43.271  25.957  26.136  1.00  0.00     0.016 A 
ATOM     26  C   UNL A   1      41.754  24.310  27.050  1.00  0.00     0.016 A 
ATOM     27  C   UNL A   1      42.902  26.863  27.129  1.00  0.00     0.010 A 
ATOM     28  C   UNL A   1      41.339  25.241  28.010  1.00  0.00     0.010 A 
ATOM     29  C   UNL A   1      41.929  26.518  28.077  1.00  0.00    -0.014 A 
BRANCH  29  30
ATOM     30  C   UNL A   1      41.576  27.461  29.173  1.00  0.00     0.031 A 
ATOM     31  C   UNL A   1      42.389  27.479  30.441  1.00  0.00     0.074 A 
ATOM     32  C   UNL A   1      40.546  28.320  29.040  1.00  0.00     0.049 A 
ATOM     33  N   UNL A   1      42.148  28.091  31.573  1.00  0.00    -0.248 NA
ATOM     34  C   UNL A   1      43.633  26.692  30.436  1.00  0.00     0.031 C 
ATOM     35  C   UNL A   1      39.702  28.455  27.852  1.00  0.00     0.029 A 
ATOM     36  N   UNL A   1      40.037  29.248  29.915  1.00  0.00    -0.354 N 
ATOM     37  C   UNL A   1      43.175  27.717  32.432  1.00  0.00     0.074 A 
ATOM     38  C   UNL A   1      44.044  26.829  31.689  1.00  0.00     0.031 C 
ATOM     39  C   UNL A   1      38.803  29.430  28.060  1.00  0.00     0.029 A 
ATOM     40  C   UNL A   1      38.956  29.936  29.421  1.00  0.00     0.049 A 
ATOM     41  H   UNL A   1      40.412  29.405  30.812  1.00  0.00     0.167 HD
ATOM     42  C   UNL A   1      43.372  28.078  33.723  1.00  0.00     0.037 A 
ATOM     43  C   UNL A   1      38.153  30.845  30.006  1.00  0.00     0.037 A 
ATOM     44  C   UNL A   1      42.544  29.009  34.443  1.00  0.00     0.049 A 
ATOM     45  C   UNL A   1      38.383  31.222  31.442  1.00  0.00     0.074 A 
ATOM     46  C   UNL A   1      42.671  29.442  35.753  1.00  0.00     0.029 A 
ATOM     47  N   UNL A   1      41.448  29.667  33.909  1.00  0.00    -0.354 N 
ATOM     48  N   UNL A   1      39.316  30.808  32.264  1.00  0.00    -0.248 NA
ATOM     49  C   UNL A   1      37.436  32.176  32.037  1.00  0.00     0.031 C 
ATOM     50  C   UNL A   1      41.636  30.347  36.017  1.00  0.00     0.029 A 
ATOM     51  C   UNL A   1      40.887  30.501  34.862  1.00  0.00     0.049 A 
ATOM     52  H   UNL A   1      41.117  29.559  32.988  1.00  0.00     0.167 HD
ATOM     53  C   UNL A   1      39.072  31.453  33.470  1.00  0.00     0.074 A 
ATOM     54  C   UNL A   1      37.916  32.302  33.266  1.00  0.00     0.031 C 
ATOM     55  C   UNL A   1      39.741  31.344  34.643  1.00  0.00     0.037 A 
BRANCH  42  56
ATOM     56  C   UNL A   1      44.513  27.436  34.453  1.00  0.00     0.057 A 
ATOM     57  C   UNL A   1      45.788  28.014  34.500  1.00  0.00     0.134 A 
ATOM     58  C   UNL A   1      44.320  26.235  35.148  1.00  0.00     0.134 A 
ATOM     59  F   UNL A   1      46.041  29.156  33.843  1.00  0.00    -0.206 F 
ATOM     60  C   UNL A   1      46.835  27.410  35.197  1.00  0.00     0.040 A 
ATOM     61  C   UNL A   1      45.354  25.633  35.868  1.00  0.00     0.040 A 
ATOM     62  F   UNL A   1      43.121  25.634  35.147  1.00  0.00    -0.206 F 
ATOM     63  C   UNL A   1      46.618  26.219  35.889  1.00  0.00     0.006 A 
ENDBRANCH  42  56
BRANCH  43  64
ATOM     64  C   UNL A   1      37.027  31.437  29.241  1.00  0.00     0.057 A 
ATOM     65  C   UNL A   1      37.120  32.722  28.695  1.00  0.00     0.134 A 
ATOM     66  C   UNL A   1      35.835  30.732  29.034  1.00  0.00     0.134 A 
ATOM     67  F   UNL A   1      38.227  33.457  28.882  1.00  0.00    -0.206 F 
ATOM     68  C   UNL A   1      36.066  33.288  27.975  1.00  0.00     0.040 A 
ATOM     69  C   UNL A   1      34.784  31.275  28.296  1.00  0.00     0.040 A 
ATOM     70  F   UNL A   1      35.685  29.496  29.533  1.00  0.00    -0.206 F 
ATOM     71  C   UNL A   1      34.896  32.560  27.767  1.00  0.00     0.006 A 
ENDBRANCH  43  64
BRANCH  55  72
ATOM     72  C   UNL A   1      39.255  32.180  35.786  1.00  0.00     0.057 A 
ATOM     73  C   UNL A   1      38.354  31.677  36.733  1.00  0.00     0.134 A 
ATOM     74  C   UNL A   1      39.717  33.490  35.959  1.00  0.00     0.134 A 
ATOM     75  F   UNL A   1      37.865  30.434  36.613  1.00  0.00    -0.206 F 
ATOM     76  C   UNL A   1      37.917  32.457  37.805  1.00  0.00     0.040 A 
ATOM     77  C   UNL A   1      39.302  34.272  37.037  1.00  0.00     0.040 A 
ATOM     78  F   UNL A   1      40.585  34.027  35.089  1.00  0.00    -0.206 F 
ATOM     79  C   UNL A   1      38.395  33.758  37.962  1.00  0.00     0.006 A 
ENDBRANCH  55  72
ENDBRANCH  29  30
ENDBRANCH  22  24
ENDBRANCH  21  22
ENDBRANCH  20  21
ENDBRANCH   1  20
TORSDOF 14
ENDMDL
