MODEL 1
REMARK VINA RESULT:     -14.1      0.000      0.000
REMARK SMILES O=C(OCCOC(=O)c1ccc(-c2c3nc(c(-c4c(F)cccc4F)c4ccc([nH]4)c(-c4c(F)cccc4F)c4nc(c(-c5c(F)cccc5F)c5ccc2[nH]5)C=C4)C=C3)cc1)C1=Cc2cc(Cl)cc(Cl)c2O[C@@H]1C(F)(F)F
REMARK SMILES IDX 5 1 4 2 3 3 2 4 1 5 63 6 64 7 74 8 65 9 73 10 66 11 72 12
REMARK SMILES IDX 67 13 70 14 68 15 69 16 71 17 75 18 76 19 77 20 78 21 6 22
REMARK SMILES IDX 7 23 8 24 9 25 10 26 62 27 11 28 61 29 12 30 13 31 14 32
REMARK SMILES IDX 55 33 15 34 60 35 54 36 56 37 16 38 59 39 53 40 52 41 17 43
REMARK SMILES IDX 43 44 26 45 42 46 27 47 30 48 41 49 57 50 28 51 29 52 40 54
REMARK SMILES IDX 58 55 31 56 18 57 19 58 24 59 20 60 21 61 23 62 25 63 22 64
REMARK SMILES IDX 44 65 45 66 50 67 46 68 47 69 49 70 51 71 48 72 32 73 33 74
REMARK SMILES IDX 38 75 34 76 35 77 37 78 39 79 36 80
REMARK H PARENT 56 42 30 53
REMARK Flexibility Score: inf
ROOT
ATOM      1  C   UNL A   1      31.318  32.115  26.879  1.00  0.00     0.275 C 
ENDROOT
BRANCH   1   2
ATOM      2  C   UNL A   1      32.036  30.335  25.873  1.00  0.00     0.275 C 
BRANCH   2   3
ATOM      3  O   UNL A   1      32.659  29.077  26.541  1.00  0.00    -0.459 OA
BRANCH   3   4
ATOM      4  C   UNL A   1      31.824  28.031  26.565  1.00  0.00     0.338 C 
ATOM      5  O   UNL A   1      31.219  27.542  27.483  1.00  0.00    -0.246 OA
BRANCH   4   6
ATOM      6  C   UNL A   1      32.260  27.495  25.297  1.00  0.00     0.087 C 
ATOM      7  C   UNL A   1      33.588  26.926  25.333  1.00  0.00     0.027 C 
ATOM      8  C   UNL A   1      30.632  26.551  24.925  1.00  0.00     0.316 C 
ATOM      9  C   UNL A   1      33.897  25.176  25.249  1.00  0.00     0.020 A 
ATOM     10  O   UNL A   1      30.928  24.628  24.944  1.00  0.00    -0.474 OA
ATOM     11  C   UNL A   1      35.193  24.772  25.402  1.00  0.00     0.032 A 
ATOM     12  C   UNL A   1      32.633  23.992  25.204  1.00  0.00     0.146 A 
ATOM     13  C   UNL A   1      35.361  23.387  25.525  1.00  0.00     0.043 A 
ATOM     14  C   UNL A   1      32.902  22.658  25.339  1.00  0.00     0.085 A 
ATOM     15  Cl  UNL A   1      36.993  22.837  25.738  1.00  0.00    -0.084 Cl
ATOM     16  C   UNL A   1      34.291  22.394  25.509  1.00  0.00     0.045 A 
ATOM     17  Cl  UNL A   1      31.751  21.414  25.377  1.00  0.00    -0.080 Cl
BRANCH   8  18
ATOM     18  C   UNL A   1      30.371  27.686  23.808  1.00  0.00     0.430 C 
ATOM     19  F   UNL A   1      31.367  27.958  23.009  1.00  0.00    -0.167 F 
ATOM     20  F   UNL A   1      29.414  27.224  22.950  1.00  0.00    -0.167 F 
ATOM     21  F   UNL A   1      29.881  28.870  24.255  1.00  0.00    -0.167 F 
ENDBRANCH   8  18
ENDBRANCH   4   6
ENDBRANCH   3   4
ENDBRANCH   2   3
ENDBRANCH   1   2
BRANCH   1  22
ATOM     22  O   UNL A   1      32.362  33.481  27.296  1.00  0.00    -0.458 OA
BRANCH  22  23
ATOM     23  C   UNL A   1      33.241  33.881  28.304  1.00  0.00     0.338 C 
ATOM     24  O   UNL A   1      33.014  34.503  29.326  1.00  0.00    -0.246 OA
BRANCH  23  25
ATOM     25  C   UNL A   1      34.532  33.128  28.124  1.00  0.00     0.060 A 
ATOM     26  C   UNL A   1      35.764  33.773  28.402  1.00  0.00     0.016 A 
ATOM     27  C   UNL A   1      34.470  31.739  28.125  1.00  0.00     0.016 A 
ATOM     28  C   UNL A   1      36.817  33.027  28.995  1.00  0.00     0.010 A 
ATOM     29  C   UNL A   1      35.521  31.009  28.686  1.00  0.00     0.010 A 
ATOM     30  C   UNL A   1      36.648  31.650  29.240  1.00  0.00    -0.014 A 
BRANCH  30  31
ATOM     31  C   UNL A   1      37.677  30.793  29.906  1.00  0.00     0.031 A 
ATOM     32  C   UNL A   1      37.931  31.111  31.346  1.00  0.00     0.074 A 
ATOM     33  C   UNL A   1      38.469  29.893  29.274  1.00  0.00     0.049 A 
ATOM     34  N   UNL A   1      38.900  30.724  32.130  1.00  0.00    -0.248 NA
ATOM     35  C   UNL A   1      36.975  32.044  31.965  1.00  0.00     0.031 C 
ATOM     36  C   UNL A   1      38.360  29.467  27.880  1.00  0.00     0.029 A 
ATOM     37  N   UNL A   1      39.568  29.184  29.733  1.00  0.00    -0.354 N 
ATOM     38  C   UNL A   1      38.683  31.392  33.324  1.00  0.00     0.074 A 
ATOM     39  C   UNL A   1      37.522  32.234  33.150  1.00  0.00     0.031 C 
ATOM     40  C   UNL A   1      39.349  28.595  27.594  1.00  0.00     0.029 A 
ATOM     41  C   UNL A   1      40.197  28.416  28.771  1.00  0.00     0.049 A 
ATOM     42  H   UNL A   1      39.875  29.224  30.667  1.00  0.00     0.167 HD
ATOM     43  C   UNL A   1      39.382  31.309  34.476  1.00  0.00     0.037 A 
ATOM     44  C   UNL A   1      41.331  27.678  28.830  1.00  0.00     0.037 A 
ATOM     45  C   UNL A   1      40.530  30.475  34.667  1.00  0.00     0.049 A 
ATOM     46  C   UNL A   1      42.121  27.638  30.126  1.00  0.00     0.074 A 
ATOM     47  C   UNL A   1      41.270  30.292  35.818  1.00  0.00     0.029 A 
ATOM     48  N   UNL A   1      41.108  29.695  33.680  1.00  0.00    -0.354 N 
ATOM     49  N   UNL A   1      41.854  28.206  31.278  1.00  0.00    -0.248 NA
ATOM     50  C   UNL A   1      43.377  26.864  30.129  1.00  0.00     0.031 C 
ATOM     51  C   UNL A   1      42.333  29.439  35.515  1.00  0.00     0.029 A 
ATOM     52  C   UNL A   1      42.221  29.052  34.189  1.00  0.00     0.049 A 
ATOM     53  H   UNL A   1      40.778  29.612  32.756  1.00  0.00     0.167 HD
ATOM     54  C   UNL A   1      42.880  27.829  32.140  1.00  0.00     0.074 A 
ATOM     55  C   UNL A   1      43.768  26.971  31.391  1.00  0.00     0.031 C 
ATOM     56  C   UNL A   1      43.076  28.172  33.437  1.00  0.00     0.037 A 
BRANCH  43  57
ATOM     57  C   UNL A   1      38.916  32.172  35.603  1.00  0.00     0.057 A 
ATOM     58  C   UNL A   1      39.260  33.527  35.681  1.00  0.00     0.134 A 
ATOM     59  C   UNL A   1      38.137  31.634  36.631  1.00  0.00     0.134 A 
ATOM     60  F   UNL A   1      40.038  34.088  34.742  1.00  0.00    -0.206 F 
ATOM     61  C   UNL A   1      38.864  34.314  36.761  1.00  0.00     0.040 A 
ATOM     62  C   UNL A   1      37.709  32.417  37.700  1.00  0.00     0.040 A 
ATOM     63  F   UNL A   1      37.788  30.337  36.616  1.00  0.00    -0.206 F 
ATOM     64  C   UNL A   1      38.078  33.759  37.771  1.00  0.00     0.006 A 
ENDBRANCH  43  57
BRANCH  44  65
ATOM     65  C   UNL A   1      41.861  26.923  27.648  1.00  0.00     0.057 A 
ATOM     66  C   UNL A   1      42.494  27.587  26.584  1.00  0.00     0.134 A 
ATOM     67  C   UNL A   1      41.618  25.554  27.478  1.00  0.00     0.134 A 
ATOM     68  F   UNL A   1      42.720  28.907  26.653  1.00  0.00    -0.206 F 
ATOM     69  C   UNL A   1      42.821  26.934  25.390  1.00  0.00     0.040 A 
ATOM     70  C   UNL A   1      41.969  24.882  26.301  1.00  0.00     0.040 A 
ATOM     71  F   UNL A   1      41.003  24.850  28.439  1.00  0.00    -0.206 F 
ATOM     72  C   UNL A   1      42.556  25.576  25.246  1.00  0.00     0.006 A 
ENDBRANCH  44  65
BRANCH  56  73
ATOM     73  C   UNL A   1      44.264  27.597  34.153  1.00  0.00     0.057 A 
ATOM     74  C   UNL A   1      45.475  28.290  34.251  1.00  0.00     0.134 A 
ATOM     75  C   UNL A   1      44.154  26.383  34.846  1.00  0.00     0.134 A 
ATOM     76  F   UNL A   1      45.647  29.454  33.605  1.00  0.00    -0.206 F 
ATOM     77  C   UNL A   1      46.538  27.796  35.009  1.00  0.00     0.040 A 
ATOM     78  C   UNL A   1      45.199  25.894  35.631  1.00  0.00     0.040 A 
ATOM     79  F   UNL A   1      43.015  25.675  34.806  1.00  0.00    -0.206 F 
ATOM     80  C   UNL A   1      46.396  26.601  35.713  1.00  0.00     0.006 A 
ENDBRANCH  56  73
ENDBRANCH  30  31
ENDBRANCH  23  25
ENDBRANCH  22  23
ENDBRANCH   1  22
TORSDOF 12
ENDMDL
MODEL 2
REMARK VINA RESULT:     -14.1      0.824      6.376
REMARK SMILES O=C(OCCOC(=O)c1ccc(-c2c3nc(c(-c4c(F)cccc4F)c4ccc([nH]4)c(-c4c(F)cccc4F)c4nc(c(-c5c(F)cccc5F)c5ccc2[nH]5)C=C4)C=C3)cc1)C1=Cc2cc(Cl)cc(Cl)c2O[C@@H]1C(F)(F)F
REMARK SMILES IDX 5 1 4 2 3 3 2 4 1 5 63 6 64 7 74 8 65 9 73 10 66 11 72 12
REMARK SMILES IDX 67 13 70 14 68 15 69 16 71 17 75 18 76 19 77 20 78 21 6 22
REMARK SMILES IDX 7 23 8 24 9 25 10 26 62 27 11 28 61 29 12 30 13 31 14 32
REMARK SMILES IDX 55 33 15 34 60 35 54 36 56 37 16 38 59 39 53 40 52 41 17 43
REMARK SMILES IDX 43 44 26 45 42 46 27 47 30 48 41 49 57 50 28 51 29 52 40 54
REMARK SMILES IDX 58 55 31 56 18 57 19 58 24 59 20 60 21 61 23 62 25 63 22 64
REMARK SMILES IDX 44 65 45 66 50 67 46 68 47 69 49 70 51 71 48 72 32 73 33 74
REMARK SMILES IDX 38 75 34 76 35 77 37 78 39 79 36 80
REMARK H PARENT 56 42 30 53
REMARK Flexibility Score: inf
ROOT
ATOM      1  C   UNL A   1      31.263  32.002  26.768  1.00  0.00     0.275 C 
ENDROOT
BRANCH   1   2
ATOM      2  C   UNL A   1      32.223  30.256  25.915  1.00  0.00     0.275 C 
BRANCH   2   3
ATOM      3  O   UNL A   1      32.720  29.000  26.684  1.00  0.00    -0.459 OA
BRANCH   3   4
ATOM      4  C   UNL A   1      31.859  27.976  26.623  1.00  0.00     0.338 C 
ATOM      5  O   UNL A   1      31.206  27.460  27.492  1.00  0.00    -0.246 OA
BRANCH   4   6
ATOM      6  C   UNL A   1      32.335  27.490  25.350  1.00  0.00     0.087 C 
ATOM      7  C   UNL A   1      33.655  26.906  25.406  1.00  0.00     0.027 C 
ATOM      8  C   UNL A   1      30.712  26.580  24.882  1.00  0.00     0.316 C 
ATOM      9  C   UNL A   1      33.951  25.158  25.259  1.00  0.00     0.020 A 
ATOM     10  O   UNL A   1      30.990  24.654  24.829  1.00  0.00    -0.474 OA
ATOM     11  C   UNL A   1      35.237  24.734  25.439  1.00  0.00     0.032 A 
ATOM     12  C   UNL A   1      32.679  23.991  25.120  1.00  0.00     0.146 A 
ATOM     13  C   UNL A   1      35.389  23.344  25.508  1.00  0.00     0.043 A 
ATOM     14  C   UNL A   1      32.931  22.649  25.207  1.00  0.00     0.085 A 
ATOM     15  Cl  UNL A   1      37.007  22.768  25.753  1.00  0.00    -0.084 Cl
ATOM     16  C   UNL A   1      34.311  22.364  25.413  1.00  0.00     0.045 A 
ATOM     17  Cl  UNL A   1      31.768  21.416  25.152  1.00  0.00    -0.080 Cl
BRANCH   8  18
ATOM     18  C   UNL A   1      30.501  27.764  23.806  1.00  0.00     0.430 C 
ATOM     19  F   UNL A   1      31.562  28.157  23.155  1.00  0.00    -0.167 F 
ATOM     20  F   UNL A   1      29.693  27.293  22.810  1.00  0.00    -0.167 F 
ATOM     21  F   UNL A   1      29.868  28.879  24.253  1.00  0.00    -0.167 F 
ENDBRANCH   8  18
ENDBRANCH   4   6
ENDBRANCH   3   4
ENDBRANCH   2   3
ENDBRANCH   1   2
BRANCH   1  22
ATOM     22  O   UNL A   1      32.148  33.457  27.250  1.00  0.00    -0.458 OA
BRANCH  22  23
ATOM     23  C   UNL A   1      32.924  33.931  28.309  1.00  0.00     0.338 C 
ATOM     24  O   UNL A   1      32.589  34.587  29.278  1.00  0.00    -0.246 OA
BRANCH  23  25
ATOM     25  C   UNL A   1      34.249  33.217  28.274  1.00  0.00     0.060 A 
ATOM     26  C   UNL A   1      35.439  33.960  28.064  1.00  0.00     0.016 A 
ATOM     27  C   UNL A   1      34.318  31.964  28.873  1.00  0.00     0.016 A 
ATOM     28  C   UNL A   1      36.621  33.580  28.753  1.00  0.00     0.010 A 
ATOM     29  C   UNL A   1      35.494  31.585  29.526  1.00  0.00     0.010 A 
ATOM     30  C   UNL A   1      36.614  32.439  29.580  1.00  0.00    -0.014 A 
BRANCH  30  31
ATOM     31  C   UNL A   1      37.792  31.990  30.384  1.00  0.00     0.031 A 
ATOM     32  C   UNL A   1      38.611  30.905  29.760  1.00  0.00     0.074 A 
ATOM     33  C   UNL A   1      38.061  32.377  31.656  1.00  0.00     0.049 A 
ATOM     34  N   UNL A   1      39.536  30.147  30.282  1.00  0.00    -0.248 NA
ATOM     35  C   UNL A   1      38.293  30.605  28.353  1.00  0.00     0.031 C 
ATOM     36  C   UNL A   1      37.366  33.415  32.413  1.00  0.00     0.029 A 
ATOM     37  N   UNL A   1      38.996  31.902  32.561  1.00  0.00    -0.354 N 
ATOM     38  C   UNL A   1      39.886  29.263  29.276  1.00  0.00     0.074 A 
ATOM     39  C   UNL A   1      39.052  29.549  28.132  1.00  0.00     0.031 C 
ATOM     40  C   UNL A   1      37.879  33.488  33.659  1.00  0.00     0.029 A 
ATOM     41  C   UNL A   1      38.923  32.477  33.816  1.00  0.00     0.049 A 
ATOM     42  H   UNL A   1      39.659  31.212  32.330  1.00  0.00     0.167 HD
ATOM     43  C   UNL A   1      40.829  28.297  29.292  1.00  0.00     0.037 A 
ATOM     44  C   UNL A   1      39.601  32.203  34.956  1.00  0.00     0.037 A 
ATOM     45  C   UNL A   1      41.668  28.005  30.414  1.00  0.00     0.049 A 
ATOM     46  C   UNL A   1      40.625  31.083  34.957  1.00  0.00     0.074 A 
ATOM     47  C   UNL A   1      42.686  27.075  30.501  1.00  0.00     0.029 A 
ATOM     48  N   UNL A   1      41.580  28.631  31.645  1.00  0.00    -0.354 N 
ATOM     49  N   UNL A   1      41.011  30.310  33.969  1.00  0.00    -0.248 NA
ATOM     50  C   UNL A   1      41.300  30.784  36.234  1.00  0.00     0.031 C 
ATOM     51  C   UNL A   1      43.181  27.099  31.806  1.00  0.00     0.029 A 
ATOM     52  C   UNL A   1      42.507  28.082  32.513  1.00  0.00     0.049 A 
ATOM     53  H   UNL A   1      40.953  29.356  31.871  1.00  0.00     0.167 HD
ATOM     54  C   UNL A   1      41.989  29.472  34.495  1.00  0.00     0.074 A 
ATOM     55  C   UNL A   1      42.156  29.835  35.883  1.00  0.00     0.031 C 
ATOM     56  C   UNL A   1      42.683  28.480  33.884  1.00  0.00     0.037 A 
BRANCH  43  57
ATOM     57  C   UNL A   1      40.969  27.480  28.048  1.00  0.00     0.057 A 
ATOM     58  C   UNL A   1      41.791  27.886  26.991  1.00  0.00     0.134 A 
ATOM     59  C   UNL A   1      40.253  26.287  27.901  1.00  0.00     0.134 A 
ATOM     60  F   UNL A   1      42.471  29.041  27.063  1.00  0.00    -0.206 F 
ATOM     61  C   UNL A   1      41.877  27.145  25.814  1.00  0.00     0.040 A 
ATOM     62  C   UNL A   1      40.355  25.522  26.742  1.00  0.00     0.040 A 
ATOM     63  F   UNL A   1      39.438  25.855  28.877  1.00  0.00    -0.206 F 
ATOM     64  C   UNL A   1      41.163  25.954  25.692  1.00  0.00     0.006 A 
ENDBRANCH  43  57
BRANCH  44  65
ATOM     65  C   UNL A   1      39.352  32.944  36.236  1.00  0.00     0.057 A 
ATOM     66  C   UNL A   1      38.408  32.488  37.170  1.00  0.00     0.134 A 
ATOM     67  C   UNL A   1      39.933  34.193  36.489  1.00  0.00     0.134 A 
ATOM     68  F   UNL A   1      37.775  31.321  36.973  1.00  0.00    -0.206 F 
ATOM     69  C   UNL A   1      38.020  33.258  38.273  1.00  0.00     0.040 A 
ATOM     70  C   UNL A   1      39.578  34.960  37.606  1.00  0.00     0.040 A 
ATOM     71  F   UNL A   1      40.832  34.708  35.639  1.00  0.00    -0.206 F 
ATOM     72  C   UNL A   1      38.606  34.501  38.492  1.00  0.00     0.006 A 
ENDBRANCH  44  65
BRANCH  56  73
ATOM     73  C   UNL A   1      43.715  27.738  34.684  1.00  0.00     0.057 A 
ATOM     74  C   UNL A   1      43.432  26.515  35.302  1.00  0.00     0.134 A 
ATOM     75  C   UNL A   1      45.037  28.202  34.739  1.00  0.00     0.134 A 
ATOM     76  F   UNL A   1      42.185  26.020  35.292  1.00  0.00    -0.206 F 
ATOM     77  C   UNL A   1      44.426  25.781  35.952  1.00  0.00     0.040 A 
ATOM     78  C   UNL A   1      46.044  27.462  35.359  1.00  0.00     0.040 A 
ATOM     79  F   UNL A   1      45.378  29.360  34.154  1.00  0.00    -0.206 F 
ATOM     80  C   UNL A   1      45.739  26.248  35.969  1.00  0.00     0.006 A 
ENDBRANCH  56  73
ENDBRANCH  30  31
ENDBRANCH  23  25
ENDBRANCH  22  23
ENDBRANCH   1  22
TORSDOF 12
ENDMDL
MODEL 3
REMARK VINA RESULT:     -14.0      4.663      9.621
REMARK SMILES O=C(OCCOC(=O)c1ccc(-c2c3nc(c(-c4c(F)cccc4F)c4ccc([nH]4)c(-c4c(F)cccc4F)c4nc(c(-c5c(F)cccc5F)c5ccc2[nH]5)C=C4)C=C3)cc1)C1=Cc2cc(Cl)cc(Cl)c2O[C@@H]1C(F)(F)F
REMARK SMILES IDX 5 1 4 2 3 3 2 4 1 5 63 6 64 7 74 8 65 9 73 10 66 11 72 12
REMARK SMILES IDX 67 13 70 14 68 15 69 16 71 17 75 18 76 19 77 20 78 21 6 22
REMARK SMILES IDX 7 23 8 24 9 25 10 26 62 27 11 28 61 29 12 30 13 31 14 32
REMARK SMILES IDX 55 33 15 34 60 35 54 36 56 37 16 38 59 39 53 40 52 41 17 43
REMARK SMILES IDX 43 44 26 45 42 46 27 47 30 48 41 49 57 50 28 51 29 52 40 54
REMARK SMILES IDX 58 55 31 56 18 57 19 58 24 59 20 60 21 61 23 62 25 63 22 64
REMARK SMILES IDX 44 65 45 66 50 67 46 68 47 69 49 70 51 71 48 72 32 73 33 74
REMARK SMILES IDX 38 75 34 76 35 77 37 78 39 79 36 80
REMARK H PARENT 56 42 30 53
REMARK Flexibility Score: inf
ROOT
ATOM      1  C   UNL A   1      38.368  19.586  24.805  1.00  0.00     0.275 C 
ENDROOT
BRANCH   1   2
ATOM      2  C   UNL A   1      36.727  20.930  25.255  1.00  0.00     0.275 C 
BRANCH   2   3
ATOM      3  O   UNL A   1      36.645  22.444  24.915  1.00  0.00    -0.459 OA
BRANCH   3   4
ATOM      4  C   UNL A   1      35.813  22.706  23.899  1.00  0.00     0.338 C 
ATOM      5  O   UNL A   1      36.051  22.978  22.751  1.00  0.00    -0.246 OA
BRANCH   4   6
ATOM      6  C   UNL A   1      34.671  22.974  24.741  1.00  0.00     0.087 C 
ATOM      7  C   UNL A   1      34.758  24.224  25.460  1.00  0.00     0.027 C 
ATOM      8  C   UNL A   1      33.357  22.514  23.421  1.00  0.00     0.316 C 
ATOM      9  C   UNL A   1      33.764  25.645  25.062  1.00  0.00     0.020 A 
ATOM     10  O   UNL A   1      32.335  24.083  22.888  1.00  0.00    -0.474 OA
ATOM     11  C   UNL A   1      34.028  26.793  25.752  1.00  0.00     0.032 A 
ATOM     12  C   UNL A   1      32.665  25.686  23.724  1.00  0.00     0.146 A 
ATOM     13  C   UNL A   1      33.361  27.928  25.273  1.00  0.00     0.043 A 
ATOM     14  C   UNL A   1      32.067  26.851  23.329  1.00  0.00     0.085 A 
ATOM     15  Cl  UNL A   1      33.684  29.410  26.116  1.00  0.00    -0.084 Cl
ATOM     16  C   UNL A   1      32.453  27.963  24.131  1.00  0.00     0.045 A 
ATOM     17  Cl  UNL A   1      31.028  27.032  22.001  1.00  0.00    -0.080 Cl
BRANCH   8  18
ATOM     18  C   UNL A   1      33.098  21.195  24.314  1.00  0.00     0.430 C 
ATOM     19  F   UNL A   1      33.126  21.352  25.609  1.00  0.00    -0.167 F 
ATOM     20  F   UNL A   1      31.817  20.775  24.089  1.00  0.00    -0.167 F 
ATOM     21  F   UNL A   1      33.863  20.111  24.024  1.00  0.00    -0.167 F 
ENDBRANCH   8  18
ENDBRANCH   4   6
ENDBRANCH   3   4
ENDBRANCH   2   3
ENDBRANCH   1   2
BRANCH   1  22
ATOM     22  O   UNL A   1      39.757  19.361  25.877  1.00  0.00    -0.458 OA
BRANCH  22  23
ATOM     23  C   UNL A   1      41.027  19.896  26.103  1.00  0.00     0.338 C 
ATOM     24  O   UNL A   1      42.081  19.644  25.549  1.00  0.00    -0.246 OA
BRANCH  23  25
ATOM     25  C   UNL A   1      40.869  21.133  26.947  1.00  0.00     0.060 A 
ATOM     26  C   UNL A   1      41.901  21.502  27.847  1.00  0.00     0.016 A 
ATOM     27  C   UNL A   1      39.958  22.091  26.517  1.00  0.00     0.016 A 
ATOM     28  C   UNL A   1      42.195  22.879  28.035  1.00  0.00     0.010 A 
ATOM     29  C   UNL A   1      40.240  23.443  26.729  1.00  0.00     0.010 A 
ATOM     30  C   UNL A   1      41.421  23.856  27.378  1.00  0.00    -0.014 A 
BRANCH  30  31
ATOM     31  C   UNL A   1      41.685  25.325  27.472  1.00  0.00     0.031 A 
ATOM     32  C   UNL A   1      43.005  25.769  26.923  1.00  0.00     0.074 A 
ATOM     33  C   UNL A   1      40.908  26.216  28.135  1.00  0.00     0.049 A 
ATOM     34  N   UNL A   1      43.627  26.908  27.057  1.00  0.00    -0.248 NA
ATOM     35  C   UNL A   1      43.744  24.751  26.156  1.00  0.00     0.031 C 
ATOM     36  C   UNL A   1      39.599  25.953  28.730  1.00  0.00     0.029 A 
ATOM     37  N   UNL A   1      41.134  27.546  28.450  1.00  0.00    -0.354 N 
ATOM     38  C   UNL A   1      44.842  26.730  26.417  1.00  0.00     0.074 A 
ATOM     39  C   UNL A   1      44.887  25.370  25.932  1.00  0.00     0.031 C 
ATOM     40  C   UNL A   1      39.150  27.066  29.346  1.00  0.00     0.029 A 
ATOM     41  C   UNL A   1      40.149  28.126  29.228  1.00  0.00     0.049 A 
ATOM     42  H   UNL A   1      41.930  28.038  28.145  1.00  0.00     0.167 HD
ATOM     43  C   UNL A   1      45.839  27.623  26.235  1.00  0.00     0.037 A 
ATOM     44  C   UNL A   1      40.078  29.354  29.794  1.00  0.00     0.037 A 
ATOM     45  C   UNL A   1      45.807  28.975  26.702  1.00  0.00     0.049 A 
ATOM     46  C   UNL A   1      41.232  30.323  29.610  1.00  0.00     0.074 A 
ATOM     47  C   UNL A   1      46.754  29.964  26.519  1.00  0.00     0.029 A 
ATOM     48  N   UNL A   1      44.782  29.524  27.453  1.00  0.00    -0.354 N 
ATOM     49  N   UNL A   1      42.340  30.171  28.923  1.00  0.00    -0.248 NA
ATOM     50  C   UNL A   1      41.134  31.629  30.287  1.00  0.00     0.031 C 
ATOM     51  C   UNL A   1      46.326  31.102  27.207  1.00  0.00     0.029 A 
ATOM     52  C   UNL A   1      45.089  30.834  27.771  1.00  0.00     0.049 A 
ATOM     53  H   UNL A   1      43.959  29.053  27.722  1.00  0.00     0.167 HD
ATOM     54  C   UNL A   1      43.042  31.366  29.058  1.00  0.00     0.074 A 
ATOM     55  C   UNL A   1      42.235  32.242  29.875  1.00  0.00     0.031 C 
ATOM     56  C   UNL A   1      44.256  31.705  28.557  1.00  0.00     0.037 A 
BRANCH  43  57
ATOM     57  C   UNL A   1      47.051  27.132  25.513  1.00  0.00     0.057 A 
ATOM     58  C   UNL A   1      48.027  26.361  26.156  1.00  0.00     0.134 A 
ATOM     59  C   UNL A   1      47.253  27.456  24.168  1.00  0.00     0.134 A 
ATOM     60  F   UNL A   1      47.904  26.053  27.456  1.00  0.00    -0.206 F 
ATOM     61  C   UNL A   1      49.180  25.950  25.490  1.00  0.00     0.040 A 
ATOM     62  C   UNL A   1      48.386  27.024  23.482  1.00  0.00     0.040 A 
ATOM     63  F   UNL A   1      46.357  28.203  23.504  1.00  0.00    -0.206 F 
ATOM     64  C   UNL A   1      49.357  26.275  24.145  1.00  0.00     0.006 A 
ENDBRANCH  43  57
BRANCH  44  65
ATOM     65  C   UNL A   1      38.911  29.786  30.631  1.00  0.00     0.057 A 
ATOM     66  C   UNL A   1      38.763  29.346  31.957  1.00  0.00     0.134 A 
ATOM     67  C   UNL A   1      37.846  30.517  30.091  1.00  0.00     0.134 A 
ATOM     68  F   UNL A   1      39.722  28.601  32.530  1.00  0.00    -0.206 F 
ATOM     69  C   UNL A   1      37.594  29.575  32.691  1.00  0.00     0.040 A 
ATOM     70  C   UNL A   1      36.683  30.781  30.825  1.00  0.00     0.040 A 
ATOM     71  F   UNL A   1      37.900  30.960  28.827  1.00  0.00    -0.206 F 
ATOM     72  C   UNL A   1      36.547  30.294  32.123  1.00  0.00     0.006 A 
ENDBRANCH  44  65
BRANCH  56  73
ATOM     73  C   UNL A   1      44.778  33.085  28.833  1.00  0.00     0.057 A 
ATOM     74  C   UNL A   1      44.466  34.172  28.008  1.00  0.00     0.134 A 
ATOM     75  C   UNL A   1      45.508  33.347  30.000  1.00  0.00     0.134 A 
ATOM     76  F   UNL A   1      43.776  33.988  26.871  1.00  0.00    -0.206 F 
ATOM     77  C   UNL A   1      44.867  35.470  28.331  1.00  0.00     0.040 A 
ATOM     78  C   UNL A   1      45.888  34.643  30.349  1.00  0.00     0.040 A 
ATOM     79  F   UNL A   1      45.828  32.352  30.842  1.00  0.00    -0.206 F 
ATOM     80  C   UNL A   1      45.568  35.709  29.512  1.00  0.00     0.006 A 
ENDBRANCH  56  73
ENDBRANCH  30  31
ENDBRANCH  23  25
ENDBRANCH  22  23
ENDBRANCH   1  22
TORSDOF 12
ENDMDL
