MODEL 1
REMARK VINA RESULT:     -11.3      0.000      0.000
REMARK SMILES O=C(OCCOC(=O)[C@H]1CCCN1S(=O)(=O)c1cccc([N+](=O)[O-])c1)c1ccc(-c2c3nc(c(-c4c(F)cccc4F)c4ccc([nH]4)c(-c4c(F)cccc4F)c4nc(c(-c5c(F)cccc5F)c5ccc2[nH]5)C=C4)C=C3)cc1
REMARK SMILES IDX 5 1 4 2 3 3 2 4 1 5 26 6 27 7 79 8 28 9 78 10 29 11 30 12
REMARK SMILES IDX 31 13 72 14 32 15 77 16 71 17 73 18 33 19 76 20 70 21 69 22
REMARK SMILES IDX 34 24 60 25 43 26 59 27 44 28 47 29 58 30 74 31 45 32 46 33
REMARK SMILES IDX 57 35 75 36 48 37 35 38 36 39 41 40 37 41 38 42 40 43 42 44
REMARK SMILES IDX 39 45 61 46 62 47 67 48 63 49 64 50 66 51 68 52 65 53 49 54
REMARK SMILES IDX 50 55 55 56 51 57 52 58 54 59 56 60 53 61 6 62 7 63 8 64
REMARK SMILES IDX 9 65 10 66 13 67 11 68 12 69 14 70 15 71 16 72 17 73 18 74
REMARK SMILES IDX 25 75 19 76 21 77 20 78 22 79 23 80 24 81
REMARK H PARENT 73 23 47 34
REMARK Flexibility Score: inf
ROOT
ATOM      1  C   UNL A   1      32.267  30.494  26.771  1.00  0.00     0.274 C 
ENDROOT
BRANCH   1   2
ATOM      2  C   UNL A   1      31.520  31.824  26.901  1.00  0.00     0.275 C 
BRANCH   2   3
ATOM      3  O   UNL A   1      32.375  32.980  26.864  1.00  0.00    -0.458 OA
BRANCH   3   4
ATOM      4  C   UNL A   1      33.002  33.551  27.918  1.00  0.00     0.338 C 
ATOM      5  O   UNL A   1      32.559  34.575  28.429  1.00  0.00    -0.246 OA
BRANCH   4   6
ATOM      6  C   UNL A   1      34.328  33.054  28.364  1.00  0.00     0.060 A 
ATOM      7  C   UNL A   1      35.575  33.438  27.861  1.00  0.00     0.016 A 
ATOM      8  C   UNL A   1      34.287  32.099  29.366  1.00  0.00     0.016 A 
ATOM      9  C   UNL A   1      36.771  32.872  28.377  1.00  0.00     0.010 A 
ATOM     10  C   UNL A   1      35.476  31.618  29.917  1.00  0.00     0.010 A 
ATOM     11  C   UNL A   1      36.727  31.935  29.411  1.00  0.00    -0.014 A 
BRANCH  11  12
ATOM     12  C   UNL A   1      37.884  31.231  30.034  1.00  0.00     0.031 A 
ATOM     13  C   UNL A   1      38.494  31.713  31.322  1.00  0.00     0.074 A 
ATOM     14  C   UNL A   1      38.654  30.390  29.318  1.00  0.00     0.049 A 
ATOM     15  N   UNL A   1      39.165  31.065  32.239  1.00  0.00    -0.248 NA
ATOM     16  C   UNL A   1      38.381  33.146  31.587  1.00  0.00     0.031 C 
ATOM     17  C   UNL A   1      38.450  30.020  27.919  1.00  0.00     0.029 A 
ATOM     18  N   UNL A   1      39.812  29.748  29.674  1.00  0.00    -0.354 N 
ATOM     19  C   UNL A   1      39.386  31.987  33.258  1.00  0.00     0.074 A 
ATOM     20  C   UNL A   1      38.883  33.262  32.806  1.00  0.00     0.031 C 
ATOM     21  C   UNL A   1      39.449  29.204  27.538  1.00  0.00     0.029 A 
ATOM     22  C   UNL A   1      40.331  28.964  28.678  1.00  0.00     0.049 A 
ATOM     23  H   UNL A   1      40.229  29.841  30.561  1.00  0.00     0.167 HD
ATOM     24  C   UNL A   1      40.015  31.820  34.442  1.00  0.00     0.037 A 
ATOM     25  C   UNL A   1      41.372  28.113  28.717  1.00  0.00     0.037 A 
ATOM     26  C   UNL A   1      40.915  30.734  34.692  1.00  0.00     0.049 A 
ATOM     27  C   UNL A   1      42.111  27.899  30.016  1.00  0.00     0.074 A 
ATOM     28  C   UNL A   1      41.673  30.462  35.815  1.00  0.00     0.029 A 
ATOM     29  N   UNL A   1      41.303  29.836  33.709  1.00  0.00    -0.354 N 
ATOM     30  N   UNL A   1      41.937  28.475  31.181  1.00  0.00    -0.248 NA
ATOM     31  C   UNL A   1      43.168  26.877  30.006  1.00  0.00     0.031 C 
ATOM     32  C   UNL A   1      42.614  29.484  35.462  1.00  0.00     0.029 A 
ATOM     33  C   UNL A   1      42.369  29.086  34.157  1.00  0.00     0.049 A 
ATOM     34  H   UNL A   1      40.880  29.749  32.825  1.00  0.00     0.167 HD
ATOM     35  C   UNL A   1      42.831  27.858  32.051  1.00  0.00     0.074 A 
ATOM     36  C   UNL A   1      43.540  26.858  31.279  1.00  0.00     0.031 C 
ATOM     37  C   UNL A   1      43.047  28.088  33.371  1.00  0.00     0.037 A 
BRANCH  24  38
ATOM     38  C   UNL A   1      39.823  32.888  35.475  1.00  0.00     0.057 A 
ATOM     39  C   UNL A   1      40.679  34.001  35.517  1.00  0.00     0.134 A 
ATOM     40  C   UNL A   1      38.800  32.828  36.425  1.00  0.00     0.134 A 
ATOM     41  F   UNL A   1      41.681  34.122  34.632  1.00  0.00    -0.206 F 
ATOM     42  C   UNL A   1      40.531  35.004  36.476  1.00  0.00     0.040 A 
ATOM     43  C   UNL A   1      38.635  33.830  37.384  1.00  0.00     0.040 A 
ATOM     44  F   UNL A   1      37.953  31.788  36.448  1.00  0.00    -0.206 F 
ATOM     45  C   UNL A   1      39.504  34.920  37.414  1.00  0.00     0.006 A 
ENDBRANCH  24  38
BRANCH  25  46
ATOM     46  C   UNL A   1      41.685  27.282  27.531  1.00  0.00     0.057 A 
ATOM     47  C   UNL A   1      41.120  26.008  27.396  1.00  0.00     0.134 A 
ATOM     48  C   UNL A   1      42.557  27.715  26.528  1.00  0.00     0.134 A 
ATOM     49  F   UNL A   1      40.280  25.542  28.331  1.00  0.00    -0.206 F 
ATOM     50  C   UNL A   1      41.441  25.176  26.325  1.00  0.00     0.040 A 
ATOM     51  C   UNL A   1      42.872  26.899  25.439  1.00  0.00     0.040 A 
ATOM     52  F   UNL A   1      43.114  28.933  26.591  1.00  0.00    -0.206 F 
ATOM     53  C   UNL A   1      42.322  25.621  25.343  1.00  0.00     0.006 A 
ENDBRANCH  25  46
BRANCH  37  54
ATOM     54  C   UNL A   1      44.055  27.238  34.082  1.00  0.00     0.057 A 
ATOM     55  C   UNL A   1      45.412  27.577  34.136  1.00  0.00     0.134 A 
ATOM     56  C   UNL A   1      43.635  26.117  34.809  1.00  0.00     0.134 A 
ATOM     57  F   UNL A   1      45.878  28.638  33.459  1.00  0.00    -0.206 F 
ATOM     58  C   UNL A   1      46.321  26.820  34.878  1.00  0.00     0.040 A 
ATOM     59  C   UNL A   1      44.529  25.369  35.576  1.00  0.00     0.040 A 
ATOM     60  F   UNL A   1      42.346  25.748  34.808  1.00  0.00    -0.206 F 
ATOM     61  C   UNL A   1      45.876  25.720  35.609  1.00  0.00     0.006 A 
ENDBRANCH  37  54
ENDBRANCH  11  12
ENDBRANCH   4   6
ENDBRANCH   3   4
ENDBRANCH   2   3
ENDBRANCH   1   2
BRANCH   1  62
ATOM     62  O   UNL A   1      31.667  29.580  25.827  1.00  0.00    -0.461 OA
BRANCH  62  63
ATOM     63  C   UNL A   1      32.497  29.057  24.869  1.00  0.00     0.324 C 
ATOM     64  O   UNL A   1      33.354  29.706  24.282  1.00  0.00    -0.250 OA
BRANCH  63  65
ATOM     65  C   UNL A   1      32.140  27.586  24.556  1.00  0.00     0.183 C 
ATOM     66  C   UNL A   1      30.648  27.396  24.772  1.00  0.00     0.034 C 
ATOM     67  N   UNL A   1      32.354  27.198  23.099  1.00  0.00    -0.184 NA
ATOM     68  C   UNL A   1      30.039  27.882  23.469  1.00  0.00     0.019 C 
ATOM     69  C   UNL A   1      31.146  27.781  22.410  1.00  0.00     0.103 C 
BRANCH  67  70
ATOM     70  S   UNL A   1      32.642  25.519  22.757  1.00  0.00     0.244 S 
ATOM     71  O   UNL A   1      31.366  24.875  22.545  1.00  0.00    -0.207 OA
ATOM     72  O   UNL A   1      33.685  25.426  21.754  1.00  0.00    -0.207 OA
BRANCH  70  73
ATOM     73  C   UNL A   1      33.352  24.783  24.257  1.00  0.00     0.089 A 
ATOM     74  C   UNL A   1      34.738  24.752  24.431  1.00  0.00     0.022 A 
ATOM     75  C   UNL A   1      32.571  24.054  25.159  1.00  0.00     0.107 A 
ATOM     76  C   UNL A   1      35.307  24.058  25.515  1.00  0.00     0.008 A 
ATOM     77  C   UNL A   1      33.126  23.500  26.324  1.00  0.00     0.270 A 
ATOM     78  C   UNL A   1      34.504  23.457  26.485  1.00  0.00     0.086 A 
BRANCH  77  79
ATOM     79  N   UNL A   1      32.261  23.039  27.421  1.00  0.00     0.062 N 
ATOM     80  O   UNL A   1      31.110  23.490  27.486  1.00  0.00    -0.258 OA
ATOM     81  O   UNL A   1      32.725  22.196  28.199  1.00  0.00    -0.258 OA
ENDBRANCH  77  79
ENDBRANCH  70  73
ENDBRANCH  67  70
ENDBRANCH  63  65
ENDBRANCH  62  63
ENDBRANCH   1  62
TORSDOF 14
ENDMDL
MODEL 2
REMARK VINA RESULT:     -11.2      4.947      9.529
REMARK SMILES O=C(OCCOC(=O)[C@H]1CCCN1S(=O)(=O)c1cccc([N+](=O)[O-])c1)c1ccc(-c2c3nc(c(-c4c(F)cccc4F)c4ccc([nH]4)c(-c4c(F)cccc4F)c4nc(c(-c5c(F)cccc5F)c5ccc2[nH]5)C=C4)C=C3)cc1
REMARK SMILES IDX 5 1 4 2 3 3 2 4 1 5 26 6 27 7 79 8 28 9 78 10 29 11 30 12
REMARK SMILES IDX 31 13 72 14 32 15 77 16 71 17 73 18 33 19 76 20 70 21 69 22
REMARK SMILES IDX 34 24 60 25 43 26 59 27 44 28 47 29 58 30 74 31 45 32 46 33
REMARK SMILES IDX 57 35 75 36 48 37 35 38 36 39 41 40 37 41 38 42 40 43 42 44
REMARK SMILES IDX 39 45 61 46 62 47 67 48 63 49 64 50 66 51 68 52 65 53 49 54
REMARK SMILES IDX 50 55 55 56 51 57 52 58 54 59 56 60 53 61 6 62 7 63 8 64
REMARK SMILES IDX 9 65 10 66 13 67 11 68 12 69 14 70 15 71 16 72 17 73 18 74
REMARK SMILES IDX 25 75 19 76 21 77 20 78 22 79 23 80 24 81
REMARK H PARENT 73 23 47 34
REMARK Flexibility Score: inf
ROOT
ATOM      1  C   UNL A   1      38.858  21.002  25.697  1.00  0.00     0.274 C 
ENDROOT
BRANCH   1   2
ATOM      2  C   UNL A   1      39.227  19.554  25.367  1.00  0.00     0.275 C 
BRANCH   2   3
ATOM      3  O   UNL A   1      40.471  19.122  25.945  1.00  0.00    -0.458 OA
BRANCH   3   4
ATOM      4  C   UNL A   1      41.674  19.727  25.812  1.00  0.00     0.338 C 
ATOM      5  O   UNL A   1      42.607  19.150  25.262  1.00  0.00    -0.246 OA
BRANCH   4   6
ATOM      6  C   UNL A   1      41.939  21.026  26.480  1.00  0.00     0.060 A 
ATOM      7  C   UNL A   1      41.814  21.302  27.846  1.00  0.00     0.016 A 
ATOM      8  C   UNL A   1      42.329  22.051  25.634  1.00  0.00     0.016 A 
ATOM      9  C   UNL A   1      42.093  22.599  28.352  1.00  0.00     0.010 A 
ATOM     10  C   UNL A   1      42.681  23.293  26.162  1.00  0.00     0.010 A 
ATOM     11  C   UNL A   1      42.519  23.620  27.500  1.00  0.00    -0.014 A 
BRANCH  11  12
ATOM     12  C   UNL A   1      42.819  25.032  27.871  1.00  0.00     0.031 A 
ATOM     13  C   UNL A   1      44.230  25.495  28.117  1.00  0.00     0.074 A 
ATOM     14  C   UNL A   1      41.861  25.843  28.356  1.00  0.00     0.049 A 
ATOM     15  N   UNL A   1      44.763  26.686  28.017  1.00  0.00    -0.248 NA
ATOM     16  C   UNL A   1      45.162  24.480  28.604  1.00  0.00     0.031 C 
ATOM     17  C   UNL A   1      40.451  25.498  28.528  1.00  0.00     0.029 A 
ATOM     18  N   UNL A   1      41.962  27.116  28.854  1.00  0.00    -0.354 N 
ATOM     19  C   UNL A   1      46.122  26.505  28.256  1.00  0.00     0.074 A 
ATOM     20  C   UNL A   1      46.319  25.121  28.616  1.00  0.00     0.031 C 
ATOM     21  C   UNL A   1      39.815  26.544  29.088  1.00  0.00     0.029 A 
ATOM     22  C   UNL A   1      40.766  27.639  29.267  1.00  0.00     0.049 A 
ATOM     23  H   UNL A   1      42.814  27.607  28.909  1.00  0.00     0.167 HD
ATOM     24  C   UNL A   1      47.121  27.415  28.250  1.00  0.00     0.037 A 
ATOM     25  C   UNL A   1      40.478  28.884  29.689  1.00  0.00     0.037 A 
ATOM     26  C   UNL A   1      46.884  28.822  28.372  1.00  0.00     0.049 A 
ATOM     27  C   UNL A   1      41.563  29.933  29.708  1.00  0.00     0.074 A 
ATOM     28  C   UNL A   1      47.791  29.862  28.443  1.00  0.00     0.029 A 
ATOM     29  N   UNL A   1      45.629  29.355  28.620  1.00  0.00    -0.354 N 
ATOM     30  N   UNL A   1      42.836  29.824  29.413  1.00  0.00    -0.248 NA
ATOM     31  C   UNL A   1      41.150  31.295  30.080  1.00  0.00     0.031 C 
ATOM     32  C   UNL A   1      47.093  31.002  28.868  1.00  0.00     0.029 A 
ATOM     33  C   UNL A   1      45.746  30.687  28.961  1.00  0.00     0.049 A 
ATOM     34  H   UNL A   1      44.781  28.858  28.563  1.00  0.00     0.167 HD
ATOM     35  C   UNL A   1      43.366  31.106  29.524  1.00  0.00     0.074 A 
ATOM     36  C   UNL A   1      42.274  31.977  29.905  1.00  0.00     0.031 C 
ATOM     37  C   UNL A   1      44.639  31.532  29.323  1.00  0.00     0.037 A 
BRANCH  24  38
ATOM     38  C   UNL A   1      48.524  26.890  28.221  1.00  0.00     0.057 A 
ATOM     39  C   UNL A   1      49.146  26.585  26.999  1.00  0.00     0.134 A 
ATOM     40  C   UNL A   1      49.265  26.686  29.389  1.00  0.00     0.134 A 
ATOM     41  F   UNL A   1      48.491  26.759  25.841  1.00  0.00    -0.206 F 
ATOM     42  C   UNL A   1      50.447  26.082  26.944  1.00  0.00     0.040 A 
ATOM     43  C   UNL A   1      50.571  26.192  29.346  1.00  0.00     0.040 A 
ATOM     44  F   UNL A   1      48.730  26.947  30.590  1.00  0.00    -0.206 F 
ATOM     45  C   UNL A   1      51.165  25.885  28.122  1.00  0.00     0.006 A 
ENDBRANCH  24  38
BRANCH  25  46
ATOM     46  C   UNL A   1      39.074  29.253  29.983  1.00  0.00     0.057 A 
ATOM     47  C   UNL A   1      38.244  29.733  28.961  1.00  0.00     0.134 A 
ATOM     48  C   UNL A   1      38.534  29.161  31.268  1.00  0.00     0.134 A 
ATOM     49  F   UNL A   1      38.713  29.844  27.710  1.00  0.00    -0.206 F 
ATOM     50  C   UNL A   1      36.937  30.147  29.215  1.00  0.00     0.040 A 
ATOM     51  C   UNL A   1      37.220  29.555  31.533  1.00  0.00     0.040 A 
ATOM     52  F   UNL A   1      39.272  28.691  32.283  1.00  0.00    -0.206 F 
ATOM     53  C   UNL A   1      36.423  30.060  30.506  1.00  0.00     0.006 A 
ENDBRANCH  25  46
BRANCH  37  54
ATOM     54  C   UNL A   1      44.928  32.995  29.474  1.00  0.00     0.057 A 
ATOM     55  C   UNL A   1      45.334  33.554  30.691  1.00  0.00     0.134 A 
ATOM     56  C   UNL A   1      44.894  33.833  28.352  1.00  0.00     0.134 A 
ATOM     57  F   UNL A   1      45.385  32.805  31.803  1.00  0.00    -0.206 F 
ATOM     58  C   UNL A   1      45.684  34.902  30.790  1.00  0.00     0.040 A 
ATOM     59  C   UNL A   1      45.269  35.174  28.432  1.00  0.00     0.040 A 
ATOM     60  F   UNL A   1      44.526  33.354  27.154  1.00  0.00    -0.206 F 
ATOM     61  C   UNL A   1      45.663  35.712  29.656  1.00  0.00     0.006 A 
ENDBRANCH  37  54
ENDBRANCH  11  12
ENDBRANCH   4   6
ENDBRANCH   3   4
ENDBRANCH   2   3
ENDBRANCH   1   2
BRANCH   1  62
ATOM     62  O   UNL A   1      37.686  21.477  24.999  1.00  0.00    -0.461 OA
BRANCH  62  63
ATOM     63  C   UNL A   1      37.157  22.668  25.429  1.00  0.00     0.324 C 
ATOM     64  O   UNL A   1      37.819  23.685  25.600  1.00  0.00    -0.250 OA
BRANCH  63  65
ATOM     65  C   UNL A   1      35.657  22.528  25.769  1.00  0.00     0.183 C 
ATOM     66  C   UNL A   1      35.040  23.916  25.818  1.00  0.00     0.034 C 
ATOM     67  N   UNL A   1      34.849  21.803  24.701  1.00  0.00    -0.184 NA
ATOM     68  C   UNL A   1      34.742  24.219  24.361  1.00  0.00     0.019 C 
ATOM     69  C   UNL A   1      34.650  22.864  23.647  1.00  0.00     0.103 C 
BRANCH  67  70
ATOM     70  S   UNL A   1      33.390  21.006  25.209  1.00  0.00     0.244 S 
ATOM     71  O   UNL A   1      33.450  20.823  26.640  1.00  0.00    -0.207 OA
ATOM     72  O   UNL A   1      32.261  21.684  24.604  1.00  0.00    -0.207 OA
BRANCH  70  73
ATOM     73  C   UNL A   1      33.406  19.348  24.472  1.00  0.00     0.089 A 
ATOM     74  C   UNL A   1      32.754  19.116  23.257  1.00  0.00     0.022 A 
ATOM     75  C   UNL A   1      33.871  18.233  25.177  1.00  0.00     0.107 A 
ATOM     76  C   UNL A   1      32.632  17.811  22.747  1.00  0.00     0.008 A 
ATOM     77  C   UNL A   1      33.892  16.956  24.594  1.00  0.00     0.270 A 
ATOM     78  C   UNL A   1      33.229  16.728  23.395  1.00  0.00     0.086 A 
BRANCH  77  79
ATOM     79  N   UNL A   1      34.681  15.870  25.194  1.00  0.00     0.062 N 
ATOM     80  O   UNL A   1      35.818  16.134  25.609  1.00  0.00    -0.258 OA
ATOM     81  O   UNL A   1      34.147  14.757  25.283  1.00  0.00    -0.258 OA
ENDBRANCH  77  79
ENDBRANCH  70  73
ENDBRANCH  67  70
ENDBRANCH  63  65
ENDBRANCH  62  63
ENDBRANCH   1  62
TORSDOF 14
ENDMDL
MODEL 3
REMARK VINA RESULT:     -11.1      4.869      8.429
REMARK SMILES O=C(OCCOC(=O)[C@H]1CCCN1S(=O)(=O)c1cccc([N+](=O)[O-])c1)c1ccc(-c2c3nc(c(-c4c(F)cccc4F)c4ccc([nH]4)c(-c4c(F)cccc4F)c4nc(c(-c5c(F)cccc5F)c5ccc2[nH]5)C=C4)C=C3)cc1
REMARK SMILES IDX 5 1 4 2 3 3 2 4 1 5 26 6 27 7 79 8 28 9 78 10 29 11 30 12
REMARK SMILES IDX 31 13 72 14 32 15 77 16 71 17 73 18 33 19 76 20 70 21 69 22
REMARK SMILES IDX 34 24 60 25 43 26 59 27 44 28 47 29 58 30 74 31 45 32 46 33
REMARK SMILES IDX 57 35 75 36 48 37 35 38 36 39 41 40 37 41 38 42 40 43 42 44
REMARK SMILES IDX 39 45 61 46 62 47 67 48 63 49 64 50 66 51 68 52 65 53 49 54
REMARK SMILES IDX 50 55 55 56 51 57 52 58 54 59 56 60 53 61 6 62 7 63 8 64
REMARK SMILES IDX 9 65 10 66 13 67 11 68 12 69 14 70 15 71 16 72 17 73 18 74
REMARK SMILES IDX 25 75 19 76 21 77 20 78 22 79 23 80 24 81
REMARK H PARENT 73 23 47 34
REMARK Flexibility Score: inf
ROOT
ATOM      1  C   UNL A   1      38.233  21.347  25.415  1.00  0.00     0.274 C 
ENDROOT
BRANCH   1   2
ATOM      2  C   UNL A   1      38.593  19.908  25.036  1.00  0.00     0.275 C 
BRANCH   2   3
ATOM      3  O   UNL A   1      39.500  19.272  25.953  1.00  0.00    -0.458 OA
BRANCH   3   4
ATOM      4  C   UNL A   1      40.826  19.517  26.073  1.00  0.00     0.338 C 
ATOM      5  O   UNL A   1      41.646  18.621  25.898  1.00  0.00    -0.246 OA
BRANCH   4   6
ATOM      6  C   UNL A   1      41.304  20.824  26.588  1.00  0.00     0.060 A 
ATOM      7  C   UNL A   1      41.296  21.249  27.922  1.00  0.00     0.016 A 
ATOM      8  C   UNL A   1      41.782  21.695  25.623  1.00  0.00     0.016 A 
ATOM      9  C   UNL A   1      41.779  22.536  28.275  1.00  0.00     0.010 A 
ATOM     10  C   UNL A   1      42.330  22.921  26.002  1.00  0.00     0.010 A 
ATOM     11  C   UNL A   1      42.292  23.397  27.303  1.00  0.00    -0.014 A 
BRANCH  11  12
ATOM     12  C   UNL A   1      42.803  24.782  27.511  1.00  0.00     0.031 A 
ATOM     13  C   UNL A   1      41.875  25.919  27.842  1.00  0.00     0.074 A 
ATOM     14  C   UNL A   1      44.017  25.150  27.061  1.00  0.00     0.049 A 
ATOM     15  N   UNL A   1      42.100  27.044  28.470  1.00  0.00    -0.248 NA
ATOM     16  C   UNL A   1      40.507  25.795  27.342  1.00  0.00     0.031 C 
ATOM     17  C   UNL A   1      44.983  24.282  26.390  1.00  0.00     0.029 A 
ATOM     18  N   UNL A   1      44.608  26.387  27.051  1.00  0.00    -0.354 N 
ATOM     19  C   UNL A   1      40.857  27.660  28.585  1.00  0.00     0.074 A 
ATOM     20  C   UNL A   1      39.903  26.848  27.870  1.00  0.00     0.031 C 
ATOM     21  C   UNL A   1      46.055  25.017  26.041  1.00  0.00     0.029 A 
ATOM     22  C   UNL A   1      45.864  26.390  26.506  1.00  0.00     0.049 A 
ATOM     23  H   UNL A   1      44.171  27.196  27.404  1.00  0.00     0.167 HD
ATOM     24  C   UNL A   1      40.534  28.835  29.170  1.00  0.00     0.037 A 
ATOM     25  C   UNL A   1      46.766  27.386  26.445  1.00  0.00     0.037 A 
ATOM     26  C   UNL A   1      41.504  29.851  29.447  1.00  0.00     0.049 A 
ATOM     27  C   UNL A   1      46.448  28.719  27.077  1.00  0.00     0.074 A 
ATOM     28  C   UNL A   1      41.326  31.114  29.978  1.00  0.00     0.029 A 
ATOM     29  N   UNL A   1      42.825  29.763  29.036  1.00  0.00    -0.354 N 
ATOM     30  N   UNL A   1      45.350  29.121  27.672  1.00  0.00    -0.248 NA
ATOM     31  C   UNL A   1      47.522  29.723  27.063  1.00  0.00     0.031 C 
ATOM     32  C   UNL A   1      42.509  31.834  29.764  1.00  0.00     0.029 A 
ATOM     33  C   UNL A   1      43.445  30.985  29.192  1.00  0.00     0.049 A 
ATOM     34  H   UNL A   1      43.256  28.951  28.684  1.00  0.00     0.167 HD
ATOM     35  C   UNL A   1      45.616  30.405  28.138  1.00  0.00     0.074 A 
ATOM     36  C   UNL A   1      46.980  30.710  27.763  1.00  0.00     0.031 C 
ATOM     37  C   UNL A   1      44.809  31.257  28.822  1.00  0.00     0.037 A 
BRANCH  24  38
ATOM     38  C   UNL A   1      39.081  29.093  29.428  1.00  0.00     0.057 A 
ATOM     39  C   UNL A   1      38.256  29.600  28.411  1.00  0.00     0.134 A 
ATOM     40  C   UNL A   1      38.492  28.842  30.671  1.00  0.00     0.134 A 
ATOM     41  F   UNL A   1      38.758  29.861  27.195  1.00  0.00    -0.206 F 
ATOM     42  C   UNL A   1      36.902  29.863  28.629  1.00  0.00     0.040 A 
ATOM     43  C   UNL A   1      37.136  29.091  30.897  1.00  0.00     0.040 A 
ATOM     44  F   UNL A   1      39.224  28.367  31.688  1.00  0.00    -0.206 F 
ATOM     45  C   UNL A   1      36.338  29.607  29.877  1.00  0.00     0.006 A 
ENDBRANCH  24  38
BRANCH  25  46
ATOM     46  C   UNL A   1      48.116  27.120  25.896  1.00  0.00     0.057 A 
ATOM     47  C   UNL A   1      48.365  27.287  24.528  1.00  0.00     0.134 A 
ATOM     48  C   UNL A   1      49.172  26.679  26.698  1.00  0.00     0.134 A 
ATOM     49  F   UNL A   1      47.386  27.704  23.713  1.00  0.00    -0.206 F 
ATOM     50  C   UNL A   1      49.605  26.986  23.968  1.00  0.00     0.040 A 
ATOM     51  C   UNL A   1      50.426  26.392  26.154  1.00  0.00     0.040 A 
ATOM     52  F   UNL A   1      49.002  26.519  28.018  1.00  0.00    -0.206 F 
ATOM     53  C   UNL A   1      50.641  26.535  24.783  1.00  0.00     0.006 A 
ENDBRANCH  25  46
BRANCH  37  54
ATOM     54  C   UNL A   1      45.372  32.581  29.241  1.00  0.00     0.057 A 
ATOM     55  C   UNL A   1      45.245  33.729  28.451  1.00  0.00     0.134 A 
ATOM     56  C   UNL A   1      45.960  32.721  30.504  1.00  0.00     0.134 A 
ATOM     57  F   UNL A   1      44.694  33.661  27.230  1.00  0.00    -0.206 F 
ATOM     58  C   UNL A   1      45.698  34.972  28.899  1.00  0.00     0.040 A 
ATOM     59  C   UNL A   1      46.391  33.962  30.974  1.00  0.00     0.040 A 
ATOM     60  F   UNL A   1      46.099  31.661  31.313  1.00  0.00    -0.206 F 
ATOM     61  C   UNL A   1      46.262  35.091  30.167  1.00  0.00     0.006 A 
ENDBRANCH  37  54
ENDBRANCH  11  12
ENDBRANCH   4   6
ENDBRANCH   3   4
ENDBRANCH   2   3
ENDBRANCH   1   2
BRANCH   1  62
ATOM     62  O   UNL A   1      36.831  21.537  25.709  1.00  0.00    -0.461 OA
BRANCH  62  63
ATOM     63  C   UNL A   1      36.409  22.833  25.864  1.00  0.00     0.324 C 
ATOM     64  O   UNL A   1      37.157  23.766  26.129  1.00  0.00    -0.250 OA
BRANCH  63  65
ATOM     65  C   UNL A   1      34.870  22.939  25.768  1.00  0.00     0.183 C 
ATOM     66  C   UNL A   1      34.488  24.409  25.731  1.00  0.00     0.034 C 
ATOM     67  N   UNL A   1      34.294  22.376  24.476  1.00  0.00    -0.184 NA
ATOM     68  C   UNL A   1      34.664  24.782  24.270  1.00  0.00     0.019 C 
ATOM     69  C   UNL A   1      34.568  23.472  23.476  1.00  0.00     0.103 C 
BRANCH  67  70
ATOM     70  S   UNL A   1      32.646  21.825  24.512  1.00  0.00     0.244 S 
ATOM     71  O   UNL A   1      32.239  21.706  25.892  1.00  0.00    -0.207 OA
ATOM     72  O   UNL A   1      31.872  22.628  23.586  1.00  0.00    -0.207 OA
BRANCH  70  73
ATOM     73  C   UNL A   1      32.631  20.147  23.820  1.00  0.00     0.089 A 
ATOM     74  C   UNL A   1      32.299  19.947  22.477  1.00  0.00     0.022 A 
ATOM     75  C   UNL A   1      32.738  19.014  24.633  1.00  0.00     0.107 A 
ATOM     76  C   UNL A   1      32.140  18.647  21.965  1.00  0.00     0.008 A 
ATOM     77  C   UNL A   1      32.739  17.720  24.088  1.00  0.00     0.270 A 
ATOM     78  C   UNL A   1      32.392  17.527  22.758  1.00  0.00     0.086 A 
BRANCH  77  79
ATOM     79  N   UNL A   1      33.187  16.570  24.887  1.00  0.00     0.062 N 
ATOM     80  O   UNL A   1      33.062  16.629  26.118  1.00  0.00    -0.258 OA
ATOM     81  O   UNL A   1      33.632  15.589  24.278  1.00  0.00    -0.258 OA
ENDBRANCH  77  79
ENDBRANCH  70  73
ENDBRANCH  67  70
ENDBRANCH  63  65
ENDBRANCH  62  63
ENDBRANCH   1  62
TORSDOF 14
ENDMDL
