MODEL 1
REMARK VINA RESULT:     -11.9      0.000      0.000
REMARK SMILES O=C(OCCOC(=O)c1c(F)cccc1Oc1cccc(Cl)c1)c1ccc(-c2c3nc(c(-c4c(F)cccc4F)c4ccc([nH]4)c(-c4c(F)cccc4F)c4nc(c(-c5c(F)cccc5F)c5ccc2[nH]5)C=C4)C=C3)cc1
REMARK SMILES IDX 4 1 3 2 2 3 1 4 24 5 25 6 77 7 26 8 76 9 27 10 28 11 29 12
REMARK SMILES IDX 70 13 30 14 75 15 69 16 71 17 31 18 74 19 68 20 67 21 32 23
REMARK SMILES IDX 58 24 41 25 57 26 42 27 45 28 56 29 72 30 43 31 44 32 55 34
REMARK SMILES IDX 73 35 46 36 33 37 34 38 39 39 35 40 36 41 38 42 40 43 37 44
REMARK SMILES IDX 59 45 60 46 65 47 61 48 62 49 64 50 66 51 63 52 47 53 48 54
REMARK SMILES IDX 53 55 49 56 50 57 52 58 54 59 51 60 5 61 6 62 7 63 8 64 9 65
REMARK SMILES IDX 10 66 15 67 11 68 12 69 14 70 13 71 16 72 17 73 18 74 23 75
REMARK SMILES IDX 19 76 21 77 20 78 22 79
REMARK H PARENT 71 22 45 33
REMARK Flexibility Score: inf
ROOT
ATOM      1  C   UNL A   1      32.404  30.399  25.843  1.00  0.00     0.275 C 
ENDROOT
BRANCH   1   2
ATOM      2  O   UNL A   1      32.771  30.496  27.219  1.00  0.00    -0.458 OA
BRANCH   2   3
ATOM      3  C   UNL A   1      33.400  31.651  27.553  1.00  0.00     0.338 C 
ATOM      4  O   UNL A   1      32.993  32.780  27.361  1.00  0.00    -0.246 OA
BRANCH   3   5
ATOM      5  C   UNL A   1      34.795  31.301  27.907  1.00  0.00     0.060 A 
ATOM      6  C   UNL A   1      35.765  32.302  27.966  1.00  0.00     0.016 A 
ATOM      7  C   UNL A   1      35.085  30.007  28.362  1.00  0.00     0.016 A 
ATOM      8  C   UNL A   1      36.996  32.026  28.524  1.00  0.00     0.010 A 
ATOM      9  C   UNL A   1      36.318  29.729  28.946  1.00  0.00     0.010 A 
ATOM     10  C   UNL A   1      37.267  30.748  29.030  1.00  0.00    -0.014 A 
BRANCH  10  11
ATOM     11  C   UNL A   1      38.610  30.548  29.589  1.00  0.00     0.031 A 
ATOM     12  C   UNL A   1      38.862  31.055  30.966  1.00  0.00     0.074 A 
ATOM     13  C   UNL A   1      39.448  29.717  28.947  1.00  0.00     0.049 A 
ATOM     14  N   UNL A   1      39.740  30.642  31.836  1.00  0.00    -0.248 NA
ATOM     15  C   UNL A   1      37.974  32.124  31.452  1.00  0.00     0.031 C 
ATOM     16  C   UNL A   1      39.218  29.161  27.614  1.00  0.00     0.029 A 
ATOM     17  N   UNL A   1      40.617  29.137  29.355  1.00  0.00    -0.354 N 
ATOM     18  C   UNL A   1      39.458  31.344  32.998  1.00  0.00     0.074 A 
ATOM     19  C   UNL A   1      38.383  32.264  32.704  1.00  0.00     0.031 C 
ATOM     20  C   UNL A   1      40.205  28.302  27.316  1.00  0.00     0.029 A 
ATOM     21  C   UNL A   1      41.111  28.222  28.456  1.00  0.00     0.049 A 
ATOM     22  H   UNL A   1      41.062  29.355  30.207  1.00  0.00     0.167 HD
ATOM     23  C   UNL A   1      40.030  31.186  34.210  1.00  0.00     0.037 A 
ATOM     24  C   UNL A   1      42.147  27.371  28.576  1.00  0.00     0.037 A 
ATOM     25  C   UNL A   1      41.126  30.288  34.445  1.00  0.00     0.049 A 
ATOM     26  C   UNL A   1      42.831  27.293  29.912  1.00  0.00     0.074 A 
ATOM     27  C   UNL A   1      41.836  30.072  35.610  1.00  0.00     0.029 A 
ATOM     28  N   UNL A   1      41.680  29.464  33.472  1.00  0.00    -0.354 N 
ATOM     29  N   UNL A   1      42.530  27.918  31.027  1.00  0.00    -0.248 NA
ATOM     30  C   UNL A   1      43.972  26.378  30.022  1.00  0.00     0.031 C 
ATOM     31  C   UNL A   1      42.849  29.149  35.329  1.00  0.00     0.029 A 
ATOM     32  C   UNL A   1      42.744  28.758  34.000  1.00  0.00     0.049 A 
ATOM     33  H   UNL A   1      41.362  29.394  32.542  1.00  0.00     0.167 HD
ATOM     34  C   UNL A   1      43.430  27.462  31.977  1.00  0.00     0.074 A 
ATOM     35  C   UNL A   1      44.275  26.488  31.309  1.00  0.00     0.031 C 
ATOM     36  C   UNL A   1      43.558  27.810  33.282  1.00  0.00     0.037 A 
BRANCH  23  37
ATOM     37  C   UNL A   1      39.482  31.999  35.341  1.00  0.00     0.057 A 
ATOM     38  C   UNL A   1      38.486  31.487  36.179  1.00  0.00     0.134 A 
ATOM     39  C   UNL A   1      39.937  33.300  35.592  1.00  0.00     0.134 A 
ATOM     40  F   UNL A   1      38.018  30.243  36.000  1.00  0.00    -0.206 F 
ATOM     41  C   UNL A   1      37.952  32.247  37.223  1.00  0.00     0.040 A 
ATOM     42  C   UNL A   1      39.422  34.064  36.641  1.00  0.00     0.040 A 
ATOM     43  F   UNL A   1      40.909  33.839  34.840  1.00  0.00    -0.206 F 
ATOM     44  C   UNL A   1      38.421  33.538  37.457  1.00  0.00     0.006 A 
ENDBRANCH  23  37
BRANCH  24  45
ATOM     45  C   UNL A   1      42.538  26.507  27.433  1.00  0.00     0.057 A 
ATOM     46  C   UNL A   1      42.018  25.211  27.300  1.00  0.00     0.134 A 
ATOM     47  C   UNL A   1      43.450  26.932  26.461  1.00  0.00     0.134 A 
ATOM     48  F   UNL A   1      41.147  24.736  28.203  1.00  0.00    -0.206 F 
ATOM     49  C   UNL A   1      42.395  24.370  26.252  1.00  0.00     0.040 A 
ATOM     50  C   UNL A   1      43.821  26.108  25.394  1.00  0.00     0.040 A 
ATOM     51  F   UNL A   1      43.981  28.162  26.524  1.00  0.00    -0.206 F 
ATOM     52  C   UNL A   1      43.296  24.821  25.291  1.00  0.00     0.006 A 
ENDBRANCH  24  45
BRANCH  36  53
ATOM     53  C   UNL A   1      44.658  27.146  34.050  1.00  0.00     0.057 A 
ATOM     54  C   UNL A   1      45.939  27.706  34.093  1.00  0.00     0.134 A 
ATOM     55  C   UNL A   1      44.458  25.915  34.685  1.00  0.00     0.134 A 
ATOM     56  F   UNL A   1      46.192  28.878  33.491  1.00  0.00    -0.206 F 
ATOM     57  C   UNL A   1      46.991  27.057  34.736  1.00  0.00     0.040 A 
ATOM     58  C   UNL A   1      45.496  25.268  35.353  1.00  0.00     0.040 A 
ATOM     59  F   UNL A   1      43.247  25.336  34.684  1.00  0.00    -0.206 F 
ATOM     60  C   UNL A   1      46.770  25.835  35.372  1.00  0.00     0.006 A 
ENDBRANCH  36  53
ENDBRANCH  10  11
ENDBRANCH   3   5
ENDBRANCH   2   3
ENDBRANCH   1   2
BRANCH   1  61
ATOM     61  C   UNL A   1      33.169  29.272  25.125  1.00  0.00     0.275 C 
BRANCH  61  62
ATOM     62  O   UNL A   1      32.839  29.162  23.725  1.00  0.00    -0.458 OA
BRANCH  62  63
ATOM     63  C   UNL A   1      32.756  27.932  23.162  1.00  0.00     0.345 C 
ATOM     64  O   UNL A   1      33.586  27.398  22.449  1.00  0.00    -0.246 OA
BRANCH  63  65
ATOM     65  C   UNL A   1      31.429  27.367  23.478  1.00  0.00     0.138 A 
ATOM     66  C   UNL A   1      31.374  26.511  24.590  1.00  0.00     0.141 A 
ATOM     67  C   UNL A   1      30.228  27.706  22.834  1.00  0.00     0.144 A 
ATOM     68  F   UNL A   1      32.482  26.225  25.291  1.00  0.00    -0.206 F 
ATOM     69  C   UNL A   1      30.171  25.972  25.045  1.00  0.00     0.040 A 
ATOM     70  C   UNL A   1      29.021  27.127  23.280  1.00  0.00     0.048 A 
ATOM     71  C   UNL A   1      28.992  26.261  24.373  1.00  0.00     0.007 A 
BRANCH  67  72
ATOM     72  O   UNL A   1      30.035  28.727  21.930  1.00  0.00    -0.456 OA
BRANCH  72  73
ATOM     73  C   UNL A   1      29.419  29.884  22.326  1.00  0.00     0.128 A 
ATOM     74  C   UNL A   1      29.500  30.365  23.633  1.00  0.00     0.047 A 
ATOM     75  C   UNL A   1      28.884  30.687  21.319  1.00  0.00     0.067 A 
ATOM     76  C   UNL A   1      28.943  31.610  23.950  1.00  0.00     0.005 A 
ATOM     77  C   UNL A   1      28.336  31.924  21.637  1.00  0.00     0.044 A 
ATOM     78  C   UNL A   1      28.349  32.385  22.951  1.00  0.00     0.021 A 
ATOM     79  Cl  UNL A   1      27.657  32.898  20.392  1.00  0.00    -0.084 Cl
ENDBRANCH  72  73
ENDBRANCH  67  72
ENDBRANCH  63  65
ENDBRANCH  62  63
ENDBRANCH  61  62
ENDBRANCH   1  61
TORSDOF 13
ENDMDL
MODEL 2
REMARK VINA RESULT:     -11.8      5.233     10.038
REMARK SMILES O=C(OCCOC(=O)c1c(F)cccc1Oc1cccc(Cl)c1)c1ccc(-c2c3nc(c(-c4c(F)cccc4F)c4ccc([nH]4)c(-c4c(F)cccc4F)c4nc(c(-c5c(F)cccc5F)c5ccc2[nH]5)C=C4)C=C3)cc1
REMARK SMILES IDX 4 1 3 2 2 3 1 4 24 5 25 6 77 7 26 8 76 9 27 10 28 11 29 12
REMARK SMILES IDX 70 13 30 14 75 15 69 16 71 17 31 18 74 19 68 20 67 21 32 23
REMARK SMILES IDX 58 24 41 25 57 26 42 27 45 28 56 29 72 30 43 31 44 32 55 34
REMARK SMILES IDX 73 35 46 36 33 37 34 38 39 39 35 40 36 41 38 42 40 43 37 44
REMARK SMILES IDX 59 45 60 46 65 47 61 48 62 49 64 50 66 51 63 52 47 53 48 54
REMARK SMILES IDX 53 55 49 56 50 57 52 58 54 59 51 60 5 61 6 62 7 63 8 64 9 65
REMARK SMILES IDX 10 66 15 67 11 68 12 69 14 70 13 71 16 72 17 73 18 74 23 75
REMARK SMILES IDX 19 76 21 77 20 78 22 79
REMARK H PARENT 71 22 45 33
REMARK Flexibility Score: inf
ROOT
ATOM      1  C   UNL A   1      46.277  24.437  25.264  1.00  0.00     0.275 C 
ENDROOT
BRANCH   1   2
ATOM      2  O   UNL A   1      45.107  25.175  24.914  1.00  0.00    -0.458 OA
BRANCH   2   3
ATOM      3  C   UNL A   1      45.246  26.522  25.001  1.00  0.00     0.338 C 
ATOM      4  O   UNL A   1      46.140  27.192  24.521  1.00  0.00    -0.246 OA
BRANCH   3   5
ATOM      5  C   UNL A   1      44.297  26.992  26.037  1.00  0.00     0.060 A 
ATOM      6  C   UNL A   1      43.338  26.114  26.545  1.00  0.00     0.016 A 
ATOM      7  C   UNL A   1      44.491  28.247  26.629  1.00  0.00     0.016 A 
ATOM      8  C   UNL A   1      42.619  26.466  27.667  1.00  0.00     0.010 A 
ATOM      9  C   UNL A   1      43.783  28.599  27.775  1.00  0.00     0.010 A 
ATOM     10  C   UNL A   1      42.852  27.698  28.294  1.00  0.00    -0.014 A 
BRANCH  10  11
ATOM     11  C   UNL A   1      42.026  27.988  29.472  1.00  0.00     0.031 A 
ATOM     12  C   UNL A   1      42.647  27.793  30.811  1.00  0.00     0.074 A 
ATOM     13  C   UNL A   1      40.865  28.639  29.289  1.00  0.00     0.049 A 
ATOM     14  N   UNL A   1      42.344  28.369  31.939  1.00  0.00    -0.248 NA
ATOM     15  C   UNL A   1      43.798  26.876  30.881  1.00  0.00     0.031 C 
ATOM     16  C   UNL A   1      40.242  28.892  27.989  1.00  0.00     0.029 A 
ATOM     17  N   UNL A   1      40.044  29.270  30.182  1.00  0.00    -0.354 N 
ATOM     18  C   UNL A   1      43.314  27.948  32.835  1.00  0.00     0.074 A 
ATOM     19  C   UNL A   1      44.169  27.008  32.145  1.00  0.00     0.031 C 
ATOM     20  C   UNL A   1      39.144  29.642  28.163  1.00  0.00     0.029 A 
ATOM     21  C   UNL A   1      39.013  29.954  29.582  1.00  0.00     0.049 A 
ATOM     22  H   UNL A   1      40.177  29.237  31.158  1.00  0.00     0.167 HD
ATOM     23  C   UNL A   1      43.488  28.358  34.110  1.00  0.00     0.037 A 
ATOM     24  C   UNL A   1      38.105  30.788  30.121  1.00  0.00     0.037 A 
ATOM     25  C   UNL A   1      42.587  29.262  34.767  1.00  0.00     0.049 A 
ATOM     26  C   UNL A   1      38.266  31.145  31.573  1.00  0.00     0.074 A 
ATOM     27  C   UNL A   1      42.612  29.716  36.071  1.00  0.00     0.029 A 
ATOM     28  N   UNL A   1      41.478  29.839  34.158  1.00  0.00    -0.354 N 
ATOM     29  N   UNL A   1      39.216  30.788  32.406  1.00  0.00    -0.248 NA
ATOM     30  C   UNL A   1      37.257  32.038  32.153  1.00  0.00     0.031 C 
ATOM     31  C   UNL A   1      41.493  30.532  36.263  1.00  0.00     0.029 A 
ATOM     32  C   UNL A   1      40.794  30.622  35.066  1.00  0.00     0.049 A 
ATOM     33  H   UNL A   1      41.220  29.709  33.216  1.00  0.00     0.167 HD
ATOM     34  C   UNL A   1      38.932  31.425  33.605  1.00  0.00     0.074 A 
ATOM     35  C   UNL A   1      37.731  32.209  33.380  1.00  0.00     0.031 C 
ATOM     36  C   UNL A   1      39.594  31.371  34.788  1.00  0.00     0.037 A 
BRANCH  23  37
ATOM     37  C   UNL A   1      44.676  27.826  34.848  1.00  0.00     0.057 A 
ATOM     38  C   UNL A   1      44.591  26.647  35.595  1.00  0.00     0.134 A 
ATOM     39  C   UNL A   1      45.908  28.493  34.826  1.00  0.00     0.134 A 
ATOM     40  F   UNL A   1      43.444  25.953  35.644  1.00  0.00    -0.206 F 
ATOM     41  C   UNL A   1      45.688  26.154  36.305  1.00  0.00     0.040 A 
ATOM     42  C   UNL A   1      47.016  28.003  35.520  1.00  0.00     0.040 A 
ATOM     43  F   UNL A   1      46.061  29.616  34.106  1.00  0.00    -0.206 F 
ATOM     44  C   UNL A   1      46.905  26.833  36.268  1.00  0.00     0.006 A 
ENDBRANCH  23  37
BRANCH  24  45
ATOM     45  C   UNL A   1      37.033  31.370  29.275  1.00  0.00     0.057 A 
ATOM     46  C   UNL A   1      35.922  30.603  28.893  1.00  0.00     0.134 A 
ATOM     47  C   UNL A   1      37.091  32.686  28.805  1.00  0.00     0.134 A 
ATOM     48  F   UNL A   1      35.808  29.329  29.299  1.00  0.00    -0.206 F 
ATOM     49  C   UNL A   1      34.918  31.119  28.073  1.00  0.00     0.040 A 
ATOM     50  C   UNL A   1      36.082  33.223  28.001  1.00  0.00     0.040 A 
ATOM     51  F   UNL A   1      38.122  33.477  29.138  1.00  0.00    -0.206 F 
ATOM     52  C   UNL A   1      34.994  32.436  27.628  1.00  0.00     0.006 A 
ENDBRANCH  24  45
BRANCH  36  53
ATOM     53  C   UNL A   1      39.016  32.165  35.917  1.00  0.00     0.057 A 
ATOM     54  C   UNL A   1      39.372  33.505  36.107  1.00  0.00     0.134 A 
ATOM     55  C   UNL A   1      38.160  31.574  36.855  1.00  0.00     0.134 A 
ATOM     56  F   UNL A   1      40.199  34.118  35.247  1.00  0.00    -0.206 F 
ATOM     57  C   UNL A   1      38.904  34.230  37.200  1.00  0.00     0.040 A 
ATOM     58  C   UNL A   1      37.665  32.298  37.939  1.00  0.00     0.040 A 
ATOM     59  F   UNL A   1      37.778  30.296  36.718  1.00  0.00    -0.206 F 
ATOM     60  C   UNL A   1      38.045  33.627  38.118  1.00  0.00     0.006 A 
ENDBRANCH  36  53
ENDBRANCH  10  11
ENDBRANCH   3   5
ENDBRANCH   2   3
ENDBRANCH   1   2
BRANCH   1  61
ATOM     61  C   UNL A   1      45.981  22.933  25.414  1.00  0.00     0.275 C 
BRANCH  61  62
ATOM     62  O   UNL A   1      44.692  22.663  26.004  1.00  0.00    -0.458 OA
BRANCH  62  63
ATOM     63  C   UNL A   1      43.697  22.178  25.220  1.00  0.00     0.345 C 
ATOM     64  O   UNL A   1      43.109  22.772  24.336  1.00  0.00    -0.246 OA
BRANCH  63  65
ATOM     65  C   UNL A   1      43.367  20.815  25.683  1.00  0.00     0.138 A 
ATOM     66  C   UNL A   1      44.144  19.777  25.143  1.00  0.00     0.141 A 
ATOM     67  C   UNL A   1      42.435  20.502  26.685  1.00  0.00     0.144 A 
ATOM     68  F   UNL A   1      45.107  20.037  24.245  1.00  0.00    -0.206 F 
ATOM     69  C   UNL A   1      43.989  18.453  25.552  1.00  0.00     0.040 A 
ATOM     70  C   UNL A   1      42.262  19.155  27.067  1.00  0.00     0.048 A 
ATOM     71  C   UNL A   1      43.028  18.135  26.500  1.00  0.00     0.007 A 
BRANCH  67  72
ATOM     72  O   UNL A   1      41.796  21.387  27.526  1.00  0.00    -0.456 OA
BRANCH  72  73
ATOM     73  C   UNL A   1      40.716  22.099  27.078  1.00  0.00     0.128 A 
ATOM     74  C   UNL A   1      39.721  21.527  26.284  1.00  0.00     0.047 A 
ATOM     75  C   UNL A   1      40.529  23.367  27.626  1.00  0.00     0.067 A 
ATOM     76  C   UNL A   1      38.585  22.275  25.951  1.00  0.00     0.005 A 
ATOM     77  C   UNL A   1      39.398  24.105  27.295  1.00  0.00     0.044 A 
ATOM     78  C   UNL A   1      38.430  23.571  26.448  1.00  0.00     0.021 A 
ATOM     79  Cl  UNL A   1      39.187  25.679  27.957  1.00  0.00    -0.084 Cl
ENDBRANCH  72  73
ENDBRANCH  67  72
ENDBRANCH  63  65
ENDBRANCH  62  63
ENDBRANCH  61  62
ENDBRANCH   1  61
TORSDOF 13
ENDMDL
MODEL 3
REMARK VINA RESULT:     -11.7      5.674     10.000
REMARK SMILES O=C(OCCOC(=O)c1c(F)cccc1Oc1cccc(Cl)c1)c1ccc(-c2c3nc(c(-c4c(F)cccc4F)c4ccc([nH]4)c(-c4c(F)cccc4F)c4nc(c(-c5c(F)cccc5F)c5ccc2[nH]5)C=C4)C=C3)cc1
REMARK SMILES IDX 4 1 3 2 2 3 1 4 24 5 25 6 77 7 26 8 76 9 27 10 28 11 29 12
REMARK SMILES IDX 70 13 30 14 75 15 69 16 71 17 31 18 74 19 68 20 67 21 32 23
REMARK SMILES IDX 58 24 41 25 57 26 42 27 45 28 56 29 72 30 43 31 44 32 55 34
REMARK SMILES IDX 73 35 46 36 33 37 34 38 39 39 35 40 36 41 38 42 40 43 37 44
REMARK SMILES IDX 59 45 60 46 65 47 61 48 62 49 64 50 66 51 63 52 47 53 48 54
REMARK SMILES IDX 53 55 49 56 50 57 52 58 54 59 51 60 5 61 6 62 7 63 8 64 9 65
REMARK SMILES IDX 10 66 15 67 11 68 12 69 14 70 13 71 16 72 17 73 18 74 23 75
REMARK SMILES IDX 19 76 21 77 20 78 22 79
REMARK H PARENT 71 22 45 33
REMARK Flexibility Score: inf
ROOT
ATOM      1  C   UNL A   1      37.722  20.291  24.905  1.00  0.00     0.275 C 
ENDROOT
BRANCH   1   2
ATOM      2  O   UNL A   1      38.404  21.435  25.418  1.00  0.00    -0.458 OA
BRANCH   2   3
ATOM      3  C   UNL A   1      39.562  21.154  26.068  1.00  0.00     0.338 C 
ATOM      4  O   UNL A   1      40.038  20.052  26.258  1.00  0.00    -0.246 OA
BRANCH   3   5
ATOM      5  C   UNL A   1      39.980  22.391  26.768  1.00  0.00     0.060 A 
ATOM      6  C   UNL A   1      40.952  22.324  27.768  1.00  0.00     0.016 A 
ATOM      7  C   UNL A   1      39.537  23.633  26.293  1.00  0.00     0.016 A 
ATOM      8  C   UNL A   1      41.514  23.489  28.249  1.00  0.00     0.010 A 
ATOM      9  C   UNL A   1      40.117  24.810  26.759  1.00  0.00     0.010 A 
ATOM     10  C   UNL A   1      41.113  24.728  27.734  1.00  0.00    -0.014 A 
BRANCH  10  11
ATOM     11  C   UNL A   1      41.757  25.909  28.321  1.00  0.00     0.031 A 
ATOM     12  C   UNL A   1      43.153  26.211  27.898  1.00  0.00     0.074 A 
ATOM     13  C   UNL A   1      40.992  26.779  29.000  1.00  0.00     0.049 A 
ATOM     14  N   UNL A   1      43.769  27.358  27.888  1.00  0.00    -0.248 NA
ATOM     15  C   UNL A   1      43.939  25.088  27.359  1.00  0.00     0.031 C 
ATOM     16  C   UNL A   1      39.604  26.542  29.396  1.00  0.00     0.029 A 
ATOM     17  N   UNL A   1      41.243  28.060  29.409  1.00  0.00    -0.354 N 
ATOM     18  C   UNL A   1      44.985  27.112  27.269  1.00  0.00     0.074 A 
ATOM     19  C   UNL A   1      45.056  25.696  26.989  1.00  0.00     0.031 C 
ATOM     20  C   UNL A   1      39.114  27.648  29.976  1.00  0.00     0.029 A 
ATOM     21  C   UNL A   1      40.144  28.681  29.953  1.00  0.00     0.049 A 
ATOM     22  H   UNL A   1      42.123  28.494  29.323  1.00  0.00     0.167 HD
ATOM     23  C   UNL A   1      45.931  28.015  26.932  1.00  0.00     0.037 A 
ATOM     24  C   UNL A   1      39.978  29.962  30.331  1.00  0.00     0.037 A 
ATOM     25  C   UNL A   1      45.836  29.407  27.270  1.00  0.00     0.049 A 
ATOM     26  C   UNL A   1      41.094  30.923  30.034  1.00  0.00     0.074 A 
ATOM     27  C   UNL A   1      46.747  30.419  27.040  1.00  0.00     0.029 A 
ATOM     28  N   UNL A   1      44.756  29.976  27.935  1.00  0.00    -0.354 N 
ATOM     29  N   UNL A   1      42.222  30.702  29.399  1.00  0.00    -0.248 NA
ATOM     30  C   UNL A   1      40.910  32.311  30.470  1.00  0.00     0.031 C 
ATOM     31  C   UNL A   1      46.237  31.592  27.605  1.00  0.00     0.029 A 
ATOM     32  C   UNL A   1      44.988  31.321  28.150  1.00  0.00     0.049 A 
ATOM     33  H   UNL A   1      43.944  29.492  28.211  1.00  0.00     0.167 HD
ATOM     34  C   UNL A   1      42.877  31.923  29.344  1.00  0.00     0.074 A 
ATOM     35  C   UNL A   1      42.005  32.887  29.991  1.00  0.00     0.031 C 
ATOM     36  C   UNL A   1      44.087  32.230  28.813  1.00  0.00     0.037 A 
BRANCH  23  37
ATOM     37  C   UNL A   1      47.122  27.514  26.177  1.00  0.00     0.057 A 
ATOM     38  C   UNL A   1      47.126  27.478  24.779  1.00  0.00     0.134 A 
ATOM     39  C   UNL A   1      48.267  27.054  26.841  1.00  0.00     0.134 A 
ATOM     40  F   UNL A   1      46.066  27.918  24.083  1.00  0.00    -0.206 F 
ATOM     41  C   UNL A   1      48.224  26.992  24.066  1.00  0.00     0.040 A 
ATOM     42  C   UNL A   1      49.376  26.579  26.139  1.00  0.00     0.040 A 
ATOM     43  F   UNL A   1      48.336  27.086  28.181  1.00  0.00    -0.206 F 
ATOM     44  C   UNL A   1      49.354  26.541  24.746  1.00  0.00     0.006 A 
ENDBRANCH  23  37
BRANCH  24  45
ATOM     45  C   UNL A   1      38.704  30.395  30.959  1.00  0.00     0.057 A 
ATOM     46  C   UNL A   1      37.673  30.949  30.186  1.00  0.00     0.134 A 
ATOM     47  C   UNL A   1      38.486  30.294  32.337  1.00  0.00     0.134 A 
ATOM     48  F   UNL A   1      37.821  31.086  28.860  1.00  0.00    -0.206 F 
ATOM     49  C   UNL A   1      36.480  31.392  30.760  1.00  0.00     0.040 A 
ATOM     50  C   UNL A   1      37.287  30.714  32.922  1.00  0.00     0.040 A 
ATOM     51  F   UNL A   1      39.427  29.767  33.133  1.00  0.00    -0.206 F 
ATOM     52  C   UNL A   1      36.282  31.269  32.133  1.00  0.00     0.006 A 
ENDBRANCH  24  45
BRANCH  36  53
ATOM     53  C   UNL A   1      44.531  33.654  28.933  1.00  0.00     0.057 A 
ATOM     54  C   UNL A   1      45.249  34.088  30.054  1.00  0.00     0.134 A 
ATOM     55  C   UNL A   1      44.184  34.606  27.967  1.00  0.00     0.134 A 
ATOM     56  F   UNL A   1      45.598  33.222  31.017  1.00  0.00    -0.206 F 
ATOM     57  C   UNL A   1      45.598  35.427  30.215  1.00  0.00     0.040 A 
ATOM     58  C   UNL A   1      44.549  35.943  28.106  1.00  0.00     0.040 A 
ATOM     59  F   UNL A   1      43.505  34.244  26.868  1.00  0.00    -0.206 F 
ATOM     60  C   UNL A   1      45.250  36.359  29.237  1.00  0.00     0.006 A 
ENDBRANCH  36  53
ENDBRANCH  10  11
ENDBRANCH   3   5
ENDBRANCH   2   3
ENDBRANCH   1   2
BRANCH   1  61
ATOM     61  C   UNL A   1      36.202  20.380  25.134  1.00  0.00     0.275 C 
BRANCH  61  62
ATOM     62  O   UNL A   1      35.827  21.415  26.066  1.00  0.00    -0.458 OA
BRANCH  62  63
ATOM     63  C   UNL A   1      34.519  21.567  26.390  1.00  0.00     0.345 C 
ATOM     64  O   UNL A   1      34.007  21.364  27.476  1.00  0.00    -0.246 OA
BRANCH  63  65
ATOM     65  C   UNL A   1      33.779  21.934  25.166  1.00  0.00     0.138 A 
ATOM     66  C   UNL A   1      34.298  23.016  24.436  1.00  0.00     0.141 A 
ATOM     67  C   UNL A   1      32.692  21.226  24.632  1.00  0.00     0.144 A 
ATOM     68  F   UNL A   1      35.389  23.672  24.862  1.00  0.00    -0.206 F 
ATOM     69  C   UNL A   1      33.742  23.417  23.221  1.00  0.00     0.040 A 
ATOM     70  C   UNL A   1      32.115  21.661  23.420  1.00  0.00     0.048 A 
ATOM     71  C   UNL A   1      32.631  22.753  22.722  1.00  0.00     0.007 A 
BRANCH  67  72
ATOM     72  O   UNL A   1      32.230  19.992  25.036  1.00  0.00    -0.456 OA
BRANCH  72  73
ATOM     73  C   UNL A   1      32.682  18.856  24.420  1.00  0.00     0.128 A 
ATOM     74  C   UNL A   1      32.420  18.579  23.077  1.00  0.00     0.047 A 
ATOM     75  C   UNL A   1      33.605  18.084  25.125  1.00  0.00     0.067 A 
ATOM     76  C   UNL A   1      33.003  17.458  22.474  1.00  0.00     0.005 A 
ATOM     77  C   UNL A   1      34.184  16.973  24.521  1.00  0.00     0.044 A 
ATOM     78  C   UNL A   1      33.877  16.647  23.203  1.00  0.00     0.021 A 
ATOM     79  Cl  UNL A   1      35.303  16.012  25.407  1.00  0.00    -0.084 Cl
ENDBRANCH  72  73
ENDBRANCH  67  72
ENDBRANCH  63  65
ENDBRANCH  62  63
ENDBRANCH  61  62
ENDBRANCH   1  61
TORSDOF 13
ENDMDL
