MODEL 1
REMARK VINA RESULT:     -12.2      0.000      0.000
REMARK SMILES O=C(COc1ccc(N2C[C@@H](C(=O)OCCOC(=O)c3ccc(-c4c5nc(c(-c6c(F)cccc6F)c6ccc([nH]6)c(-c6c(F)cccc6F)c6nc(c(-c7c(F)cccc7F)c7ccc4[nH]7)C=C6)C=C5)cc3)CC2=O)cc1)Nc1ccc(Cl)cc1Cl
REMARK SMILES IDX 14 1 12 2 13 3 11 4 9 5 10 6 75 7 74 8 76 9 8 10 5 11 6 12
REMARK SMILES IDX 78 13 7 14 77 15 4 16 3 17 2 18 1 19 79 20 80 22 81 23 86 24
REMARK SMILES IDX 82 25 85 26 87 27 83 28 84 29 15 30 16 31 17 32 18 33 19 34
REMARK SMILES IDX 20 35 21 36 73 37 22 38 72 39 23 40 24 41 25 42 66 43 26 44
REMARK SMILES IDX 71 45 65 46 67 47 27 48 70 49 64 50 63 51 28 53 54 54 37 55
REMARK SMILES IDX 53 56 38 57 41 58 52 59 68 60 39 61 40 62 51 64 69 65 42 66
REMARK SMILES IDX 29 67 30 68 35 69 31 70 32 71 34 72 36 73 33 74 55 75 56 76
REMARK SMILES IDX 61 77 57 78 58 79 60 80 62 81 59 82 43 83 44 84 49 85 45 86
REMARK SMILES IDX 46 87 48 88 50 89 47 90
REMARK H PARENT 79 21 67 52 41 63
REMARK Flexibility Score: inf
ROOT
ATOM      1  O   UNL A   1      42.391  21.032  26.264  1.00  0.00    -0.462 OA
ENDROOT
BRANCH   1   2
ATOM      2  C   UNL A   1      41.284  20.264  26.136  1.00  0.00     0.311 C 
ATOM      3  O   UNL A   1      41.274  19.104  25.742  1.00  0.00    -0.252 OA
BRANCH   2   4
ATOM      4  C   UNL A   1      40.028  20.970  26.570  1.00  0.00     0.128 C 
ATOM      5  N   UNL A   1      38.120  21.984  25.730  1.00  0.00    -0.312 N 
ATOM      6  C   UNL A   1      38.959  20.836  25.511  1.00  0.00     0.141 C 
ATOM      7  C   UNL A   1      38.757  22.958  26.507  1.00  0.00     0.227 C 
ATOM      8  C   UNL A   1      40.134  22.461  26.837  1.00  0.00     0.117 C 
ATOM      9  O   UNL A   1      38.331  24.043  26.872  1.00  0.00    -0.274 OA
BRANCH   5  10
ATOM     10  C   UNL A   1      36.908  22.170  25.037  1.00  0.00     0.044 A 
ATOM     11  C   UNL A   1      34.444  22.628  23.775  1.00  0.00     0.120 A 
ATOM     12  C   UNL A   1      35.623  23.018  23.149  1.00  0.00     0.048 A 
ATOM     13  C   UNL A   1      34.501  21.969  24.998  1.00  0.00     0.048 A 
ATOM     14  C   UNL A   1      36.853  22.813  23.791  1.00  0.00     0.030 A 
ATOM     15  C   UNL A   1      35.718  21.740  25.621  1.00  0.00     0.030 A 
BRANCH  11  16
ATOM     16  O   UNL A   1      33.246  22.819  23.140  1.00  0.00    -0.484 OA
BRANCH  16  17
ATOM     17  C   UNL A   1      32.286  23.448  23.998  1.00  0.00     0.329 C 
BRANCH  17  18
ATOM     18  C   UNL A   1      32.258  24.980  23.909  1.00  0.00     0.262 C 
ATOM     19  O   UNL A   1      33.010  25.582  23.150  1.00  0.00    -0.271 OA
ATOM     20  N   UNL A   1      31.388  25.545  24.837  1.00  0.00    -0.322 N 
ATOM     21  H   UNL A   1      30.751  24.947  25.290  1.00  0.00     0.170 HD
BRANCH  20  22
ATOM     22  C   UNL A   1      31.356  26.919  25.175  1.00  0.00     0.060 A 
ATOM     23  C   UNL A   1      31.792  27.228  26.475  1.00  0.00     0.029 A 
ATOM     24  C   UNL A   1      30.977  27.970  24.323  1.00  0.00     0.066 A 
ATOM     25  C   UNL A   1      31.945  28.555  26.883  1.00  0.00     0.023 A 
ATOM     26  C   UNL A   1      31.126  29.301  24.738  1.00  0.00     0.043 A 
ATOM     27  Cl  UNL A   1      30.139  27.722  22.830  1.00  0.00    -0.082 Cl
ATOM     28  C   UNL A   1      31.625  29.585  26.006  1.00  0.00     0.042 A 
ATOM     29  Cl  UNL A   1      31.820  31.221  26.504  1.00  0.00    -0.084 Cl
ENDBRANCH  20  22
ENDBRANCH  17  18
ENDBRANCH  16  17
ENDBRANCH  11  16
ENDBRANCH   5  10
ENDBRANCH   2   4
ENDBRANCH   1   2
BRANCH   1  30
ATOM     30  C   UNL A   1      43.526  20.695  25.446  1.00  0.00     0.274 C 
BRANCH  30  31
ATOM     31  C   UNL A   1      44.201  21.963  24.914  1.00  0.00     0.275 C 
BRANCH  31  32
ATOM     32  O   UNL A   1      43.364  23.126  25.085  1.00  0.00    -0.458 OA
BRANCH  32  33
ATOM     33  C   UNL A   1      44.035  24.288  25.264  1.00  0.00     0.338 C 
ATOM     34  O   UNL A   1      44.988  24.699  24.626  1.00  0.00    -0.246 OA
BRANCH  33  35
ATOM     35  C   UNL A   1      43.354  25.115  26.270  1.00  0.00     0.060 A 
ATOM     36  C   UNL A   1      43.679  26.470  26.313  1.00  0.00     0.016 A 
ATOM     37  C   UNL A   1      42.514  24.561  27.234  1.00  0.00     0.016 A 
ATOM     38  C   UNL A   1      43.210  27.279  27.337  1.00  0.00     0.010 A 
ATOM     39  C   UNL A   1      42.011  25.384  28.251  1.00  0.00     0.010 A 
ATOM     40  C   UNL A   1      42.371  26.742  28.317  1.00  0.00    -0.014 A 
BRANCH  40  41
ATOM     41  C   UNL A   1      41.920  27.613  29.427  1.00  0.00     0.031 A 
ATOM     42  C   UNL A   1      42.681  27.634  30.719  1.00  0.00     0.074 A 
ATOM     43  C   UNL A   1      40.861  28.426  29.248  1.00  0.00     0.049 A 
ATOM     44  N   UNL A   1      42.395  28.252  31.835  1.00  0.00    -0.248 NA
ATOM     45  C   UNL A   1      43.929  26.857  30.762  1.00  0.00     0.031 C 
ATOM     46  C   UNL A   1      40.086  28.547  28.011  1.00  0.00     0.029 A 
ATOM     47  N   UNL A   1      40.262  29.312  30.106  1.00  0.00    -0.354 N 
ATOM     48  C   UNL A   1      43.405  27.911  32.726  1.00  0.00     0.074 A 
ATOM     49  C   UNL A   1      44.310  27.028  32.020  1.00  0.00     0.031 C 
ATOM     50  C   UNL A   1      39.124  29.465  28.186  1.00  0.00     0.029 A 
ATOM     51  C   UNL A   1      39.175  29.950  29.561  1.00  0.00     0.049 A 
ATOM     52  H   UNL A   1      40.581  29.475  31.023  1.00  0.00     0.167 HD
ATOM     53  C   UNL A   1      43.557  28.297  34.014  1.00  0.00     0.037 A 
ATOM     54  C   UNL A   1      38.298  30.804  30.120  1.00  0.00     0.037 A 
ATOM     55  C   UNL A   1      42.672  29.202  34.698  1.00  0.00     0.049 A 
ATOM     56  C   UNL A   1      38.460  31.176  31.566  1.00  0.00     0.074 A 
ATOM     57  C   UNL A   1      42.743  29.660  36.001  1.00  0.00     0.029 A 
ATOM     58  N   UNL A   1      41.555  29.793  34.127  1.00  0.00    -0.354 N 
ATOM     59  N   UNL A   1      39.393  30.812  32.412  1.00  0.00    -0.248 NA
ATOM     60  C   UNL A   1      37.436  32.060  32.140  1.00  0.00     0.031 C 
ATOM     61  C   UNL A   1      41.650  30.505  36.229  1.00  0.00     0.029 A 
ATOM     62  C   UNL A   1      40.919  30.600  35.055  1.00  0.00     0.049 A 
ATOM     63  H   UNL A   1      41.258  29.659  33.197  1.00  0.00     0.167 HD
ATOM     64  C   UNL A   1      39.080  31.435  33.613  1.00  0.00     0.074 A 
ATOM     65  C   UNL A   1      37.878  32.210  33.382  1.00  0.00     0.031 C 
ATOM     66  C   UNL A   1      39.726  31.365  34.802  1.00  0.00     0.037 A 
BRANCH  53  67
ATOM     67  C   UNL A   1      44.706  27.710  34.777  1.00  0.00     0.057 A 
ATOM     68  C   UNL A   1      44.594  26.500  35.474  1.00  0.00     0.134 A 
ATOM     69  C   UNL A   1      45.947  28.358  34.796  1.00  0.00     0.134 A 
ATOM     70  F   UNL A   1      43.427  25.841  35.508  1.00  0.00    -0.206 F 
ATOM     71  C   UNL A   1      45.674  25.965  36.178  1.00  0.00     0.040 A 
ATOM     72  C   UNL A   1      47.040  27.821  35.479  1.00  0.00     0.040 A 
ATOM     73  F   UNL A   1      46.119  29.519  34.147  1.00  0.00    -0.206 F 
ATOM     74  C   UNL A   1      46.904  26.624  36.177  1.00  0.00     0.006 A 
ENDBRANCH  53  67
BRANCH  54  75
ATOM     75  C   UNL A   1      37.171  31.338  29.318  1.00  0.00     0.057 A 
ATOM     76  C   UNL A   1      37.210  32.629  28.784  1.00  0.00     0.134 A 
ATOM     77  C   UNL A   1      36.029  30.568  29.067  1.00  0.00     0.134 A 
ATOM     78  F   UNL A   1      38.269  33.421  29.008  1.00  0.00    -0.206 F 
ATOM     79  C   UNL A   1      36.151  33.142  28.033  1.00  0.00     0.040 A 
ATOM     80  C   UNL A   1      34.972  31.058  28.299  1.00  0.00     0.040 A 
ATOM     81  F   UNL A   1      35.932  29.321  29.551  1.00  0.00    -0.206 F 
ATOM     82  C   UNL A   1      35.029  32.352  27.784  1.00  0.00     0.006 A 
ENDBRANCH  54  75
BRANCH  66  83
ATOM     83  C   UNL A   1      39.158  32.171  35.929  1.00  0.00     0.057 A 
ATOM     84  C   UNL A   1      38.263  31.616  36.851  1.00  0.00     0.134 A 
ATOM     85  C   UNL A   1      39.533  33.508  36.111  1.00  0.00     0.134 A 
ATOM     86  F   UNL A   1      37.855  30.344  36.721  1.00  0.00    -0.206 F 
ATOM     87  C   UNL A   1      37.745  32.368  37.906  1.00  0.00     0.040 A 
ATOM     88  C   UNL A   1      39.038  34.264  37.174  1.00  0.00     0.040 A 
ATOM     89  F   UNL A   1      40.391  34.096  35.263  1.00  0.00    -0.206 F 
ATOM     90  C   UNL A   1      38.138  33.695  38.072  1.00  0.00     0.006 A 
ENDBRANCH  66  83
ENDBRANCH  40  41
ENDBRANCH  33  35
ENDBRANCH  32  33
ENDBRANCH  31  32
ENDBRANCH  30  31
ENDBRANCH   1  30
TORSDOF 16
ENDMDL
MODEL 2
REMARK VINA RESULT:     -11.9      4.759     10.263
REMARK SMILES O=C(COc1ccc(N2C[C@@H](C(=O)OCCOC(=O)c3ccc(-c4c5nc(c(-c6c(F)cccc6F)c6ccc([nH]6)c(-c6c(F)cccc6F)c6nc(c(-c7c(F)cccc7F)c7ccc4[nH]7)C=C6)C=C5)cc3)CC2=O)cc1)Nc1ccc(Cl)cc1Cl
REMARK SMILES IDX 14 1 12 2 13 3 11 4 9 5 10 6 75 7 74 8 76 9 8 10 5 11 6 12
REMARK SMILES IDX 78 13 7 14 77 15 4 16 3 17 2 18 1 19 79 20 80 22 81 23 86 24
REMARK SMILES IDX 82 25 85 26 87 27 83 28 84 29 15 30 16 31 17 32 18 33 19 34
REMARK SMILES IDX 20 35 21 36 73 37 22 38 72 39 23 40 24 41 25 42 66 43 26 44
REMARK SMILES IDX 71 45 65 46 67 47 27 48 70 49 64 50 63 51 28 53 54 54 37 55
REMARK SMILES IDX 53 56 38 57 41 58 52 59 68 60 39 61 40 62 51 64 69 65 42 66
REMARK SMILES IDX 29 67 30 68 35 69 31 70 32 71 34 72 36 73 33 74 55 75 56 76
REMARK SMILES IDX 61 77 57 78 58 79 60 80 62 81 59 82 43 83 44 84 49 85 45 86
REMARK SMILES IDX 46 87 48 88 50 89 47 90
REMARK H PARENT 79 21 67 52 41 63
REMARK Flexibility Score: inf
ROOT
ATOM      1  O   UNL A   1      33.684  33.688  30.132  1.00  0.00    -0.462 OA
ENDROOT
BRANCH   1   2
ATOM      2  C   UNL A   1      33.388  34.029  28.855  1.00  0.00     0.311 C 
ATOM      3  O   UNL A   1      32.873  35.085  28.510  1.00  0.00    -0.252 OA
BRANCH   2   4
ATOM      4  C   UNL A   1      33.795  32.976  27.860  1.00  0.00     0.128 C 
ATOM      5  N   UNL A   1      33.282  30.825  27.166  1.00  0.00    -0.312 N 
ATOM      6  C   UNL A   1      32.640  32.042  27.584  1.00  0.00     0.141 C 
ATOM      7  C   UNL A   1      34.635  30.797  27.522  1.00  0.00     0.227 C 
ATOM      8  C   UNL A   1      34.951  32.072  28.248  1.00  0.00     0.117 C 
ATOM      9  O   UNL A   1      35.461  29.918  27.320  1.00  0.00    -0.274 OA
BRANCH   5  10
ATOM     10  C   UNL A   1      32.555  29.723  26.674  1.00  0.00     0.044 A 
ATOM     11  C   UNL A   1      31.228  27.494  25.606  1.00  0.00     0.120 A 
ATOM     12  C   UNL A   1      31.437  27.580  26.978  1.00  0.00     0.048 A 
ATOM     13  C   UNL A   1      31.633  28.537  24.782  1.00  0.00     0.048 A 
ATOM     14  C   UNL A   1      32.123  28.682  27.509  1.00  0.00     0.030 A 
ATOM     15  C   UNL A   1      32.287  29.640  25.309  1.00  0.00     0.030 A 
BRANCH  11  16
ATOM     16  O   UNL A   1      30.547  26.422  25.092  1.00  0.00    -0.484 OA
BRANCH  16  17
ATOM     17  C   UNL A   1      30.976  25.189  25.682  1.00  0.00     0.329 C 
BRANCH  17  18
ATOM     18  C   UNL A   1      32.157  24.518  24.967  1.00  0.00     0.262 C 
ATOM     19  O   UNL A   1      32.203  24.458  23.743  1.00  0.00    -0.271 OA
ATOM     20  N   UNL A   1      33.049  23.933  25.861  1.00  0.00    -0.322 N 
ATOM     21  H   UNL A   1      32.965  24.170  26.812  1.00  0.00     0.170 HD
BRANCH  20  22
ATOM     22  C   UNL A   1      34.068  23.021  25.497  1.00  0.00     0.060 A 
ATOM     23  C   UNL A   1      35.377  23.534  25.538  1.00  0.00     0.029 A 
ATOM     24  C   UNL A   1      33.884  21.671  25.150  1.00  0.00     0.066 A 
ATOM     25  C   UNL A   1      36.480  22.700  25.340  1.00  0.00     0.023 A 
ATOM     26  C   UNL A   1      34.992  20.839  24.947  1.00  0.00     0.043 A 
ATOM     27  Cl  UNL A   1      32.338  20.998  24.762  1.00  0.00    -0.082 Cl
ATOM     28  C   UNL A   1      36.282  21.352  25.061  1.00  0.00     0.042 A 
ATOM     29  Cl  UNL A   1      37.639  20.322  24.826  1.00  0.00    -0.084 Cl
ENDBRANCH  20  22
ENDBRANCH  17  18
ENDBRANCH  16  17
ENDBRANCH  11  16
ENDBRANCH   5  10
ENDBRANCH   2   4
ENDBRANCH   1   2
BRANCH   1  30
ATOM     30  C   UNL A   1      34.429  34.641  30.912  1.00  0.00     0.274 C 
BRANCH  30  31
ATOM     31  C   UNL A   1      34.910  34.005  32.221  1.00  0.00     0.275 C 
BRANCH  31  32
ATOM     32  O   UNL A   1      35.263  32.618  32.042  1.00  0.00    -0.458 OA
BRANCH  32  33
ATOM     33  C   UNL A   1      36.277  32.184  32.827  1.00  0.00     0.338 C 
ATOM     34  O   UNL A   1      36.323  32.181  34.044  1.00  0.00    -0.246 OA
BRANCH  33  35
ATOM     35  C   UNL A   1      37.312  31.542  32.005  1.00  0.00     0.060 A 
ATOM     36  C   UNL A   1      38.266  30.768  32.664  1.00  0.00     0.016 A 
ATOM     37  C   UNL A   1      37.429  31.790  30.639  1.00  0.00     0.016 A 
ATOM     38  C   UNL A   1      39.368  30.270  31.984  1.00  0.00     0.010 A 
ATOM     39  C   UNL A   1      38.523  31.260  29.942  1.00  0.00     0.010 A 
ATOM     40  C   UNL A   1      39.506  30.512  30.616  1.00  0.00    -0.014 A 
BRANCH  40  41
ATOM     41  C   UNL A   1      40.714  30.011  29.920  1.00  0.00     0.031 A 
ATOM     42  C   UNL A   1      41.903  30.908  29.743  1.00  0.00     0.074 A 
ATOM     43  C   UNL A   1      40.760  28.731  29.502  1.00  0.00     0.049 A 
ATOM     44  N   UNL A   1      43.011  30.689  29.083  1.00  0.00    -0.248 NA
ATOM     45  C   UNL A   1      41.837  32.227  30.392  1.00  0.00     0.031 C 
ATOM     46  C   UNL A   1      39.693  27.744  29.683  1.00  0.00     0.029 A 
ATOM     47  N   UNL A   1      41.746  28.042  28.847  1.00  0.00    -0.354 N 
ATOM     48  C   UNL A   1      43.759  31.853  29.206  1.00  0.00     0.074 A 
ATOM     49  C   UNL A   1      42.978  32.776  30.001  1.00  0.00     0.031 C 
ATOM     50  C   UNL A   1      40.091  26.572  29.165  1.00  0.00     0.029 A 
ATOM     51  C   UNL A   1      41.409  26.741  28.564  1.00  0.00     0.049 A 
ATOM     52  H   UNL A   1      42.614  28.440  28.605  1.00  0.00     0.167 HD
ATOM     53  C   UNL A   1      44.984  32.123  28.697  1.00  0.00     0.037 A 
ATOM     54  C   UNL A   1      42.074  25.803  27.866  1.00  0.00     0.037 A 
ATOM     55  C   UNL A   1      45.769  31.187  27.936  1.00  0.00     0.049 A 
ATOM     56  C   UNL A   1      43.408  26.145  27.267  1.00  0.00     0.074 A 
ATOM     57  C   UNL A   1      47.025  31.363  27.382  1.00  0.00     0.029 A 
ATOM     58  N   UNL A   1      45.374  29.893  27.631  1.00  0.00    -0.354 N 
ATOM     59  N   UNL A   1      44.088  27.263  27.351  1.00  0.00    -0.248 NA
ATOM     60  C   UNL A   1      44.059  25.103  26.461  1.00  0.00     0.031 C 
ATOM     61  C   UNL A   1      47.376  30.185  26.713  1.00  0.00     0.029 A 
ATOM     62  C   UNL A   1      46.354  29.264  26.882  1.00  0.00     0.049 A 
ATOM     63  H   UNL A   1      44.523  29.483  27.906  1.00  0.00     0.167 HD
ATOM     64  C   UNL A   1      45.252  27.055  26.624  1.00  0.00     0.074 A 
ATOM     65  C   UNL A   1      45.193  25.700  26.117  1.00  0.00     0.031 C 
ATOM     66  C   UNL A   1      46.275  27.912  26.391  1.00  0.00     0.037 A 
BRANCH  53  67
ATOM     67  C   UNL A   1      45.532  33.501  28.916  1.00  0.00     0.057 A 
ATOM     68  C   UNL A   1      45.258  34.558  28.039  1.00  0.00     0.134 A 
ATOM     69  C   UNL A   1      46.328  33.776  30.035  1.00  0.00     0.134 A 
ATOM     70  F   UNL A   1      44.517  34.355  26.941  1.00  0.00    -0.206 F 
ATOM     71  C   UNL A   1      45.774  35.837  28.259  1.00  0.00     0.040 A 
ATOM     72  C   UNL A   1      46.831  35.055  30.276  1.00  0.00     0.040 A 
ATOM     73  F   UNL A   1      46.625  32.807  30.913  1.00  0.00    -0.206 F 
ATOM     74  C   UNL A   1      46.558  36.089  29.384  1.00  0.00     0.006 A 
ENDBRANCH  53  67
BRANCH  54  75
ATOM     75  C   UNL A   1      41.472  24.462  27.667  1.00  0.00     0.057 A 
ATOM     76  C   UNL A   1      41.885  23.364  28.427  1.00  0.00     0.134 A 
ATOM     77  C   UNL A   1      40.469  24.250  26.714  1.00  0.00     0.134 A 
ATOM     78  F   UNL A   1      42.857  23.502  29.341  1.00  0.00    -0.206 F 
ATOM     79  C   UNL A   1      41.328  22.097  28.242  1.00  0.00     0.040 A 
ATOM     80  C   UNL A   1      39.886  22.995  26.533  1.00  0.00     0.040 A 
ATOM     81  F   UNL A   1      40.030  25.264  25.955  1.00  0.00    -0.206 F 
ATOM     82  C   UNL A   1      40.321  21.912  27.296  1.00  0.00     0.006 A 
ENDBRANCH  54  75
BRANCH  66  83
ATOM     83  C   UNL A   1      47.421  27.395  25.577  1.00  0.00     0.057 A 
ATOM     84  C   UNL A   1      47.462  27.548  24.186  1.00  0.00     0.134 A 
ATOM     85  C   UNL A   1      48.506  26.762  26.194  1.00  0.00     0.134 A 
ATOM     86  F   UNL A   1      46.444  28.132  23.536  1.00  0.00    -0.206 F 
ATOM     87  C   UNL A   1      48.536  27.073  23.434  1.00  0.00     0.040 A 
ATOM     88  C   UNL A   1      49.596  26.301  25.454  1.00  0.00     0.040 A 
ATOM     89  F   UNL A   1      48.528  26.589  27.525  1.00  0.00    -0.206 F 
ATOM     90  C   UNL A   1      49.610  26.452  24.070  1.00  0.00     0.006 A 
ENDBRANCH  66  83
ENDBRANCH  40  41
ENDBRANCH  33  35
ENDBRANCH  32  33
ENDBRANCH  31  32
ENDBRANCH  30  31
ENDBRANCH   1  30
TORSDOF 16
ENDMDL
MODEL 3
REMARK VINA RESULT:     -11.9      1.126      2.065
REMARK SMILES O=C(COc1ccc(N2C[C@@H](C(=O)OCCOC(=O)c3ccc(-c4c5nc(c(-c6c(F)cccc6F)c6ccc([nH]6)c(-c6c(F)cccc6F)c6nc(c(-c7c(F)cccc7F)c7ccc4[nH]7)C=C6)C=C5)cc3)CC2=O)cc1)Nc1ccc(Cl)cc1Cl
REMARK SMILES IDX 14 1 12 2 13 3 11 4 9 5 10 6 75 7 74 8 76 9 8 10 5 11 6 12
REMARK SMILES IDX 78 13 7 14 77 15 4 16 3 17 2 18 1 19 79 20 80 22 81 23 86 24
REMARK SMILES IDX 82 25 85 26 87 27 83 28 84 29 15 30 16 31 17 32 18 33 19 34
REMARK SMILES IDX 20 35 21 36 73 37 22 38 72 39 23 40 24 41 25 42 66 43 26 44
REMARK SMILES IDX 71 45 65 46 67 47 27 48 70 49 64 50 63 51 28 53 54 54 37 55
REMARK SMILES IDX 53 56 38 57 41 58 52 59 68 60 39 61 40 62 51 64 69 65 42 66
REMARK SMILES IDX 29 67 30 68 35 69 31 70 32 71 34 72 36 73 33 74 55 75 56 76
REMARK SMILES IDX 61 77 57 78 58 79 60 80 62 81 59 82 43 83 44 84 49 85 45 86
REMARK SMILES IDX 46 87 48 88 50 89 47 90
REMARK H PARENT 79 21 67 52 41 63
REMARK Flexibility Score: inf
ROOT
ATOM      1  O   UNL A   1      42.075  21.467  26.687  1.00  0.00    -0.462 OA
ENDROOT
BRANCH   1   2
ATOM      2  C   UNL A   1      41.011  20.669  26.940  1.00  0.00     0.311 C 
ATOM      3  O   UNL A   1      40.820  20.061  27.986  1.00  0.00    -0.252 OA
BRANCH   2   4
ATOM      4  C   UNL A   1      40.030  20.623  25.800  1.00  0.00     0.128 C 
ATOM      5  N   UNL A   1      37.947  21.407  25.151  1.00  0.00    -0.312 N 
ATOM      6  C   UNL A   1      39.140  21.843  25.825  1.00  0.00     0.141 C 
ATOM      7  C   UNL A   1      37.867  20.011  25.077  1.00  0.00     0.227 C 
ATOM      8  C   UNL A   1      39.078  19.441  25.758  1.00  0.00     0.117 C 
ATOM      9  O   UNL A   1      36.992  19.321  24.577  1.00  0.00    -0.274 OA
BRANCH   5  10
ATOM     10  C   UNL A   1      36.900  22.292  24.829  1.00  0.00     0.044 A 
ATOM     11  C   UNL A   1      34.742  23.938  24.118  1.00  0.00     0.120 A 
ATOM     12  C   UNL A   1      35.070  23.773  25.459  1.00  0.00     0.048 A 
ATOM     13  C   UNL A   1      35.517  23.327  23.139  1.00  0.00     0.048 A 
ATOM     14  C   UNL A   1      36.133  22.929  25.816  1.00  0.00     0.030 A 
ATOM     15  C   UNL A   1      36.585  22.515  23.490  1.00  0.00     0.030 A 
BRANCH  11  16
ATOM     16  O   UNL A   1      33.712  24.772  23.773  1.00  0.00    -0.484 OA
BRANCH  16  17
ATOM     17  C   UNL A   1      33.762  26.006  24.499  1.00  0.00     0.329 C 
BRANCH  17  18
ATOM     18  C   UNL A   1      33.088  27.190  23.791  1.00  0.00     0.262 C 
ATOM     19  O   UNL A   1      33.731  27.940  23.065  1.00  0.00    -0.271 OA
ATOM     20  N   UNL A   1      31.755  27.335  24.163  1.00  0.00    -0.322 N 
ATOM     21  H   UNL A   1      31.331  26.590  24.647  1.00  0.00     0.170 HD
BRANCH  20  22
ATOM     22  C   UNL A   1      30.966  28.479  23.895  1.00  0.00     0.060 A 
ATOM     23  C   UNL A   1      30.040  28.339  22.846  1.00  0.00     0.029 A 
ATOM     24  C   UNL A   1      31.005  29.693  24.602  1.00  0.00     0.066 A 
ATOM     25  C   UNL A   1      29.107  29.342  22.575  1.00  0.00     0.023 A 
ATOM     26  C   UNL A   1      30.072  30.700  24.323  1.00  0.00     0.043 A 
ATOM     27  Cl  UNL A   1      32.283  30.112  25.690  1.00  0.00    -0.082 Cl
ATOM     28  C   UNL A   1      29.117  30.512  23.326  1.00  0.00     0.042 A 
ATOM     29  Cl  UNL A   1      27.963  31.745  23.000  1.00  0.00    -0.084 Cl
ENDBRANCH  20  22
ENDBRANCH  17  18
ENDBRANCH  16  17
ENDBRANCH  11  16
ENDBRANCH   5  10
ENDBRANCH   2   4
ENDBRANCH   1   2
BRANCH   1  30
ATOM     30  C   UNL A   1      43.194  20.874  26.001  1.00  0.00     0.274 C 
BRANCH  30  31
ATOM     31  C   UNL A   1      43.789  21.861  24.992  1.00  0.00     0.275 C 
BRANCH  31  32
ATOM     32  O   UNL A   1      43.044  23.097  24.949  1.00  0.00    -0.458 OA
BRANCH  32  33
ATOM     33  C   UNL A   1      43.782  24.212  25.158  1.00  0.00     0.338 C 
ATOM     34  O   UNL A   1      44.777  24.567  24.551  1.00  0.00    -0.246 OA
BRANCH  33  35
ATOM     35  C   UNL A   1      43.127  25.072  26.154  1.00  0.00     0.060 A 
ATOM     36  C   UNL A   1      43.600  26.377  26.285  1.00  0.00     0.016 A 
ATOM     37  C   UNL A   1      42.160  24.583  27.029  1.00  0.00     0.016 A 
ATOM     38  C   UNL A   1      43.152  27.194  27.312  1.00  0.00     0.010 A 
ATOM     39  C   UNL A   1      41.679  25.417  28.047  1.00  0.00     0.010 A 
ATOM     40  C   UNL A   1      42.186  26.720  28.204  1.00  0.00    -0.014 A 
BRANCH  40  41
ATOM     41  C   UNL A   1      41.756  27.593  29.320  1.00  0.00     0.031 A 
ATOM     42  C   UNL A   1      42.529  27.599  30.606  1.00  0.00     0.074 A 
ATOM     43  C   UNL A   1      40.707  28.420  29.154  1.00  0.00     0.049 A 
ATOM     44  N   UNL A   1      42.260  28.217  31.727  1.00  0.00    -0.248 NA
ATOM     45  C   UNL A   1      43.767  26.805  30.636  1.00  0.00     0.031 C 
ATOM     46  C   UNL A   1      39.923  28.555  27.924  1.00  0.00     0.029 A 
ATOM     47  N   UNL A   1      40.127  29.310  30.020  1.00  0.00    -0.354 N 
ATOM     48  C   UNL A   1      43.273  27.858  32.608  1.00  0.00     0.074 A 
ATOM     49  C   UNL A   1      44.161  26.967  31.891  1.00  0.00     0.031 C 
ATOM     50  C   UNL A   1      38.974  29.486  28.111  1.00  0.00     0.029 A 
ATOM     51  C   UNL A   1      39.044  29.965  29.487  1.00  0.00     0.049 A 
ATOM     52  H   UNL A   1      40.455  29.466  30.935  1.00  0.00     0.167 HD
ATOM     53  C   UNL A   1      43.441  28.238  33.896  1.00  0.00     0.037 A 
ATOM     54  C   UNL A   1      38.183  30.829  30.056  1.00  0.00     0.037 A 
ATOM     55  C   UNL A   1      42.573  29.152  34.591  1.00  0.00     0.049 A 
ATOM     56  C   UNL A   1      38.361  31.192  31.502  1.00  0.00     0.074 A 
ATOM     57  C   UNL A   1      42.662  29.604  35.895  1.00  0.00     0.029 A 
ATOM     58  N   UNL A   1      41.459  29.760  34.031  1.00  0.00    -0.354 N 
ATOM     59  N   UNL A   1      39.297  30.814  32.339  1.00  0.00    -0.248 NA
ATOM     60  C   UNL A   1      37.355  32.088  32.088  1.00  0.00     0.031 C 
ATOM     61  C   UNL A   1      41.582  30.462  36.135  1.00  0.00     0.029 A 
ATOM     62  C   UNL A   1      40.843  30.571  34.968  1.00  0.00     0.049 A 
ATOM     63  H   UNL A   1      41.153  29.633  33.104  1.00  0.00     0.167 HD
ATOM     64  C   UNL A   1      39.002  31.435  33.544  1.00  0.00     0.074 A 
ATOM     65  C   UNL A   1      37.809  32.227  33.327  1.00  0.00     0.031 C 
ATOM     66  C   UNL A   1      39.657  31.353  34.727  1.00  0.00     0.037 A 
BRANCH  53  67
ATOM     67  C   UNL A   1      44.588  27.633  34.647  1.00  0.00     0.057 A 
ATOM     68  C   UNL A   1      45.833  28.268  34.742  1.00  0.00     0.134 A 
ATOM     69  C   UNL A   1      44.434  26.406  35.303  1.00  0.00     0.134 A 
ATOM     70  F   UNL A   1      46.048  29.437  34.122  1.00  0.00    -0.206 F 
ATOM     71  C   UNL A   1      46.891  27.693  35.449  1.00  0.00     0.040 A 
ATOM     72  C   UNL A   1      45.478  25.830  36.030  1.00  0.00     0.040 A 
ATOM     73  F   UNL A   1      43.267  25.748  35.252  1.00  0.00    -0.206 F 
ATOM     74  C   UNL A   1      46.712  26.472  36.100  1.00  0.00     0.006 A 
ENDBRANCH  53  67
BRANCH  54  75
ATOM     75  C   UNL A   1      37.055  31.380  29.266  1.00  0.00     0.057 A 
ATOM     76  C   UNL A   1      37.099  32.680  28.754  1.00  0.00     0.134 A 
ATOM     77  C   UNL A   1      35.910  30.618  29.003  1.00  0.00     0.134 A 
ATOM     78  F   UNL A   1      38.161  33.464  28.990  1.00  0.00    -0.206 F 
ATOM     79  C   UNL A   1      36.039  33.209  28.015  1.00  0.00     0.040 A 
ATOM     80  C   UNL A   1      34.854  31.125  28.246  1.00  0.00     0.040 A 
ATOM     81  F   UNL A   1      35.811  29.364  29.466  1.00  0.00    -0.206 F 
ATOM     82  C   UNL A   1      34.914  32.427  27.754  1.00  0.00     0.006 A 
ENDBRANCH  54  75
BRANCH  66  83
ATOM     83  C   UNL A   1      39.110  32.162  35.863  1.00  0.00     0.057 A 
ATOM     84  C   UNL A   1      39.481  33.497  36.060  1.00  0.00     0.134 A 
ATOM     85  C   UNL A   1      38.180  31.608  36.751  1.00  0.00     0.134 A 
ATOM     86  F   UNL A   1      40.380  34.080  35.252  1.00  0.00    -0.206 F 
ATOM     87  C   UNL A   1      38.960  34.249  37.114  1.00  0.00     0.040 A 
ATOM     88  C   UNL A   1      37.635  32.355  37.795  1.00  0.00     0.040 A 
ATOM     89  F   UNL A   1      37.780  30.334  36.611  1.00  0.00    -0.206 F 
ATOM     90  C   UNL A   1      38.029  33.678  37.981  1.00  0.00     0.006 A 
ENDBRANCH  66  83
ENDBRANCH  40  41
ENDBRANCH  33  35
ENDBRANCH  32  33
ENDBRANCH  31  32
ENDBRANCH  30  31
ENDBRANCH   1  30
TORSDOF 16
ENDMDL
