MODEL 1
REMARK VINA RESULT:     -13.1      0.000      0.000
REMARK SMILES COc1cc([C@@H]2CC(=O)Nc3c(C(=O)OCCOC(=O)c4ccc(-c5c6nc(c(-c7c(F)cccc7F)c7ccc([nH]7)c(-c7c(F)cccc7F)c7nc(c(-c8c(F)cccc8F)c8ccc5[nH]8)C=C7)C=C6)cc4)cn(-c4ccc(F)cc4)c32)c(OC)c2c1OCO2
REMARK SMILES IDX 16 1 15 2 13 3 14 4 12 5 6 6 7 7 84 8 8 9 11 10 76 11 9 12
REMARK SMILES IDX 10 13 75 14 5 16 3 17 4 18 89 19 88 20 90 21 85 22 92 23
REMARK SMILES IDX 91 24 2 25 1 26 86 27 87 28 77 29 78 30 83 31 79 32 82 33
REMARK SMILES IDX 80 34 81 35 17 36 18 37 19 38 20 39 21 40 22 41 74 42 23 43
REMARK SMILES IDX 73 44 24 45 25 46 26 47 67 48 27 49 72 50 66 51 68 52 28 53
REMARK SMILES IDX 71 54 65 55 64 56 29 58 55 59 38 60 54 61 39 62 42 63 53 64
REMARK SMILES IDX 69 65 40 66 41 67 52 69 70 70 43 71 30 72 31 73 36 74 32 75
REMARK SMILES IDX 33 76 35 77 37 78 34 79 56 80 57 81 62 82 58 83 59 84 61 85
REMARK SMILES IDX 63 86 60 87 44 88 45 89 50 90 46 91 47 92 49 93 51 94 48 95
REMARK H PARENT 10 15 68 57 42 68
REMARK Flexibility Score: inf
ROOT
ATOM      1  C   UNL A   1      35.995  23.607  25.277  1.00  0.00     0.275 C 
ENDROOT
BRANCH   1   2
ATOM      2  O   UNL A   1      34.807  23.306  26.025  1.00  0.00    -0.458 OA
BRANCH   2   3
ATOM      3  C   UNL A   1      33.617  23.610  25.419  1.00  0.00     0.341 C 
ATOM      4  O   UNL A   1      32.737  22.792  25.167  1.00  0.00    -0.246 OA
BRANCH   3   5
ATOM      5  C   UNL A   1      33.482  25.032  25.149  1.00  0.00     0.102 A 
ATOM      6  C   UNL A   1      32.651  27.977  23.069  1.00  0.00     0.082 C 
ATOM      7  C   UNL A   1      33.181  27.472  21.714  1.00  0.00     0.115 C 
ATOM      8  C   UNL A   1      33.040  27.010  24.147  1.00  0.00     0.055 A 
ATOM      9  C   UNL A   1      33.149  25.960  21.523  1.00  0.00     0.225 C 
ATOM     10  C   UNL A   1      33.325  25.687  23.911  1.00  0.00     0.078 A 
ATOM     11  N   UNL A   1      33.233  27.248  25.493  1.00  0.00    -0.317 N 
ATOM     12  O   UNL A   1      33.071  25.452  20.404  1.00  0.00    -0.275 OA
ATOM     13  N   UNL A   1      33.333  25.177  22.634  1.00  0.00    -0.324 N 
ATOM     14  C   UNL A   1      33.529  26.044  26.100  1.00  0.00     0.109 A 
ATOM     15  H   UNL A   1      33.475  24.211  22.512  1.00  0.00     0.170 HD
BRANCH   6  16
ATOM     16  C   UNL A   1      31.147  28.278  23.025  1.00  0.00     0.012 A 
ATOM     17  C   UNL A   1      29.424  29.970  22.572  1.00  0.00     0.165 A 
ATOM     18  C   UNL A   1      30.753  29.547  22.525  1.00  0.00     0.059 A 
ATOM     19  C   UNL A   1      28.475  29.066  23.007  1.00  0.00     0.211 A 
ATOM     20  C   UNL A   1      28.828  27.805  23.448  1.00  0.00     0.211 A 
ATOM     21  O   UNL A   1      27.130  29.272  23.056  1.00  0.00    -0.449 OA
ATOM     22  C   UNL A   1      30.150  27.384  23.488  1.00  0.00     0.168 A 
ATOM     23  O   UNL A   1      27.731  27.092  23.835  1.00  0.00    -0.449 OA
ATOM     24  C   UNL A   1      26.664  27.981  23.477  1.00  0.00     0.468 C 
BRANCH  17  25
ATOM     25  O   UNL A   1      29.166  31.244  22.159  1.00  0.00    -0.493 OA
ATOM     26  C   UNL A   1      28.800  32.109  23.234  1.00  0.00     0.278 C 
ENDBRANCH  17  25
BRANCH  22  27
ATOM     27  O   UNL A   1      30.583  26.183  23.956  1.00  0.00    -0.492 OA
ATOM     28  C   UNL A   1      29.969  25.600  25.092  1.00  0.00     0.278 C 
ENDBRANCH  22  27
ENDBRANCH   6  16
BRANCH  11  29
ATOM     29  C   UNL A   1      33.161  28.490  26.159  1.00  0.00     0.046 A 
ATOM     30  C   UNL A   1      31.915  29.089  26.358  1.00  0.00     0.029 A 
ATOM     31  C   UNL A   1      34.334  29.131  26.572  1.00  0.00     0.029 A 
ATOM     32  C   UNL A   1      31.839  30.376  26.884  1.00  0.00     0.041 A 
ATOM     33  C   UNL A   1      34.252  30.422  27.101  1.00  0.00     0.041 A 
ATOM     34  C   UNL A   1      33.009  31.038  27.234  1.00  0.00     0.123 A 
ATOM     35  F   UNL A   1      32.938  32.288  27.710  1.00  0.00    -0.207 F 
ENDBRANCH  11  29
ENDBRANCH   3   5
ENDBRANCH   2   3
ENDBRANCH   1   2
BRANCH   1  36
ATOM     36  C   UNL A   1      37.249  23.202  26.040  1.00  0.00     0.275 C 
BRANCH  36  37
ATOM     37  O   UNL A   1      37.969  24.343  26.505  1.00  0.00    -0.458 OA
BRANCH  37  38
ATOM     38  C   UNL A   1      39.186  24.077  27.029  1.00  0.00     0.338 C 
ATOM     39  O   UNL A   1      39.729  22.990  27.127  1.00  0.00    -0.246 OA
BRANCH  38  40
ATOM     40  C   UNL A   1      39.694  25.278  27.691  1.00  0.00     0.060 A 
ATOM     41  C   UNL A   1      39.340  25.480  29.029  1.00  0.00     0.016 A 
ATOM     42  C   UNL A   1      40.232  26.303  26.902  1.00  0.00     0.016 A 
ATOM     43  C   UNL A   1      39.374  26.764  29.529  1.00  0.00     0.010 A 
ATOM     44  C   UNL A   1      40.242  27.583  27.392  1.00  0.00     0.010 A 
ATOM     45  C   UNL A   1      39.750  27.808  28.674  1.00  0.00    -0.014 A 
BRANCH  45  46
ATOM     46  C   UNL A   1      39.758  29.157  29.197  1.00  0.00     0.031 A 
ATOM     47  C   UNL A   1      41.066  29.831  29.015  1.00  0.00     0.074 A 
ATOM     48  C   UNL A   1      38.639  29.759  29.646  1.00  0.00     0.049 A 
ATOM     49  N   UNL A   1      41.863  30.261  29.933  1.00  0.00    -0.248 NA
ATOM     50  C   UNL A   1      41.635  29.878  27.656  1.00  0.00     0.031 C 
ATOM     51  C   UNL A   1      37.260  29.269  29.587  1.00  0.00     0.029 A 
ATOM     52  N   UNL A   1      38.492  31.010  30.155  1.00  0.00    -0.354 N 
ATOM     53  C   UNL A   1      42.946  30.817  29.260  1.00  0.00     0.074 A 
ATOM     54  C   UNL A   1      42.841  30.392  27.891  1.00  0.00     0.031 C 
ATOM     55  C   UNL A   1      36.411  30.298  29.819  1.00  0.00     0.029 A 
ATOM     56  C   UNL A   1      37.185  31.482  30.156  1.00  0.00     0.049 A 
ATOM     57  H   UNL A   1      39.249  31.539  30.498  1.00  0.00     0.167 HD
ATOM     58  C   UNL A   1      43.702  31.787  29.836  1.00  0.00     0.037 A 
ATOM     59  C   UNL A   1      36.803  32.772  30.336  1.00  0.00     0.037 A 
ATOM     60  C   UNL A   1      43.511  31.813  31.264  1.00  0.00     0.049 A 
ATOM     61  C   UNL A   1      37.949  33.496  30.947  1.00  0.00     0.074 A 
ATOM     62  C   UNL A   1      43.708  30.897  32.281  1.00  0.00     0.029 A 
ATOM     63  N   UNL A   1      42.678  32.775  31.778  1.00  0.00    -0.354 N 
ATOM     64  N   UNL A   1      38.357  33.308  32.171  1.00  0.00    -0.248 NA
ATOM     65  C   UNL A   1      38.934  34.078  30.045  1.00  0.00     0.031 C 
ATOM     66  C   UNL A   1      42.613  31.096  33.172  1.00  0.00     0.029 A 
ATOM     67  C   UNL A   1      41.858  32.165  32.691  1.00  0.00     0.049 A 
ATOM     68  H   UNL A   1      42.670  33.730  31.535  1.00  0.00     0.167 HD
ATOM     69  C   UNL A   1      39.741  33.313  32.083  1.00  0.00     0.074 A 
ATOM     70  C   UNL A   1      40.041  33.871  30.766  1.00  0.00     0.031 C 
ATOM     71  C   UNL A   1      40.504  32.590  32.955  1.00  0.00     0.037 A 
BRANCH  58  72
ATOM     72  C   UNL A   1      44.298  32.948  29.083  1.00  0.00     0.057 A 
ATOM     73  C   UNL A   1      43.437  33.907  28.521  1.00  0.00     0.134 A 
ATOM     74  C   UNL A   1      45.632  33.003  28.631  1.00  0.00     0.134 A 
ATOM     75  F   UNL A   1      42.139  33.951  28.862  1.00  0.00    -0.206 F 
ATOM     76  C   UNL A   1      43.852  34.795  27.523  1.00  0.00     0.040 A 
ATOM     77  C   UNL A   1      46.070  33.921  27.674  1.00  0.00     0.040 A 
ATOM     78  F   UNL A   1      46.559  32.115  29.006  1.00  0.00    -0.206 F 
ATOM     79  C   UNL A   1      45.172  34.796  27.089  1.00  0.00     0.006 A 
ENDBRANCH  58  72
BRANCH  59  80
ATOM     80  C   UNL A   1      35.655  33.499  29.742  1.00  0.00     0.057 A 
ATOM     81  C   UNL A   1      34.702  34.134  30.553  1.00  0.00     0.134 A 
ATOM     82  C   UNL A   1      35.614  33.829  28.376  1.00  0.00     0.134 A 
ATOM     83  F   UNL A   1      34.681  33.917  31.877  1.00  0.00    -0.206 F 
ATOM     84  C   UNL A   1      33.787  35.065  30.044  1.00  0.00     0.040 A 
ATOM     85  C   UNL A   1      34.700  34.750  27.853  1.00  0.00     0.040 A 
ATOM     86  F   UNL A   1      36.519  33.341  27.516  1.00  0.00    -0.206 F 
ATOM     87  C   UNL A   1      33.792  35.385  28.690  1.00  0.00     0.006 A 
ENDBRANCH  59  80
BRANCH  71  88
ATOM     88  C   UNL A   1      39.830  32.002  34.163  1.00  0.00     0.057 A 
ATOM     89  C   UNL A   1      39.654  32.676  35.383  1.00  0.00     0.134 A 
ATOM     90  C   UNL A   1      39.213  30.752  34.039  1.00  0.00     0.134 A 
ATOM     91  F   UNL A   1      40.112  33.922  35.562  1.00  0.00    -0.206 F 
ATOM     92  C   UNL A   1      38.943  32.106  36.444  1.00  0.00     0.040 A 
ATOM     93  C   UNL A   1      38.468  30.189  35.076  1.00  0.00     0.040 A 
ATOM     94  F   UNL A   1      39.287  30.074  32.883  1.00  0.00    -0.206 F 
ATOM     95  C   UNL A   1      38.343  30.860  36.290  1.00  0.00     0.006 A 
ENDBRANCH  71  88
ENDBRANCH  45  46
ENDBRANCH  38  40
ENDBRANCH  37  38
ENDBRANCH  36  37
ENDBRANCH   1  36
TORSDOF 15
ENDMDL
MODEL 2
REMARK VINA RESULT:     -13.0      1.857      2.787
REMARK SMILES COc1cc([C@@H]2CC(=O)Nc3c(C(=O)OCCOC(=O)c4ccc(-c5c6nc(c(-c7c(F)cccc7F)c7ccc([nH]7)c(-c7c(F)cccc7F)c7nc(c(-c8c(F)cccc8F)c8ccc5[nH]8)C=C7)C=C6)cc4)cn(-c4ccc(F)cc4)c32)c(OC)c2c1OCO2
REMARK SMILES IDX 16 1 15 2 13 3 14 4 12 5 6 6 7 7 84 8 8 9 11 10 76 11 9 12
REMARK SMILES IDX 10 13 75 14 5 16 3 17 4 18 89 19 88 20 90 21 85 22 92 23
REMARK SMILES IDX 91 24 2 25 1 26 86 27 87 28 77 29 78 30 83 31 79 32 82 33
REMARK SMILES IDX 80 34 81 35 17 36 18 37 19 38 20 39 21 40 22 41 74 42 23 43
REMARK SMILES IDX 73 44 24 45 25 46 26 47 67 48 27 49 72 50 66 51 68 52 28 53
REMARK SMILES IDX 71 54 65 55 64 56 29 58 55 59 38 60 54 61 39 62 42 63 53 64
REMARK SMILES IDX 69 65 40 66 41 67 52 69 70 70 43 71 30 72 31 73 36 74 32 75
REMARK SMILES IDX 33 76 35 77 37 78 34 79 56 80 57 81 62 82 58 83 59 84 61 85
REMARK SMILES IDX 63 86 60 87 44 88 45 89 50 90 46 91 47 92 49 93 51 94 48 95
REMARK H PARENT 10 15 68 57 42 68
REMARK Flexibility Score: inf
ROOT
ATOM      1  C   UNL A   1      36.389  23.105  25.333  1.00  0.00     0.275 C 
ENDROOT
BRANCH   1   2
ATOM      2  O   UNL A   1      35.204  23.254  26.131  1.00  0.00    -0.458 OA
BRANCH   2   3
ATOM      3  C   UNL A   1      34.040  23.486  25.448  1.00  0.00     0.341 C 
ATOM      4  O   UNL A   1      33.235  22.615  25.132  1.00  0.00    -0.246 OA
BRANCH   3   5
ATOM      5  C   UNL A   1      33.830  24.899  25.180  1.00  0.00     0.102 A 
ATOM      6  C   UNL A   1      32.785  27.792  23.123  1.00  0.00     0.082 C 
ATOM      7  C   UNL A   1      33.286  27.306  21.750  1.00  0.00     0.115 C 
ATOM      8  C   UNL A   1      33.259  26.849  24.189  1.00  0.00     0.055 A 
ATOM      9  C   UNL A   1      33.316  25.793  21.565  1.00  0.00     0.225 C 
ATOM     10  C   UNL A   1      33.596  25.540  23.946  1.00  0.00     0.078 A 
ATOM     11  N   UNL A   1      33.491  27.103  25.525  1.00  0.00    -0.317 N 
ATOM     12  O   UNL A   1      33.220  25.275  20.452  1.00  0.00    -0.275 OA
ATOM     13  N   UNL A   1      33.578  25.024  22.671  1.00  0.00    -0.324 N 
ATOM     14  C   UNL A   1      33.865  25.917  26.125  1.00  0.00     0.109 A 
ATOM     15  H   UNL A   1      33.760  24.065  22.547  1.00  0.00     0.170 HD
BRANCH   6  16
ATOM     16  C   UNL A   1      31.267  28.023  23.135  1.00  0.00     0.012 A 
ATOM     17  C   UNL A   1      29.456  29.656  22.834  1.00  0.00     0.165 A 
ATOM     18  C   UNL A   1      30.802  29.301  22.727  1.00  0.00     0.059 A 
ATOM     19  C   UNL A   1      28.563  28.682  23.233  1.00  0.00     0.211 A 
ATOM     20  C   UNL A   1      28.985  27.414  23.583  1.00  0.00     0.211 A 
ATOM     21  O   UNL A   1      27.211  28.820  23.328  1.00  0.00    -0.449 OA
ATOM     22  C   UNL A   1      30.326  27.055  23.564  1.00  0.00     0.168 A 
ATOM     23  O   UNL A   1      27.933  26.627  23.950  1.00  0.00    -0.449 OA
ATOM     24  C   UNL A   1      26.817  27.485  23.677  1.00  0.00     0.468 C 
BRANCH  17  25
ATOM     25  O   UNL A   1      29.129  30.940  22.510  1.00  0.00    -0.493 OA
ATOM     26  C   UNL A   1      28.875  31.751  23.657  1.00  0.00     0.278 C 
ENDBRANCH  17  25
BRANCH  22  27
ATOM     27  O   UNL A   1      30.827  25.849  23.944  1.00  0.00    -0.492 OA
ATOM     28  C   UNL A   1      30.272  24.654  23.423  1.00  0.00     0.278 C 
ENDBRANCH  22  27
ENDBRANCH   6  16
BRANCH  11  29
ATOM     29  C   UNL A   1      33.387  28.344  26.190  1.00  0.00     0.046 A 
ATOM     30  C   UNL A   1      32.139  28.960  26.296  1.00  0.00     0.029 A 
ATOM     31  C   UNL A   1      34.535  28.964  26.694  1.00  0.00     0.029 A 
ATOM     32  C   UNL A   1      32.042  30.247  26.820  1.00  0.00     0.041 A 
ATOM     33  C   UNL A   1      34.431  30.255  27.221  1.00  0.00     0.041 A 
ATOM     34  C   UNL A   1      33.191  30.890  27.262  1.00  0.00     0.123 A 
ATOM     35  F   UNL A   1      33.102  32.139  27.736  1.00  0.00    -0.207 F 
ENDBRANCH  11  29
ENDBRANCH   3   5
ENDBRANCH   2   3
ENDBRANCH   1   2
BRANCH   1  36
ATOM     36  C   UNL A   1      37.418  22.224  26.027  1.00  0.00     0.275 C 
BRANCH  36  37
ATOM     37  O   UNL A   1      38.747  22.562  25.632  1.00  0.00    -0.458 OA
BRANCH  37  38
ATOM     38  C   UNL A   1      39.682  22.432  26.599  1.00  0.00     0.338 C 
ATOM     39  O   UNL A   1      39.899  21.454  27.295  1.00  0.00    -0.246 OA
BRANCH  38  40
ATOM     40  C   UNL A   1      40.277  23.741  26.867  1.00  0.00     0.060 A 
ATOM     41  C   UNL A   1      41.302  23.805  27.817  1.00  0.00     0.016 A 
ATOM     42  C   UNL A   1      39.609  24.887  26.416  1.00  0.00     0.016 A 
ATOM     43  C   UNL A   1      41.545  25.012  28.437  1.00  0.00     0.010 A 
ATOM     44  C   UNL A   1      39.835  26.081  27.051  1.00  0.00     0.010 A 
ATOM     45  C   UNL A   1      40.751  26.114  28.098  1.00  0.00    -0.014 A 
BRANCH  45  46
ATOM     46  C   UNL A   1      40.992  27.371  28.773  1.00  0.00     0.031 A 
ATOM     47  C   UNL A   1      42.226  28.043  28.299  1.00  0.00     0.074 A 
ATOM     48  C   UNL A   1      40.094  27.918  29.615  1.00  0.00     0.049 A 
ATOM     49  N   UNL A   1      43.282  28.320  28.985  1.00  0.00    -0.248 NA
ATOM     50  C   UNL A   1      42.371  28.280  26.852  1.00  0.00     0.031 C 
ATOM     51  C   UNL A   1      38.732  27.464  29.907  1.00  0.00     0.029 A 
ATOM     52  N   UNL A   1      40.178  29.082  30.310  1.00  0.00    -0.354 N 
ATOM     53  C   UNL A   1      44.150  28.952  28.100  1.00  0.00     0.074 A 
ATOM     54  C   UNL A   1      43.621  28.735  26.781  1.00  0.00     0.031 C 
ATOM     55  C   UNL A   1      38.052  28.461  30.520  1.00  0.00     0.029 A 
ATOM     56  C   UNL A   1      38.960  29.570  30.767  1.00  0.00     0.049 A 
ATOM     57  H   UNL A   1      41.032  29.543  30.477  1.00  0.00     0.167 HD
ATOM     58  C   UNL A   1      45.099  29.814  28.549  1.00  0.00     0.037 A 
ATOM     59  C   UNL A   1      38.725  30.826  31.227  1.00  0.00     0.037 A 
ATOM     60  C   UNL A   1      45.340  29.632  29.957  1.00  0.00     0.049 A 
ATOM     61  C   UNL A   1      40.042  31.433  31.558  1.00  0.00     0.074 A 
ATOM     62  C   UNL A   1      45.772  28.573  30.734  1.00  0.00     0.029 A 
ATOM     63  N   UNL A   1      44.754  30.521  30.824  1.00  0.00    -0.354 N 
ATOM     64  N   UNL A   1      40.780  31.060  32.565  1.00  0.00    -0.248 NA
ATOM     65  C   UNL A   1      40.750  32.125  30.490  1.00  0.00     0.031 C 
ATOM     66  C   UNL A   1      45.003  28.656  31.931  1.00  0.00     0.029 A 
ATOM     67  C   UNL A   1      44.204  29.797  31.849  1.00  0.00     0.049 A 
ATOM     68  H   UNL A   1      44.732  31.501  30.726  1.00  0.00     0.167 HD
ATOM     69  C   UNL A   1      42.074  31.055  32.067  1.00  0.00     0.074 A 
ATOM     70  C   UNL A   1      42.005  31.797  30.809  1.00  0.00     0.031 C 
ATOM     71  C   UNL A   1      43.016  30.199  32.563  1.00  0.00     0.037 A 
BRANCH  58  72
ATOM     72  C   UNL A   1      45.513  31.063  27.816  1.00  0.00     0.057 A 
ATOM     73  C   UNL A   1      46.866  31.233  27.473  1.00  0.00     0.134 A 
ATOM     74  C   UNL A   1      44.718  32.222  27.705  1.00  0.00     0.134 A 
ATOM     75  F   UNL A   1      47.729  30.207  27.547  1.00  0.00    -0.206 F 
ATOM     76  C   UNL A   1      47.403  32.479  27.130  1.00  0.00     0.040 A 
ATOM     77  C   UNL A   1      45.233  33.460  27.312  1.00  0.00     0.040 A 
ATOM     78  F   UNL A   1      43.431  32.252  28.067  1.00  0.00    -0.206 F 
ATOM     79  C   UNL A   1      46.586  33.600  27.059  1.00  0.00     0.006 A 
ENDBRANCH  58  72
BRANCH  59  80
ATOM     80  C   UNL A   1      37.499  31.650  31.110  1.00  0.00     0.057 A 
ATOM     81  C   UNL A   1      37.051  32.108  29.862  1.00  0.00     0.134 A 
ATOM     82  C   UNL A   1      36.585  31.773  32.172  1.00  0.00     0.134 A 
ATOM     83  F   UNL A   1      37.832  32.001  28.776  1.00  0.00    -0.206 F 
ATOM     84  C   UNL A   1      35.763  32.627  29.673  1.00  0.00     0.040 A 
ATOM     85  C   UNL A   1      35.299  32.297  31.998  1.00  0.00     0.040 A 
ATOM     86  F   UNL A   1      36.873  31.305  33.394  1.00  0.00    -0.206 F 
ATOM     87  C   UNL A   1      34.877  32.711  30.742  1.00  0.00     0.006 A 
ENDBRANCH  59  80
BRANCH  71  88
ATOM     88  C   UNL A   1      42.696  29.451  33.826  1.00  0.00     0.057 A 
ATOM     89  C   UNL A   1      41.983  28.242  33.876  1.00  0.00     0.134 A 
ATOM     90  C   UNL A   1      43.253  29.904  35.027  1.00  0.00     0.134 A 
ATOM     91  F   UNL A   1      41.506  27.669  32.764  1.00  0.00    -0.206 F 
ATOM     92  C   UNL A   1      41.790  27.549  35.076  1.00  0.00     0.040 A 
ATOM     93  C   UNL A   1      43.101  29.202  36.224  1.00  0.00     0.040 A 
ATOM     94  F   UNL A   1      43.997  31.021  35.048  1.00  0.00    -0.206 F 
ATOM     95  C   UNL A   1      42.355  28.027  36.254  1.00  0.00     0.006 A 
ENDBRANCH  71  88
ENDBRANCH  45  46
ENDBRANCH  38  40
ENDBRANCH  37  38
ENDBRANCH  36  37
ENDBRANCH   1  36
TORSDOF 15
ENDMDL
MODEL 3
REMARK VINA RESULT:     -13.0      3.697      8.545
REMARK SMILES COc1cc([C@@H]2CC(=O)Nc3c(C(=O)OCCOC(=O)c4ccc(-c5c6nc(c(-c7c(F)cccc7F)c7ccc([nH]7)c(-c7c(F)cccc7F)c7nc(c(-c8c(F)cccc8F)c8ccc5[nH]8)C=C7)C=C6)cc4)cn(-c4ccc(F)cc4)c32)c(OC)c2c1OCO2
REMARK SMILES IDX 16 1 15 2 13 3 14 4 12 5 6 6 7 7 84 8 8 9 11 10 76 11 9 12
REMARK SMILES IDX 10 13 75 14 5 16 3 17 4 18 89 19 88 20 90 21 85 22 92 23
REMARK SMILES IDX 91 24 2 25 1 26 86 27 87 28 77 29 78 30 83 31 79 32 82 33
REMARK SMILES IDX 80 34 81 35 17 36 18 37 19 38 20 39 21 40 22 41 74 42 23 43
REMARK SMILES IDX 73 44 24 45 25 46 26 47 67 48 27 49 72 50 66 51 68 52 28 53
REMARK SMILES IDX 71 54 65 55 64 56 29 58 55 59 38 60 54 61 39 62 42 63 53 64
REMARK SMILES IDX 69 65 40 66 41 67 52 69 70 70 43 71 30 72 31 73 36 74 32 75
REMARK SMILES IDX 33 76 35 77 37 78 34 79 56 80 57 81 62 82 58 83 59 84 61 85
REMARK SMILES IDX 63 86 60 87 44 88 45 89 50 90 46 91 47 92 49 93 51 94 48 95
REMARK H PARENT 10 15 68 57 42 68
REMARK Flexibility Score: inf
ROOT
ATOM      1  C   UNL A   1      33.494  28.765  26.440  1.00  0.00     0.275 C 
ENDROOT
BRANCH   1   2
ATOM      2  O   UNL A   1      33.696  28.270  25.107  1.00  0.00    -0.458 OA
BRANCH   2   3
ATOM      3  C   UNL A   1      32.917  27.208  24.731  1.00  0.00     0.341 C 
ATOM      4  O   UNL A   1      31.892  27.301  24.062  1.00  0.00    -0.246 OA
BRANCH   3   5
ATOM      5  C   UNL A   1      33.468  25.937  25.170  1.00  0.00     0.102 A 
ATOM      6  C   UNL A   1      33.270  22.450  26.391  1.00  0.00     0.082 C 
ATOM      7  C   UNL A   1      32.077  22.599  27.355  1.00  0.00     0.115 C 
ATOM      8  C   UNL A   1      33.675  23.803  25.887  1.00  0.00     0.055 A 
ATOM      9  C   UNL A   1      31.070  23.682  26.983  1.00  0.00     0.225 C 
ATOM     10  C   UNL A   1      32.827  24.883  25.853  1.00  0.00     0.078 A 
ATOM     11  N   UNL A   1      34.912  24.224  25.441  1.00  0.00    -0.317 N 
ATOM     12  O   UNL A   1      29.891  23.614  27.332  1.00  0.00    -0.275 OA
ATOM     13  N   UNL A   1      31.548  24.800  26.349  1.00  0.00    -0.324 N 
ATOM     14  C   UNL A   1      34.791  25.535  25.027  1.00  0.00     0.109 A 
ATOM     15  H   UNL A   1      30.949  25.575  26.245  1.00  0.00     0.170 HD
BRANCH   6  16
ATOM     16  C   UNL A   1      32.987  21.435  25.275  1.00  0.00     0.012 A 
ATOM     17  C   UNL A   1      33.226  19.105  24.535  1.00  0.00     0.165 A 
ATOM     18  C   UNL A   1      33.316  20.078  25.531  1.00  0.00     0.059 A 
ATOM     19  C   UNL A   1      32.688  19.475  23.319  1.00  0.00     0.211 A 
ATOM     20  C   UNL A   1      32.309  20.779  23.064  1.00  0.00     0.211 A 
ATOM     21  O   UNL A   1      32.457  18.654  22.257  1.00  0.00    -0.449 OA
ATOM     22  C   UNL A   1      32.460  21.786  24.006  1.00  0.00     0.168 A 
ATOM     23  O   UNL A   1      31.812  20.911  21.799  1.00  0.00    -0.449 OA
ATOM     24  C   UNL A   1      31.805  19.550  21.346  1.00  0.00     0.468 C 
BRANCH  17  25
ATOM     25  O   UNL A   1      33.661  17.852  24.856  1.00  0.00    -0.493 OA
ATOM     26  C   UNL A   1      32.783  17.177  25.757  1.00  0.00     0.278 C 
ENDBRANCH  17  25
BRANCH  22  27
ATOM     27  O   UNL A   1      32.163  23.099  23.816  1.00  0.00    -0.492 OA
ATOM     28  C   UNL A   1      30.900  23.473  23.293  1.00  0.00     0.278 C 
ENDBRANCH  22  27
ENDBRANCH   6  16
BRANCH  11  29
ATOM     29  C   UNL A   1      36.108  23.476  25.410  1.00  0.00     0.046 A 
ATOM     30  C   UNL A   1      36.171  22.317  24.635  1.00  0.00     0.029 A 
ATOM     31  C   UNL A   1      37.201  23.875  26.188  1.00  0.00     0.029 A 
ATOM     32  C   UNL A   1      37.292  21.494  24.706  1.00  0.00     0.041 A 
ATOM     33  C   UNL A   1      38.325  23.046  26.253  1.00  0.00     0.041 A 
ATOM     34  C   UNL A   1      38.352  21.856  25.528  1.00  0.00     0.123 A 
ATOM     35  F   UNL A   1      39.416  21.049  25.621  1.00  0.00    -0.207 F 
ENDBRANCH  11  29
ENDBRANCH   3   5
ENDBRANCH   2   3
ENDBRANCH   1   2
BRANCH   1  36
ATOM     36  C   UNL A   1      33.859  30.240  26.545  1.00  0.00     0.275 C 
BRANCH  36  37
ATOM     37  O   UNL A   1      34.101  30.622  27.899  1.00  0.00    -0.458 OA
BRANCH  37  38
ATOM     38  C   UNL A   1      35.049  31.571  28.064  1.00  0.00     0.338 C 
ATOM     39  O   UNL A   1      35.078  32.685  27.568  1.00  0.00    -0.246 OA
BRANCH  38  40
ATOM     40  C   UNL A   1      36.192  30.987  28.764  1.00  0.00     0.060 A 
ATOM     41  C   UNL A   1      37.332  31.782  28.920  1.00  0.00     0.016 A 
ATOM     42  C   UNL A   1      36.219  29.601  28.965  1.00  0.00     0.016 A 
ATOM     43  C   UNL A   1      38.544  31.157  29.119  1.00  0.00     0.010 A 
ATOM     44  C   UNL A   1      37.429  28.978  29.138  1.00  0.00     0.010 A 
ATOM     45  C   UNL A   1      38.582  29.757  29.144  1.00  0.00    -0.014 A 
BRANCH  45  46
ATOM     46  C   UNL A   1      39.861  29.106  29.326  1.00  0.00     0.031 A 
ATOM     47  C   UNL A   1      40.169  28.843  30.752  1.00  0.00     0.074 A 
ATOM     48  C   UNL A   1      40.593  28.657  28.287  1.00  0.00     0.049 A 
ATOM     49  N   UNL A   1      41.147  29.319  31.446  1.00  0.00    -0.248 NA
ATOM     50  C   UNL A   1      39.176  28.099  31.547  1.00  0.00     0.031 C 
ATOM     51  C   UNL A   1      40.222  28.616  26.870  1.00  0.00     0.029 A 
ATOM     52  N   UNL A   1      41.797  28.029  28.301  1.00  0.00    -0.354 N 
ATOM     53  C   UNL A   1      41.006  28.772  32.717  1.00  0.00     0.074 A 
ATOM     54  C   UNL A   1      39.694  28.189  32.771  1.00  0.00     0.031 C 
ATOM     55  C   UNL A   1      41.070  27.789  26.213  1.00  0.00     0.029 A 
ATOM     56  C   UNL A   1      42.102  27.342  27.133  1.00  0.00     0.049 A 
ATOM     57  H   UNL A   1      42.404  28.058  29.076  1.00  0.00     0.167 HD
ATOM     58  C   UNL A   1      42.080  28.627  33.537  1.00  0.00     0.037 A 
ATOM     59  C   UNL A   1      43.084  26.415  26.986  1.00  0.00     0.037 A 
ATOM     60  C   UNL A   1      43.174  29.461  33.110  1.00  0.00     0.049 A 
ATOM     61  C   UNL A   1      44.023  26.574  28.128  1.00  0.00     0.074 A 
ATOM     62  C   UNL A   1      43.342  30.823  32.942  1.00  0.00     0.029 A 
ATOM     63  N   UNL A   1      44.191  28.866  32.405  1.00  0.00    -0.354 N 
ATOM     64  N   UNL A   1      44.824  27.592  28.272  1.00  0.00    -0.248 NA
ATOM     65  C   UNL A   1      43.726  25.838  29.350  1.00  0.00     0.031 C 
ATOM     66  C   UNL A   1      44.142  30.954  31.770  1.00  0.00     0.029 A 
ATOM     67  C   UNL A   1      44.478  29.672  31.335  1.00  0.00     0.049 A 
ATOM     68  H   UNL A   1      44.633  28.014  32.627  1.00  0.00     0.167 HD
ATOM     69  C   UNL A   1      44.765  27.896  29.623  1.00  0.00     0.074 A 
ATOM     70  C   UNL A   1      44.138  26.735  30.252  1.00  0.00     0.031 C 
ATOM     71  C   UNL A   1      44.952  29.174  30.065  1.00  0.00     0.037 A 
BRANCH  58  72
ATOM     72  C   UNL A   1      42.274  27.461  34.471  1.00  0.00     0.057 A 
ATOM     73  C   UNL A   1      41.933  27.612  35.827  1.00  0.00     0.134 A 
ATOM     74  C   UNL A   1      43.048  26.322  34.171  1.00  0.00     0.134 A 
ATOM     75  F   UNL A   1      41.207  28.662  36.241  1.00  0.00    -0.206 F 
ATOM     76  C   UNL A   1      42.400  26.743  36.819  1.00  0.00     0.040 A 
ATOM     77  C   UNL A   1      43.476  25.418  35.147  1.00  0.00     0.040 A 
ATOM     78  F   UNL A   1      43.522  26.072  32.946  1.00  0.00    -0.206 F 
ATOM     79  C   UNL A   1      43.183  25.646  36.480  1.00  0.00     0.006 A 
ENDBRANCH  58  72
BRANCH  59  80
ATOM     80  C   UNL A   1      43.108  25.208  26.124  1.00  0.00     0.057 A 
ATOM     81  C   UNL A   1      44.141  25.003  25.196  1.00  0.00     0.134 A 
ATOM     82  C   UNL A   1      42.285  24.098  26.381  1.00  0.00     0.134 A 
ATOM     83  F   UNL A   1      45.005  25.987  24.910  1.00  0.00    -0.206 F 
ATOM     84  C   UNL A   1      44.362  23.761  24.586  1.00  0.00     0.040 A 
ATOM     85  C   UNL A   1      42.489  22.855  25.772  1.00  0.00     0.040 A 
ATOM     86  F   UNL A   1      41.311  24.153  27.300  1.00  0.00    -0.206 F 
ATOM     87  C   UNL A   1      43.541  22.677  24.883  1.00  0.00     0.006 A 
ENDBRANCH  59  80
BRANCH  71  88
ATOM     88  C   UNL A   1      45.477  30.190  29.090  1.00  0.00     0.057 A 
ATOM     89  C   UNL A   1      44.677  30.939  28.213  1.00  0.00     0.134 A 
ATOM     90  C   UNL A   1      46.836  30.521  29.142  1.00  0.00     0.134 A 
ATOM     91  F   UNL A   1      43.348  30.774  28.169  1.00  0.00    -0.206 F 
ATOM     92  C   UNL A   1      45.217  31.931  27.388  1.00  0.00     0.040 A 
ATOM     93  C   UNL A   1      47.380  31.536  28.353  1.00  0.00     0.040 A 
ATOM     94  F   UNL A   1      47.653  29.890  29.999  1.00  0.00    -0.206 F 
ATOM     95  C   UNL A   1      46.573  32.235  27.460  1.00  0.00     0.006 A 
ENDBRANCH  71  88
ENDBRANCH  45  46
ENDBRANCH  38  40
ENDBRANCH  37  38
ENDBRANCH  36  37
ENDBRANCH   1  36
TORSDOF 15
ENDMDL
