MODEL 1
REMARK VINA RESULT:     -10.1      0.000      0.000
REMARK SMILES CSC[C@H](C(=O)OCCOC(=O)c1ccc(-c2c3nc(c(-c4c(F)cccc4F)c4ccc([nH]4)c(-c4c(F)cccc4F)c4nc(c(-c5c(F)cccc5F)c5ccc2[nH]5)C=C4)C=C3)cc1)c1ccccc1
REMARK SMILES IDX 8 1 7 2 5 3 6 4 4 5 3 6 2 7 1 8 67 9 68 10 72 11 69 12 71 13
REMARK SMILES IDX 70 14 9 15 10 16 11 17 12 18 13 19 14 20 66 21 15 22 65 23
REMARK SMILES IDX 16 24 17 25 18 26 59 27 19 28 64 29 58 30 60 31 20 32 63 33
REMARK SMILES IDX 57 34 56 35 21 37 47 38 30 39 46 40 31 41 34 42 45 43 61 44
REMARK SMILES IDX 32 45 33 46 44 48 62 49 35 50 22 51 23 52 28 53 24 54 25 55
REMARK SMILES IDX 27 56 29 57 26 58 48 59 49 60 54 61 50 62 51 63 53 64 55 65
REMARK SMILES IDX 52 66 36 67 37 68 42 69 38 70 39 71 41 72 43 73 40 74
REMARK H PARENT 60 36 34 47
REMARK Flexibility Score: inf
ROOT
ATOM      1  C   UNL A   1      31.404  31.682  26.711  1.00  0.00     0.274 C 
ENDROOT
BRANCH   1   2
ATOM      2  O   UNL A   1      32.338  30.852  25.981  1.00  0.00    -0.462 OA
BRANCH   2   3
ATOM      3  C   UNL A   1      31.876  29.586  25.780  1.00  0.00     0.314 C 
ATOM      4  O   UNL A   1      31.687  28.804  26.687  1.00  0.00    -0.252 OA
BRANCH   3   5
ATOM      5  C   UNL A   1      31.704  29.230  24.311  1.00  0.00     0.139 C 
BRANCH   5   6
ATOM      6  C   UNL A   1      32.509  27.912  24.115  1.00  0.00     0.089 C 
BRANCH   6   7
ATOM      7  S   UNL A   1      33.163  27.506  22.427  1.00  0.00    -0.164 SA
ATOM      8  C   UNL A   1      32.220  26.014  21.997  1.00  0.00     0.085 C 
ENDBRANCH   6   7
ENDBRANCH   5   6
BRANCH   5   9
ATOM      9  C   UNL A   1      30.243  29.264  23.849  1.00  0.00    -0.033 A 
ATOM     10  C   UNL A   1      29.534  30.462  23.656  1.00  0.00     0.004 A 
ATOM     11  C   UNL A   1      29.545  28.064  23.617  1.00  0.00     0.004 A 
ATOM     12  C   UNL A   1      28.236  30.467  23.134  1.00  0.00     0.000 A 
ATOM     13  C   UNL A   1      28.243  28.067  23.097  1.00  0.00     0.000 A 
ATOM     14  C   UNL A   1      27.597  29.270  22.834  1.00  0.00     0.000 A 
ENDBRANCH   5   9
ENDBRANCH   3   5
ENDBRANCH   2   3
ENDBRANCH   1   2
BRANCH   1  15
ATOM     15  C   UNL A   1      31.862  33.142  26.846  1.00  0.00     0.275 C 
BRANCH  15  16
ATOM     16  O   UNL A   1      32.259  33.460  28.199  1.00  0.00    -0.458 OA
BRANCH  16  17
ATOM     17  C   UNL A   1      33.410  34.154  28.335  1.00  0.00     0.338 C 
ATOM     18  O   UNL A   1      33.513  35.367  28.459  1.00  0.00    -0.246 OA
BRANCH  17  19
ATOM     19  C   UNL A   1      34.606  33.280  28.358  1.00  0.00     0.060 A 
ATOM     20  C   UNL A   1      34.478  31.923  28.647  1.00  0.00     0.016 A 
ATOM     21  C   UNL A   1      35.874  33.860  28.379  1.00  0.00     0.016 A 
ATOM     22  C   UNL A   1      35.571  31.177  29.084  1.00  0.00     0.010 A 
ATOM     23  C   UNL A   1      36.990  33.093  28.747  1.00  0.00     0.010 A 
ATOM     24  C   UNL A   1      36.835  31.761  29.174  1.00  0.00    -0.014 A 
BRANCH  24  25
ATOM     25  C   UNL A   1      37.933  31.037  29.875  1.00  0.00     0.031 A 
ATOM     26  C   UNL A   1      38.139  31.261  31.352  1.00  0.00     0.074 A 
ATOM     27  C   UNL A   1      38.687  30.117  29.242  1.00  0.00     0.049 A 
ATOM     28  N   UNL A   1      39.126  30.878  32.124  1.00  0.00    -0.248 NA
ATOM     29  C   UNL A   1      37.095  32.027  32.053  1.00  0.00     0.031 C 
ATOM     30  C   UNL A   1      38.534  29.708  27.846  1.00  0.00     0.029 A 
ATOM     31  N   UNL A   1      39.726  29.346  29.702  1.00  0.00    -0.354 N 
ATOM     32  C   UNL A   1      38.856  31.414  33.378  1.00  0.00     0.074 A 
ATOM     33  C   UNL A   1      37.610  32.141  33.268  1.00  0.00     0.031 C 
ATOM     34  C   UNL A   1      39.426  28.742  27.572  1.00  0.00     0.029 A 
ATOM     35  C   UNL A   1      40.266  28.521  28.746  1.00  0.00     0.049 A 
ATOM     36  H   UNL A   1      40.053  29.381  30.631  1.00  0.00     0.167 HD
ATOM     37  C   UNL A   1      39.584  31.312  34.515  1.00  0.00     0.037 A 
ATOM     38  C   UNL A   1      41.339  27.710  28.793  1.00  0.00     0.037 A 
ATOM     39  C   UNL A   1      40.785  30.528  34.642  1.00  0.00     0.049 A 
ATOM     40  C   UNL A   1      42.147  27.628  30.060  1.00  0.00     0.074 A 
ATOM     41  C   UNL A   1      41.610  30.380  35.744  1.00  0.00     0.029 A 
ATOM     42  N   UNL A   1      41.314  29.731  33.638  1.00  0.00    -0.354 N 
ATOM     43  N   UNL A   1      41.950  28.229  31.207  1.00  0.00    -0.248 NA
ATOM     44  C   UNL A   1      43.337  26.766  30.030  1.00  0.00     0.031 C 
ATOM     45  C   UNL A   1      42.649  29.509  35.400  1.00  0.00     0.029 A 
ATOM     46  C   UNL A   1      42.450  29.085  34.097  1.00  0.00     0.049 A 
ATOM     47  H   UNL A   1      40.937  29.639  32.733  1.00  0.00     0.167 HD
ATOM     48  C   UNL A   1      42.976  27.806  32.041  1.00  0.00     0.074 A 
ATOM     49  C   UNL A   1      43.785  26.882  31.271  1.00  0.00     0.031 C 
ATOM     50  C   UNL A   1      43.232  28.156  33.324  1.00  0.00     0.037 A 
BRANCH  37  51
ATOM     51  C   UNL A   1      39.127  32.108  35.702  1.00  0.00     0.057 A 
ATOM     52  C   UNL A   1      39.495  33.443  35.900  1.00  0.00     0.134 A 
ATOM     53  C   UNL A   1      38.282  31.523  36.656  1.00  0.00     0.134 A 
ATOM     54  F   UNL A   1      40.316  34.056  35.034  1.00  0.00    -0.206 F 
ATOM     55  C   UNL A   1      39.056  34.163  37.013  1.00  0.00     0.040 A 
ATOM     56  C   UNL A   1      37.818  32.240  37.760  1.00  0.00     0.040 A 
ATOM     57  F   UNL A   1      37.888  30.247  36.527  1.00  0.00    -0.206 F 
ATOM     58  C   UNL A   1      38.210  33.563  37.944  1.00  0.00     0.006 A 
ENDBRANCH  37  51
BRANCH  38  59
ATOM     59  C   UNL A   1      41.744  26.940  27.589  1.00  0.00     0.057 A 
ATOM     60  C   UNL A   1      41.346  25.611  27.408  1.00  0.00     0.134 A 
ATOM     61  C   UNL A   1      42.557  27.511  26.602  1.00  0.00     0.134 A 
ATOM     62  F   UNL A   1      40.593  24.998  28.332  1.00  0.00    -0.206 F 
ATOM     63  C   UNL A   1      41.752  24.873  26.293  1.00  0.00     0.040 A 
ATOM     64  C   UNL A   1      42.945  26.795  25.469  1.00  0.00     0.040 A 
ATOM     65  F   UNL A   1      42.975  28.780  26.719  1.00  0.00    -0.206 F 
ATOM     66  C   UNL A   1      42.548  25.469  25.317  1.00  0.00     0.006 A 
ENDBRANCH  38  59
BRANCH  50  67
ATOM     67  C   UNL A   1      44.404  27.497  33.989  1.00  0.00     0.057 A 
ATOM     68  C   UNL A   1      45.680  28.074  33.984  1.00  0.00     0.134 A 
ATOM     69  C   UNL A   1      44.247  26.275  34.655  1.00  0.00     0.134 A 
ATOM     70  F   UNL A   1      45.898  29.237  33.352  1.00  0.00    -0.206 F 
ATOM     71  C   UNL A   1      46.767  27.444  34.593  1.00  0.00     0.040 A 
ATOM     72  C   UNL A   1      45.321  25.646  35.287  1.00  0.00     0.040 A 
ATOM     73  F   UNL A   1      43.049  25.674  34.702  1.00  0.00    -0.206 F 
ATOM     74  C   UNL A   1      46.587  26.228  35.250  1.00  0.00     0.006 A 
ENDBRANCH  50  67
ENDBRANCH  24  25
ENDBRANCH  17  19
ENDBRANCH  16  17
ENDBRANCH  15  16
ENDBRANCH   1  15
TORSDOF 14
ENDMDL
MODEL 2
REMARK VINA RESULT:      -9.9      5.630      8.531
REMARK SMILES CSC[C@H](C(=O)OCCOC(=O)c1ccc(-c2c3nc(c(-c4c(F)cccc4F)c4ccc([nH]4)c(-c4c(F)cccc4F)c4nc(c(-c5c(F)cccc5F)c5ccc2[nH]5)C=C4)C=C3)cc1)c1ccccc1
REMARK SMILES IDX 8 1 7 2 5 3 6 4 4 5 3 6 2 7 1 8 67 9 68 10 72 11 69 12 71 13
REMARK SMILES IDX 70 14 9 15 10 16 11 17 12 18 13 19 14 20 66 21 15 22 65 23
REMARK SMILES IDX 16 24 17 25 18 26 59 27 19 28 64 29 58 30 60 31 20 32 63 33
REMARK SMILES IDX 57 34 56 35 21 37 47 38 30 39 46 40 31 41 34 42 45 43 61 44
REMARK SMILES IDX 32 45 33 46 44 48 62 49 35 50 22 51 23 52 28 53 24 54 25 55
REMARK SMILES IDX 27 56 29 57 26 58 48 59 49 60 54 61 50 62 51 63 53 64 55 65
REMARK SMILES IDX 52 66 36 67 37 68 42 69 38 70 39 71 41 72 43 73 40 74
REMARK H PARENT 60 36 34 47
REMARK Flexibility Score: inf
ROOT
ATOM      1  C   UNL A   1      36.043  21.259  25.020  1.00  0.00     0.274 C 
ENDROOT
BRANCH   1   2
ATOM      2  O   UNL A   1      34.969  20.289  25.037  1.00  0.00    -0.462 OA
BRANCH   2   3
ATOM      3  C   UNL A   1      33.743  20.857  25.214  1.00  0.00     0.314 C 
ATOM      4  O   UNL A   1      33.572  21.851  25.885  1.00  0.00    -0.252 OA
BRANCH   3   5
ATOM      5  C   UNL A   1      32.613  20.077  24.560  1.00  0.00     0.139 C 
BRANCH   5   6
ATOM      6  C   UNL A   1      32.367  20.787  23.195  1.00  0.00     0.089 C 
BRANCH   6   7
ATOM      7  S   UNL A   1      31.831  22.562  23.195  1.00  0.00    -0.164 SA
ATOM      8  C   UNL A   1      33.253  23.395  22.430  1.00  0.00     0.085 C 
ENDBRANCH   6   7
ENDBRANCH   5   6
BRANCH   5   9
ATOM      9  C   UNL A   1      32.845  18.562  24.560  1.00  0.00    -0.033 A 
ATOM     10  C   UNL A   1      33.333  17.867  23.440  1.00  0.00     0.004 A 
ATOM     11  C   UNL A   1      32.551  17.801  25.707  1.00  0.00     0.004 A 
ATOM     12  C   UNL A   1      33.634  16.502  23.502  1.00  0.00     0.000 A 
ATOM     13  C   UNL A   1      32.849  16.433  25.769  1.00  0.00     0.000 A 
ATOM     14  C   UNL A   1      33.412  15.788  24.673  1.00  0.00     0.000 A 
ENDBRANCH   5   9
ENDBRANCH   3   5
ENDBRANCH   2   3
ENDBRANCH   1   2
BRANCH   1  15
ATOM     15  C   UNL A   1      37.440  20.622  24.992  1.00  0.00     0.275 C 
BRANCH  15  16
ATOM     16  O   UNL A   1      38.486  21.611  25.120  1.00  0.00    -0.458 OA
BRANCH  16  17
ATOM     17  C   UNL A   1      39.407  21.384  26.081  1.00  0.00     0.338 C 
ATOM     18  O   UNL A   1      39.947  20.314  26.328  1.00  0.00    -0.246 OA
BRANCH  17  19
ATOM     19  C   UNL A   1      39.761  22.609  26.836  1.00  0.00     0.060 A 
ATOM     20  C   UNL A   1      39.217  23.839  26.473  1.00  0.00     0.016 A 
ATOM     21  C   UNL A   1      40.847  22.580  27.711  1.00  0.00     0.016 A 
ATOM     22  C   UNL A   1      39.821  25.033  26.862  1.00  0.00     0.010 A 
ATOM     23  C   UNL A   1      41.414  23.781  28.165  1.00  0.00     0.010 A 
ATOM     24  C   UNL A   1      40.949  25.020  27.683  1.00  0.00    -0.014 A 
BRANCH  24  25
ATOM     25  C   UNL A   1      41.730  26.273  27.883  1.00  0.00     0.031 A 
ATOM     26  C   UNL A   1      41.150  27.376  28.733  1.00  0.00     0.074 A 
ATOM     27  C   UNL A   1      42.981  26.408  27.401  1.00  0.00     0.049 A 
ATOM     28  N   UNL A   1      41.568  28.606  28.901  1.00  0.00    -0.248 NA
ATOM     29  C   UNL A   1      39.930  27.051  29.490  1.00  0.00     0.031 C 
ATOM     30  C   UNL A   1      43.721  25.388  26.658  1.00  0.00     0.029 A 
ATOM     31  N   UNL A   1      43.858  27.462  27.481  1.00  0.00    -0.354 N 
ATOM     32  C   UNL A   1      40.627  29.217  29.722  1.00  0.00     0.074 A 
ATOM     33  C   UNL A   1      39.622  28.222  30.027  1.00  0.00     0.031 C 
ATOM     34  C   UNL A   1      44.947  25.854  26.376  1.00  0.00     0.029 A 
ATOM     35  C   UNL A   1      45.054  27.233  26.846  1.00  0.00     0.049 A 
ATOM     36  H   UNL A   1      43.650  28.303  27.951  1.00  0.00     0.167 HD
ATOM     37  C   UNL A   1      40.602  30.492  30.177  1.00  0.00     0.037 A 
ATOM     38  C   UNL A   1      46.101  28.050  26.628  1.00  0.00     0.037 A 
ATOM     39  C   UNL A   1      41.641  31.460  29.935  1.00  0.00     0.049 A 
ATOM     40  C   UNL A   1      46.044  29.470  27.122  1.00  0.00     0.074 A 
ATOM     41  C   UNL A   1      41.698  32.786  30.330  1.00  0.00     0.029 A 
ATOM     42  N   UNL A   1      42.822  31.194  29.259  1.00  0.00    -0.354 N 
ATOM     43  N   UNL A   1      45.098  30.073  27.799  1.00  0.00    -0.248 NA
ATOM     44  C   UNL A   1      47.196  30.327  26.806  1.00  0.00     0.031 C 
ATOM     45  C   UNL A   1      42.906  33.327  29.875  1.00  0.00     0.029 A 
ATOM     46  C   UNL A   1      43.616  32.328  29.231  1.00  0.00     0.049 A 
ATOM     47  H   UNL A   1      43.060  30.327  28.858  1.00  0.00     0.167 HD
ATOM     48  C   UNL A   1      45.546  31.371  28.006  1.00  0.00     0.074 A 
ATOM     49  C   UNL A   1      46.858  31.463  27.398  1.00  0.00     0.031 C 
ATOM     50  C   UNL A   1      44.925  32.397  28.636  1.00  0.00     0.037 A 
BRANCH  37  51
ATOM     51  C   UNL A   1      39.390  30.929  30.945  1.00  0.00     0.057 A 
ATOM     52  C   UNL A   1      39.311  30.840  32.340  1.00  0.00     0.134 A 
ATOM     53  C   UNL A   1      38.288  31.470  30.269  1.00  0.00     0.134 A 
ATOM     54  F   UNL A   1      40.325  30.316  33.045  1.00  0.00    -0.206 F 
ATOM     55  C   UNL A   1      38.171  31.254  33.033  1.00  0.00     0.040 A 
ATOM     56  C   UNL A   1      37.153  31.909  30.953  1.00  0.00     0.040 A 
ATOM     57  F   UNL A   1      38.298  31.587  28.932  1.00  0.00    -0.206 F 
ATOM     58  C   UNL A   1      37.091  31.796  32.340  1.00  0.00     0.006 A 
ENDBRANCH  37  51
BRANCH  38  59
ATOM     59  C   UNL A   1      47.280  27.564  25.866  1.00  0.00     0.057 A 
ATOM     60  C   UNL A   1      47.320  27.629  24.469  1.00  0.00     0.134 A 
ATOM     61  C   UNL A   1      48.386  27.004  26.518  1.00  0.00     0.134 A 
ATOM     62  F   UNL A   1      46.280  28.127  23.785  1.00  0.00    -0.206 F 
ATOM     63  C   UNL A   1      48.413  27.144  23.746  1.00  0.00     0.040 A 
ATOM     64  C   UNL A   1      49.496  26.542  25.810  1.00  0.00     0.040 A 
ATOM     65  F   UNL A   1      48.407  26.908  27.856  1.00  0.00    -0.206 F 
ATOM     66  C   UNL A   1      49.507  26.605  24.419  1.00  0.00     0.006 A 
ENDBRANCH  38  59
BRANCH  50  67
ATOM     67  C   UNL A   1      45.681  33.688  28.742  1.00  0.00     0.057 A 
ATOM     68  C   UNL A   1      45.563  34.697  27.778  1.00  0.00     0.134 A 
ATOM     69  C   UNL A   1      46.527  33.929  29.832  1.00  0.00     0.134 A 
ATOM     70  F   UNL A   1      44.778  34.523  26.703  1.00  0.00    -0.206 F 
ATOM     71  C   UNL A   1      46.283  35.889  27.879  1.00  0.00     0.040 A 
ATOM     72  C   UNL A   1      47.234  35.125  29.956  1.00  0.00     0.040 A 
ATOM     73  F   UNL A   1      46.678  33.006  30.794  1.00  0.00    -0.206 F 
ATOM     74  C   UNL A   1      47.119  36.106  28.973  1.00  0.00     0.006 A 
ENDBRANCH  50  67
ENDBRANCH  24  25
ENDBRANCH  17  19
ENDBRANCH  16  17
ENDBRANCH  15  16
ENDBRANCH   1  15
TORSDOF 14
ENDMDL
MODEL 3
REMARK VINA RESULT:      -9.9      5.366     10.073
REMARK SMILES CSC[C@H](C(=O)OCCOC(=O)c1ccc(-c2c3nc(c(-c4c(F)cccc4F)c4ccc([nH]4)c(-c4c(F)cccc4F)c4nc(c(-c5c(F)cccc5F)c5ccc2[nH]5)C=C4)C=C3)cc1)c1ccccc1
REMARK SMILES IDX 8 1 7 2 5 3 6 4 4 5 3 6 2 7 1 8 67 9 68 10 72 11 69 12 71 13
REMARK SMILES IDX 70 14 9 15 10 16 11 17 12 18 13 19 14 20 66 21 15 22 65 23
REMARK SMILES IDX 16 24 17 25 18 26 59 27 19 28 64 29 58 30 60 31 20 32 63 33
REMARK SMILES IDX 57 34 56 35 21 37 47 38 30 39 46 40 31 41 34 42 45 43 61 44
REMARK SMILES IDX 32 45 33 46 44 48 62 49 35 50 22 51 23 52 28 53 24 54 25 55
REMARK SMILES IDX 27 56 29 57 26 58 48 59 49 60 54 61 50 62 51 63 53 64 55 65
REMARK SMILES IDX 52 66 36 67 37 68 42 69 38 70 39 71 41 72 43 73 40 74
REMARK H PARENT 60 36 34 47
REMARK Flexibility Score: inf
ROOT
ATOM      1  C   UNL A   1      36.129  21.021  25.565  1.00  0.00     0.274 C 
ENDROOT
BRANCH   1   2
ATOM      2  O   UNL A   1      35.012  21.034  24.645  1.00  0.00    -0.462 OA
BRANCH   2   3
ATOM      3  C   UNL A   1      33.822  21.287  25.259  1.00  0.00     0.314 C 
ATOM      4  O   UNL A   1      33.731  21.956  26.265  1.00  0.00    -0.252 OA
BRANCH   3   5
ATOM      5  C   UNL A   1      32.642  20.583  24.606  1.00  0.00     0.139 C 
BRANCH   5   6
ATOM      6  C   UNL A   1      32.367  21.379  23.297  1.00  0.00     0.089 C 
BRANCH   6   7
ATOM      7  S   UNL A   1      31.783  23.135  23.424  1.00  0.00    -0.164 SA
ATOM      8  C   UNL A   1      33.202  24.062  22.771  1.00  0.00     0.085 C 
ENDBRANCH   6   7
ENDBRANCH   5   6
BRANCH   5   9
ATOM      9  C   UNL A   1      32.823  19.064  24.509  1.00  0.00    -0.033 A 
ATOM     10  C   UNL A   1      33.023  18.398  23.288  1.00  0.00     0.004 A 
ATOM     11  C   UNL A   1      32.774  18.269  25.671  1.00  0.00     0.004 A 
ATOM     12  C   UNL A   1      33.290  17.025  23.240  1.00  0.00     0.000 A 
ATOM     13  C   UNL A   1      33.037  16.894  25.624  1.00  0.00     0.000 A 
ATOM     14  C   UNL A   1      33.318  16.276  24.410  1.00  0.00     0.000 A 
ENDBRANCH   5   9
ENDBRANCH   3   5
ENDBRANCH   2   3
ENDBRANCH   1   2
BRANCH   1  15
ATOM     15  C   UNL A   1      37.407  20.419  24.964  1.00  0.00     0.275 C 
BRANCH  15  16
ATOM     16  O   UNL A   1      38.517  21.343  25.022  1.00  0.00    -0.458 OA
BRANCH  16  17
ATOM     17  C   UNL A   1      39.410  21.140  26.015  1.00  0.00     0.338 C 
ATOM     18  O   UNL A   1      39.995  20.093  26.259  1.00  0.00    -0.246 OA
BRANCH  17  19
ATOM     19  C   UNL A   1      39.668  22.362  26.811  1.00  0.00     0.060 A 
ATOM     20  C   UNL A   1      38.964  23.535  26.547  1.00  0.00     0.016 A 
ATOM     21  C   UNL A   1      40.804  22.422  27.619  1.00  0.00     0.016 A 
ATOM     22  C   UNL A   1      39.451  24.772  26.961  1.00  0.00     0.010 A 
ATOM     23  C   UNL A   1      41.257  23.659  28.101  1.00  0.00     0.010 A 
ATOM     24  C   UNL A   1      40.623  24.855  27.714  1.00  0.00    -0.014 A 
BRANCH  24  25
ATOM     25  C   UNL A   1      41.266  26.182  27.934  1.00  0.00     0.031 A 
ATOM     26  C   UNL A   1      42.627  26.449  27.341  1.00  0.00     0.074 A 
ATOM     27  C   UNL A   1      40.622  27.180  28.569  1.00  0.00     0.049 A 
ATOM     28  N   UNL A   1      43.441  27.454  27.546  1.00  0.00    -0.248 NA
ATOM     29  C   UNL A   1      43.142  25.445  26.397  1.00  0.00     0.031 C 
ATOM     30  C   UNL A   1      39.259  27.112  29.097  1.00  0.00     0.029 A 
ATOM     31  N   UNL A   1      41.028  28.459  28.863  1.00  0.00    -0.354 N 
ATOM     32  C   UNL A   1      44.588  27.167  26.813  1.00  0.00     0.074 A 
ATOM     33  C   UNL A   1      44.362  25.900  26.152  1.00  0.00     0.031 C 
ATOM     34  C   UNL A   1      38.933  28.303  29.624  1.00  0.00     0.029 A 
ATOM     35  C   UNL A   1      40.088  29.192  29.544  1.00  0.00     0.049 A 
ATOM     36  H   UNL A   1      41.910  28.816  28.608  1.00  0.00     0.167 HD
ATOM     37  C   UNL A   1      45.727  27.892  26.706  1.00  0.00     0.037 A 
ATOM     38  C   UNL A   1      40.159  30.426  30.080  1.00  0.00     0.037 A 
ATOM     39  C   UNL A   1      45.923  29.187  27.304  1.00  0.00     0.049 A 
ATOM     40  C   UNL A   1      41.440  31.206  29.969  1.00  0.00     0.074 A 
ATOM     41  C   UNL A   1      47.049  29.992  27.276  1.00  0.00     0.029 A 
ATOM     42  N   UNL A   1      44.954  29.881  28.013  1.00  0.00    -0.354 N 
ATOM     43  N   UNL A   1      42.560  30.877  29.372  1.00  0.00    -0.248 NA
ATOM     44  C   UNL A   1      41.472  32.522  30.621  1.00  0.00     0.031 C 
ATOM     45  C   UNL A   1      46.767  31.165  27.986  1.00  0.00     0.029 A 
ATOM     46  C   UNL A   1      45.454  31.106  28.422  1.00  0.00     0.049 A 
ATOM     47  H   UNL A   1      44.045  29.551  28.198  1.00  0.00     0.167 HD
ATOM     48  C   UNL A   1      43.421  31.950  29.560  1.00  0.00     0.074 A 
ATOM     49  C   UNL A   1      42.688  32.948  30.311  1.00  0.00     0.031 C 
ATOM     50  C   UNL A   1      44.706  32.094  29.154  1.00  0.00     0.037 A 
BRANCH  37  51
ATOM     51  C   UNL A   1      46.868  27.279  25.950  1.00  0.00     0.057 A 
ATOM     52  C   UNL A   1      47.056  27.483  24.578  1.00  0.00     0.134 A 
ATOM     53  C   UNL A   1      47.808  26.485  26.620  1.00  0.00     0.134 A 
ATOM     54  F   UNL A   1      46.182  28.217  23.874  1.00  0.00    -0.206 F 
ATOM     55  C   UNL A   1      48.127  26.901  23.895  1.00  0.00     0.040 A 
ATOM     56  C   UNL A   1      48.896  25.919  25.953  1.00  0.00     0.040 A 
ATOM     57  F   UNL A   1      47.690  26.252  27.936  1.00  0.00    -0.206 F 
ATOM     58  C   UNL A   1      49.055  26.122  24.584  1.00  0.00     0.006 A 
ENDBRANCH  37  51
BRANCH  38  59
ATOM     59  C   UNL A   1      38.996  30.987  30.814  1.00  0.00     0.057 A 
ATOM     60  C   UNL A   1      38.021  31.748  30.159  1.00  0.00     0.134 A 
ATOM     61  C   UNL A   1      38.844  30.791  32.192  1.00  0.00     0.134 A 
ATOM     62  F   UNL A   1      38.126  31.996  28.846  1.00  0.00    -0.206 F 
ATOM     63  C   UNL A   1      36.943  32.305  30.852  1.00  0.00     0.040 A 
ATOM     64  C   UNL A   1      37.757  31.317  32.891  1.00  0.00     0.040 A 
ATOM     65  F   UNL A   1      39.747  30.074  32.879  1.00  0.00    -0.206 F 
ATOM     66  C   UNL A   1      36.807  32.083  32.221  1.00  0.00     0.006 A 
ENDBRANCH  38  59
BRANCH  50  67
ATOM     67  C   UNL A   1      45.378  33.396  29.471  1.00  0.00     0.057 A 
ATOM     68  C   UNL A   1      45.277  34.508  28.627  1.00  0.00     0.134 A 
ATOM     69  C   UNL A   1      46.126  33.541  30.647  1.00  0.00     0.134 A 
ATOM     70  F   UNL A   1      44.586  34.431  27.479  1.00  0.00    -0.206 F 
ATOM     71  C   UNL A   1      45.920  35.711  28.925  1.00  0.00     0.040 A 
ATOM     72  C   UNL A   1      46.755  34.744  30.967  1.00  0.00     0.040 A 
ATOM     73  F   UNL A   1      46.256  32.515  31.502  1.00  0.00    -0.206 F 
ATOM     74  C   UNL A   1      46.659  35.832  30.101  1.00  0.00     0.006 A 
ENDBRANCH  50  67
ENDBRANCH  24  25
ENDBRANCH  17  19
ENDBRANCH  16  17
ENDBRANCH  15  16
ENDBRANCH   1  15
TORSDOF 14
ENDMDL
