MODEL 1
REMARK VINA RESULT:      -9.9      0.000      0.000
REMARK SMILES C[C@@H](CC(=O)OCCOC(=O)c1ccc(-c2c3nc(c(-c4c(F)cccc4F)c4ccc([nH]4)c(-c4c(F)cccc4F)c4nc(c(-c5c(F)cccc5F)c5ccc2[nH]5)C=C4)C=C3)cc1)CC(=O)N(C)C[C@H]1CCC[N@H+]1C
REMARK SMILES IDX 4 1 5 2 3 3 2 4 1 5 66 6 67 7 68 8 69 9 70 10 71 11 72 12
REMARK SMILES IDX 73 13 76 14 74 15 75 16 77 17 6 19 7 20 8 21 9 22 10 23
REMARK SMILES IDX 11 24 12 25 13 26 65 27 14 28 64 29 15 30 16 31 17 32 58 33
REMARK SMILES IDX 18 34 63 35 57 36 59 37 19 38 62 39 56 40 55 41 20 43 46 44
REMARK SMILES IDX 29 45 45 46 30 47 33 48 44 49 60 50 31 51 32 52 43 54 61 55
REMARK SMILES IDX 34 56 21 57 22 58 27 59 23 60 24 61 26 62 28 63 25 64 47 65
REMARK SMILES IDX 48 66 53 67 49 68 50 69 52 70 54 71 51 72 35 73 36 74 41 75
REMARK SMILES IDX 37 76 38 77 40 78 42 79 39 80
REMARK H PARENT 76 18 59 42 33 53
REMARK Flexibility Score: inf
ROOT
ATOM      1  C   UNL A   1      39.518  20.794  25.867  1.00  0.00     0.306 C 
ATOM      2  O   UNL A   1      39.431  19.613  25.549  1.00  0.00    -0.252 OA
ENDROOT
BRANCH   1   3
ATOM      3  C   UNL A   1      38.322  21.727  25.810  1.00  0.00     0.126 C 
BRANCH   3   4
ATOM      4  C   UNL A   1      37.129  21.372  24.901  1.00  0.00     0.006 C 
ATOM      5  C   UNL A   1      37.053  22.329  23.704  1.00  0.00     0.009 C 
BRANCH   4   6
ATOM      6  C   UNL A   1      35.814  21.226  25.696  1.00  0.00     0.104 C 
BRANCH   6   7
ATOM      7  C   UNL A   1      34.759  20.369  24.994  1.00  0.00     0.222 C 
ATOM      8  O   UNL A   1      35.059  19.228  24.634  1.00  0.00    -0.275 OA
BRANCH   7   9
ATOM      9  N   UNL A   1      33.509  20.908  24.736  1.00  0.00    -0.340 N 
ATOM     10  C   UNL A   1      32.254  20.306  25.168  1.00  0.00     0.147 C 
BRANCH   9  11
ATOM     11  C   UNL A   1      33.367  21.958  23.721  1.00  0.00     0.184 C 
BRANCH  11  12
ATOM     12  C   UNL A   1      32.654  23.310  24.063  1.00  0.00     0.203 C 
ATOM     13  C   UNL A   1      32.958  23.640  25.539  1.00  0.00     0.073 C 
ATOM     14  N   UNL A   1      33.099  24.591  23.505  1.00  0.00    -0.333 N 
ATOM     15  C   UNL A   1      34.248  24.473  25.494  1.00  0.00     0.068 C 
ATOM     16  C   UNL A   1      34.424  24.856  24.029  1.00  0.00     0.262 C 
ATOM     17  C   UNL A   1      32.932  24.790  22.091  1.00  0.00     0.333 C 
ATOM     18  H   UNL A   1      32.452  25.315  23.820  1.00  0.00     0.348 HD
ENDBRANCH  11  12
ENDBRANCH   9  11
ENDBRANCH   7   9
ENDBRANCH   6   7
ENDBRANCH   4   6
ENDBRANCH   3   4
ENDBRANCH   1   3
BRANCH   1  19
ATOM     19  O   UNL A   1      40.652  21.398  26.290  1.00  0.00    -0.462 OA
BRANCH  19  20
ATOM     20  C   UNL A   1      41.875  20.642  26.198  1.00  0.00     0.274 C 
BRANCH  20  21
ATOM     21  C   UNL A   1      42.977  21.517  25.614  1.00  0.00     0.275 C 
BRANCH  21  22
ATOM     22  O   UNL A   1      42.445  22.825  25.346  1.00  0.00    -0.458 OA
BRANCH  22  23
ATOM     23  C   UNL A   1      43.342  23.835  25.333  1.00  0.00     0.338 C 
ATOM     24  O   UNL A   1      44.281  23.998  24.574  1.00  0.00    -0.246 OA
BRANCH  23  25
ATOM     25  C   UNL A   1      43.008  24.766  26.418  1.00  0.00     0.060 A 
ATOM     26  C   UNL A   1      42.072  24.396  27.388  1.00  0.00     0.016 A 
ATOM     27  C   UNL A   1      43.582  26.035  26.430  1.00  0.00     0.016 A 
ATOM     28  C   UNL A   1      41.688  25.308  28.367  1.00  0.00     0.010 A 
ATOM     29  C   UNL A   1      43.234  26.930  27.442  1.00  0.00     0.010 A 
ATOM     30  C   UNL A   1      42.278  26.578  28.410  1.00  0.00    -0.014 A 
BRANCH  30  31
ATOM     31  C   UNL A   1      41.907  27.553  29.464  1.00  0.00     0.031 A 
ATOM     32  C   UNL A   1      42.650  27.567  30.767  1.00  0.00     0.074 A 
ATOM     33  C   UNL A   1      40.873  28.391  29.263  1.00  0.00     0.049 A 
ATOM     34  N   UNL A   1      42.357  28.187  31.880  1.00  0.00    -0.248 NA
ATOM     35  C   UNL A   1      43.881  26.764  30.828  1.00  0.00     0.031 C 
ATOM     36  C   UNL A   1      40.100  28.502  28.025  1.00  0.00     0.029 A 
ATOM     37  N   UNL A   1      40.283  29.298  30.106  1.00  0.00    -0.354 N 
ATOM     38  C   UNL A   1      43.346  27.826  32.785  1.00  0.00     0.074 A 
ATOM     39  C   UNL A   1      44.243  26.924  32.094  1.00  0.00     0.031 C 
ATOM     40  C   UNL A   1      39.138  29.422  28.189  1.00  0.00     0.029 A 
ATOM     41  C   UNL A   1      39.186  29.917  29.560  1.00  0.00     0.049 A 
ATOM     42  H   UNL A   1      40.614  29.485  31.014  1.00  0.00     0.167 HD
ATOM     43  C   UNL A   1      43.488  28.213  34.076  1.00  0.00     0.037 A 
ATOM     44  C   UNL A   1      38.293  30.756  30.117  1.00  0.00     0.037 A 
ATOM     45  C   UNL A   1      42.602  29.128  34.748  1.00  0.00     0.049 A 
ATOM     46  C   UNL A   1      38.438  31.126  31.564  1.00  0.00     0.074 A 
ATOM     47  C   UNL A   1      42.664  29.592  36.050  1.00  0.00     0.029 A 
ATOM     48  N   UNL A   1      41.493  29.723  34.163  1.00  0.00    -0.354 N 
ATOM     49  N   UNL A   1      39.357  30.755  32.423  1.00  0.00    -0.248 NA
ATOM     50  C   UNL A   1      37.416  32.019  32.125  1.00  0.00     0.031 C 
ATOM     51  C   UNL A   1      41.572  30.442  36.263  1.00  0.00     0.029 A 
ATOM     52  C   UNL A   1      40.853  30.537  35.083  1.00  0.00     0.049 A 
ATOM     53  H   UNL A   1      41.203  29.585  33.233  1.00  0.00     0.167 HD
ATOM     54  C   UNL A   1      39.035  31.380  33.618  1.00  0.00     0.074 A 
ATOM     55  C   UNL A   1      37.842  32.166  33.372  1.00  0.00     0.031 C 
ATOM     56  C   UNL A   1      39.668  31.311  34.815  1.00  0.00     0.037 A 
BRANCH  43  57
ATOM     57  C   UNL A   1      44.629  27.624  34.852  1.00  0.00     0.057 A 
ATOM     58  C   UNL A   1      44.459  26.521  35.698  1.00  0.00     0.134 A 
ATOM     59  C   UNL A   1      45.921  28.152  34.729  1.00  0.00     0.134 A 
ATOM     60  F   UNL A   1      43.246  25.977  35.870  1.00  0.00    -0.206 F 
ATOM     61  C   UNL A   1      45.530  25.978  36.411  1.00  0.00     0.040 A 
ATOM     62  C   UNL A   1      47.003  27.604  35.419  1.00  0.00     0.040 A 
ATOM     63  F   UNL A   1      46.153  29.205  33.931  1.00  0.00    -0.206 F 
ATOM     64  C   UNL A   1      46.807  26.516  36.268  1.00  0.00     0.006 A 
ENDBRANCH  43  57
BRANCH  44  65
ATOM     65  C   UNL A   1      37.168  31.278  29.304  1.00  0.00     0.057 A 
ATOM     66  C   UNL A   1      37.206  32.570  28.768  1.00  0.00     0.134 A 
ATOM     67  C   UNL A   1      36.037  30.498  29.032  1.00  0.00     0.134 A 
ATOM     68  F   UNL A   1      38.253  33.371  29.014  1.00  0.00    -0.206 F 
ATOM     69  C   UNL A   1      36.158  33.069  27.993  1.00  0.00     0.040 A 
ATOM     70  C   UNL A   1      34.993  30.976  28.239  1.00  0.00     0.040 A 
ATOM     71  F   UNL A   1      35.942  29.251  29.516  1.00  0.00    -0.206 F 
ATOM     72  C   UNL A   1      35.051  32.268  27.721  1.00  0.00     0.006 A 
ENDBRANCH  44  65
BRANCH  56  73
ATOM     73  C   UNL A   1      39.098  32.130  35.932  1.00  0.00     0.057 A 
ATOM     74  C   UNL A   1      38.190  31.591  36.850  1.00  0.00     0.134 A 
ATOM     75  C   UNL A   1      39.482  33.466  36.104  1.00  0.00     0.134 A 
ATOM     76  F   UNL A   1      37.772  30.322  36.729  1.00  0.00    -0.206 F 
ATOM     77  C   UNL A   1      37.666  32.360  37.892  1.00  0.00     0.040 A 
ATOM     78  C   UNL A   1      38.983  34.237  37.153  1.00  0.00     0.040 A 
ATOM     79  F   UNL A   1      40.354  34.039  35.260  1.00  0.00    -0.206 F 
ATOM     80  C   UNL A   1      38.068  33.686  38.048  1.00  0.00     0.006 A 
ENDBRANCH  56  73
ENDBRANCH  30  31
ENDBRANCH  23  25
ENDBRANCH  22  23
ENDBRANCH  21  22
ENDBRANCH  20  21
ENDBRANCH  19  20
ENDBRANCH   1  19
TORSDOF 17
ENDMDL
MODEL 2
REMARK VINA RESULT:      -9.8      3.622      8.332
REMARK SMILES C[C@@H](CC(=O)OCCOC(=O)c1ccc(-c2c3nc(c(-c4c(F)cccc4F)c4ccc([nH]4)c(-c4c(F)cccc4F)c4nc(c(-c5c(F)cccc5F)c5ccc2[nH]5)C=C4)C=C3)cc1)CC(=O)N(C)C[C@H]1CCC[N@H+]1C
REMARK SMILES IDX 4 1 5 2 3 3 2 4 1 5 66 6 67 7 68 8 69 9 70 10 71 11 72 12
REMARK SMILES IDX 73 13 76 14 74 15 75 16 77 17 6 19 7 20 8 21 9 22 10 23
REMARK SMILES IDX 11 24 12 25 13 26 65 27 14 28 64 29 15 30 16 31 17 32 58 33
REMARK SMILES IDX 18 34 63 35 57 36 59 37 19 38 62 39 56 40 55 41 20 43 46 44
REMARK SMILES IDX 29 45 45 46 30 47 33 48 44 49 60 50 31 51 32 52 43 54 61 55
REMARK SMILES IDX 34 56 21 57 22 58 27 59 23 60 24 61 26 62 28 63 25 64 47 65
REMARK SMILES IDX 48 66 53 67 49 68 50 69 52 70 54 71 51 72 35 73 36 74 41 75
REMARK SMILES IDX 37 76 38 77 40 78 42 79 39 80
REMARK H PARENT 76 18 59 42 33 53
REMARK Flexibility Score: inf
ROOT
ATOM      1  C   UNL A   1      31.751  28.792  27.086  1.00  0.00     0.306 C 
ATOM      2  O   UNL A   1      31.411  28.053  28.003  1.00  0.00    -0.252 OA
ENDROOT
BRANCH   1   3
ATOM      3  C   UNL A   1      31.745  28.326  25.641  1.00  0.00     0.126 C 
BRANCH   3   4
ATOM      4  C   UNL A   1      32.359  26.956  25.286  1.00  0.00     0.006 C 
ATOM      5  C   UNL A   1      33.632  27.132  24.449  1.00  0.00     0.009 C 
BRANCH   4   6
ATOM      6  C   UNL A   1      31.317  25.990  24.683  1.00  0.00     0.104 C 
BRANCH   6   7
ATOM      7  C   UNL A   1      30.695  25.036  25.705  1.00  0.00     0.222 C 
ATOM      8  O   UNL A   1      29.852  25.471  26.493  1.00  0.00    -0.275 OA
BRANCH   7   9
ATOM      9  N   UNL A   1      31.126  23.720  25.754  1.00  0.00    -0.340 N 
ATOM     10  C   UNL A   1      30.375  22.636  26.376  1.00  0.00     0.147 C 
BRANCH   9  11
ATOM     11  C   UNL A   1      32.529  23.405  25.463  1.00  0.00     0.184 C 
BRANCH  11  12
ATOM     12  C   UNL A   1      32.938  22.759  24.097  1.00  0.00     0.203 C 
ATOM     13  C   UNL A   1      34.258  23.416  23.644  1.00  0.00     0.073 C 
ATOM     14  N   UNL A   1      33.394  21.368  23.994  1.00  0.00    -0.333 N 
ATOM     15  C   UNL A   1      35.360  22.534  24.250  1.00  0.00     0.068 C 
ATOM     16  C   UNL A   1      34.647  21.268  24.714  1.00  0.00     0.262 C 
ATOM     17  C   UNL A   1      32.431  20.335  24.264  1.00  0.00     0.333 C 
ATOM     18  H   UNL A   1      33.544  21.158  23.007  1.00  0.00     0.348 HD
ENDBRANCH  11  12
ENDBRANCH   9  11
ENDBRANCH   7   9
ENDBRANCH   6   7
ENDBRANCH   4   6
ENDBRANCH   3   4
ENDBRANCH   1   3
BRANCH   1  19
ATOM     19  O   UNL A   1      32.164  30.071  27.237  1.00  0.00    -0.462 OA
BRANCH  19  20
ATOM     20  C   UNL A   1      31.656  31.042  26.301  1.00  0.00     0.274 C 
BRANCH  20  21
ATOM     21  C   UNL A   1      31.529  32.397  26.986  1.00  0.00     0.275 C 
BRANCH  21  22
ATOM     22  O   UNL A   1      32.799  33.069  26.935  1.00  0.00    -0.458 OA
BRANCH  22  23
ATOM     23  C   UNL A   1      33.123  33.800  28.024  1.00  0.00     0.338 C 
ATOM     24  O   UNL A   1      32.536  34.763  28.484  1.00  0.00    -0.246 OA
BRANCH  23  25
ATOM     25  C   UNL A   1      34.345  33.239  28.613  1.00  0.00     0.060 A 
ATOM     26  C   UNL A   1      34.328  31.950  29.151  1.00  0.00     0.016 A 
ATOM     27  C   UNL A   1      35.491  34.026  28.686  1.00  0.00     0.016 A 
ATOM     28  C   UNL A   1      35.460  31.448  29.789  1.00  0.00     0.010 A 
ATOM     29  C   UNL A   1      36.641  33.502  29.279  1.00  0.00     0.010 A 
ATOM     30  C   UNL A   1      36.630  32.215  29.844  1.00  0.00    -0.014 A 
BRANCH  30  31
ATOM     31  C   UNL A   1      37.856  31.687  30.489  1.00  0.00     0.031 A 
ATOM     32  C   UNL A   1      38.710  30.685  29.769  1.00  0.00     0.074 A 
ATOM     33  C   UNL A   1      38.172  32.075  31.738  1.00  0.00     0.049 A 
ATOM     34  N   UNL A   1      39.692  29.954  30.227  1.00  0.00    -0.248 NA
ATOM     35  C   UNL A   1      38.407  30.469  28.345  1.00  0.00     0.031 C 
ATOM     36  C   UNL A   1      37.445  33.072  32.526  1.00  0.00     0.029 A 
ATOM     37  N   UNL A   1      39.179  31.661  32.573  1.00  0.00    -0.354 N 
ATOM     38  C   UNL A   1      40.105  29.167  29.160  1.00  0.00     0.074 A 
ATOM     39  C   UNL A   1      39.260  29.503  28.034  1.00  0.00     0.031 C 
ATOM     40  C   UNL A   1      38.029  33.193  33.728  1.00  0.00     0.029 A 
ATOM     41  C   UNL A   1      39.126  32.237  33.818  1.00  0.00     0.049 A 
ATOM     42  H   UNL A   1      39.871  31.014  32.304  1.00  0.00     0.167 HD
ATOM     43  C   UNL A   1      41.099  28.247  29.129  1.00  0.00     0.037 A 
ATOM     44  C   UNL A   1      39.854  31.990  34.923  1.00  0.00     0.037 A 
ATOM     45  C   UNL A   1      41.949  27.936  30.249  1.00  0.00     0.049 A 
ATOM     46  C   UNL A   1      40.913  30.926  34.881  1.00  0.00     0.074 A 
ATOM     47  C   UNL A   1      42.992  27.028  30.318  1.00  0.00     0.029 A 
ATOM     48  N   UNL A   1      41.855  28.532  31.499  1.00  0.00    -0.354 N 
ATOM     49  N   UNL A   1      41.276  30.163  33.879  1.00  0.00    -0.248 NA
ATOM     50  C   UNL A   1      41.653  30.678  36.125  1.00  0.00     0.031 C 
ATOM     51  C   UNL A   1      43.506  27.052  31.620  1.00  0.00     0.029 A 
ATOM     52  C   UNL A   1      42.810  28.001  32.350  1.00  0.00     0.049 A 
ATOM     53  H   UNL A   1      41.204  29.229  31.744  1.00  0.00     0.167 HD
ATOM     54  C   UNL A   1      42.296  29.358  34.364  1.00  0.00     0.074 A 
ATOM     55  C   UNL A   1      42.503  29.734  35.748  1.00  0.00     0.031 C 
ATOM     56  C   UNL A   1      42.999  28.392  33.723  1.00  0.00     0.037 A 
BRANCH  43  57
ATOM     57  C   UNL A   1      41.302  27.492  27.848  1.00  0.00     0.057 A 
ATOM     58  C   UNL A   1      42.136  27.969  26.830  1.00  0.00     0.134 A 
ATOM     59  C   UNL A   1      40.673  26.257  27.644  1.00  0.00     0.134 A 
ATOM     60  F   UNL A   1      42.757  29.151  26.958  1.00  0.00    -0.206 F 
ATOM     61  C   UNL A   1      42.322  27.255  25.645  1.00  0.00     0.040 A 
ATOM     62  C   UNL A   1      40.868  25.523  26.473  1.00  0.00     0.040 A 
ATOM     63  F   UNL A   1      39.864  25.741  28.581  1.00  0.00    -0.206 F 
ATOM     64  C   UNL A   1      41.691  26.025  25.466  1.00  0.00     0.006 A 
ENDBRANCH  43  57
BRANCH  44  65
ATOM     65  C   UNL A   1      39.583  32.748  36.168  1.00  0.00     0.057 A 
ATOM     66  C   UNL A   1      40.277  33.928  36.458  1.00  0.00     0.134 A 
ATOM     67  C   UNL A   1      38.617  32.323  37.089  1.00  0.00     0.134 A 
ATOM     68  F   UNL A   1      41.230  34.372  35.624  1.00  0.00    -0.206 F 
ATOM     69  C   UNL A   1      40.024  34.656  37.621  1.00  0.00     0.040 A 
ATOM     70  C   UNL A   1      38.338  33.054  38.244  1.00  0.00     0.040 A 
ATOM     71  F   UNL A   1      37.917  31.201  36.867  1.00  0.00    -0.206 F 
ATOM     72  C   UNL A   1      39.046  34.223  38.514  1.00  0.00     0.006 A 
ENDBRANCH  44  65
BRANCH  56  73
ATOM     73  C   UNL A   1      44.073  27.702  34.507  1.00  0.00     0.057 A 
ATOM     74  C   UNL A   1      43.839  26.493  35.170  1.00  0.00     0.134 A 
ATOM     75  C   UNL A   1      45.363  28.244  34.577  1.00  0.00     0.134 A 
ATOM     76  F   UNL A   1      42.620  25.932  35.153  1.00  0.00    -0.206 F 
ATOM     77  C   UNL A   1      44.847  25.853  35.894  1.00  0.00     0.040 A 
ATOM     78  C   UNL A   1      46.384  27.604  35.280  1.00  0.00     0.040 A 
ATOM     79  F   UNL A   1      45.651  29.400  33.958  1.00  0.00    -0.206 F 
ATOM     80  C   UNL A   1      46.126  26.407  35.946  1.00  0.00     0.006 A 
ENDBRANCH  56  73
ENDBRANCH  30  31
ENDBRANCH  23  25
ENDBRANCH  22  23
ENDBRANCH  21  22
ENDBRANCH  20  21
ENDBRANCH  19  20
ENDBRANCH   1  19
TORSDOF 17
ENDMDL
MODEL 3
REMARK VINA RESULT:      -9.8      4.649      9.014
REMARK SMILES C[C@@H](CC(=O)OCCOC(=O)c1ccc(-c2c3nc(c(-c4c(F)cccc4F)c4ccc([nH]4)c(-c4c(F)cccc4F)c4nc(c(-c5c(F)cccc5F)c5ccc2[nH]5)C=C4)C=C3)cc1)CC(=O)N(C)C[C@H]1CCC[N@H+]1C
REMARK SMILES IDX 4 1 5 2 3 3 2 4 1 5 66 6 67 7 68 8 69 9 70 10 71 11 72 12
REMARK SMILES IDX 73 13 76 14 74 15 75 16 77 17 6 19 7 20 8 21 9 22 10 23
REMARK SMILES IDX 11 24 12 25 13 26 65 27 14 28 64 29 15 30 16 31 17 32 58 33
REMARK SMILES IDX 18 34 63 35 57 36 59 37 19 38 62 39 56 40 55 41 20 43 46 44
REMARK SMILES IDX 29 45 45 46 30 47 33 48 44 49 60 50 31 51 32 52 43 54 61 55
REMARK SMILES IDX 34 56 21 57 22 58 27 59 23 60 24 61 26 62 28 63 25 64 47 65
REMARK SMILES IDX 48 66 53 67 49 68 50 69 52 70 54 71 51 72 35 73 36 74 41 75
REMARK SMILES IDX 37 76 38 77 40 78 42 79 39 80
REMARK H PARENT 76 18 59 42 33 53
REMARK Flexibility Score: inf
ROOT
ATOM      1  C   UNL A   1      33.819  29.370  27.050  1.00  0.00     0.306 C 
ATOM      2  O   UNL A   1      34.954  29.283  26.597  1.00  0.00    -0.252 OA
ENDROOT
BRANCH   1   3
ATOM      3  C   UNL A   1      32.778  28.291  26.810  1.00  0.00     0.126 C 
BRANCH   3   4
ATOM      4  C   UNL A   1      32.607  27.708  25.393  1.00  0.00     0.006 C 
ATOM      5  C   UNL A   1      33.626  26.591  25.138  1.00  0.00     0.009 C 
BRANCH   4   6
ATOM      6  C   UNL A   1      32.569  28.808  24.311  1.00  0.00     0.104 C 
BRANCH   6   7
ATOM      7  C   UNL A   1      31.173  29.383  24.061  1.00  0.00     0.222 C 
ATOM      8  O   UNL A   1      30.719  30.213  24.853  1.00  0.00    -0.275 OA
BRANCH   7   9
ATOM      9  N   UNL A   1      30.435  28.925  22.983  1.00  0.00    -0.340 N 
ATOM     10  C   UNL A   1      30.378  27.529  22.564  1.00  0.00     0.147 C 
BRANCH   9  11
ATOM     11  C   UNL A   1      29.924  29.881  21.995  1.00  0.00     0.184 C 
BRANCH  11  12
ATOM     12  C   UNL A   1      28.383  30.065  21.782  1.00  0.00     0.203 C 
ATOM     13  C   UNL A   1      27.696  29.873  23.149  1.00  0.00     0.073 C 
ATOM     14  N   UNL A   1      27.788  31.370  21.472  1.00  0.00    -0.333 N 
ATOM     15  C   UNL A   1      27.655  31.279  23.767  1.00  0.00     0.068 C 
ATOM     16  C   UNL A   1      27.996  32.226  22.622  1.00  0.00     0.262 C 
ATOM     17  C   UNL A   1      28.096  31.951  20.194  1.00  0.00     0.333 C 
ATOM     18  H   UNL A   1      26.788  31.232  21.321  1.00  0.00     0.348 HD
ENDBRANCH  11  12
ENDBRANCH   9  11
ENDBRANCH   7   9
ENDBRANCH   6   7
ENDBRANCH   4   6
ENDBRANCH   3   4
ENDBRANCH   1   3
BRANCH   1  19
ATOM     19  O   UNL A   1      33.360  30.405  27.791  1.00  0.00    -0.462 OA
BRANCH  19  20
ATOM     20  C   UNL A   1      32.674  31.462  27.093  1.00  0.00     0.274 C 
BRANCH  20  21
ATOM     21  C   UNL A   1      33.387  32.785  27.337  1.00  0.00     0.275 C 
BRANCH  21  22
ATOM     22  O   UNL A   1      32.436  33.749  27.819  1.00  0.00    -0.458 OA
BRANCH  22  23
ATOM     23  C   UNL A   1      32.939  34.741  28.587  1.00  0.00     0.338 C 
ATOM     24  O   UNL A   1      32.503  35.868  28.741  1.00  0.00    -0.246 OA
BRANCH  23  25
ATOM     25  C   UNL A   1      34.149  34.243  29.253  1.00  0.00     0.060 A 
ATOM     26  C   UNL A   1      35.408  34.616  28.775  1.00  0.00     0.016 A 
ATOM     27  C   UNL A   1      34.025  33.351  30.315  1.00  0.00     0.016 A 
ATOM     28  C   UNL A   1      36.557  34.077  29.349  1.00  0.00     0.010 A 
ATOM     29  C   UNL A   1      35.178  32.852  30.922  1.00  0.00     0.010 A 
ATOM     30  C   UNL A   1      36.451  33.201  30.437  1.00  0.00    -0.014 A 
BRANCH  30  31
ATOM     31  C   UNL A   1      37.661  32.641  31.084  1.00  0.00     0.031 A 
ATOM     32  C   UNL A   1      38.360  31.462  30.474  1.00  0.00     0.074 A 
ATOM     33  C   UNL A   1      38.101  33.165  32.243  1.00  0.00     0.049 A 
ATOM     34  N   UNL A   1      39.296  30.702  30.980  1.00  0.00    -0.248 NA
ATOM     35  C   UNL A   1      37.938  31.081  29.117  1.00  0.00     0.031 C 
ATOM     36  C   UNL A   1      37.532  34.336  32.914  1.00  0.00     0.029 A 
ATOM     37  N   UNL A   1      39.118  32.768  33.073  1.00  0.00    -0.354 N 
ATOM     38  C   UNL A   1      39.554  29.733  30.020  1.00  0.00     0.074 A 
ATOM     39  C   UNL A   1      38.669  29.995  28.905  1.00  0.00     0.031 C 
ATOM     40  C   UNL A   1      38.207  34.561  34.051  1.00  0.00     0.029 A 
ATOM     41  C   UNL A   1      39.210  33.516  34.221  1.00  0.00     0.049 A 
ATOM     42  H   UNL A   1      39.723  32.019  32.865  1.00  0.00     0.167 HD
ATOM     43  C   UNL A   1      40.449  28.717  30.069  1.00  0.00     0.037 A 
ATOM     44  C   UNL A   1      39.986  33.351  35.308  1.00  0.00     0.037 A 
ATOM     45  C   UNL A   1      41.341  28.478  31.175  1.00  0.00     0.049 A 
ATOM     46  C   UNL A   1      40.930  32.185  35.364  1.00  0.00     0.074 A 
ATOM     47  C   UNL A   1      42.291  27.482  31.319  1.00  0.00     0.029 A 
ATOM     48  N   UNL A   1      41.393  29.251  32.326  1.00  0.00    -0.354 N 
ATOM     49  N   UNL A   1      41.145  31.253  34.467  1.00  0.00    -0.248 NA
ATOM     50  C   UNL A   1      41.727  32.037  36.589  1.00  0.00     0.031 C 
ATOM     51  C   UNL A   1      42.896  27.634  32.572  1.00  0.00     0.029 A 
ATOM     52  C   UNL A   1      42.349  28.745  33.192  1.00  0.00     0.049 A 
ATOM     53  H   UNL A   1      40.833  30.041  32.501  1.00  0.00     0.167 HD
ATOM     54  C   UNL A   1      42.113  30.420  35.009  1.00  0.00     0.074 A 
ATOM     55  C   UNL A   1      42.453  30.963  36.309  1.00  0.00     0.031 C 
ATOM     56  C   UNL A   1      42.671  29.304  34.480  1.00  0.00     0.037 A 
BRANCH  43  57
ATOM     57  C   UNL A   1      40.486  27.772  28.905  1.00  0.00     0.057 A 
ATOM     58  C   UNL A   1      39.698  26.615  28.862  1.00  0.00     0.134 A 
ATOM     59  C   UNL A   1      41.303  28.038  27.798  1.00  0.00     0.134 A 
ATOM     60  F   UNL A   1      38.904  26.296  29.895  1.00  0.00    -0.206 F 
ATOM     61  C   UNL A   1      39.736  25.746  27.771  1.00  0.00     0.040 A 
ATOM     62  C   UNL A   1      41.333  27.188  26.691  1.00  0.00     0.040 A 
ATOM     63  F   UNL A   1      42.080  29.131  27.772  1.00  0.00    -0.206 F 
ATOM     64  C   UNL A   1      40.552  26.035  26.678  1.00  0.00     0.006 A 
ENDBRANCH  43  57
BRANCH  44  65
ATOM     65  C   UNL A   1      39.878  34.302  36.441  1.00  0.00     0.057 A 
ATOM     66  C   UNL A   1      39.077  34.012  37.550  1.00  0.00     0.134 A 
ATOM     67  C   UNL A   1      40.582  35.512  36.449  1.00  0.00     0.134 A 
ATOM     68  F   UNL A   1      38.363  32.877  37.588  1.00  0.00    -0.206 F 
ATOM     69  C   UNL A   1      38.976  34.893  38.627  1.00  0.00     0.040 A 
ATOM     70  C   UNL A   1      40.507  36.393  37.529  1.00  0.00     0.040 A 
ATOM     71  F   UNL A   1      41.367  35.847  35.415  1.00  0.00    -0.206 F 
ATOM     72  C   UNL A   1      39.698  36.085  38.621  1.00  0.00     0.006 A 
ENDBRANCH  44  65
BRANCH  56  73
ATOM     73  C   UNL A   1      43.725  28.621  35.296  1.00  0.00     0.057 A 
ATOM     74  C   UNL A   1      45.084  28.914  35.137  1.00  0.00     0.134 A 
ATOM     75  C   UNL A   1      43.372  27.676  36.268  1.00  0.00     0.134 A 
ATOM     76  F   UNL A   1      45.485  29.798  34.212  1.00  0.00    -0.206 F 
ATOM     77  C   UNL A   1      46.060  28.276  35.905  1.00  0.00     0.040 A 
ATOM     78  C   UNL A   1      44.336  27.048  37.056  1.00  0.00     0.040 A 
ATOM     79  F   UNL A   1      42.085  27.355  36.471  1.00  0.00    -0.206 F 
ATOM     80  C   UNL A   1      45.686  27.344  36.872  1.00  0.00     0.006 A 
ENDBRANCH  56  73
ENDBRANCH  30  31
ENDBRANCH  23  25
ENDBRANCH  22  23
ENDBRANCH  21  22
ENDBRANCH  20  21
ENDBRANCH  19  20
ENDBRANCH   1  19
TORSDOF 17
ENDMDL
