MODEL 1
REMARK VINA RESULT:     -14.9      0.000      0.000
REMARK SMILES Cc1ccc(C(=O)N2CCCC[C@@H]2C(=O)OCCOC(=O)c2ccc(-c3c4nc(c(-c5c(F)cccc5F)c5ccc([nH]5)c(-c5c(F)cccc5F)c5nc(c(-c6c(F)cccc6F)c6ccc3[nH]6)C=C5)C=C4)cc2)cc1S(=O)(=O)N1CCCCC1
REMARK SMILES IDX 17 1 16 2 14 3 15 4 13 5 8 6 9 7 10 8 12 9 11 10 6 11 7 12
REMARK SMILES IDX 5 13 1 14 2 15 3 16 77 17 4 18 76 19 78 20 79 21 80 22 81 23
REMARK SMILES IDX 82 24 86 25 83 26 85 27 84 28 18 29 19 30 20 31 21 32 22 33
REMARK SMILES IDX 23 34 75 35 24 36 74 37 25 38 26 39 27 40 68 41 28 42 73 43
REMARK SMILES IDX 67 44 69 45 29 46 72 47 66 48 65 49 30 51 56 52 39 53 55 54
REMARK SMILES IDX 40 55 43 56 54 57 70 58 41 59 42 60 53 62 71 63 44 64 31 65
REMARK SMILES IDX 32 66 37 67 33 68 34 69 36 70 38 71 35 72 57 73 58 74 63 75
REMARK SMILES IDX 59 76 60 77 62 78 64 79 61 80 45 81 46 82 51 83 47 84 48 85
REMARK SMILES IDX 50 86 52 87 49 88
REMARK H PARENT 69 50 43 61
REMARK Flexibility Score: inf
ROOT
ATOM      1  C   UNL A   1      38.289  23.903  26.401  1.00  0.00     0.274 C 
ENDROOT
BRANCH   1   2
ATOM      2  O   UNL A   1      36.822  23.205  25.674  1.00  0.00    -0.461 OA
BRANCH   2   3
ATOM      3  C   UNL A   1      35.477  21.906  25.907  1.00  0.00     0.328 C 
ATOM      4  O   UNL A   1      34.960  21.563  27.004  1.00  0.00    -0.250 OA
BRANCH   3   5
ATOM      5  C   UNL A   1      34.578  21.209  24.574  1.00  0.00     0.195 C 
ATOM      6  N   UNL A   1      33.633  22.185  24.180  1.00  0.00    -0.325 N 
ATOM      7  C   UNL A   1      32.590  21.891  23.151  1.00  0.00     0.121 C 
ATOM      8  C   UNL A   1      31.958  20.525  23.252  1.00  0.00     0.022 C 
ATOM      9  C   UNL A   1      34.007  19.759  24.420  1.00  0.00     0.037 C 
ATOM     10  C   UNL A   1      33.077  19.504  23.230  1.00  0.00     0.005 C 
BRANCH   6  11
ATOM     11  C   UNL A   1      34.094  23.491  24.219  1.00  0.00     0.254 C 
ATOM     12  O   UNL A   1      34.449  23.796  23.052  1.00  0.00    -0.269 OA
BRANCH  11  13
ATOM     13  C   UNL A   1      33.959  24.749  25.725  1.00  0.00     0.041 A 
ATOM     14  C   UNL A   1      29.688  25.496  24.156  1.00  0.00     0.046 C 
ATOM     15  C   UNL A   1      30.801  24.659  24.641  1.00  0.00    -0.031 A 
ATOM     16  C   UNL A   1      30.909  24.028  26.412  1.00  0.00     0.005 A 
ATOM     17  C   UNL A   1      32.101  25.411  23.703  1.00  0.00     0.086 A 
ATOM     18  C   UNL A   1      32.667  24.208  27.244  1.00  0.00     0.014 A 
ATOM     19  C   UNL A   1      33.578  25.437  24.224  1.00  0.00     0.035 A 
BRANCH  17  20
ATOM     20  S   UNL A   1      31.983  26.813  22.136  1.00  0.00     0.243 S 
ATOM     21  O   UNL A   1      33.338  27.336  22.016  1.00  0.00    -0.207 OA
ATOM     22  O   UNL A   1      31.351  26.122  21.031  1.00  0.00    -0.207 OA
BRANCH  20  23
ATOM     23  N   UNL A   1      30.883  28.413  22.523  1.00  0.00    -0.198 NA
ATOM     24  C   UNL A   1      31.267  28.968  23.842  1.00  0.00     0.102 C 
ATOM     25  C   UNL A   1      29.311  28.330  22.523  1.00  0.00     0.102 C 
ATOM     26  C   UNL A   1      30.352  30.147  24.264  1.00  0.00     0.017 C 
ATOM     27  C   UNL A   1      28.666  29.774  22.500  1.00  0.00     0.017 C 
ATOM     28  C   UNL A   1      29.558  30.814  23.143  1.00  0.00     0.003 C 
ENDBRANCH  20  23
ENDBRANCH  17  20
ENDBRANCH  11  13
ENDBRANCH   6  11
ENDBRANCH   3   5
ENDBRANCH   2   3
ENDBRANCH   1   2
BRANCH   1  29
ATOM     29  C   UNL A   1      39.579  23.006  26.938  1.00  0.00     0.275 C 
BRANCH  29  30
ATOM     30  O   UNL A   1      39.733  21.546  26.812  1.00  0.00    -0.458 OA
BRANCH  30  31
ATOM     31  C   UNL A   1      40.916  20.992  26.472  1.00  0.00     0.338 C 
ATOM     32  O   UNL A   1      41.166  19.834  26.209  1.00  0.00    -0.246 OA
BRANCH  31  33
ATOM     33  C   UNL A   1      41.857  21.946  26.943  1.00  0.00     0.060 A 
ATOM     34  C   UNL A   1      42.435  22.504  28.599  1.00  0.00     0.016 A 
ATOM     35  C   UNL A   1      42.689  22.584  25.445  1.00  0.00     0.016 A 
ATOM     36  C   UNL A   1      43.689  23.917  28.681  1.00  0.00     0.010 A 
ATOM     37  C   UNL A   1      44.011  23.728  25.647  1.00  0.00     0.010 A 
ATOM     38  C   UNL A   1      44.402  24.733  27.191  1.00  0.00    -0.014 A 
BRANCH  38  39
ATOM     39  C   UNL A   1      44.504  26.720  26.607  1.00  0.00     0.031 A 
ATOM     40  C   UNL A   1      42.797  27.220  26.711  1.00  0.00     0.074 A 
ATOM     41  C   UNL A   1      46.139  27.552  27.299  1.00  0.00     0.049 A 
ATOM     42  N   UNL A   1      42.336  28.435  26.981  1.00  0.00    -0.248 NA
ATOM     43  C   UNL A   1      41.741  26.224  26.883  1.00  0.00     0.031 C 
ATOM     44  C   UNL A   1      46.215  28.230  29.044  1.00  0.00     0.029 A 
ATOM     45  N   UNL A   1      47.551  27.148  27.705  1.00  0.00    -0.354 N 
ATOM     46  C   UNL A   1      41.293  28.260  27.880  1.00  0.00     0.074 A 
ATOM     47  C   UNL A   1      40.790  26.951  27.497  1.00  0.00     0.031 C 
ATOM     48  C   UNL A   1      47.383  28.330  29.640  1.00  0.00     0.029 A 
ATOM     49  C   UNL A   1      48.239  28.024  28.610  1.00  0.00     0.049 A 
ATOM     50  H   UNL A   1      47.969  26.325  27.362  1.00  0.00     0.167 HD
ATOM     51  C   UNL A   1      41.136  29.014  29.038  1.00  0.00     0.037 A 
ATOM     52  C   UNL A   1      49.126  28.947  28.193  1.00  0.00     0.037 A 
ATOM     53  C   UNL A   1      42.302  29.903  29.413  1.00  0.00     0.049 A 
ATOM     54  C   UNL A   1      48.227  30.479  28.148  1.00  0.00     0.074 A 
ATOM     55  C   UNL A   1      43.090  29.940  30.571  1.00  0.00     0.029 A 
ATOM     56  N   UNL A   1      42.946  30.793  28.534  1.00  0.00    -0.354 N 
ATOM     57  N   UNL A   1      47.081  30.773  28.828  1.00  0.00    -0.248 NA
ATOM     58  C   UNL A   1      48.538  31.732  27.414  1.00  0.00     0.031 C 
ATOM     59  C   UNL A   1      44.190  30.826  30.387  1.00  0.00     0.029 A 
ATOM     60  C   UNL A   1      44.136  31.336  29.107  1.00  0.00     0.049 A 
ATOM     61  H   UNL A   1      42.616  31.015  27.633  1.00  0.00     0.167 HD
ATOM     62  C   UNL A   1      46.431  31.961  28.359  1.00  0.00     0.074 A 
ATOM     63  C   UNL A   1      47.486  32.565  27.576  1.00  0.00     0.031 C 
ATOM     64  C   UNL A   1      45.039  32.256  28.363  1.00  0.00     0.037 A 
BRANCH  51  65
ATOM     65  C   UNL A   1      40.011  28.846  30.111  1.00  0.00     0.057 A 
ATOM     66  C   UNL A   1      38.680  29.244  29.807  1.00  0.00     0.134 A 
ATOM     67  C   UNL A   1      40.115  28.291  31.402  1.00  0.00     0.134 A 
ATOM     68  F   UNL A   1      38.344  29.739  28.608  1.00  0.00    -0.206 F 
ATOM     69  C   UNL A   1      37.594  29.131  30.692  1.00  0.00     0.040 A 
ATOM     70  C   UNL A   1      39.025  28.129  32.283  1.00  0.00     0.040 A 
ATOM     71  F   UNL A   1      41.262  27.867  31.925  1.00  0.00    -0.206 F 
ATOM     72  C   UNL A   1      37.758  28.553  31.934  1.00  0.00     0.006 A 
ENDBRANCH  51  65
BRANCH  52  73
ATOM     73  C   UNL A   1      50.024  27.855  27.402  1.00  0.00     0.057 A 
ATOM     74  C   UNL A   1      50.205  27.815  25.999  1.00  0.00     0.134 A 
ATOM     75  C   UNL A   1      51.209  27.385  27.963  1.00  0.00     0.134 A 
ATOM     76  F   UNL A   1      49.239  28.280  25.197  1.00  0.00    -0.206 F 
ATOM     77  C   UNL A   1      51.429  27.397  25.338  1.00  0.00     0.040 A 
ATOM     78  C   UNL A   1      52.429  26.945  27.383  1.00  0.00     0.040 A 
ATOM     79  F   UNL A   1      51.248  27.567  29.249  1.00  0.00    -0.206 F 
ATOM     80  C   UNL A   1      52.562  26.993  26.033  1.00  0.00     0.006 A 
ENDBRANCH  52  73
BRANCH  64  81
ATOM     81  C   UNL A   1      44.290  33.347  27.503  1.00  0.00     0.057 A 
ATOM     82  C   UNL A   1      44.147  33.368  26.103  1.00  0.00     0.134 A 
ATOM     83  C   UNL A   1      43.559  34.390  28.142  1.00  0.00     0.134 A 
ATOM     84  F   UNL A   1      44.517  32.330  25.343  1.00  0.00    -0.206 F 
ATOM     85  C   UNL A   1      43.545  34.445  25.407  1.00  0.00     0.040 A 
ATOM     86  C   UNL A   1      42.891  35.424  27.464  1.00  0.00     0.040 A 
ATOM     87  F   UNL A   1      43.435  34.455  29.475  1.00  0.00    -0.206 F 
ATOM     88  C   UNL A   1      42.949  35.497  26.088  1.00  0.00     0.006 A 
ENDBRANCH  64  81
ENDBRANCH  38  39
ENDBRANCH  31  33
ENDBRANCH  30  31
ENDBRANCH  29  30
ENDBRANCH   1  29
TORSDOF 15
ENDMDL
MODEL 2
REMARK VINA RESULT:     -14.6      1.355      2.044
REMARK SMILES Cc1ccc(C(=O)N2CCCC[C@@H]2C(=O)OCCOC(=O)c2ccc(-c3c4nc(c(-c5c(F)cccc5F)c5ccc([nH]5)c(-c5c(F)cccc5F)c5nc(c(-c6c(F)cccc6F)c6ccc3[nH]6)C=C5)C=C4)cc2)cc1S(=O)(=O)N1CCCCC1
REMARK SMILES IDX 17 1 16 2 14 3 15 4 13 5 8 6 9 7 10 8 12 9 11 10 6 11 7 12
REMARK SMILES IDX 5 13 1 14 2 15 3 16 77 17 4 18 76 19 78 20 79 21 80 22 81 23
REMARK SMILES IDX 82 24 86 25 83 26 85 27 84 28 18 29 19 30 20 31 21 32 22 33
REMARK SMILES IDX 23 34 75 35 24 36 74 37 25 38 26 39 27 40 68 41 28 42 73 43
REMARK SMILES IDX 67 44 69 45 29 46 72 47 66 48 65 49 30 51 56 52 39 53 55 54
REMARK SMILES IDX 40 55 43 56 54 57 70 58 41 59 42 60 53 62 71 63 44 64 31 65
REMARK SMILES IDX 32 66 37 67 33 68 34 69 36 70 38 71 35 72 57 73 58 74 63 75
REMARK SMILES IDX 59 76 60 77 62 78 64 79 61 80 45 81 46 82 51 83 47 84 48 85
REMARK SMILES IDX 50 86 52 87 49 88
REMARK H PARENT 69 50 43 61
REMARK Flexibility Score: inf
ROOT
ATOM      1  C   UNL A   1      37.874  23.906  25.949  1.00  0.00     0.274 C 
ENDROOT
BRANCH   1   2
ATOM      2  O   UNL A   1      36.170  24.226  26.345  1.00  0.00    -0.461 OA
BRANCH   2   3
ATOM      3  C   UNL A   1      34.417  23.555  26.185  1.00  0.00     0.328 C 
ATOM      4  O   UNL A   1      33.642  23.271  27.138  1.00  0.00    -0.250 OA
BRANCH   3   5
ATOM      5  C   UNL A   1      33.544  23.507  24.666  1.00  0.00     0.195 C 
ATOM      6  N   UNL A   1      32.465  24.410  24.800  1.00  0.00    -0.325 N 
ATOM      7  C   UNL A   1      31.415  24.534  23.744  1.00  0.00     0.121 C 
ATOM      8  C   UNL A   1      30.966  23.231  23.130  1.00  0.00     0.022 C 
ATOM      9  C   UNL A   1      33.154  22.268  23.791  1.00  0.00     0.037 C 
ATOM     10  C   UNL A   1      32.202  22.521  22.618  1.00  0.00     0.005 C 
BRANCH   6  11
ATOM     11  C   UNL A   1      32.758  25.568  25.501  1.00  0.00     0.254 C 
ATOM     12  O   UNL A   1      31.908  25.674  26.421  1.00  0.00    -0.269 OA
BRANCH  11  13
ATOM     13  C   UNL A   1      34.358  26.697  25.305  1.00  0.00     0.041 A 
ATOM     14  C   UNL A   1      31.374  30.208  25.499  1.00  0.00     0.046 C 
ATOM     15  C   UNL A   1      32.011  28.972  25.992  1.00  0.00    -0.031 A 
ATOM     16  C   UNL A   1      33.339  28.969  27.327  1.00  0.00     0.005 A 
ATOM     17  C   UNL A   1      32.047  28.086  24.460  1.00  0.00     0.086 A 
ATOM     18  C   UNL A   1      34.877  27.825  26.956  1.00  0.00     0.014 A 
ATOM     19  C   UNL A   1      33.151  27.016  24.158  1.00  0.00     0.035 A 
BRANCH  17  20
ATOM     20  S   UNL A   1      31.130  28.551  22.622  1.00  0.00     0.243 S 
ATOM     21  O   UNL A   1      32.184  29.193  21.845  1.00  0.00    -0.207 OA
ATOM     22  O   UNL A   1      30.511  27.325  22.165  1.00  0.00    -0.207 OA
BRANCH  20  23
ATOM     23  N   UNL A   1      29.704  29.920  22.719  1.00  0.00    -0.198 NA
ATOM     24  C   UNL A   1      28.501  29.335  23.356  1.00  0.00     0.102 C 
ATOM     25  C   UNL A   1      29.199  30.652  21.420  1.00  0.00     0.102 C 
ATOM     26  C   UNL A   1      27.301  30.318  23.344  1.00  0.00     0.017 C 
ATOM     27  C   UNL A   1      28.337  31.927  21.785  1.00  0.00     0.017 C 
ATOM     28  C   UNL A   1      27.643  31.790  23.122  1.00  0.00     0.003 C 
ENDBRANCH  20  23
ENDBRANCH  17  20
ENDBRANCH  11  13
ENDBRANCH   6  11
ENDBRANCH   3   5
ENDBRANCH   2   3
ENDBRANCH   1   2
BRANCH   1  29
ATOM     29  C   UNL A   1      38.719  22.577  26.479  1.00  0.00     0.275 C 
BRANCH  29  30
ATOM     30  O   UNL A   1      39.514  21.663  25.640  1.00  0.00    -0.458 OA
BRANCH  30  31
ATOM     31  C   UNL A   1      40.492  20.899  26.168  1.00  0.00     0.338 C 
ATOM     32  O   UNL A   1      40.484  19.707  26.400  1.00  0.00    -0.246 OA
BRANCH  31  33
ATOM     33  C   UNL A   1      41.325  21.853  26.811  1.00  0.00     0.060 A 
ATOM     34  C   UNL A   1      41.497  22.492  28.529  1.00  0.00     0.016 A 
ATOM     35  C   UNL A   1      42.527  22.381  25.538  1.00  0.00     0.016 A 
ATOM     36  C   UNL A   1      42.748  23.873  28.850  1.00  0.00     0.010 A 
ATOM     37  C   UNL A   1      43.802  23.499  26.006  1.00  0.00     0.010 A 
ATOM     38  C   UNL A   1      43.840  24.581  27.547  1.00  0.00    -0.014 A 
BRANCH  38  39
ATOM     39  C   UNL A   1      44.162  26.527  26.908  1.00  0.00     0.031 A 
ATOM     40  C   UNL A   1      42.498  27.145  26.762  1.00  0.00     0.074 A 
ATOM     41  C   UNL A   1      45.748  27.278  27.783  1.00  0.00     0.049 A 
ATOM     42  N   UNL A   1      42.096  28.400  26.922  1.00  0.00    -0.248 NA
ATOM     43  C   UNL A   1      41.359  26.232  26.828  1.00  0.00     0.031 C 
ATOM     44  C   UNL A   1      45.643  28.030  29.496  1.00  0.00     0.029 A 
ATOM     45  N   UNL A   1      47.061  26.799  28.390  1.00  0.00    -0.354 N 
ATOM     46  C   UNL A   1      40.933  28.338  27.679  1.00  0.00     0.074 A 
ATOM     47  C   UNL A   1      40.391  27.050  27.280  1.00  0.00     0.031 C 
ATOM     48  C   UNL A   1      46.726  28.079  30.240  1.00  0.00     0.029 A 
ATOM     49  C   UNL A   1      47.686  27.668  29.347  1.00  0.00     0.049 A 
ATOM     50  H   UNL A   1      47.460  25.935  28.138  1.00  0.00     0.167 HD
ATOM     51  C   UNL A   1      40.681  29.154  28.776  1.00  0.00     0.037 A 
ATOM     52  C   UNL A   1      48.686  28.508  29.020  1.00  0.00     0.037 A 
ATOM     53  C   UNL A   1      41.849  29.979  29.272  1.00  0.00     0.049 A 
ATOM     54  C   UNL A   1      47.915  30.094  28.796  1.00  0.00     0.074 A 
ATOM     55  C   UNL A   1      42.478  30.017  30.522  1.00  0.00     0.029 A 
ATOM     56  N   UNL A   1      42.666  30.781  28.455  1.00  0.00    -0.354 N 
ATOM     57  N   UNL A   1      46.714  30.496  29.305  1.00  0.00    -0.248 NA
ATOM     58  C   UNL A   1      48.411  31.288  28.065  1.00  0.00     0.031 C 
ATOM     59  C   UNL A   1      43.654  30.817  30.456  1.00  0.00     0.029 A 
ATOM     60  C   UNL A   1      43.807  31.269  29.162  1.00  0.00     0.049 A 
ATOM     61  H   UNL A   1      42.475  30.983  27.510  1.00  0.00     0.167 HD
ATOM     62  C   UNL A   1      46.220  31.702  28.708  1.00  0.00     0.074 A 
ATOM     63  C   UNL A   1      47.411  32.196  28.052  1.00  0.00     0.031 C 
ATOM     64  C   UNL A   1      44.865  32.091  28.513  1.00  0.00     0.037 A 
BRANCH  51  65
ATOM     65  C   UNL A   1      39.414  29.113  29.692  1.00  0.00     0.057 A 
ATOM     66  C   UNL A   1      38.197  29.692  29.242  1.00  0.00     0.134 A 
ATOM     67  C   UNL A   1      39.279  28.519  30.963  1.00  0.00     0.134 A 
ATOM     68  F   UNL A   1      38.085  30.256  28.031  1.00  0.00    -0.206 F 
ATOM     69  C   UNL A   1      37.000  29.705  29.979  1.00  0.00     0.040 A 
ATOM     70  C   UNL A   1      38.072  28.483  31.694  1.00  0.00     0.040 A 
ATOM     71  F   UNL A   1      40.284  27.933  31.607  1.00  0.00    -0.206 F 
ATOM     72  C   UNL A   1      36.926  29.081  31.208  1.00  0.00     0.006 A 
ENDBRANCH  51  65
BRANCH  52  73
ATOM     73  C   UNL A   1      49.597  27.322  28.398  1.00  0.00     0.057 A 
ATOM     74  C   UNL A   1      49.958  27.205  27.035  1.00  0.00     0.134 A 
ATOM     75  C   UNL A   1      50.661  26.800  29.131  1.00  0.00     0.134 A 
ATOM     76  F   UNL A   1      49.142  27.695  26.094  1.00  0.00    -0.206 F 
ATOM     77  C   UNL A   1      51.225  26.674  26.561  1.00  0.00     0.040 A 
ATOM     78  C   UNL A   1      51.911  26.253  28.737  1.00  0.00     0.040 A 
ATOM     79  F   UNL A   1      50.544  27.040  30.402  1.00  0.00    -0.206 F 
ATOM     80  C   UNL A   1      52.224  26.228  27.416  1.00  0.00     0.006 A 
ENDBRANCH  52  73
BRANCH  64  81
ATOM     81  C   UNL A   1      44.318  33.188  27.520  1.00  0.00     0.057 A 
ATOM     82  C   UNL A   1      43.777  34.442  27.860  1.00  0.00     0.134 A 
ATOM     83  C   UNL A   1      44.454  33.016  26.112  1.00  0.00     0.134 A 
ATOM     84  F   UNL A   1      43.822  34.911  29.113  1.00  0.00    -0.206 F 
ATOM     85  C   UNL A   1      43.215  35.322  26.904  1.00  0.00     0.040 A 
ATOM     86  C   UNL A   1      43.969  33.918  25.150  1.00  0.00     0.040 A 
ATOM     87  F   UNL A   1      45.090  31.959  25.585  1.00  0.00    -0.206 F 
ATOM     88  C   UNL A   1      43.274  35.042  25.545  1.00  0.00     0.006 A 
ENDBRANCH  64  81
ENDBRANCH  38  39
ENDBRANCH  31  33
ENDBRANCH  30  31
ENDBRANCH  29  30
ENDBRANCH   1  29
TORSDOF 15
ENDMDL
MODEL 3
REMARK VINA RESULT:     -14.2      6.024     11.548
REMARK SMILES Cc1ccc(C(=O)N2CCCC[C@@H]2C(=O)OCCOC(=O)c2ccc(-c3c4nc(c(-c5c(F)cccc5F)c5ccc([nH]5)c(-c5c(F)cccc5F)c5nc(c(-c6c(F)cccc6F)c6ccc3[nH]6)C=C5)C=C4)cc2)cc1S(=O)(=O)N1CCCCC1
REMARK SMILES IDX 17 1 16 2 14 3 15 4 13 5 8 6 9 7 10 8 12 9 11 10 6 11 7 12
REMARK SMILES IDX 5 13 1 14 2 15 3 16 77 17 4 18 76 19 78 20 79 21 80 22 81 23
REMARK SMILES IDX 82 24 86 25 83 26 85 27 84 28 18 29 19 30 20 31 21 32 22 33
REMARK SMILES IDX 23 34 75 35 24 36 74 37 25 38 26 39 27 40 68 41 28 42 73 43
REMARK SMILES IDX 67 44 69 45 29 46 72 47 66 48 65 49 30 51 56 52 39 53 55 54
REMARK SMILES IDX 40 55 43 56 54 57 70 58 41 59 42 60 53 62 71 63 44 64 31 65
REMARK SMILES IDX 32 66 37 67 33 68 34 69 36 70 38 71 35 72 57 73 58 74 63 75
REMARK SMILES IDX 59 76 60 77 62 78 64 79 61 80 45 81 46 82 51 83 47 84 48 85
REMARK SMILES IDX 50 86 52 87 49 88
REMARK H PARENT 69 50 43 61
REMARK Flexibility Score: inf
ROOT
ATOM      1  C   UNL A   1      49.110  27.916  29.842  1.00  0.00     0.274 C 
ENDROOT
BRANCH   1   2
ATOM      2  O   UNL A   1      49.257  28.465  28.156  1.00  0.00    -0.461 OA
BRANCH   2   3
ATOM      3  C   UNL A   1      48.440  28.410  26.459  1.00  0.00     0.328 C 
ATOM      4  O   UNL A   1      49.037  28.395  25.349  1.00  0.00    -0.250 OA
BRANCH   3   5
ATOM      5  C   UNL A   1      46.733  28.090  26.228  1.00  0.00     0.195 C 
ATOM      6  N   UNL A   1      46.042  29.168  26.828  1.00  0.00    -0.325 N 
ATOM      7  C   UNL A   1      44.552  29.171  26.948  1.00  0.00     0.121 C 
ATOM      8  C   UNL A   1      43.937  27.848  27.328  1.00  0.00     0.022 C 
ATOM      9  C   UNL A   1      45.950  26.743  26.390  1.00  0.00     0.037 C 
ATOM     10  C   UNL A   1      44.421  26.818  26.328  1.00  0.00     0.005 C 
BRANCH   6  11
ATOM     11  C   UNL A   1      46.638  30.407  26.660  1.00  0.00     0.254 C 
ATOM     12  O   UNL A   1      46.331  30.817  25.511  1.00  0.00    -0.269 OA
BRANCH  11  13
ATOM     13  C   UNL A   1      47.550  31.478  28.035  1.00  0.00     0.041 A 
ATOM     14  C   UNL A   1      43.395  33.361  28.708  1.00  0.00     0.046 C 
ATOM     15  C   UNL A   1      44.349  32.240  28.604  1.00  0.00    -0.031 A 
ATOM     16  C   UNL A   1      45.104  31.399  30.110  1.00  0.00     0.005 A 
ATOM     17  C   UNL A   1      45.204  32.779  27.151  1.00  0.00     0.086 A 
ATOM     18  C   UNL A   1      47.026  31.073  29.992  1.00  0.00     0.014 A 
ATOM     19  C   UNL A   1      46.703  32.406  26.897  1.00  0.00     0.035 A 
BRANCH  17  20
ATOM     20  S   UNL A   1      44.732  34.344  25.823  1.00  0.00     0.243 S 
ATOM     21  O   UNL A   1      45.656  34.164  24.710  1.00  0.00    -0.207 OA
ATOM     22  O   UNL A   1      43.301  34.276  25.620  1.00  0.00    -0.207 OA
BRANCH  20  23
ATOM     23  N   UNL A   1      45.137  36.163  26.492  1.00  0.00    -0.198 NA
ATOM     24  C   UNL A   1      46.601  36.312  26.661  1.00  0.00     0.102 C 
ATOM     25  C   UNL A   1      44.487  36.695  27.824  1.00  0.00     0.102 C 
ATOM     26  C   UNL A   1      46.976  37.671  27.307  1.00  0.00     0.017 C 
ATOM     27  C   UNL A   1      44.669  38.260  27.958  1.00  0.00     0.017 C 
ATOM     28  C   UNL A   1      45.907  38.760  27.246  1.00  0.00     0.003 C 
ENDBRANCH  20  23
ENDBRANCH  17  20
ENDBRANCH  11  13
ENDBRANCH   6  11
ENDBRANCH   3   5
ENDBRANCH   2   3
ENDBRANCH   1   2
BRANCH   1  29
ATOM     29  C   UNL A   1      48.670  26.377  30.284  1.00  0.00     0.275 C 
BRANCH  29  30
ATOM     30  O   UNL A   1      47.551  26.015  31.172  1.00  0.00    -0.458 OA
BRANCH  30  31
ATOM     31  C   UNL A   1      46.365  25.606  30.674  1.00  0.00     0.338 C 
ATOM     32  O   UNL A   1      46.084  25.299  29.534  1.00  0.00    -0.246 OA
BRANCH  31  33
ATOM     33  C   UNL A   1      45.440  26.062  31.650  1.00  0.00     0.060 A 
ATOM     34  C   UNL A   1      44.792  25.407  33.244  1.00  0.00     0.016 A 
ATOM     35  C   UNL A   1      44.976  27.751  31.124  1.00  0.00     0.016 A 
ATOM     36  C   UNL A   1      43.461  26.402  34.147  1.00  0.00     0.010 A 
ATOM     37  C   UNL A   1      43.907  28.685  32.164  1.00  0.00     0.010 A 
ATOM     38  C   UNL A   1      42.812  28.016  33.543  1.00  0.00    -0.014 A 
BRANCH  38  39
ATOM     39  C   UNL A   1      40.887  28.688  33.162  1.00  0.00     0.031 A 
ATOM     40  C   UNL A   1      40.696  29.965  34.389  1.00  0.00     0.074 A 
ATOM     41  C   UNL A   1      40.532  28.684  31.234  1.00  0.00     0.049 A 
ATOM     42  N   UNL A   1      39.947  31.057  34.295  1.00  0.00    -0.248 NA
ATOM     43  C   UNL A   1      41.666  30.105  35.473  1.00  0.00     0.031 C 
ATOM     44  C   UNL A   1      41.071  30.114  30.149  1.00  0.00     0.029 A 
ATOM     45  N   UNL A   1      40.986  27.942  29.983  1.00  0.00    -0.354 N 
ATOM     46  C   UNL A   1      40.722  32.099  34.787  1.00  0.00     0.074 A 
ATOM     47  C   UNL A   1      41.551  31.413  35.764  1.00  0.00     0.031 C 
ATOM     48  C   UNL A   1      41.267  29.903  28.865  1.00  0.00     0.029 A 
ATOM     49  C   UNL A   1      40.803  28.616  28.729  1.00  0.00     0.049 A 
ATOM     50  H   UNL A   1      41.386  27.044  30.034  1.00  0.00     0.167 HD
ATOM     51  C   UNL A   1      40.858  33.328  34.152  1.00  0.00     0.037 A 
ATOM     52  C   UNL A   1      39.752  28.376  27.922  1.00  0.00     0.037 A 
ATOM     53  C   UNL A   1      40.300  33.415  32.747  1.00  0.00     0.049 A 
ATOM     54  C   UNL A   1      38.596  29.685  28.251  1.00  0.00     0.074 A 
ATOM     55  C   UNL A   1      40.921  33.730  31.533  1.00  0.00     0.029 A 
ATOM     56  N   UNL A   1      39.010  32.999  32.372  1.00  0.00    -0.354 N 
ATOM     57  N   UNL A   1      38.876  30.904  28.797  1.00  0.00    -0.248 NA
ATOM     58  C   UNL A   1      37.137  29.743  27.978  1.00  0.00     0.031 C 
ATOM     59  C   UNL A   1      40.027  33.499  30.449  1.00  0.00     0.029 A 
ATOM     60  C   UNL A   1      38.843  33.005  30.953  1.00  0.00     0.049 A 
ATOM     61  H   UNL A   1      38.306  32.736  33.009  1.00  0.00     0.167 HD
ATOM     62  C   UNL A   1      37.709  31.620  29.218  1.00  0.00     0.074 A 
ATOM     63  C   UNL A   1      36.669  30.881  28.537  1.00  0.00     0.031 C 
ATOM     64  C   UNL A   1      37.591  32.549  30.290  1.00  0.00     0.037 A 
BRANCH  51  65
ATOM     65  C   UNL A   1      41.740  34.528  34.629  1.00  0.00     0.057 A 
ATOM     66  C   UNL A   1      43.157  34.443  34.537  1.00  0.00     0.134 A 
ATOM     67  C   UNL A   1      41.317  35.774  35.134  1.00  0.00     0.134 A 
ATOM     68  F   UNL A   1      43.772  33.368  34.025  1.00  0.00    -0.206 F 
ATOM     69  C   UNL A   1      44.042  35.462  34.930  1.00  0.00     0.040 A 
ATOM     70  C   UNL A   1      42.193  36.822  35.487  1.00  0.00     0.040 A 
ATOM     71  F   UNL A   1      40.039  36.086  35.333  1.00  0.00    -0.206 F 
ATOM     72  C   UNL A   1      43.562  36.670  35.391  1.00  0.00     0.006 A 
ENDBRANCH  51  65
BRANCH  52  73
ATOM     73  C   UNL A   1      40.049  26.785  27.865  1.00  0.00     0.057 A 
ATOM     74  C   UNL A   1      39.284  25.792  28.522  1.00  0.00     0.134 A 
ATOM     75  C   UNL A   1      40.518  26.202  26.690  1.00  0.00     0.134 A 
ATOM     76  F   UNL A   1      38.647  26.098  29.660  1.00  0.00    -0.206 F 
ATOM     77  C   UNL A   1      39.039  24.459  27.998  1.00  0.00     0.040 A 
ATOM     78  C   UNL A   1      40.335  24.910  26.128  1.00  0.00     0.040 A 
ATOM     79  F   UNL A   1      41.062  27.074  25.895  1.00  0.00    -0.206 F 
ATOM     80  C   UNL A   1      39.537  24.025  26.776  1.00  0.00     0.006 A 
ENDBRANCH  52  73
BRANCH  64  81
ATOM     81  C   UNL A   1      36.266  33.019  31.006  1.00  0.00     0.057 A 
ATOM     82  C   UNL A   1      35.374  34.015  30.565  1.00  0.00     0.134 A 
ATOM     83  C   UNL A   1      35.794  32.338  32.165  1.00  0.00     0.134 A 
ATOM     84  F   UNL A   1      35.490  34.576  29.355  1.00  0.00    -0.206 F 
ATOM     85  C   UNL A   1      34.262  34.444  31.328  1.00  0.00     0.040 A 
ATOM     86  C   UNL A   1      34.647  32.703  32.890  1.00  0.00     0.040 A 
ATOM     87  F   UNL A   1      36.415  31.254  32.653  1.00  0.00    -0.206 F 
ATOM     88  C   UNL A   1      33.918  33.813  32.516  1.00  0.00     0.006 A 
ENDBRANCH  64  81
ENDBRANCH  38  39
ENDBRANCH  31  33
ENDBRANCH  30  31
ENDBRANCH  29  30
ENDBRANCH   1  29
TORSDOF 15
ENDMDL
