MODEL 1
REMARK VINA RESULT:     -11.8      0.000      0.000
REMARK SMILES CCCC(=O)N(c1cc2sc(=O)oc2c2ccccc12)S(=O)(=O)c1ccc(C(=O)OCCOC(=O)c2ccc(-c3c4nc(c(-c5c(F)cccc5F)c5ccc([nH]5)c(-c5c(F)cccc5F)c5nc(c(-c6c(F)cccc6F)c6ccc3[nH]6)C=C5)C=C4)cc2)cc1
REMARK SMILES IDX 30 1 28 2 29 3 27 4 24 5 25 6 91 7 26 8 90 9 21 10 22 11
REMARK SMILES IDX 23 12 6 13 4 14 5 15 3 16 2 17 1 18 7 19 8 20 20 21 9 22
REMARK SMILES IDX 15 23 19 24 10 25 14 26 16 27 18 28 11 29 13 30 17 31 12 32
REMARK SMILES IDX 31 33 32 34 33 35 34 36 35 37 36 38 37 39 89 40 38 41 88 42
REMARK SMILES IDX 39 43 40 44 41 45 82 46 42 47 87 48 81 49 83 50 43 51 86 52
REMARK SMILES IDX 80 53 79 54 44 56 70 57 53 58 69 59 54 60 57 61 68 62 84 63
REMARK SMILES IDX 55 64 56 65 67 67 85 68 58 69 45 70 46 71 51 72 47 73 48 74
REMARK SMILES IDX 50 75 52 76 49 77 71 78 72 79 77 80 73 81 74 82 76 83 78 84
REMARK SMILES IDX 75 85 59 86 60 87 65 88 61 89 62 90 64 91 66 92 63 93
REMARK H PARENT 83 55 57 66
REMARK Flexibility Score: inf
ROOT
ATOM      1  O   UNL A   1      36.967  22.825  25.911  1.00  0.00    -0.458 OA
ENDROOT
BRANCH   1   2
ATOM      2  C   UNL A   1      36.420  22.484  24.723  1.00  0.00     0.338 C 
ATOM      3  O   UNL A   1      36.621  21.448  24.108  1.00  0.00    -0.246 OA
BRANCH   2   4
ATOM      4  C   UNL A   1      35.413  23.476  24.276  1.00  0.00     0.060 A 
ATOM      5  C   UNL A   1      33.506  25.485  23.642  1.00  0.00     0.088 A 
ATOM      6  C   UNL A   1      34.241  25.528  24.820  1.00  0.00     0.023 A 
ATOM      7  C   UNL A   1      33.697  24.371  22.802  1.00  0.00     0.023 A 
ATOM      8  C   UNL A   1      35.204  24.564  25.119  1.00  0.00     0.017 A 
ATOM      9  C   UNL A   1      34.640  23.365  23.119  1.00  0.00     0.017 A 
BRANCH   5  10
ATOM     10  S   UNL A   1      32.408  26.804  23.031  1.00  0.00     0.270 S 
ATOM     11  O   UNL A   1      31.850  26.260  21.809  1.00  0.00    -0.201 OA
ATOM     12  O   UNL A   1      33.259  27.980  23.010  1.00  0.00    -0.201 OA
BRANCH  10  13
ATOM     13  N   UNL A   1      31.098  27.179  24.076  1.00  0.00    -0.202 N 
BRANCH  13  14
ATOM     14  C   UNL A   1      30.260  26.105  24.559  1.00  0.00     0.241 C 
ATOM     15  O   UNL A   1      29.277  25.733  23.923  1.00  0.00    -0.273 OA
BRANCH  14  16
ATOM     16  C   UNL A   1      30.547  25.439  25.924  1.00  0.00     0.101 C 
BRANCH  16  17
ATOM     17  C   UNL A   1      30.902  23.947  25.917  1.00  0.00     0.006 C 
ATOM     18  C   UNL A   1      31.968  23.570  26.945  1.00  0.00     0.004 C 
ENDBRANCH  16  17
ENDBRANCH  14  16
ENDBRANCH  13  14
BRANCH  13  19
ATOM     19  C   UNL A   1      30.472  28.446  23.971  1.00  0.00     0.070 A 
ATOM     20  C   UNL A   1      29.451  28.639  23.035  1.00  0.00     0.051 A 
ATOM     21  C   UNL A   1      30.937  29.487  24.835  1.00  0.00     0.010 A 
ATOM     22  C   UNL A   1      29.034  29.932  22.817  1.00  0.00     0.080 A 
ATOM     23  C   UNL A   1      30.393  30.776  24.677  1.00  0.00     0.028 A 
ATOM     24  C   UNL A   1      31.907  29.282  25.853  1.00  0.00     0.011 A 
ATOM     25  S   UNL A   1      27.993  30.484  21.530  1.00  0.00    -0.052 S 
ATOM     26  C   UNL A   1      29.535  30.987  23.576  1.00  0.00     0.157 A 
ATOM     27  C   UNL A   1      30.716  31.756  25.640  1.00  0.00     0.013 A 
ATOM     28  C   UNL A   1      32.194  30.262  26.800  1.00  0.00     0.001 A 
ATOM     29  C   UNL A   1      28.409  32.137  21.982  1.00  0.00     0.396 A 
ATOM     30  O   UNL A   1      29.206  32.270  23.119  1.00  0.00    -0.413 OA
ATOM     31  C   UNL A   1      31.573  31.494  26.711  1.00  0.00     0.001 A 
ATOM     32  O   UNL A   1      28.003  33.079  21.320  1.00  0.00    -0.233 OA
ENDBRANCH  13  19
ENDBRANCH  10  13
ENDBRANCH   5  10
ENDBRANCH   2   4
ENDBRANCH   1   2
BRANCH   1  33
ATOM     33  C   UNL A   1      38.407  22.944  25.911  1.00  0.00     0.275 C 
BRANCH  33  34
ATOM     34  C   UNL A   1      39.061  21.616  26.296  1.00  0.00     0.275 C 
BRANCH  34  35
ATOM     35  O   UNL A   1      40.462  21.618  25.968  1.00  0.00    -0.458 OA
BRANCH  35  36
ATOM     36  C   UNL A   1      41.329  21.740  26.993  1.00  0.00     0.338 C 
ATOM     37  O   UNL A   1      41.774  20.861  27.718  1.00  0.00    -0.246 OA
BRANCH  36  38
ATOM     38  C   UNL A   1      41.723  23.150  27.057  1.00  0.00     0.060 A 
ATOM     39  C   UNL A   1      42.467  23.719  26.023  1.00  0.00     0.016 A 
ATOM     40  C   UNL A   1      41.370  23.895  28.184  1.00  0.00     0.016 A 
ATOM     41  C   UNL A   1      42.871  25.050  26.134  1.00  0.00     0.010 A 
ATOM     42  C   UNL A   1      41.765  25.223  28.287  1.00  0.00     0.010 A 
ATOM     43  C   UNL A   1      42.517  25.808  27.263  1.00  0.00    -0.014 A 
BRANCH  43  44
ATOM     44  C   UNL A   1      42.921  27.228  27.310  1.00  0.00     0.031 A 
ATOM     45  C   UNL A   1      41.774  28.198  27.358  1.00  0.00     0.074 A 
ATOM     46  C   UNL A   1      44.091  27.585  27.888  1.00  0.00     0.049 A 
ATOM     47  N   UNL A   1      41.054  28.391  28.427  1.00  0.00    -0.248 NA
ATOM     48  C   UNL A   1      41.220  28.837  26.164  1.00  0.00     0.031 C 
ATOM     49  C   UNL A   1      44.723  26.838  28.986  1.00  0.00     0.029 A 
ATOM     50  N   UNL A   1      44.843  28.736  27.795  1.00  0.00    -0.354 N 
ATOM     51  C   UNL A   1      39.940  29.129  28.058  1.00  0.00     0.074 A 
ATOM     52  C   UNL A   1      40.095  29.395  26.646  1.00  0.00     0.031 C 
ATOM     53  C   UNL A   1      45.635  27.630  29.581  1.00  0.00     0.029 A 
ATOM     54  C   UNL A   1      45.757  28.885  28.839  1.00  0.00     0.049 A 
ATOM     55  H   UNL A   1      44.745  29.389  27.063  1.00  0.00     0.167 HD
ATOM     56  C   UNL A   1      38.964  29.469  28.946  1.00  0.00     0.037 A 
ATOM     57  C   UNL A   1      46.061  30.075  29.432  1.00  0.00     0.037 A 
ATOM     58  C   UNL A   1      39.208  29.027  30.300  1.00  0.00     0.049 A 
ATOM     59  C   UNL A   1      44.782  30.376  30.167  1.00  0.00     0.074 A 
ATOM     60  C   UNL A   1      38.918  27.935  31.092  1.00  0.00     0.029 A 
ATOM     61  N   UNL A   1      40.044  29.796  31.079  1.00  0.00    -0.354 N 
ATOM     62  N   UNL A   1      44.399  29.838  31.292  1.00  0.00    -0.248 NA
ATOM     63  C   UNL A   1      43.725  31.060  29.420  1.00  0.00     0.031 C 
ATOM     64  C   UNL A   1      39.897  27.918  32.132  1.00  0.00     0.029 A 
ATOM     65  C   UNL A   1      40.801  28.928  31.827  1.00  0.00     0.049 A 
ATOM     66  H   UNL A   1      40.090  30.779  31.096  1.00  0.00     0.167 HD
ATOM     67  C   UNL A   1      43.005  29.887  31.268  1.00  0.00     0.074 A 
ATOM     68  C   UNL A   1      42.656  30.678  30.105  1.00  0.00     0.031 C 
ATOM     69  C   UNL A   1      42.209  29.126  32.071  1.00  0.00     0.037 A 
BRANCH  56  70
ATOM     70  C   UNL A   1      37.809  30.371  28.685  1.00  0.00     0.057 A 
ATOM     71  C   UNL A   1      36.542  29.940  28.283  1.00  0.00     0.134 A 
ATOM     72  C   UNL A   1      37.909  31.697  29.130  1.00  0.00     0.134 A 
ATOM     73  F   UNL A   1      36.356  28.720  27.766  1.00  0.00    -0.206 F 
ATOM     74  C   UNL A   1      35.404  30.736  28.464  1.00  0.00     0.040 A 
ATOM     75  C   UNL A   1      36.788  32.513  29.290  1.00  0.00     0.040 A 
ATOM     76  F   UNL A   1      39.106  32.202  29.472  1.00  0.00    -0.206 F 
ATOM     77  C   UNL A   1      35.524  32.017  28.994  1.00  0.00     0.006 A 
ENDBRANCH  56  70
BRANCH  57  78
ATOM     78  C   UNL A   1      46.780  31.098  28.613  1.00  0.00     0.057 A 
ATOM     79  C   UNL A   1      46.354  31.593  27.372  1.00  0.00     0.134 A 
ATOM     80  C   UNL A   1      47.965  31.662  29.118  1.00  0.00     0.134 A 
ATOM     81  F   UNL A   1      45.170  31.245  26.851  1.00  0.00    -0.206 F 
ATOM     82  C   UNL A   1      47.136  32.468  26.610  1.00  0.00     0.040 A 
ATOM     83  C   UNL A   1      48.744  32.560  28.382  1.00  0.00     0.040 A 
ATOM     84  F   UNL A   1      48.393  31.355  30.353  1.00  0.00    -0.206 F 
ATOM     85  C   UNL A   1      48.346  32.940  27.107  1.00  0.00     0.006 A 
ENDBRANCH  57  78
BRANCH  69  86
ATOM     86  C   UNL A   1      42.929  28.260  33.051  1.00  0.00     0.057 A 
ATOM     87  C   UNL A   1      43.382  26.976  32.710  1.00  0.00     0.134 A 
ATOM     88  C   UNL A   1      43.179  28.705  34.351  1.00  0.00     0.134 A 
ATOM     89  F   UNL A   1      43.203  26.483  31.473  1.00  0.00    -0.206 F 
ATOM     90  C   UNL A   1      44.025  26.155  33.638  1.00  0.00     0.040 A 
ATOM     91  C   UNL A   1      43.850  27.905  35.279  1.00  0.00     0.040 A 
ATOM     92  F   UNL A   1      42.762  29.918  34.749  1.00  0.00    -0.206 F 
ATOM     93  C   UNL A   1      44.265  26.622  34.927  1.00  0.00     0.006 A 
ENDBRANCH  69  86
ENDBRANCH  43  44
ENDBRANCH  36  38
ENDBRANCH  35  36
ENDBRANCH  34  35
ENDBRANCH  33  34
ENDBRANCH   1  33
TORSDOF 17
ENDMDL
MODEL 2
REMARK VINA RESULT:     -11.5      3.392      8.620
REMARK SMILES CCCC(=O)N(c1cc2sc(=O)oc2c2ccccc12)S(=O)(=O)c1ccc(C(=O)OCCOC(=O)c2ccc(-c3c4nc(c(-c5c(F)cccc5F)c5ccc([nH]5)c(-c5c(F)cccc5F)c5nc(c(-c6c(F)cccc6F)c6ccc3[nH]6)C=C5)C=C4)cc2)cc1
REMARK SMILES IDX 30 1 28 2 29 3 27 4 24 5 25 6 91 7 26 8 90 9 21 10 22 11
REMARK SMILES IDX 23 12 6 13 4 14 5 15 3 16 2 17 1 18 7 19 8 20 20 21 9 22
REMARK SMILES IDX 15 23 19 24 10 25 14 26 16 27 18 28 11 29 13 30 17 31 12 32
REMARK SMILES IDX 31 33 32 34 33 35 34 36 35 37 36 38 37 39 89 40 38 41 88 42
REMARK SMILES IDX 39 43 40 44 41 45 82 46 42 47 87 48 81 49 83 50 43 51 86 52
REMARK SMILES IDX 80 53 79 54 44 56 70 57 53 58 69 59 54 60 57 61 68 62 84 63
REMARK SMILES IDX 55 64 56 65 67 67 85 68 58 69 45 70 46 71 51 72 47 73 48 74
REMARK SMILES IDX 50 75 52 76 49 77 71 78 72 79 77 80 73 81 74 82 76 83 78 84
REMARK SMILES IDX 75 85 59 86 60 87 65 88 61 89 62 90 64 91 66 92 63 93
REMARK H PARENT 83 55 57 66
REMARK Flexibility Score: inf
ROOT
ATOM      1  O   UNL A   1      31.709  29.190  27.016  1.00  0.00    -0.458 OA
ENDROOT
BRANCH   1   2
ATOM      2  C   UNL A   1      31.433  28.583  25.839  1.00  0.00     0.338 C 
ATOM      3  O   UNL A   1      31.091  29.137  24.806  1.00  0.00    -0.246 OA
BRANCH   2   4
ATOM      4  C   UNL A   1      31.716  27.129  25.891  1.00  0.00     0.060 A 
ATOM      5  C   UNL A   1      32.014  24.305  26.010  1.00  0.00     0.088 A 
ATOM      6  C   UNL A   1      30.762  24.899  25.918  1.00  0.00     0.023 A 
ATOM      7  C   UNL A   1      33.130  25.160  26.106  1.00  0.00     0.023 A 
ATOM      8  C   UNL A   1      30.612  26.283  25.824  1.00  0.00     0.017 A 
ATOM      9  C   UNL A   1      32.983  26.566  26.056  1.00  0.00     0.017 A 
BRANCH   5  10
ATOM     10  S   UNL A   1      32.349  22.518  25.893  1.00  0.00     0.270 S 
ATOM     11  O   UNL A   1      31.032  21.917  25.830  1.00  0.00    -0.201 OA
ATOM     12  O   UNL A   1      33.240  22.260  27.009  1.00  0.00    -0.201 OA
BRANCH  10  13
ATOM     13  N   UNL A   1      33.202  22.047  24.479  1.00  0.00    -0.202 N 
BRANCH  13  14
ATOM     14  C   UNL A   1      32.774  22.566  23.199  1.00  0.00     0.241 C 
ATOM     15  O   UNL A   1      31.783  22.114  22.632  1.00  0.00    -0.273 OA
BRANCH  14  16
ATOM     16  C   UNL A   1      33.596  23.662  22.483  1.00  0.00     0.101 C 
BRANCH  16  17
ATOM     17  C   UNL A   1      32.816  24.724  21.698  1.00  0.00     0.006 C 
ATOM     18  C   UNL A   1      32.652  26.042  22.455  1.00  0.00     0.004 C 
ENDBRANCH  16  17
ENDBRANCH  14  16
ENDBRANCH  13  14
BRANCH  13  19
ATOM     19  C   UNL A   1      33.836  20.781  24.447  1.00  0.00     0.070 A 
ATOM     20  C   UNL A   1      33.086  19.635  24.160  1.00  0.00     0.051 A 
ATOM     21  C   UNL A   1      35.239  20.736  24.729  1.00  0.00     0.010 A 
ATOM     22  C   UNL A   1      33.695  18.418  24.360  1.00  0.00     0.080 A 
ATOM     23  C   UNL A   1      35.865  19.477  24.795  1.00  0.00     0.028 A 
ATOM     24  C   UNL A   1      36.032  21.897  24.929  1.00  0.00     0.011 A 
ATOM     25  S   UNL A   1      32.919  16.855  24.351  1.00  0.00    -0.052 S 
ATOM     26  C   UNL A   1      35.035  18.336  24.729  1.00  0.00     0.157 A 
ATOM     27  C   UNL A   1      37.272  19.439  24.894  1.00  0.00     0.013 A 
ATOM     28  C   UNL A   1      37.421  21.833  25.007  1.00  0.00     0.001 A 
ATOM     29  C   UNL A   1      34.411  16.175  25.002  1.00  0.00     0.396 A 
ATOM     30  O   UNL A   1      35.479  17.065  25.115  1.00  0.00    -0.413 OA
ATOM     31  C   UNL A   1      38.045  20.600  24.959  1.00  0.00     0.001 A 
ATOM     32  O   UNL A   1      34.466  14.997  25.318  1.00  0.00    -0.233 OA
ENDBRANCH  13  19
ENDBRANCH  10  13
ENDBRANCH   5  10
ENDBRANCH   2   4
ENDBRANCH   1   2
BRANCH   1  33
ATOM     33  C   UNL A   1      32.414  30.445  26.907  1.00  0.00     0.275 C 
BRANCH  33  34
ATOM     34  C   UNL A   1      33.913  30.211  26.712  1.00  0.00     0.275 C 
BRANCH  34  35
ATOM     35  O   UNL A   1      34.635  30.451  27.933  1.00  0.00    -0.458 OA
BRANCH  35  36
ATOM     36  C   UNL A   1      35.529  31.460  27.926  1.00  0.00     0.338 C 
ATOM     37  O   UNL A   1      35.374  32.608  27.533  1.00  0.00    -0.246 OA
BRANCH  36  38
ATOM     38  C   UNL A   1      36.750  30.954  28.559  1.00  0.00     0.060 A 
ATOM     39  C   UNL A   1      37.688  31.842  29.086  1.00  0.00     0.016 A 
ATOM     40  C   UNL A   1      36.969  29.576  28.588  1.00  0.00     0.016 A 
ATOM     41  C   UNL A   1      38.866  31.335  29.636  1.00  0.00     0.010 A 
ATOM     42  C   UNL A   1      38.138  29.072  29.146  1.00  0.00     0.010 A 
ATOM     43  C   UNL A   1      39.092  29.948  29.673  1.00  0.00    -0.014 A 
BRANCH  43  44
ATOM     44  C   UNL A   1      40.328  29.456  30.316  1.00  0.00     0.031 A 
ATOM     45  C   UNL A   1      41.597  29.915  29.653  1.00  0.00     0.074 A 
ATOM     46  C   UNL A   1      40.351  29.204  31.645  1.00  0.00     0.049 A 
ATOM     47  N   UNL A   1      42.052  31.132  29.760  1.00  0.00    -0.248 NA
ATOM     48  C   UNL A   1      42.308  29.118  28.654  1.00  0.00     0.031 C 
ATOM     49  C   UNL A   1      39.509  29.905  32.625  1.00  0.00     0.029 A 
ATOM     50  N   UNL A   1      41.219  28.467  32.420  1.00  0.00    -0.354 N 
ATOM     51  C   UNL A   1      43.067  31.287  28.829  1.00  0.00     0.074 A 
ATOM     52  C   UNL A   1      43.200  30.004  28.176  1.00  0.00     0.031 C 
ATOM     53  C   UNL A   1      40.024  29.712  33.855  1.00  0.00     0.029 A 
ATOM     54  C   UNL A   1      41.144  28.775  33.779  1.00  0.00     0.049 A 
ATOM     55  H   UNL A   1      41.831  27.788  32.052  1.00  0.00     0.167 HD
ATOM     56  C   UNL A   1      43.729  32.465  28.661  1.00  0.00     0.037 A 
ATOM     57  C   UNL A   1      42.219  28.830  34.617  1.00  0.00     0.037 A 
ATOM     58  C   UNL A   1      43.307  33.520  29.554  1.00  0.00     0.049 A 
ATOM     59  C   UNL A   1      42.926  30.060  34.114  1.00  0.00     0.074 A 
ATOM     60  C   UNL A   1      42.393  34.555  29.562  1.00  0.00     0.029 A 
ATOM     61  N   UNL A   1      43.831  33.524  30.827  1.00  0.00    -0.354 N 
ATOM     62  N   UNL A   1      42.587  31.295  34.362  1.00  0.00    -0.248 NA
ATOM     63  C   UNL A   1      43.853  29.890  32.993  1.00  0.00     0.031 C 
ATOM     64  C   UNL A   1      42.142  34.861  30.935  1.00  0.00     0.029 A 
ATOM     65  C   UNL A   1      42.819  33.900  31.674  1.00  0.00     0.049 A 
ATOM     66  H   UNL A   1      44.756  33.299  31.081  1.00  0.00     0.167 HD
ATOM     67  C   UNL A   1      43.047  32.031  33.270  1.00  0.00     0.074 A 
ATOM     68  C   UNL A   1      43.844  31.112  32.481  1.00  0.00     0.031 C 
ATOM     69  C   UNL A   1      42.601  33.281  32.959  1.00  0.00     0.037 A 
BRANCH  56  70
ATOM     70  C   UNL A   1      44.919  32.694  27.796  1.00  0.00     0.057 A 
ATOM     71  C   UNL A   1      44.901  33.415  26.599  1.00  0.00     0.134 A 
ATOM     72  C   UNL A   1      46.179  32.412  28.341  1.00  0.00     0.134 A 
ATOM     73  F   UNL A   1      43.755  33.666  25.957  1.00  0.00    -0.206 F 
ATOM     74  C   UNL A   1      46.070  33.964  26.056  1.00  0.00     0.040 A 
ATOM     75  C   UNL A   1      47.356  32.928  27.797  1.00  0.00     0.040 A 
ATOM     76  F   UNL A   1      46.278  31.667  29.455  1.00  0.00    -0.206 F 
ATOM     77  C   UNL A   1      47.298  33.742  26.671  1.00  0.00     0.006 A 
ENDBRANCH  56  70
BRANCH  57  78
ATOM     78  C   UNL A   1      42.936  27.552  34.913  1.00  0.00     0.057 A 
ATOM     79  C   UNL A   1      44.290  27.442  35.264  1.00  0.00     0.134 A 
ATOM     80  C   UNL A   1      42.215  26.346  34.887  1.00  0.00     0.134 A 
ATOM     81  F   UNL A   1      45.050  28.526  35.465  1.00  0.00    -0.206 F 
ATOM     82  C   UNL A   1      44.921  26.202  35.419  1.00  0.00     0.040 A 
ATOM     83  C   UNL A   1      42.824  25.101  35.068  1.00  0.00     0.040 A 
ATOM     84  F   UNL A   1      40.886  26.352  34.691  1.00  0.00    -0.206 F 
ATOM     85  C   UNL A   1      44.191  25.024  35.302  1.00  0.00     0.006 A 
ENDBRANCH  57  78
BRANCH  69  86
ATOM     86  C   UNL A   1      41.613  33.864  33.915  1.00  0.00     0.057 A 
ATOM     87  C   UNL A   1      42.020  34.576  35.055  1.00  0.00     0.134 A 
ATOM     88  C   UNL A   1      40.240  33.722  33.701  1.00  0.00     0.134 A 
ATOM     89  F   UNL A   1      43.320  34.778  35.320  1.00  0.00    -0.206 F 
ATOM     90  C   UNL A   1      41.094  35.090  35.966  1.00  0.00     0.040 A 
ATOM     91  C   UNL A   1      39.306  34.260  34.588  1.00  0.00     0.040 A 
ATOM     92  F   UNL A   1      39.783  33.043  32.637  1.00  0.00    -0.206 F 
ATOM     93  C   UNL A   1      39.731  34.937  35.730  1.00  0.00     0.006 A 
ENDBRANCH  69  86
ENDBRANCH  43  44
ENDBRANCH  36  38
ENDBRANCH  35  36
ENDBRANCH  34  35
ENDBRANCH  33  34
ENDBRANCH   1  33
TORSDOF 17
ENDMDL
MODEL 3
REMARK VINA RESULT:     -11.2      6.206     11.106
REMARK SMILES CCCC(=O)N(c1cc2sc(=O)oc2c2ccccc12)S(=O)(=O)c1ccc(C(=O)OCCOC(=O)c2ccc(-c3c4nc(c(-c5c(F)cccc5F)c5ccc([nH]5)c(-c5c(F)cccc5F)c5nc(c(-c6c(F)cccc6F)c6ccc3[nH]6)C=C5)C=C4)cc2)cc1
REMARK SMILES IDX 30 1 28 2 29 3 27 4 24 5 25 6 91 7 26 8 90 9 21 10 22 11
REMARK SMILES IDX 23 12 6 13 4 14 5 15 3 16 2 17 1 18 7 19 8 20 20 21 9 22
REMARK SMILES IDX 15 23 19 24 10 25 14 26 16 27 18 28 11 29 13 30 17 31 12 32
REMARK SMILES IDX 31 33 32 34 33 35 34 36 35 37 36 38 37 39 89 40 38 41 88 42
REMARK SMILES IDX 39 43 40 44 41 45 82 46 42 47 87 48 81 49 83 50 43 51 86 52
REMARK SMILES IDX 80 53 79 54 44 56 70 57 53 58 69 59 54 60 57 61 68 62 84 63
REMARK SMILES IDX 55 64 56 65 67 67 85 68 58 69 45 70 46 71 51 72 47 73 48 74
REMARK SMILES IDX 50 75 52 76 49 77 71 78 72 79 77 80 73 81 74 82 76 83 78 84
REMARK SMILES IDX 75 85 59 86 60 87 65 88 61 89 62 90 64 91 66 92 63 93
REMARK H PARENT 83 55 57 66
REMARK Flexibility Score: inf
ROOT
ATOM      1  O   UNL A   1      45.126  32.546  26.438  1.00  0.00    -0.458 OA
ENDROOT
BRANCH   1   2
ATOM      2  C   UNL A   1      45.664  31.683  27.329  1.00  0.00     0.338 C 
ATOM      3  O   UNL A   1      46.146  31.975  28.413  1.00  0.00    -0.246 OA
BRANCH   2   4
ATOM      4  C   UNL A   1      45.495  30.275  26.901  1.00  0.00     0.060 A 
ATOM      5  C   UNL A   1      44.993  27.554  26.251  1.00  0.00     0.088 A 
ATOM      6  C   UNL A   1      44.184  28.249  27.141  1.00  0.00     0.023 A 
ATOM      7  C   UNL A   1      46.112  28.233  25.731  1.00  0.00     0.023 A 
ATOM      8  C   UNL A   1      44.405  29.595  27.436  1.00  0.00     0.017 A 
ATOM      9  C   UNL A   1      46.369  29.585  26.059  1.00  0.00     0.017 A 
BRANCH   5  10
ATOM     10  S   UNL A   1      44.664  25.883  25.604  1.00  0.00     0.270 S 
ATOM     11  O   UNL A   1      45.835  25.576  24.808  1.00  0.00    -0.201 OA
ATOM     12  O   UNL A   1      43.351  26.001  24.996  1.00  0.00    -0.201 OA
BRANCH  10  13
ATOM     13  N   UNL A   1      44.525  24.669  26.811  1.00  0.00    -0.202 N 
BRANCH  13  14
ATOM     14  C   UNL A   1      45.141  24.892  28.100  1.00  0.00     0.241 C 
ATOM     15  O   UNL A   1      46.351  24.753  28.256  1.00  0.00    -0.273 OA
BRANCH  14  16
ATOM     16  C   UNL A   1      44.276  25.249  29.330  1.00  0.00     0.101 C 
BRANCH  16  17
ATOM     17  C   UNL A   1      44.679  24.631  30.675  1.00  0.00     0.006 C 
ATOM     18  C   UNL A   1      45.566  25.543  31.522  1.00  0.00     0.004 C 
ENDBRANCH  16  17
ENDBRANCH  14  16
ENDBRANCH  13  14
BRANCH  13  19
ATOM     19  C   UNL A   1      44.403  23.315  26.415  1.00  0.00     0.070 A 
ATOM     20  C   UNL A   1      45.528  22.621  25.956  1.00  0.00     0.051 A 
ATOM     21  C   UNL A   1      43.105  22.717  26.493  1.00  0.00     0.010 A 
ATOM     22  C   UNL A   1      45.317  21.391  25.377  1.00  0.00     0.080 A 
ATOM     23  C   UNL A   1      42.947  21.403  26.013  1.00  0.00     0.028 A 
ATOM     24  C   UNL A   1      41.974  23.377  27.043  1.00  0.00     0.011 A 
ATOM     25  S   UNL A   1      46.483  20.449  24.484  1.00  0.00    -0.052 S 
ATOM     26  C   UNL A   1      44.048  20.818  25.349  1.00  0.00     0.157 A 
ATOM     27  C   UNL A   1      41.718  20.752  26.252  1.00  0.00     0.013 A 
ATOM     28  C   UNL A   1      40.778  22.706  27.283  1.00  0.00     0.001 A 
ATOM     29  C   UNL A   1      45.160  19.398  23.979  1.00  0.00     0.396 A 
ATOM     30  O   UNL A   1      43.917  19.678  24.546  1.00  0.00    -0.413 OA
ATOM     31  C   UNL A   1      40.660  21.378  26.913  1.00  0.00     0.001 A 
ATOM     32  O   UNL A   1      45.360  18.493  23.185  1.00  0.00    -0.233 OA
ENDBRANCH  13  19
ENDBRANCH  10  13
ENDBRANCH   5  10
ENDBRANCH   2   4
ENDBRANCH   1   2
BRANCH   1  33
ATOM     33  C   UNL A   1      45.934  33.707  26.144  1.00  0.00     0.275 C 
BRANCH  33  34
ATOM     34  C   UNL A   1      45.058  34.881  25.703  1.00  0.00     0.275 C 
BRANCH  34  35
ATOM     35  O   UNL A   1      44.918  35.845  26.761  1.00  0.00    -0.458 OA
BRANCH  35  36
ATOM     36  C   UNL A   1      43.664  36.145  27.153  1.00  0.00     0.338 C 
ATOM     37  O   UNL A   1      42.864  36.903  26.623  1.00  0.00    -0.246 OA
BRANCH  36  38
ATOM     38  C   UNL A   1      43.376  35.324  28.333  1.00  0.00     0.060 A 
ATOM     39  C   UNL A   1      44.392  35.011  29.236  1.00  0.00     0.016 A 
ATOM     40  C   UNL A   1      42.080  34.837  28.511  1.00  0.00     0.016 A 
ATOM     41  C   UNL A   1      44.101  34.186  30.323  1.00  0.00     0.010 A 
ATOM     42  C   UNL A   1      41.790  34.024  29.600  1.00  0.00     0.010 A 
ATOM     43  C   UNL A   1      42.798  33.694  30.512  1.00  0.00    -0.014 A 
BRANCH  43  44
ATOM     44  C   UNL A   1      42.526  32.870  31.707  1.00  0.00     0.031 A 
ATOM     45  C   UNL A   1      41.180  33.110  32.333  1.00  0.00     0.074 A 
ATOM     46  C   UNL A   1      43.083  31.644  31.830  1.00  0.00     0.049 A 
ATOM     47  N   UNL A   1      40.068  32.678  31.809  1.00  0.00    -0.248 NA
ATOM     48  C   UNL A   1      40.974  34.034  33.448  1.00  0.00     0.031 C 
ATOM     49  C   UNL A   1      43.438  30.787  30.689  1.00  0.00     0.029 A 
ATOM     50  N   UNL A   1      43.262  30.827  32.925  1.00  0.00    -0.354 N 
ATOM     51  C   UNL A   1      39.020  33.290  32.478  1.00  0.00     0.074 A 
ATOM     52  C   UNL A   1      39.632  34.112  33.498  1.00  0.00     0.031 C 
ATOM     53  C   UNL A   1      43.602  29.525  31.129  1.00  0.00     0.029 A 
ATOM     54  C   UNL A   1      43.501  29.494  32.588  1.00  0.00     0.049 A 
ATOM     55  H   UNL A   1      43.225  31.152  33.855  1.00  0.00     0.167 HD
ATOM     56  C   UNL A   1      37.717  33.077  32.143  1.00  0.00     0.037 A 
ATOM     57  C   UNL A   1      43.012  28.424  33.278  1.00  0.00     0.037 A 
ATOM     58  C   UNL A   1      37.524  32.138  31.062  1.00  0.00     0.049 A 
ATOM     59  C   UNL A   1      41.544  28.510  32.957  1.00  0.00     0.074 A 
ATOM     60  C   UNL A   1      37.402  32.165  29.687  1.00  0.00     0.029 A 
ATOM     61  N   UNL A   1      37.560  30.796  31.371  1.00  0.00    -0.354 N 
ATOM     62  N   UNL A   1      40.979  28.133  31.843  1.00  0.00    -0.248 NA
ATOM     63  C   UNL A   1      40.723  29.383  33.798  1.00  0.00     0.031 C 
ATOM     64  C   UNL A   1      37.763  30.863  29.224  1.00  0.00     0.029 A 
ATOM     65  C   UNL A   1      38.211  30.167  30.339  1.00  0.00     0.049 A 
ATOM     66  H   UNL A   1      37.188  30.370  32.177  1.00  0.00     0.167 HD
ATOM     67  C   UNL A   1      39.841  28.929  31.719  1.00  0.00     0.074 A 
ATOM     68  C   UNL A   1      39.725  29.653  32.969  1.00  0.00     0.031 C 
ATOM     69  C   UNL A   1      39.168  29.107  30.546  1.00  0.00     0.037 A 
BRANCH  56  70
ATOM     70  C   UNL A   1      36.523  33.571  32.883  1.00  0.00     0.057 A 
ATOM     71  C   UNL A   1      36.316  33.404  34.255  1.00  0.00     0.134 A 
ATOM     72  C   UNL A   1      35.692  34.492  32.230  1.00  0.00     0.134 A 
ATOM     73  F   UNL A   1      37.001  32.492  34.954  1.00  0.00    -0.206 F 
ATOM     74  C   UNL A   1      35.436  34.225  34.970  1.00  0.00     0.040 A 
ATOM     75  C   UNL A   1      34.790  35.299  32.924  1.00  0.00     0.040 A 
ATOM     76  F   UNL A   1      35.788  34.658  30.901  1.00  0.00    -0.206 F 
ATOM     77  C   UNL A   1      34.690  35.194  34.306  1.00  0.00     0.006 A 
ENDBRANCH  56  70
BRANCH  57  78
ATOM     78  C   UNL A   1      43.522  28.199  34.665  1.00  0.00     0.057 A 
ATOM     79  C   UNL A   1      43.611  29.174  35.668  1.00  0.00     0.134 A 
ATOM     80  C   UNL A   1      43.916  26.902  35.042  1.00  0.00     0.134 A 
ATOM     81  F   UNL A   1      43.133  30.412  35.483  1.00  0.00    -0.206 F 
ATOM     82  C   UNL A   1      44.202  28.916  36.909  1.00  0.00     0.040 A 
ATOM     83  C   UNL A   1      44.483  26.621  36.288  1.00  0.00     0.040 A 
ATOM     84  F   UNL A   1      43.750  25.869  34.200  1.00  0.00    -0.206 F 
ATOM     85  C   UNL A   1      44.659  27.639  37.216  1.00  0.00     0.006 A 
ENDBRANCH  57  78
BRANCH  69  86
ATOM     86  C   UNL A   1      39.691  28.331  29.383  1.00  0.00     0.057 A 
ATOM     87  C   UNL A   1      39.374  26.976  29.196  1.00  0.00     0.134 A 
ATOM     88  C   UNL A   1      40.519  28.935  28.434  1.00  0.00     0.134 A 
ATOM     89  F   UNL A   1      38.565  26.328  30.050  1.00  0.00    -0.206 F 
ATOM     90  C   UNL A   1      39.893  26.244  28.126  1.00  0.00     0.040 A 
ATOM     91  C   UNL A   1      41.018  28.221  27.343  1.00  0.00     0.040 A 
ATOM     92  F   UNL A   1      40.872  30.224  28.559  1.00  0.00    -0.206 F 
ATOM     93  C   UNL A   1      40.714  26.869  27.192  1.00  0.00     0.006 A 
ENDBRANCH  69  86
ENDBRANCH  43  44
ENDBRANCH  36  38
ENDBRANCH  35  36
ENDBRANCH  34  35
ENDBRANCH  33  34
ENDBRANCH   1  33
TORSDOF 17
ENDMDL
