MODEL 1
REMARK VINA RESULT:     -11.9      0.000      0.000
REMARK SMILES O=C(OCCOC(=O)c1cc(-c2ccc(F)c(C(F)(F)F)c2)cnc1O)c1ccc(-c2c3nc(c(-c4c(F)cccc4F)c4ccc([nH]4)c(-c4c(F)cccc4F)c4nc(c(-c5c(F)cccc5F)c5ccc2[nH]5)C=C4)C=C3)cc1
REMARK SMILES IDX 4 1 3 2 2 3 1 4 27 5 28 6 80 7 29 8 79 9 30 10 31 11 32 12
REMARK SMILES IDX 73 13 33 14 78 15 72 16 74 17 34 18 77 19 71 20 70 21 35 23
REMARK SMILES IDX 61 24 44 25 60 26 45 27 48 28 59 29 75 30 46 31 47 32 58 34
REMARK SMILES IDX 76 35 49 36 36 37 37 38 42 39 38 40 39 41 41 42 43 43 40 44
REMARK SMILES IDX 62 45 63 46 68 47 64 48 65 49 67 50 69 51 66 52 50 53 51 54
REMARK SMILES IDX 56 55 52 56 53 57 55 58 57 59 54 60 5 61 6 62 7 63 8 64 9 65
REMARK SMILES IDX 10 66 25 67 11 68 24 69 23 70 26 71 12 73 13 74 22 75 14 76
REMARK SMILES IDX 17 77 15 78 16 79 18 80 19 81 20 82 21 83
REMARK H PARENT 74 22 48 33 26 72
REMARK Flexibility Score: inf
ROOT
ATOM      1  C   UNL A   1      43.654  22.039  25.159  1.00  0.00     0.275 C 
ENDROOT
BRANCH   1   2
ATOM      2  O   UNL A   1      43.405  23.405  24.793  1.00  0.00    -0.458 OA
BRANCH   2   3
ATOM      3  C   UNL A   1      44.079  24.529  25.127  1.00  0.00     0.338 C 
ATOM      4  O   UNL A   1      45.197  24.712  24.649  1.00  0.00    -0.246 OA
BRANCH   3   5
ATOM      5  C   UNL A   1      43.621  25.483  26.188  1.00  0.00     0.060 A 
ATOM      6  C   UNL A   1      42.757  24.938  27.151  1.00  0.00     0.016 A 
ATOM      7  C   UNL A   1      43.976  26.826  26.328  1.00  0.00     0.016 A 
ATOM      8  C   UNL A   1      42.187  25.727  28.155  1.00  0.00     0.010 A 
ATOM      9  C   UNL A   1      43.425  27.619  27.350  1.00  0.00     0.010 A 
ATOM     10  C   UNL A   1      42.514  27.080  28.263  1.00  0.00    -0.014 A 
BRANCH  10  11
ATOM     11  C   UNL A   1      42.045  27.863  29.432  1.00  0.00     0.031 A 
ATOM     12  C   UNL A   1      42.696  27.774  30.781  1.00  0.00     0.074 A 
ATOM     13  C   UNL A   1      40.985  28.674  29.254  1.00  0.00     0.049 A 
ATOM     14  N   UNL A   1      42.520  28.531  31.837  1.00  0.00    -0.248 NA
ATOM     15  C   UNL A   1      43.690  26.716  30.972  1.00  0.00     0.031 C 
ATOM     16  C   UNL A   1      40.245  28.830  27.999  1.00  0.00     0.029 A 
ATOM     17  N   UNL A   1      40.339  29.502  30.131  1.00  0.00    -0.354 N 
ATOM     18  C   UNL A   1      43.454  28.099  32.773  1.00  0.00     0.074 A 
ATOM     19  C   UNL A   1      44.158  26.984  32.183  1.00  0.00     0.031 C 
ATOM     20  C   UNL A   1      39.237  29.692  28.193  1.00  0.00     0.029 A 
ATOM     21  C   UNL A   1      39.240  30.115  29.588  1.00  0.00     0.049 A 
ATOM     22  H   UNL A   1      40.635  29.645  31.059  1.00  0.00     0.167 HD
ATOM     23  C   UNL A   1      43.694  28.584  34.014  1.00  0.00     0.037 A 
ATOM     24  C   UNL A   1      38.316  30.903  30.161  1.00  0.00     0.037 A 
ATOM     25  C   UNL A   1      42.861  29.561  34.664  1.00  0.00     0.049 A 
ATOM     26  C   UNL A   1      38.472  31.265  31.608  1.00  0.00     0.074 A 
ATOM     27  C   UNL A   1      42.971  30.086  35.940  1.00  0.00     0.029 A 
ATOM     28  N   UNL A   1      41.711  30.098  34.108  1.00  0.00    -0.354 N 
ATOM     29  N   UNL A   1      39.445  30.963  32.434  1.00  0.00    -0.248 NA
ATOM     30  C   UNL A   1      37.404  32.077  32.202  1.00  0.00     0.031 C 
ATOM     31  C   UNL A   1      41.833  30.864  36.187  1.00  0.00     0.029 A 
ATOM     32  C   UNL A   1      41.053  30.881  35.042  1.00  0.00     0.049 A 
ATOM     33  H   UNL A   1      41.406  29.946  33.185  1.00  0.00     0.167 HD
ATOM     34  C   UNL A   1      39.119  31.565  33.641  1.00  0.00     0.074 A 
ATOM     35  C   UNL A   1      37.865  32.261  33.431  1.00  0.00     0.031 C 
ATOM     36  C   UNL A   1      39.795  31.548  34.816  1.00  0.00     0.037 A 
BRANCH  23  37
ATOM     37  C   UNL A   1      44.858  28.012  34.768  1.00  0.00     0.057 A 
ATOM     38  C   UNL A   1      46.130  28.592  34.686  1.00  0.00     0.134 A 
ATOM     39  C   UNL A   1      44.725  26.857  35.553  1.00  0.00     0.134 A 
ATOM     40  F   UNL A   1      46.327  29.696  33.951  1.00  0.00    -0.206 F 
ATOM     41  C   UNL A   1      47.228  28.045  35.354  1.00  0.00     0.040 A 
ATOM     42  C   UNL A   1      45.813  26.309  36.238  1.00  0.00     0.040 A 
ATOM     43  F   UNL A   1      43.535  26.249  35.672  1.00  0.00    -0.206 F 
ATOM     44  C   UNL A   1      47.070  26.902  36.136  1.00  0.00     0.006 A 
ENDBRANCH  23  37
BRANCH  24  45
ATOM     45  C   UNL A   1      37.151  31.362  29.366  1.00  0.00     0.057 A 
ATOM     46  C   UNL A   1      36.046  30.527  29.155  1.00  0.00     0.134 A 
ATOM     47  C   UNL A   1      37.123  32.632  28.783  1.00  0.00     0.134 A 
ATOM     48  F   UNL A   1      36.018  29.293  29.681  1.00  0.00    -0.206 F 
ATOM     49  C   UNL A   1      34.960  30.933  28.379  1.00  0.00     0.040 A 
ATOM     50  C   UNL A   1      36.030  33.062  28.028  1.00  0.00     0.040 A 
ATOM     51  F   UNL A   1      38.145  33.481  28.963  1.00  0.00    -0.206 F 
ATOM     52  C   UNL A   1      34.948  32.207  27.819  1.00  0.00     0.006 A 
ENDBRANCH  24  45
BRANCH  36  53
ATOM     53  C   UNL A   1      39.188  32.312  35.953  1.00  0.00     0.057 A 
ATOM     54  C   UNL A   1      39.534  33.650  36.176  1.00  0.00     0.134 A 
ATOM     55  C   UNL A   1      38.269  31.724  36.830  1.00  0.00     0.134 A 
ATOM     56  F   UNL A   1      40.414  34.270  35.376  1.00  0.00    -0.206 F 
ATOM     57  C   UNL A   1      38.982  34.378  37.231  1.00  0.00     0.040 A 
ATOM     58  C   UNL A   1      37.690  32.449  37.871  1.00  0.00     0.040 A 
ATOM     59  F   UNL A   1      37.885  30.449  36.659  1.00  0.00    -0.206 F 
ATOM     60  C   UNL A   1      38.050  33.779  38.077  1.00  0.00     0.006 A 
ENDBRANCH  36  53
ENDBRANCH  10  11
ENDBRANCH   3   5
ENDBRANCH   2   3
ENDBRANCH   1   2
BRANCH   1  61
ATOM     61  C   UNL A   1      42.568  21.412  26.036  1.00  0.00     0.275 C 
BRANCH  61  62
ATOM     62  O   UNL A   1      41.230  21.704  25.596  1.00  0.00    -0.458 OA
BRANCH  62  63
ATOM     63  C   UNL A   1      40.231  21.278  26.420  1.00  0.00     0.343 C 
ATOM     64  O   UNL A   1      40.354  20.587  27.414  1.00  0.00    -0.246 OA
BRANCH  63  65
ATOM     65  C   UNL A   1      38.955  21.863  25.976  1.00  0.00     0.122 A 
ATOM     66  C   UNL A   1      37.911  21.017  25.568  1.00  0.00     0.031 A 
ATOM     67  C   UNL A   1      38.734  23.232  25.973  1.00  0.00     0.225 A 
ATOM     68  C   UNL A   1      36.662  21.557  25.227  1.00  0.00     0.001 A 
ATOM     69  N   UNL A   1      37.564  23.788  25.614  1.00  0.00    -0.221 NA
ATOM     70  C   UNL A   1      36.558  22.948  25.274  1.00  0.00     0.124 A 
BRANCH  67  71
ATOM     71  O   UNL A   1      39.669  24.152  26.355  1.00  0.00    -0.493 OA
ATOM     72  H   UNL A   1      39.706  24.986  25.930  1.00  0.00     0.295 HD
ENDBRANCH  67  71
BRANCH  68  73
ATOM     73  C   UNL A   1      35.504  20.734  24.848  1.00  0.00    -0.016 A 
ATOM     74  C   UNL A   1      34.273  21.344  24.562  1.00  0.00     0.012 A 
ATOM     75  C   UNL A   1      35.561  19.328  24.827  1.00  0.00     0.025 A 
ATOM     76  C   UNL A   1      33.141  20.577  24.275  1.00  0.00     0.040 A 
ATOM     77  C   UNL A   1      34.422  18.544  24.560  1.00  0.00     0.092 A 
ATOM     78  C   UNL A   1      33.224  19.190  24.280  1.00  0.00     0.135 A 
ATOM     79  F   UNL A   1      32.122  18.475  24.019  1.00  0.00    -0.206 F 
BRANCH  77  80
ATOM     80  C   UNL A   1      34.456  17.044  24.588  1.00  0.00     0.419 C 
ATOM     81  F   UNL A   1      34.202  16.482  23.375  1.00  0.00    -0.166 F 
ATOM     82  F   UNL A   1      35.656  16.547  24.996  1.00  0.00    -0.166 F 
ATOM     83  F   UNL A   1      33.530  16.509  25.437  1.00  0.00    -0.166 F 
ENDBRANCH  77  80
ENDBRANCH  68  73
ENDBRANCH  63  65
ENDBRANCH  62  63
ENDBRANCH  61  62
ENDBRANCH   1  61
TORSDOF 14
ENDMDL
MODEL 2
REMARK VINA RESULT:     -11.9      5.791     11.977
REMARK SMILES O=C(OCCOC(=O)c1cc(-c2ccc(F)c(C(F)(F)F)c2)cnc1O)c1ccc(-c2c3nc(c(-c4c(F)cccc4F)c4ccc([nH]4)c(-c4c(F)cccc4F)c4nc(c(-c5c(F)cccc5F)c5ccc2[nH]5)C=C4)C=C3)cc1
REMARK SMILES IDX 4 1 3 2 2 3 1 4 27 5 28 6 80 7 29 8 79 9 30 10 31 11 32 12
REMARK SMILES IDX 73 13 33 14 78 15 72 16 74 17 34 18 77 19 71 20 70 21 35 23
REMARK SMILES IDX 61 24 44 25 60 26 45 27 48 28 59 29 75 30 46 31 47 32 58 34
REMARK SMILES IDX 76 35 49 36 36 37 37 38 42 39 38 40 39 41 41 42 43 43 40 44
REMARK SMILES IDX 62 45 63 46 68 47 64 48 65 49 67 50 69 51 66 52 50 53 51 54
REMARK SMILES IDX 56 55 52 56 53 57 55 58 57 59 54 60 5 61 6 62 7 63 8 64 9 65
REMARK SMILES IDX 10 66 25 67 11 68 24 69 23 70 26 71 12 73 13 74 22 75 14 76
REMARK SMILES IDX 17 77 15 78 16 79 18 80 19 81 20 82 21 83
REMARK H PARENT 74 22 48 33 26 72
REMARK Flexibility Score: inf
ROOT
ATOM      1  C   UNL A   1      36.549  33.985  34.674  1.00  0.00     0.275 C 
ENDROOT
BRANCH   1   2
ATOM      2  O   UNL A   1      36.561  32.600  34.297  1.00  0.00    -0.458 OA
BRANCH   2   3
ATOM      3  C   UNL A   1      36.500  32.034  33.071  1.00  0.00     0.338 C 
ATOM      4  O   UNL A   1      35.398  31.872  32.549  1.00  0.00    -0.246 OA
BRANCH   3   5
ATOM      5  C   UNL A   1      37.683  31.427  32.379  1.00  0.00     0.060 A 
ATOM      6  C   UNL A   1      37.734  31.631  30.991  1.00  0.00     0.016 A 
ATOM      7  C   UNL A   1      38.731  30.715  32.965  1.00  0.00     0.016 A 
ATOM      8  C   UNL A   1      38.737  31.057  30.203  1.00  0.00     0.010 A 
ATOM      9  C   UNL A   1      39.755  30.156  32.181  1.00  0.00     0.010 A 
ATOM     10  C   UNL A   1      39.759  30.309  30.791  1.00  0.00    -0.014 A 
BRANCH  10  11
ATOM     11  C   UNL A   1      40.909  29.856  29.972  1.00  0.00     0.031 A 
ATOM     12  C   UNL A   1      41.035  28.451  29.458  1.00  0.00     0.074 A 
ATOM     13  C   UNL A   1      41.870  30.757  29.696  1.00  0.00     0.049 A 
ATOM     14  N   UNL A   1      41.876  27.964  28.579  1.00  0.00    -0.248 NA
ATOM     15  C   UNL A   1      40.083  27.467  29.975  1.00  0.00     0.031 C 
ATOM     16  C   UNL A   1      41.881  32.147  30.159  1.00  0.00     0.029 A 
ATOM     17  N   UNL A   1      43.028  30.633  28.977  1.00  0.00    -0.354 N 
ATOM     18  C   UNL A   1      41.485  26.646  28.370  1.00  0.00     0.074 A 
ATOM     19  C   UNL A   1      40.365  26.394  29.248  1.00  0.00     0.031 C 
ATOM     20  C   UNL A   1      42.999  32.743  29.723  1.00  0.00     0.029 A 
ATOM     21  C   UNL A   1      43.796  31.769  28.987  1.00  0.00     0.049 A 
ATOM     22  H   UNL A   1      43.284  29.811  28.500  1.00  0.00     0.167 HD
ATOM     23  C   UNL A   1      42.018  25.728  27.529  1.00  0.00     0.037 A 
ATOM     24  C   UNL A   1      45.023  31.989  28.487  1.00  0.00     0.037 A 
ATOM     25  C   UNL A   1      43.246  25.926  26.807  1.00  0.00     0.049 A 
ATOM     26  C   UNL A   1      45.704  30.886  27.734  1.00  0.00     0.074 A 
ATOM     27  C   UNL A   1      43.914  25.049  25.970  1.00  0.00     0.029 A 
ATOM     28  N   UNL A   1      44.035  27.062  26.906  1.00  0.00    -0.354 N 
ATOM     29  N   UNL A   1      45.251  29.696  27.422  1.00  0.00    -0.248 NA
ATOM     30  C   UNL A   1      47.067  31.157  27.262  1.00  0.00     0.031 C 
ATOM     31  C   UNL A   1      45.151  25.619  25.644  1.00  0.00     0.029 A 
ATOM     32  C   UNL A   1      45.221  26.878  26.217  1.00  0.00     0.049 A 
ATOM     33  H   UNL A   1      43.787  27.880  27.395  1.00  0.00     0.167 HD
ATOM     34  C   UNL A   1      46.264  29.081  26.700  1.00  0.00     0.074 A 
ATOM     35  C   UNL A   1      47.348  30.039  26.607  1.00  0.00     0.031 C 
ATOM     36  C   UNL A   1      46.294  27.839  26.157  1.00  0.00     0.037 A 
BRANCH  23  37
ATOM     37  C   UNL A   1      41.312  24.410  27.405  1.00  0.00     0.057 A 
ATOM     38  C   UNL A   1      40.158  24.277  26.623  1.00  0.00     0.134 A 
ATOM     39  C   UNL A   1      41.759  23.273  28.093  1.00  0.00     0.134 A 
ATOM     40  F   UNL A   1      39.674  25.326  25.941  1.00  0.00    -0.206 F 
ATOM     41  C   UNL A   1      39.472  23.064  26.531  1.00  0.00     0.040 A 
ATOM     42  C   UNL A   1      41.091  22.050  27.997  1.00  0.00     0.040 A 
ATOM     43  F   UNL A   1      42.857  23.332  28.862  1.00  0.00    -0.206 F 
ATOM     44  C   UNL A   1      39.941  21.944  27.217  1.00  0.00     0.006 A 
ENDBRANCH  23  37
BRANCH  24  45
ATOM     45  C   UNL A   1      45.684  33.296  28.722  1.00  0.00     0.057 A 
ATOM     46  C   UNL A   1      45.541  34.352  27.813  1.00  0.00     0.134 A 
ATOM     47  C   UNL A   1      46.487  33.513  29.845  1.00  0.00     0.134 A 
ATOM     48  F   UNL A   1      44.791  34.201  26.711  1.00  0.00    -0.206 F 
ATOM     49  C   UNL A   1      46.186  35.574  28.004  1.00  0.00     0.040 A 
ATOM     50  C   UNL A   1      47.116  34.741  30.064  1.00  0.00     0.040 A 
ATOM     51  F   UNL A   1      46.649  32.545  30.759  1.00  0.00    -0.206 F 
ATOM     52  C   UNL A   1      46.971  35.772  29.137  1.00  0.00     0.006 A 
ENDBRANCH  24  45
BRANCH  36  53
ATOM     53  C   UNL A   1      47.539  27.460  25.414  1.00  0.00     0.057 A 
ATOM     54  C   UNL A   1      48.628  26.896  26.089  1.00  0.00     0.134 A 
ATOM     55  C   UNL A   1      47.664  27.659  24.033  1.00  0.00     0.134 A 
ATOM     56  F   UNL A   1      48.575  26.686  27.414  1.00  0.00    -0.206 F 
ATOM     57  C   UNL A   1      49.797  26.541  25.416  1.00  0.00     0.040 A 
ATOM     58  C   UNL A   1      48.816  27.282  23.345  1.00  0.00     0.040 A 
ATOM     59  F   UNL A   1      46.649  28.181  23.326  1.00  0.00    -0.206 F 
ATOM     60  C   UNL A   1      49.890  26.725  24.038  1.00  0.00     0.006 A 
ENDBRANCH  36  53
ENDBRANCH  10  11
ENDBRANCH   3   5
ENDBRANCH   2   3
ENDBRANCH   1   2
BRANCH   1  61
ATOM     61  C   UNL A   1      35.237  34.711  34.371  1.00  0.00     0.275 C 
BRANCH  61  62
ATOM     62  O   UNL A   1      35.312  35.594  33.237  1.00  0.00    -0.458 OA
BRANCH  62  63
ATOM     63  C   UNL A   1      34.155  36.237  32.911  1.00  0.00     0.343 C 
ATOM     64  O   UNL A   1      33.482  36.937  33.644  1.00  0.00    -0.246 OA
BRANCH  63  65
ATOM     65  C   UNL A   1      33.877  36.034  31.480  1.00  0.00     0.122 A 
ATOM     66  C   UNL A   1      34.174  34.796  30.886  1.00  0.00     0.031 A 
ATOM     67  C   UNL A   1      33.299  37.020  30.694  1.00  0.00     0.225 A 
ATOM     68  C   UNL A   1      33.833  34.560  29.547  1.00  0.00     0.001 A 
ATOM     69  N   UNL A   1      32.995  36.844  29.397  1.00  0.00    -0.221 NA
ATOM     70  C   UNL A   1      33.245  35.625  28.862  1.00  0.00     0.124 A 
BRANCH  67  71
ATOM     71  O   UNL A   1      32.957  38.257  31.161  1.00  0.00    -0.493 OA
ATOM     72  H   UNL A   1      33.617  38.911  31.281  1.00  0.00     0.295 HD
ENDBRANCH  67  71
BRANCH  68  73
ATOM     73  C   UNL A   1      34.059  33.273  28.871  1.00  0.00    -0.016 A 
ATOM     74  C   UNL A   1      35.346  32.717  28.831  1.00  0.00     0.012 A 
ATOM     75  C   UNL A   1      33.030  32.597  28.189  1.00  0.00     0.025 A 
ATOM     76  C   UNL A   1      35.597  31.536  28.130  1.00  0.00     0.040 A 
ATOM     77  C   UNL A   1      33.275  31.418  27.460  1.00  0.00     0.092 A 
ATOM     78  C   UNL A   1      34.564  30.900  27.450  1.00  0.00     0.135 A 
ATOM     79  F   UNL A   1      34.832  29.778  26.769  1.00  0.00    -0.206 F 
BRANCH  77  80
ATOM     80  C   UNL A   1      32.199  30.717  26.684  1.00  0.00     0.419 C 
ATOM     81  F   UNL A   1      32.567  30.424  25.407  1.00  0.00    -0.166 F 
ATOM     82  F   UNL A   1      31.815  29.540  27.250  1.00  0.00    -0.166 F 
ATOM     83  F   UNL A   1      31.059  31.459  26.571  1.00  0.00    -0.166 F 
ENDBRANCH  77  80
ENDBRANCH  68  73
ENDBRANCH  63  65
ENDBRANCH  62  63
ENDBRANCH  61  62
ENDBRANCH   1  61
TORSDOF 14
ENDMDL
MODEL 3
REMARK VINA RESULT:     -11.8      0.486      6.241
REMARK SMILES O=C(OCCOC(=O)c1cc(-c2ccc(F)c(C(F)(F)F)c2)cnc1O)c1ccc(-c2c3nc(c(-c4c(F)cccc4F)c4ccc([nH]4)c(-c4c(F)cccc4F)c4nc(c(-c5c(F)cccc5F)c5ccc2[nH]5)C=C4)C=C3)cc1
REMARK SMILES IDX 4 1 3 2 2 3 1 4 27 5 28 6 80 7 29 8 79 9 30 10 31 11 32 12
REMARK SMILES IDX 73 13 33 14 78 15 72 16 74 17 34 18 77 19 71 20 70 21 35 23
REMARK SMILES IDX 61 24 44 25 60 26 45 27 48 28 59 29 75 30 46 31 47 32 58 34
REMARK SMILES IDX 76 35 49 36 36 37 37 38 42 39 38 40 39 41 41 42 43 43 40 44
REMARK SMILES IDX 62 45 63 46 68 47 64 48 65 49 67 50 69 51 66 52 50 53 51 54
REMARK SMILES IDX 56 55 52 56 53 57 55 58 57 59 54 60 5 61 6 62 7 63 8 64 9 65
REMARK SMILES IDX 10 66 25 67 11 68 24 69 23 70 26 71 12 73 13 74 22 75 14 76
REMARK SMILES IDX 17 77 15 78 16 79 18 80 19 81 20 82 21 83
REMARK H PARENT 74 22 48 33 26 72
REMARK Flexibility Score: inf
ROOT
ATOM      1  C   UNL A   1      43.534  22.041  25.363  1.00  0.00     0.275 C 
ENDROOT
BRANCH   1   2
ATOM      2  O   UNL A   1      43.172  23.363  24.935  1.00  0.00    -0.458 OA
BRANCH   2   3
ATOM      3  C   UNL A   1      43.773  24.549  25.181  1.00  0.00     0.338 C 
ATOM      4  O   UNL A   1      44.839  24.798  24.620  1.00  0.00    -0.246 OA
BRANCH   3   5
ATOM      5  C   UNL A   1      43.311  25.509  26.235  1.00  0.00     0.060 A 
ATOM      6  C   UNL A   1      42.320  25.017  27.099  1.00  0.00     0.016 A 
ATOM      7  C   UNL A   1      43.772  26.808  26.456  1.00  0.00     0.016 A 
ATOM      8  C   UNL A   1      41.737  25.824  28.081  1.00  0.00     0.010 A 
ATOM      9  C   UNL A   1      43.206  27.617  27.458  1.00  0.00     0.010 A 
ATOM     10  C   UNL A   1      42.173  27.138  28.269  1.00  0.00    -0.014 A 
BRANCH  10  11
ATOM     11  C   UNL A   1      41.675  27.924  29.423  1.00  0.00     0.031 A 
ATOM     12  C   UNL A   1      40.523  28.881  29.315  1.00  0.00     0.074 A 
ATOM     13  C   UNL A   1      42.300  27.762  30.604  1.00  0.00     0.049 A 
ATOM     14  N   UNL A   1      39.859  29.487  30.268  1.00  0.00    -0.248 NA
ATOM     15  C   UNL A   1      40.034  29.183  27.969  1.00  0.00     0.031 C 
ATOM     16  C   UNL A   1      43.450  26.884  30.836  1.00  0.00     0.029 A 
ATOM     17  N   UNL A   1      42.068  28.341  31.822  1.00  0.00    -0.354 N 
ATOM     18  C   UNL A   1      38.817  30.158  29.636  1.00  0.00     0.074 A 
ATOM     19  C   UNL A   1      38.964  29.926  28.218  1.00  0.00     0.031 C 
ATOM     20  C   UNL A   1      43.830  26.993  32.116  1.00  0.00     0.029 A 
ATOM     21  C   UNL A   1      42.979  27.974  32.778  1.00  0.00     0.049 A 
ATOM     22  H   UNL A   1      41.322  28.959  31.995  1.00  0.00     0.167 HD
ATOM     23  C   UNL A   1      37.833  30.905  30.190  1.00  0.00     0.037 A 
ATOM     24  C   UNL A   1      43.133  28.407  34.040  1.00  0.00     0.037 A 
ATOM     25  C   UNL A   1      37.807  31.290  31.577  1.00  0.00     0.049 A 
ATOM     26  C   UNL A   1      42.157  29.407  34.584  1.00  0.00     0.074 A 
ATOM     27  C   UNL A   1      36.894  32.091  32.240  1.00  0.00     0.029 A 
ATOM     28  N   UNL A   1      38.792  30.961  32.495  1.00  0.00    -0.354 N 
ATOM     29  N   UNL A   1      41.091  29.916  34.013  1.00  0.00    -0.248 NA
ATOM     30  C   UNL A   1      42.405  29.894  35.946  1.00  0.00     0.031 C 
ATOM     31  C   UNL A   1      37.381  32.325  33.532  1.00  0.00     0.029 A 
ATOM     32  C   UNL A   1      38.558  31.612  33.695  1.00  0.00     0.049 A 
ATOM     33  H   UNL A   1      39.548  30.355  32.320  1.00  0.00     0.167 HD
ATOM     34  C   UNL A   1      40.527  30.767  34.952  1.00  0.00     0.074 A 
ATOM     35  C   UNL A   1      41.363  30.692  36.135  1.00  0.00     0.031 C 
ATOM     36  C   UNL A   1      39.416  31.538  34.851  1.00  0.00     0.037 A 
BRANCH  23  37
ATOM     37  C   UNL A   1      36.752  31.410  29.281  1.00  0.00     0.057 A 
ATOM     38  C   UNL A   1      36.749  32.733  28.822  1.00  0.00     0.134 A 
ATOM     39  C   UNL A   1      35.685  30.588  28.887  1.00  0.00     0.134 A 
ATOM     40  F   UNL A   1      37.738  33.572  29.163  1.00  0.00    -0.206 F 
ATOM     41  C   UNL A   1      35.727  33.222  28.006  1.00  0.00     0.040 A 
ATOM     42  C   UNL A   1      34.665  31.062  28.059  1.00  0.00     0.040 A 
ATOM     43  F   UNL A   1      35.624  29.312  29.294  1.00  0.00    -0.206 F 
ATOM     44  C   UNL A   1      34.682  32.385  27.620  1.00  0.00     0.006 A 
ENDBRANCH  23  37
BRANCH  24  45
ATOM     45  C   UNL A   1      44.276  27.917  34.847  1.00  0.00     0.057 A 
ATOM     46  C   UNL A   1      45.492  28.614  34.875  1.00  0.00     0.134 A 
ATOM     47  C   UNL A   1      44.190  26.737  35.591  1.00  0.00     0.134 A 
ATOM     48  F   UNL A   1      45.639  29.749  34.175  1.00  0.00    -0.206 F 
ATOM     49  C   UNL A   1      46.586  28.146  35.602  1.00  0.00     0.040 A 
ATOM     50  C   UNL A   1      45.269  26.272  36.345  1.00  0.00     0.040 A 
ATOM     51  F   UNL A   1      43.048  26.036  35.616  1.00  0.00    -0.206 F 
ATOM     52  C   UNL A   1      46.474  26.975  36.345  1.00  0.00     0.006 A 
ENDBRANCH  24  45
BRANCH  36  53
ATOM     53  C   UNL A   1      39.048  32.350  36.055  1.00  0.00     0.057 A 
ATOM     54  C   UNL A   1      39.514  33.663  36.198  1.00  0.00     0.134 A 
ATOM     55  C   UNL A   1      38.241  31.833  37.076  1.00  0.00     0.134 A 
ATOM     56  F   UNL A   1      40.298  34.214  35.259  1.00  0.00    -0.206 F 
ATOM     57  C   UNL A   1      39.186  34.434  37.313  1.00  0.00     0.040 A 
ATOM     58  C   UNL A   1      37.883  32.603  38.181  1.00  0.00     0.040 A 
ATOM     59  F   UNL A   1      37.750  30.586  36.990  1.00  0.00    -0.206 F 
ATOM     60  C   UNL A   1      38.360  33.907  38.305  1.00  0.00     0.006 A 
ENDBRANCH  36  53
ENDBRANCH  10  11
ENDBRANCH   3   5
ENDBRANCH   2   3
ENDBRANCH   1   2
BRANCH   1  61
ATOM     61  C   UNL A   1      42.439  21.305  26.136  1.00  0.00     0.275 C 
BRANCH  61  62
ATOM     62  O   UNL A   1      41.105  21.683  25.752  1.00  0.00    -0.458 OA
BRANCH  62  63
ATOM     63  C   UNL A   1      40.118  20.813  26.109  1.00  0.00     0.343 C 
ATOM     64  O   UNL A   1      40.262  19.737  26.660  1.00  0.00    -0.246 OA
BRANCH  63  65
ATOM     65  C   UNL A   1      38.810  21.416  25.809  1.00  0.00     0.122 A 
ATOM     66  C   UNL A   1      37.748  20.593  25.394  1.00  0.00     0.031 A 
ATOM     67  C   UNL A   1      38.575  22.775  25.948  1.00  0.00     0.225 A 
ATOM     68  C   UNL A   1      36.474  21.142  25.189  1.00  0.00     0.001 A 
ATOM     69  N   UNL A   1      37.377  23.342  25.722  1.00  0.00    -0.221 NA
ATOM     70  C   UNL A   1      36.359  22.521  25.373  1.00  0.00     0.124 A 
BRANCH  67  71
ATOM     71  O   UNL A   1      39.524  23.671  26.352  1.00  0.00    -0.493 OA
ATOM     72  H   UNL A   1      40.322  23.366  26.736  1.00  0.00     0.295 HD
ENDBRANCH  67  71
BRANCH  68  73
ATOM     73  C   UNL A   1      35.301  20.339  24.812  1.00  0.00    -0.016 A 
ATOM     74  C   UNL A   1      34.048  20.953  24.666  1.00  0.00     0.012 A 
ATOM     75  C   UNL A   1      35.370  18.942  24.658  1.00  0.00     0.025 A 
ATOM     76  C   UNL A   1      32.907  20.197  24.384  1.00  0.00     0.040 A 
ATOM     77  C   UNL A   1      34.224  18.168  24.396  1.00  0.00     0.092 A 
ATOM     78  C   UNL A   1      33.004  18.817  24.256  1.00  0.00     0.135 A 
ATOM     79  F   UNL A   1      31.894  18.111  24.003  1.00  0.00    -0.206 F 
BRANCH  77  80
ATOM     80  C   UNL A   1      34.275  16.672  24.283  1.00  0.00     0.419 C 
ATOM     81  F   UNL A   1      35.383  16.132  24.858  1.00  0.00    -0.166 F 
ATOM     82  F   UNL A   1      33.206  16.058  24.861  1.00  0.00    -0.166 F 
ATOM     83  F   UNL A   1      34.290  16.239  22.989  1.00  0.00    -0.166 F 
ENDBRANCH  77  80
ENDBRANCH  68  73
ENDBRANCH  63  65
ENDBRANCH  62  63
ENDBRANCH  61  62
ENDBRANCH   1  61
TORSDOF 14
ENDMDL
