MODEL 1
REMARK VINA RESULT:     -11.4      0.000      0.000
REMARK SMILES N#C/C(=C/c1cc2c(cc1Br)OCO2)C(=O)OCCOC(=O)c1ccc(-c2c3nc(c(-c4c(F)cccc4F)c4ccc([nH]4)c(-c4c(F)cccc4F)c4nc(c(-c5c(F)cccc5F)c5ccc2[nH]5)C=C4)C=C3)cc1
REMARK SMILES IDX 19 1 18 2 17 3 15 4 16 5 3 6 4 7 2 8 1 9 5 10 6 11 10 12
REMARK SMILES IDX 7 13 9 14 11 15 8 16 14 17 12 18 13 19 20 20 21 21 22 22
REMARK SMILES IDX 23 23 24 24 76 25 25 26 75 27 26 28 27 29 28 30 69 31 29 32
REMARK SMILES IDX 74 33 68 34 70 35 30 36 73 37 67 38 66 39 31 41 57 42 40 43
REMARK SMILES IDX 56 44 41 45 44 46 55 47 71 48 42 49 43 50 54 52 72 53 45 54
REMARK SMILES IDX 32 55 33 56 38 57 34 58 35 59 37 60 39 61 36 62 58 63 59 64
REMARK SMILES IDX 64 65 60 66 61 67 63 68 65 69 62 70 46 71 47 72 52 73 48 74
REMARK SMILES IDX 49 75 51 76 53 77 50 78
REMARK H PARENT 70 40 44 51
REMARK Flexibility Score: inf
ROOT
ATOM      1  C   UNL A   1      31.627  29.404  26.364  1.00  0.00     0.275 C 
ENDROOT
BRANCH   1   2
ATOM      2  C   UNL A   1      31.703  28.421  27.530  1.00  0.00     0.275 C 
BRANCH   2   3
ATOM      3  O   UNL A   1      31.161  27.141  27.150  1.00  0.00    -0.458 OA
BRANCH   3   4
ATOM      4  C   UNL A   1      32.006  26.301  26.503  1.00  0.00     0.349 C 
ATOM      5  O   UNL A   1      33.197  26.491  26.311  1.00  0.00    -0.245 OA
BRANCH   4   6
ATOM      6  C   UNL A   1      31.307  25.074  26.050  1.00  0.00     0.138 C 
ATOM      7  C   UNL A   1      30.672  25.013  24.859  1.00  0.00     0.036 C 
BRANCH   6   8
ATOM      8  C   UNL A   1      31.565  23.793  26.826  1.00  0.00     0.107 C 
ATOM      9  N   UNL A   1      31.779  22.731  27.469  1.00  0.00    -0.192 NA
ENDBRANCH   6   8
BRANCH   7  10
ATOM     10  C   UNL A   1      30.486  26.140  23.921  1.00  0.00    -0.006 A 
ATOM     11  C   UNL A   1      29.243  26.795  23.968  1.00  0.00     0.060 A 
ATOM     12  C   UNL A   1      31.482  26.618  23.026  1.00  0.00     0.029 A 
ATOM     13  C   UNL A   1      29.062  27.916  23.185  1.00  0.00     0.166 A 
ATOM     14  C   UNL A   1      31.277  27.779  22.268  1.00  0.00     0.067 A 
ATOM     15  Br  UNL A   1      33.128  25.706  22.750  1.00  0.00    -0.050 Br
ATOM     16  C   UNL A   1      30.058  28.406  22.375  1.00  0.00     0.166 A 
ATOM     17  O   UNL A   1      27.929  28.665  23.121  1.00  0.00    -0.454 OA
ATOM     18  O   UNL A   1      29.684  29.533  21.716  1.00  0.00    -0.454 OA
ATOM     19  C   UNL A   1      28.325  29.682  22.178  1.00  0.00     0.468 C 
ENDBRANCH   7  10
ENDBRANCH   4   6
ENDBRANCH   3   4
ENDBRANCH   2   3
ENDBRANCH   1   2
BRANCH   1  20
ATOM     20  O   UNL A   1      32.926  29.972  26.107  1.00  0.00    -0.458 OA
BRANCH  20  21
ATOM     21  C   UNL A   1      33.258  31.023  26.886  1.00  0.00     0.338 C 
ATOM     22  O   UNL A   1      32.535  31.941  27.251  1.00  0.00    -0.246 OA
BRANCH  21  23
ATOM     23  C   UNL A   1      34.625  30.857  27.389  1.00  0.00     0.060 A 
ATOM     24  C   UNL A   1      35.072  29.563  27.622  1.00  0.00     0.016 A 
ATOM     25  C   UNL A   1      35.389  31.940  27.811  1.00  0.00     0.016 A 
ATOM     26  C   UNL A   1      36.206  29.329  28.381  1.00  0.00     0.010 A 
ATOM     27  C   UNL A   1      36.602  31.703  28.471  1.00  0.00     0.010 A 
ATOM     28  C   UNL A   1      37.003  30.393  28.798  1.00  0.00    -0.014 A 
BRANCH  28  29
ATOM     29  C   UNL A   1      38.201  30.118  29.635  1.00  0.00     0.031 A 
ATOM     30  C   UNL A   1      39.327  29.303  29.071  1.00  0.00     0.074 A 
ATOM     31  C   UNL A   1      38.315  30.647  30.871  1.00  0.00     0.049 A 
ATOM     32  N   UNL A   1      40.331  28.735  29.689  1.00  0.00    -0.248 NA
ATOM     33  C   UNL A   1      39.316  29.081  27.615  1.00  0.00     0.031 C 
ATOM     34  C   UNL A   1      37.350  31.547  31.507  1.00  0.00     0.029 A 
ATOM     35  N   UNL A   1      39.306  30.511  31.811  1.00  0.00    -0.354 N 
ATOM     36  C   UNL A   1      41.025  28.033  28.714  1.00  0.00     0.074 A 
ATOM     37  C   UNL A   1      40.337  28.250  27.460  1.00  0.00     0.031 C 
ATOM     38  C   UNL A   1      37.815  31.915  32.711  1.00  0.00     0.029 A 
ATOM     39  C   UNL A   1      39.048  31.187  32.980  1.00  0.00     0.049 A 
ATOM     40  H   UNL A   1      40.123  29.982  31.664  1.00  0.00     0.167 HD
ATOM     41  C   UNL A   1      42.133  27.268  28.861  1.00  0.00     0.037 A 
ATOM     42  C   UNL A   1      39.692  31.171  34.161  1.00  0.00     0.037 A 
ATOM     43  C   UNL A   1      42.843  27.120  30.104  1.00  0.00     0.049 A 
ATOM     44  C   UNL A   1      40.893  30.286  34.316  1.00  0.00     0.074 A 
ATOM     45  C   UNL A   1      43.955  26.343  30.380  1.00  0.00     0.029 A 
ATOM     46  N   UNL A   1      42.525  27.793  31.276  1.00  0.00    -0.354 N 
ATOM     47  N   UNL A   1      41.467  29.511  33.428  1.00  0.00    -0.248 NA
ATOM     48  C   UNL A   1      41.519  30.248  35.645  1.00  0.00     0.031 C 
ATOM     49  C   UNL A   1      44.295  26.529  31.724  1.00  0.00     0.029 A 
ATOM     50  C   UNL A   1      43.418  27.449  32.276  1.00  0.00     0.049 A 
ATOM     51  H   UNL A   1      41.774  28.421  31.380  1.00  0.00     0.167 HD
ATOM     52  C   UNL A   1      42.520  28.895  34.086  1.00  0.00     0.074 A 
ATOM     53  C   UNL A   1      42.523  29.407  35.441  1.00  0.00     0.031 C 
ATOM     54  C   UNL A   1      43.400  27.977  33.615  1.00  0.00     0.037 A 
BRANCH  41  55
ATOM     55  C   UNL A   1      42.609  26.502  27.664  1.00  0.00     0.057 A 
ATOM     56  C   UNL A   1      42.161  25.208  27.374  1.00  0.00     0.134 A 
ATOM     57  C   UNL A   1      43.524  27.083  26.775  1.00  0.00     0.134 A 
ATOM     58  F   UNL A   1      41.302  24.587  28.195  1.00  0.00    -0.206 F 
ATOM     59  C   UNL A   1      42.622  24.511  26.254  1.00  0.00     0.040 A 
ATOM     60  C   UNL A   1      43.973  26.406  25.641  1.00  0.00     0.040 A 
ATOM     61  F   UNL A   1      43.994  28.321  26.993  1.00  0.00    -0.206 F 
ATOM     62  C   UNL A   1      43.526  25.113  25.380  1.00  0.00     0.006 A 
ENDBRANCH  41  55
BRANCH  42  63
ATOM     63  C   UNL A   1      39.160  31.955  35.306  1.00  0.00     0.057 A 
ATOM     64  C   UNL A   1      39.483  33.305  35.476  1.00  0.00     0.134 A 
ATOM     65  C   UNL A   1      38.306  31.373  36.254  1.00  0.00     0.134 A 
ATOM     66  F   UNL A   1      40.315  33.915  34.620  1.00  0.00    -0.206 F 
ATOM     67  C   UNL A   1      38.982  34.046  36.549  1.00  0.00     0.040 A 
ATOM     68  C   UNL A   1      37.775  32.108  37.312  1.00  0.00     0.040 A 
ATOM     69  F   UNL A   1      37.958  30.081  36.148  1.00  0.00    -0.206 F 
ATOM     70  C   UNL A   1      38.118  33.449  37.466  1.00  0.00     0.006 A 
ENDBRANCH  42  63
BRANCH  54  71
ATOM     71  C   UNL A   1      44.448  27.496  34.571  1.00  0.00     0.057 A 
ATOM     72  C   UNL A   1      44.259  26.348  35.351  1.00  0.00     0.134 A 
ATOM     73  C   UNL A   1      45.667  28.173  34.692  1.00  0.00     0.134 A 
ATOM     74  F   UNL A   1      43.105  25.666  35.290  1.00  0.00    -0.206 F 
ATOM     75  C   UNL A   1      45.241  25.903  36.235  1.00  0.00     0.040 A 
ATOM     76  C   UNL A   1      46.665  27.724  35.557  1.00  0.00     0.040 A 
ATOM     77  F   UNL A   1      45.909  29.276  33.967  1.00  0.00    -0.206 F 
ATOM     78  C   UNL A   1      46.451  26.589  36.336  1.00  0.00     0.006 A 
ENDBRANCH  54  71
ENDBRANCH  28  29
ENDBRANCH  21  23
ENDBRANCH  20  21
ENDBRANCH   1  20
TORSDOF 13
ENDMDL
MODEL 2
REMARK VINA RESULT:     -11.3      4.502      9.047
REMARK SMILES N#C/C(=C/c1cc2c(cc1Br)OCO2)C(=O)OCCOC(=O)c1ccc(-c2c3nc(c(-c4c(F)cccc4F)c4ccc([nH]4)c(-c4c(F)cccc4F)c4nc(c(-c5c(F)cccc5F)c5ccc2[nH]5)C=C4)C=C3)cc1
REMARK SMILES IDX 19 1 18 2 17 3 15 4 16 5 3 6 4 7 2 8 1 9 5 10 6 11 10 12
REMARK SMILES IDX 7 13 9 14 11 15 8 16 14 17 12 18 13 19 20 20 21 21 22 22
REMARK SMILES IDX 23 23 24 24 76 25 25 26 75 27 26 28 27 29 28 30 69 31 29 32
REMARK SMILES IDX 74 33 68 34 70 35 30 36 73 37 67 38 66 39 31 41 57 42 40 43
REMARK SMILES IDX 56 44 41 45 44 46 55 47 71 48 42 49 43 50 54 52 72 53 45 54
REMARK SMILES IDX 32 55 33 56 38 57 34 58 35 59 37 60 39 61 36 62 58 63 59 64
REMARK SMILES IDX 64 65 60 66 61 67 63 68 65 69 62 70 46 71 47 72 52 73 48 74
REMARK SMILES IDX 49 75 51 76 53 77 50 78
REMARK H PARENT 70 40 44 51
REMARK Flexibility Score: inf
ROOT
ATOM      1  C   UNL A   1      36.414  21.491  24.283  1.00  0.00     0.275 C 
ENDROOT
BRANCH   1   2
ATOM      2  C   UNL A   1      36.730  22.679  23.377  1.00  0.00     0.275 C 
BRANCH   2   3
ATOM      3  O   UNL A   1      35.527  23.193  22.776  1.00  0.00    -0.458 OA
BRANCH   3   4
ATOM      4  C   UNL A   1      34.825  24.089  23.513  1.00  0.00     0.349 C 
ATOM      5  O   UNL A   1      35.174  24.569  24.580  1.00  0.00    -0.245 OA
BRANCH   4   6
ATOM      6  C   UNL A   1      33.548  24.450  22.851  1.00  0.00     0.138 C 
ATOM      7  C   UNL A   1      32.423  23.722  23.025  1.00  0.00     0.036 C 
BRANCH   6   8
ATOM      8  C   UNL A   1      33.457  25.822  22.203  1.00  0.00     0.107 C 
ATOM      9  N   UNL A   1      33.382  26.959  21.666  1.00  0.00    -0.192 NA
ENDBRANCH   6   8
BRANCH   7  10
ATOM     10  C   UNL A   1      32.325  22.451  23.772  1.00  0.00    -0.006 A 
ATOM     11  C   UNL A   1      32.359  21.272  23.007  1.00  0.00     0.060 A 
ATOM     12  C   UNL A   1      32.244  22.350  25.187  1.00  0.00     0.029 A 
ATOM     13  C   UNL A   1      32.374  20.061  23.667  1.00  0.00     0.166 A 
ATOM     14  C   UNL A   1      32.295  21.105  25.829  1.00  0.00     0.067 A 
ATOM     15  Br  UNL A   1      32.014  23.870  26.307  1.00  0.00    -0.050 Br
ATOM     16  C   UNL A   1      32.365  19.981  25.039  1.00  0.00     0.166 A 
ATOM     17  O   UNL A   1      32.415  18.836  23.079  1.00  0.00    -0.454 OA
ATOM     18  O   UNL A   1      32.417  18.699  25.485  1.00  0.00    -0.454 OA
ATOM     19  C   UNL A   1      32.429  17.975  24.236  1.00  0.00     0.468 C 
ENDBRANCH   7  10
ENDBRANCH   4   6
ENDBRANCH   3   4
ENDBRANCH   2   3
ENDBRANCH   1   2
BRANCH   1  20
ATOM     20  O   UNL A   1      36.926  21.726  25.609  1.00  0.00    -0.458 OA
BRANCH  20  21
ATOM     21  C   UNL A   1      38.230  21.423  25.782  1.00  0.00     0.338 C 
ATOM     22  O   UNL A   1      38.842  20.465  25.329  1.00  0.00    -0.246 OA
BRANCH  21  23
ATOM     23  C   UNL A   1      38.902  22.510  26.503  1.00  0.00     0.060 A 
ATOM     24  C   UNL A   1      38.448  23.804  26.284  1.00  0.00     0.016 A 
ATOM     25  C   UNL A   1      40.072  22.299  27.223  1.00  0.00     0.016 A 
ATOM     26  C   UNL A   1      39.207  24.897  26.662  1.00  0.00     0.010 A 
ATOM     27  C   UNL A   1      40.778  23.406  27.716  1.00  0.00     0.010 A 
ATOM     28  C   UNL A   1      40.372  24.718  27.405  1.00  0.00    -0.014 A 
BRANCH  28  29
ATOM     29  C   UNL A   1      41.186  25.906  27.776  1.00  0.00     0.031 A 
ATOM     30  C   UNL A   1      40.594  26.960  28.665  1.00  0.00     0.074 A 
ATOM     31  C   UNL A   1      42.470  26.015  27.377  1.00  0.00     0.049 A 
ATOM     32  N   UNL A   1      41.016  28.175  28.905  1.00  0.00    -0.248 NA
ATOM     33  C   UNL A   1      39.349  26.607  29.369  1.00  0.00     0.031 C 
ATOM     34  C   UNL A   1      43.211  25.017  26.602  1.00  0.00     0.029 A 
ATOM     35  N   UNL A   1      43.386  27.017  27.581  1.00  0.00    -0.354 N 
ATOM     36  C   UNL A   1      40.056  28.752  29.725  1.00  0.00     0.074 A 
ATOM     37  C   UNL A   1      39.032  27.755  29.950  1.00  0.00     0.031 C 
ATOM     38  C   UNL A   1      44.474  25.436  26.433  1.00  0.00     0.029 A 
ATOM     39  C   UNL A   1      44.600  26.780  26.982  1.00  0.00     0.049 A 
ATOM     40  H   UNL A   1      43.193  27.827  28.106  1.00  0.00     0.167 HD
ATOM     41  C   UNL A   1      40.033  30.008  30.232  1.00  0.00     0.037 A 
ATOM     42  C   UNL A   1      45.673  27.577  26.832  1.00  0.00     0.037 A 
ATOM     43  C   UNL A   1      41.094  30.963  30.053  1.00  0.00     0.049 A 
ATOM     44  C   UNL A   1      45.611  28.978  27.365  1.00  0.00     0.074 A 
ATOM     45  C   UNL A   1      41.163  32.275  30.489  1.00  0.00     0.029 A 
ATOM     46  N   UNL A   1      42.292  30.693  29.406  1.00  0.00    -0.354 N 
ATOM     47  N   UNL A   1      44.642  29.570  28.020  1.00  0.00    -0.248 NA
ATOM     48  C   UNL A   1      46.779  29.833  27.113  1.00  0.00     0.031 C 
ATOM     49  C   UNL A   1      42.393  32.805  30.086  1.00  0.00     0.029 A 
ATOM     50  C   UNL A   1      43.106  31.813  29.432  1.00  0.00     0.049 A 
ATOM     51  H   UNL A   1      42.528  29.833  28.989  1.00  0.00     0.167 HD
ATOM     52  C   UNL A   1      45.080  30.863  28.260  1.00  0.00     0.074 A 
ATOM     53  C   UNL A   1      46.414  30.962  27.704  1.00  0.00     0.031 C 
ATOM     54  C   UNL A   1      44.431  31.883  28.874  1.00  0.00     0.037 A 
BRANCH  41  55
ATOM     55  C   UNL A   1      38.804  30.428  30.982  1.00  0.00     0.057 A 
ATOM     56  C   UNL A   1      38.678  30.267  32.366  1.00  0.00     0.134 A 
ATOM     57  C   UNL A   1      37.733  31.023  30.300  1.00  0.00     0.134 A 
ATOM     58  F   UNL A   1      39.657  29.686  33.075  1.00  0.00    -0.206 F 
ATOM     59  C   UNL A   1      37.522  30.663  33.043  1.00  0.00     0.040 A 
ATOM     60  C   UNL A   1      36.584  31.444  30.969  1.00  0.00     0.040 A 
ATOM     61  F   UNL A   1      37.789  31.208  28.972  1.00  0.00    -0.206 F 
ATOM     62  C   UNL A   1      36.472  31.259  32.344  1.00  0.00     0.006 A 
ENDBRANCH  41  55
BRANCH  42  63
ATOM     63  C   UNL A   1      46.856  27.093  26.074  1.00  0.00     0.057 A 
ATOM     64  C   UNL A   1      46.980  27.313  24.699  1.00  0.00     0.134 A 
ATOM     65  C   UNL A   1      47.898  26.406  26.712  1.00  0.00     0.134 A 
ATOM     66  F   UNL A   1      46.006  27.941  24.024  1.00  0.00    -0.206 F 
ATOM     67  C   UNL A   1      48.092  26.862  23.984  1.00  0.00     0.040 A 
ATOM     68  C   UNL A   1      49.028  25.977  26.018  1.00  0.00     0.040 A 
ATOM     69  F   UNL A   1      47.841  26.162  28.031  1.00  0.00    -0.206 F 
ATOM     70  C   UNL A   1      49.125  26.200  24.646  1.00  0.00     0.006 A 
ENDBRANCH  42  63
BRANCH  54  71
ATOM     71  C   UNL A   1      45.174  33.178  28.995  1.00  0.00     0.057 A 
ATOM     72  C   UNL A   1      45.049  34.189  28.034  1.00  0.00     0.134 A 
ATOM     73  C   UNL A   1      46.000  33.425  30.097  1.00  0.00     0.134 A 
ATOM     74  F   UNL A   1      44.283  34.003  26.947  1.00  0.00    -0.206 F 
ATOM     75  C   UNL A   1      45.740  35.394  28.155  1.00  0.00     0.040 A 
ATOM     76  C   UNL A   1      46.678  34.635  30.240  1.00  0.00     0.040 A 
ATOM     77  F   UNL A   1      46.155  32.498  31.054  1.00  0.00    -0.206 F 
ATOM     78  C   UNL A   1      46.553  35.622  29.265  1.00  0.00     0.006 A 
ENDBRANCH  54  71
ENDBRANCH  28  29
ENDBRANCH  21  23
ENDBRANCH  20  21
ENDBRANCH   1  20
TORSDOF 13
ENDMDL
MODEL 3
REMARK VINA RESULT:     -11.3      4.727      9.301
REMARK SMILES N#C/C(=C/c1cc2c(cc1Br)OCO2)C(=O)OCCOC(=O)c1ccc(-c2c3nc(c(-c4c(F)cccc4F)c4ccc([nH]4)c(-c4c(F)cccc4F)c4nc(c(-c5c(F)cccc5F)c5ccc2[nH]5)C=C4)C=C3)cc1
REMARK SMILES IDX 19 1 18 2 17 3 15 4 16 5 3 6 4 7 2 8 1 9 5 10 6 11 10 12
REMARK SMILES IDX 7 13 9 14 11 15 8 16 14 17 12 18 13 19 20 20 21 21 22 22
REMARK SMILES IDX 23 23 24 24 76 25 25 26 75 27 26 28 27 29 28 30 69 31 29 32
REMARK SMILES IDX 74 33 68 34 70 35 30 36 73 37 67 38 66 39 31 41 57 42 40 43
REMARK SMILES IDX 56 44 41 45 44 46 55 47 71 48 42 49 43 50 54 52 72 53 45 54
REMARK SMILES IDX 32 55 33 56 38 57 34 58 35 59 37 60 39 61 36 62 58 63 59 64
REMARK SMILES IDX 64 65 60 66 61 67 63 68 65 69 62 70 46 71 47 72 52 73 48 74
REMARK SMILES IDX 49 75 51 76 53 77 50 78
REMARK H PARENT 70 40 44 51
REMARK Flexibility Score: inf
ROOT
ATOM      1  C   UNL A   1      36.331  20.815  25.050  1.00  0.00     0.275 C 
ENDROOT
BRANCH   1   2
ATOM      2  C   UNL A   1      35.469  21.422  26.155  1.00  0.00     0.275 C 
BRANCH   2   3
ATOM      3  O   UNL A   1      34.935  22.694  25.741  1.00  0.00    -0.458 OA
BRANCH   3   4
ATOM      4  C   UNL A   1      34.017  22.662  24.743  1.00  0.00     0.349 C 
ATOM      5  O   UNL A   1      34.260  22.682  23.546  1.00  0.00    -0.245 OA
BRANCH   4   6
ATOM      6  C   UNL A   1      32.638  22.581  25.279  1.00  0.00     0.138 C 
ATOM      7  C   UNL A   1      31.930  21.430  25.259  1.00  0.00     0.036 C 
BRANCH   6   8
ATOM      8  C   UNL A   1      32.141  23.748  26.117  1.00  0.00     0.107 C 
ATOM      9  N   UNL A   1      31.730  24.716  26.811  1.00  0.00    -0.192 NA
ENDBRANCH   6   8
BRANCH   7  10
ATOM     10  C   UNL A   1      32.357  20.166  24.625  1.00  0.00    -0.006 A 
ATOM     11  C   UNL A   1      32.846  19.168  25.486  1.00  0.00     0.060 A 
ATOM     12  C   UNL A   1      32.264  19.889  23.234  1.00  0.00     0.029 A 
ATOM     13  C   UNL A   1      33.159  17.936  24.951  1.00  0.00     0.166 A 
ATOM     14  C   UNL A   1      32.559  18.616  22.727  1.00  0.00     0.067 A 
ATOM     15  Br  UNL A   1      31.787  21.217  21.959  1.00  0.00    -0.050 Br
ATOM     16  C   UNL A   1      33.000  17.662  23.614  1.00  0.00     0.166 A 
ATOM     17  O   UNL A   1      33.634  16.867  25.645  1.00  0.00    -0.454 OA
ATOM     18  O   UNL A   1      33.334  16.382  23.303  1.00  0.00    -0.454 OA
ATOM     19  C   UNL A   1      33.755  15.888  24.592  1.00  0.00     0.468 C 
ENDBRANCH   7  10
ENDBRANCH   4   6
ENDBRANCH   3   4
ENDBRANCH   2   3
ENDBRANCH   1   2
BRANCH   1  20
ATOM     20  O   UNL A   1      37.553  21.562  24.905  1.00  0.00    -0.458 OA
BRANCH  20  21
ATOM     21  C   UNL A   1      38.589  21.119  25.648  1.00  0.00     0.338 C 
ATOM     22  O   UNL A   1      39.072  19.995  25.662  1.00  0.00    -0.246 OA
BRANCH  21  23
ATOM     23  C   UNL A   1      39.194  22.239  26.377  1.00  0.00     0.060 A 
ATOM     24  C   UNL A   1      38.712  23.514  26.112  1.00  0.00     0.016 A 
ATOM     25  C   UNL A   1      40.335  22.077  27.155  1.00  0.00     0.016 A 
ATOM     26  C   UNL A   1      39.421  24.636  26.504  1.00  0.00     0.010 A 
ATOM     27  C   UNL A   1      40.984  23.214  27.658  1.00  0.00     0.010 A 
ATOM     28  C   UNL A   1      40.554  24.507  27.303  1.00  0.00    -0.014 A 
BRANCH  28  29
ATOM     29  C   UNL A   1      41.314  25.726  27.687  1.00  0.00     0.031 A 
ATOM     30  C   UNL A   1      40.666  26.756  28.565  1.00  0.00     0.074 A 
ATOM     31  C   UNL A   1      42.599  25.885  27.311  1.00  0.00     0.049 A 
ATOM     32  N   UNL A   1      41.035  27.986  28.812  1.00  0.00    -0.248 NA
ATOM     33  C   UNL A   1      39.423  26.354  29.247  1.00  0.00     0.031 C 
ATOM     34  C   UNL A   1      43.393  24.917  26.550  1.00  0.00     0.029 A 
ATOM     35  N   UNL A   1      43.472  26.922  27.531  1.00  0.00    -0.354 N 
ATOM     36  C   UNL A   1      40.039  28.525  29.614  1.00  0.00     0.074 A 
ATOM     37  C   UNL A   1      39.051  27.489  29.822  1.00  0.00     0.031 C 
ATOM     38  C   UNL A   1      44.641  25.385  26.403  1.00  0.00     0.029 A 
ATOM     39  C   UNL A   1      44.705  26.733  26.954  1.00  0.00     0.049 A 
ATOM     40  H   UNL A   1      43.238  27.724  28.052  1.00  0.00     0.167 HD
ATOM     41  C   UNL A   1      39.957  29.779  30.120  1.00  0.00     0.037 A 
ATOM     42  C   UNL A   1      45.748  27.571  26.822  1.00  0.00     0.037 A 
ATOM     43  C   UNL A   1      40.984  30.775  29.959  1.00  0.00     0.049 A 
ATOM     44  C   UNL A   1      45.622  28.969  27.353  1.00  0.00     0.074 A 
ATOM     45  C   UNL A   1      40.993  32.088  30.396  1.00  0.00     0.029 A 
ATOM     46  N   UNL A   1      42.203  30.552  29.333  1.00  0.00    -0.354 N 
ATOM     47  N   UNL A   1      44.619  29.522  27.990  1.00  0.00    -0.248 NA
ATOM     48  C   UNL A   1      46.760  29.869  27.121  1.00  0.00     0.031 C 
ATOM     49  C   UNL A   1      42.208  32.667  30.015  1.00  0.00     0.029 A 
ATOM     50  C   UNL A   1      42.971  31.704  29.373  1.00  0.00     0.049 A 
ATOM     51  H   UNL A   1      42.479  29.702  28.922  1.00  0.00     0.167 HD
ATOM     52  C   UNL A   1      45.001  30.832  28.237  1.00  0.00     0.074 A 
ATOM     53  C   UNL A   1      46.340  30.983  27.705  1.00  0.00     0.031 C 
ATOM     54  C   UNL A   1      44.303  31.825  28.839  1.00  0.00     0.037 A 
BRANCH  41  55
ATOM     55  C   UNL A   1      38.700  30.151  30.847  1.00  0.00     0.057 A 
ATOM     56  C   UNL A   1      37.582  30.679  30.192  1.00  0.00     0.134 A 
ATOM     57  C   UNL A   1      38.606  29.958  32.233  1.00  0.00     0.134 A 
ATOM     58  F   UNL A   1      37.614  30.908  28.871  1.00  0.00    -0.206 F 
ATOM     59  C   UNL A   1      36.422  31.023  30.892  1.00  0.00     0.040 A 
ATOM     60  C   UNL A   1      37.445  30.275  32.938  1.00  0.00     0.040 A 
ATOM     61  F   UNL A   1      39.641  29.454  32.923  1.00  0.00    -0.206 F 
ATOM     62  C   UNL A   1      36.350  30.814  32.268  1.00  0.00     0.006 A 
ENDBRANCH  41  55
BRANCH  42  63
ATOM     63  C   UNL A   1      46.963  27.134  26.086  1.00  0.00     0.057 A 
ATOM     64  C   UNL A   1      47.089  27.332  24.707  1.00  0.00     0.134 A 
ATOM     65  C   UNL A   1      48.032  26.515  26.748  1.00  0.00     0.134 A 
ATOM     66  F   UNL A   1      46.091  27.895  24.011  1.00  0.00    -0.206 F 
ATOM     67  C   UNL A   1      48.231  26.925  24.013  1.00  0.00     0.040 A 
ATOM     68  C   UNL A   1      49.190  26.132  26.073  1.00  0.00     0.040 A 
ATOM     69  F   UNL A   1      47.974  26.296  28.070  1.00  0.00    -0.206 F 
ATOM     70  C   UNL A   1      49.289  26.332  24.698  1.00  0.00     0.006 A 
ENDBRANCH  42  63
BRANCH  54  71
ATOM     71  C   UNL A   1      44.991  33.148  28.973  1.00  0.00     0.057 A 
ATOM     72  C   UNL A   1      45.845  33.427  30.047  1.00  0.00     0.134 A 
ATOM     73  C   UNL A   1      44.820  34.142  28.002  1.00  0.00     0.134 A 
ATOM     74  F   UNL A   1      46.036  32.519  31.017  1.00  0.00    -0.206 F 
ATOM     75  C   UNL A   1      46.487  34.660  30.162  1.00  0.00     0.040 A 
ATOM     76  C   UNL A   1      45.475  35.369  28.095  1.00  0.00     0.040 A 
ATOM     77  F   UNL A   1      44.019  33.932  26.946  1.00  0.00    -0.206 F 
ATOM     78  C   UNL A   1      46.307  35.633  29.181  1.00  0.00     0.006 A 
ENDBRANCH  54  71
ENDBRANCH  28  29
ENDBRANCH  21  23
ENDBRANCH  20  21
ENDBRANCH   1  20
TORSDOF 13
ENDMDL
