MODEL 1
REMARK VINA RESULT:     -12.0      0.000      0.000
REMARK SMILES O=C(COc1ccc(C(=O)/C=C/c2ccc(Cl)c([N+](=O)[O-])c2)cc1)OCCOC(=O)c1ccc(-c2c3nc(c(-c4c(F)cccc4F)c4ccc([nH]4)c(-c4c(F)cccc4F)c4nc(c(-c5c(F)cccc5F)c5ccc2[nH]5)C=C4)C=C3)cc1
REMARK SMILES IDX 1 1 2 2 3 3 4 4 5 5 6 6 24 7 7 8 23 9 8 10 9 11 10 12 11 13
REMARK SMILES IDX 12 14 13 15 14 16 22 17 15 18 18 19 16 20 17 21 19 22 20 23
REMARK SMILES IDX 21 24 25 25 26 26 27 27 28 28 29 29 30 30 31 31 32 32 84 33
REMARK SMILES IDX 33 34 83 35 34 36 35 37 36 38 77 39 37 40 82 41 76 42 78 43
REMARK SMILES IDX 38 44 81 45 75 46 74 47 39 49 65 50 48 51 64 52 49 53 52 54
REMARK SMILES IDX 63 55 79 56 50 57 51 58 62 60 80 61 53 62 40 63 41 64 46 65
REMARK SMILES IDX 42 66 43 67 45 68 47 69 44 70 66 71 67 72 72 73 68 74 69 75
REMARK SMILES IDX 71 76 73 77 70 78 54 79 55 80 60 81 56 82 57 83 59 84 61 85
REMARK SMILES IDX 58 86
REMARK H PARENT 78 48 52 59
REMARK Flexibility Score: inf
ROOT
ATOM      1  O   UNL A   1      44.646  18.084  25.417  1.00  0.00    -0.248 OA
ATOM      2  C   UNL A   1      43.688  18.857  25.377  1.00  0.00     0.344 C 
ENDROOT
BRANCH   2   3
ATOM      3  C   UNL A   1      42.394  18.551  26.125  1.00  0.00     0.351 C 
BRANCH   3   4
ATOM      4  O   UNL A   1      42.220  19.252  27.355  1.00  0.00    -0.482 OA
BRANCH   4   5
ATOM      5  C   UNL A   1      41.369  20.305  27.171  1.00  0.00     0.120 A 
ATOM      6  C   UNL A   1      41.436  21.397  28.033  1.00  0.00     0.047 A 
ATOM      7  C   UNL A   1      40.433  20.260  26.141  1.00  0.00     0.047 A 
ATOM      8  C   UNL A   1      40.613  22.500  27.805  1.00  0.00     0.016 A 
ATOM      9  C   UNL A   1      39.609  21.360  25.916  1.00  0.00     0.016 A 
ATOM     10  C   UNL A   1      39.727  22.503  26.719  1.00  0.00     0.022 A 
BRANCH  10  11
ATOM     11  C   UNL A   1      38.910  23.720  26.473  1.00  0.00     0.185 C 
ATOM     12  O   UNL A   1      39.447  24.822  26.418  1.00  0.00    -0.289 OA
BRANCH  11  13
ATOM     13  C   UNL A   1      37.433  23.619  26.307  1.00  0.00     0.053 C 
ATOM     14  C   UNL A   1      36.801  23.722  25.127  1.00  0.00     0.012 C 
BRANCH  14  15
ATOM     15  C   UNL A   1      35.352  23.565  25.008  1.00  0.00    -0.019 A 
ATOM     16  C   UNL A   1      34.778  23.489  23.736  1.00  0.00     0.010 A 
ATOM     17  C   UNL A   1      34.531  23.506  26.136  1.00  0.00     0.095 A 
ATOM     18  C   UNL A   1      33.397  23.334  23.594  1.00  0.00     0.028 A 
ATOM     19  C   UNL A   1      33.136  23.363  25.992  1.00  0.00     0.288 A 
ATOM     20  C   UNL A   1      32.563  23.262  24.718  1.00  0.00     0.118 A 
ATOM     21  Cl  UNL A   1      30.887  23.000  24.393  1.00  0.00    -0.077 Cl
BRANCH  19  22
ATOM     22  N   UNL A   1      32.338  23.329  27.218  1.00  0.00     0.064 N 
ATOM     23  O   UNL A   1      32.677  22.568  28.131  1.00  0.00    -0.258 OA
ATOM     24  O   UNL A   1      31.325  24.044  27.248  1.00  0.00    -0.258 OA
ENDBRANCH  19  22
ENDBRANCH  14  15
ENDBRANCH  11  13
ENDBRANCH  10  11
ENDBRANCH   4   5
ENDBRANCH   3   4
ENDBRANCH   2   3
BRANCH   2  25
ATOM     25  O   UNL A   1      43.783  20.027  24.697  1.00  0.00    -0.460 OA
BRANCH  25  26
ATOM     26  C   UNL A   1      44.306  21.249  25.263  1.00  0.00     0.274 C 
BRANCH  26  27
ATOM     27  C   UNL A   1      44.167  22.404  24.270  1.00  0.00     0.275 C 
BRANCH  27  28
ATOM     28  O   UNL A   1      43.593  23.543  24.938  1.00  0.00    -0.458 OA
BRANCH  28  29
ATOM     29  C   UNL A   1      44.446  24.556  25.232  1.00  0.00     0.338 C 
ATOM     30  O   UNL A   1      45.456  24.864  24.623  1.00  0.00    -0.246 OA
BRANCH  29  31
ATOM     31  C   UNL A   1      43.835  25.381  26.297  1.00  0.00     0.060 A 
ATOM     32  C   UNL A   1      44.167  26.740  26.355  1.00  0.00     0.016 A 
ATOM     33  C   UNL A   1      42.901  24.847  27.191  1.00  0.00     0.016 A 
ATOM     34  C   UNL A   1      43.571  27.567  27.311  1.00  0.00     0.010 A 
ATOM     35  C   UNL A   1      42.311  25.672  28.152  1.00  0.00     0.010 A 
ATOM     36  C   UNL A   1      42.651  27.033  28.224  1.00  0.00    -0.014 A 
BRANCH  36  37
ATOM     37  C   UNL A   1      42.117  27.866  29.328  1.00  0.00     0.031 A 
ATOM     38  C   UNL A   1      42.769  27.795  30.678  1.00  0.00     0.074 A 
ATOM     39  C   UNL A   1      41.046  28.657  29.138  1.00  0.00     0.049 A 
ATOM     40  N   UNL A   1      42.438  28.396  31.792  1.00  0.00    -0.248 NA
ATOM     41  C   UNL A   1      43.953  26.926  30.790  1.00  0.00     0.031 C 
ATOM     42  C   UNL A   1      40.328  28.827  27.875  1.00  0.00     0.029 A 
ATOM     43  N   UNL A   1      40.364  29.455  30.023  1.00  0.00    -0.354 N 
ATOM     44  C   UNL A   1      43.372  27.988  32.733  1.00  0.00     0.074 A 
ATOM     45  C   UNL A   1      44.266  27.062  32.070  1.00  0.00     0.031 C 
ATOM     46  C   UNL A   1      39.293  29.664  28.073  1.00  0.00     0.029 A 
ATOM     47  C   UNL A   1      39.263  30.069  29.477  1.00  0.00     0.049 A 
ATOM     48  H   UNL A   1      40.638  29.577  30.961  1.00  0.00     0.167 HD
ATOM     49  C   UNL A   1      43.482  28.357  34.030  1.00  0.00     0.037 A 
ATOM     50  C   UNL A   1      38.330  30.851  30.052  1.00  0.00     0.037 A 
ATOM     51  C   UNL A   1      42.595  29.271  34.697  1.00  0.00     0.049 A 
ATOM     52  C   UNL A   1      38.433  31.184  31.517  1.00  0.00     0.074 A 
ATOM     53  C   UNL A   1      42.655  29.733  36.002  1.00  0.00     0.029 A 
ATOM     54  N   UNL A   1      41.478  29.850  34.118  1.00  0.00    -0.354 N 
ATOM     55  N   UNL A   1      39.354  30.839  32.383  1.00  0.00    -0.248 NA
ATOM     56  C   UNL A   1      37.361  32.017  32.086  1.00  0.00     0.031 C 
ATOM     57  C   UNL A   1      41.549  30.558  36.224  1.00  0.00     0.029 A 
ATOM     58  C   UNL A   1      40.822  30.640  35.048  1.00  0.00     0.049 A 
ATOM     59  H   UNL A   1      41.193  29.721  33.185  1.00  0.00     0.167 HD
ATOM     60  C   UNL A   1      38.989  31.433  33.586  1.00  0.00     0.074 A 
ATOM     61  C   UNL A   1      37.768  32.169  33.338  1.00  0.00     0.031 C 
ATOM     62  C   UNL A   1      39.611  31.373  34.788  1.00  0.00     0.037 A 
BRANCH  49  63
ATOM     63  C   UNL A   1      44.605  27.763  34.823  1.00  0.00     0.057 A 
ATOM     64  C   UNL A   1      44.488  26.507  35.431  1.00  0.00     0.134 A 
ATOM     65  C   UNL A   1      45.830  28.431  34.938  1.00  0.00     0.134 A 
ATOM     66  F   UNL A   1      43.335  25.826  35.367  1.00  0.00    -0.206 F 
ATOM     67  C   UNL A   1      45.551  25.939  36.135  1.00  0.00     0.040 A 
ATOM     68  C   UNL A   1      46.904  27.866  35.624  1.00  0.00     0.040 A 
ATOM     69  F   UNL A   1      46.002  29.638  34.376  1.00  0.00    -0.206 F 
ATOM     70  C   UNL A   1      46.766  26.617  36.226  1.00  0.00     0.006 A 
ENDBRANCH  49  63
BRANCH  50  71
ATOM     71  C   UNL A   1      37.190  31.368  29.254  1.00  0.00     0.057 A 
ATOM     72  C   UNL A   1      37.189  32.674  28.752  1.00  0.00     0.134 A 
ATOM     73  C   UNL A   1      36.049  30.588  29.028  1.00  0.00     0.134 A 
ATOM     74  F   UNL A   1      38.243  33.477  28.963  1.00  0.00    -0.206 F 
ATOM     75  C   UNL A   1      36.088  33.196  28.074  1.00  0.00     0.040 A 
ATOM     76  C   UNL A   1      34.949  31.089  28.332  1.00  0.00     0.040 A 
ATOM     77  F   UNL A   1      35.987  29.329  29.486  1.00  0.00    -0.206 F 
ATOM     78  C   UNL A   1      34.962  32.401  27.861  1.00  0.00     0.006 A 
ENDBRANCH  50  71
BRANCH  62  79
ATOM     79  C   UNL A   1      39.000  32.143  35.922  1.00  0.00     0.057 A 
ATOM     80  C   UNL A   1      38.133  31.537  36.839  1.00  0.00     0.134 A 
ATOM     81  C   UNL A   1      39.319  33.491  36.124  1.00  0.00     0.134 A 
ATOM     82  F   UNL A   1      37.778  30.251  36.693  1.00  0.00    -0.206 F 
ATOM     83  C   UNL A   1      37.591  32.250  37.909  1.00  0.00     0.040 A 
ATOM     84  C   UNL A   1      38.801  34.209  37.203  1.00  0.00     0.040 A 
ATOM     85  F   UNL A   1      40.150  34.128  35.285  1.00  0.00    -0.206 F 
ATOM     86  C   UNL A   1      37.931  33.589  38.098  1.00  0.00     0.006 A 
ENDBRANCH  62  79
ENDBRANCH  36  37
ENDBRANCH  29  31
ENDBRANCH  28  29
ENDBRANCH  27  28
ENDBRANCH  26  27
ENDBRANCH  25  26
ENDBRANCH   2  25
TORSDOF 17
ENDMDL
MODEL 2
REMARK VINA RESULT:     -11.6      1.051      1.455
REMARK SMILES O=C(COc1ccc(C(=O)/C=C/c2ccc(Cl)c([N+](=O)[O-])c2)cc1)OCCOC(=O)c1ccc(-c2c3nc(c(-c4c(F)cccc4F)c4ccc([nH]4)c(-c4c(F)cccc4F)c4nc(c(-c5c(F)cccc5F)c5ccc2[nH]5)C=C4)C=C3)cc1
REMARK SMILES IDX 1 1 2 2 3 3 4 4 5 5 6 6 24 7 7 8 23 9 8 10 9 11 10 12 11 13
REMARK SMILES IDX 12 14 13 15 14 16 22 17 15 18 18 19 16 20 17 21 19 22 20 23
REMARK SMILES IDX 21 24 25 25 26 26 27 27 28 28 29 29 30 30 31 31 32 32 84 33
REMARK SMILES IDX 33 34 83 35 34 36 35 37 36 38 77 39 37 40 82 41 76 42 78 43
REMARK SMILES IDX 38 44 81 45 75 46 74 47 39 49 65 50 48 51 64 52 49 53 52 54
REMARK SMILES IDX 63 55 79 56 50 57 51 58 62 60 80 61 53 62 40 63 41 64 46 65
REMARK SMILES IDX 42 66 43 67 45 68 47 69 44 70 66 71 67 72 72 73 68 74 69 75
REMARK SMILES IDX 71 76 73 77 70 78 54 79 55 80 60 81 56 82 57 83 59 84 61 85
REMARK SMILES IDX 58 86
REMARK H PARENT 78 48 52 59
REMARK Flexibility Score: inf
ROOT
ATOM      1  O   UNL A   1      44.926  18.155  25.375  1.00  0.00    -0.248 OA
ATOM      2  C   UNL A   1      43.939  18.889  25.323  1.00  0.00     0.344 C 
ENDROOT
BRANCH   2   3
ATOM      3  C   UNL A   1      42.657  18.543  26.075  1.00  0.00     0.351 C 
BRANCH   3   4
ATOM      4  O   UNL A   1      42.470  19.232  27.310  1.00  0.00    -0.482 OA
BRANCH   4   5
ATOM      5  C   UNL A   1      41.541  20.222  27.150  1.00  0.00     0.120 A 
ATOM      6  C   UNL A   1      41.618  21.366  27.942  1.00  0.00     0.047 A 
ATOM      7  C   UNL A   1      40.519  20.062  26.219  1.00  0.00     0.047 A 
ATOM      8  C   UNL A   1      40.710  22.404  27.733  1.00  0.00     0.016 A 
ATOM      9  C   UNL A   1      39.610  21.098  26.014  1.00  0.00     0.016 A 
ATOM     10  C   UNL A   1      39.730  22.292  26.738  1.00  0.00     0.022 A 
BRANCH  10  11
ATOM     11  C   UNL A   1      38.819  23.443  26.505  1.00  0.00     0.185 C 
ATOM     12  O   UNL A   1      39.178  24.580  26.794  1.00  0.00    -0.289 OA
BRANCH  11  13
ATOM     13  C   UNL A   1      37.461  23.229  25.934  1.00  0.00     0.053 C 
ATOM     14  C   UNL A   1      37.215  22.523  24.820  1.00  0.00     0.012 C 
BRANCH  14  15
ATOM     15  C   UNL A   1      35.857  22.299  24.326  1.00  0.00    -0.019 A 
ATOM     16  C   UNL A   1      35.268  23.255  23.495  1.00  0.00     0.010 A 
ATOM     17  C   UNL A   1      35.133  21.158  24.682  1.00  0.00     0.095 A 
ATOM     18  C   UNL A   1      33.974  23.062  23.006  1.00  0.00     0.028 A 
ATOM     19  C   UNL A   1      33.822  20.971  24.198  1.00  0.00     0.288 A 
ATOM     20  C   UNL A   1      33.241  21.918  23.345  1.00  0.00     0.118 A 
ATOM     21  Cl  UNL A   1      31.683  21.780  22.612  1.00  0.00    -0.077 Cl
BRANCH  19  22
ATOM     22  N   UNL A   1      33.117  19.764  24.629  1.00  0.00     0.064 N 
ATOM     23  O   UNL A   1      32.633  19.729  25.767  1.00  0.00    -0.258 OA
ATOM     24  O   UNL A   1      33.089  18.815  23.832  1.00  0.00    -0.258 OA
ENDBRANCH  19  22
ENDBRANCH  14  15
ENDBRANCH  11  13
ENDBRANCH  10  11
ENDBRANCH   4   5
ENDBRANCH   3   4
ENDBRANCH   2   3
BRANCH   2  25
ATOM     25  O   UNL A   1      43.988  20.051  24.627  1.00  0.00    -0.460 OA
BRANCH  25  26
ATOM     26  C   UNL A   1      44.405  21.314  25.191  1.00  0.00     0.274 C 
BRANCH  26  27
ATOM     27  C   UNL A   1      44.140  22.456  24.208  1.00  0.00     0.275 C 
BRANCH  27  28
ATOM     28  O   UNL A   1      43.565  23.571  24.916  1.00  0.00    -0.458 OA
BRANCH  28  29
ATOM     29  C   UNL A   1      44.400  24.608  25.177  1.00  0.00     0.338 C 
ATOM     30  O   UNL A   1      45.384  24.936  24.537  1.00  0.00    -0.246 OA
BRANCH  29  31
ATOM     31  C   UNL A   1      43.799  25.426  26.253  1.00  0.00     0.060 A 
ATOM     32  C   UNL A   1      44.196  26.764  26.368  1.00  0.00     0.016 A 
ATOM     33  C   UNL A   1      42.813  24.910  27.100  1.00  0.00     0.016 A 
ATOM     34  C   UNL A   1      43.614  27.587  27.336  1.00  0.00     0.010 A 
ATOM     35  C   UNL A   1      42.236  25.732  28.072  1.00  0.00     0.010 A 
ATOM     36  C   UNL A   1      42.642  27.071  28.203  1.00  0.00    -0.014 A 
BRANCH  36  37
ATOM     37  C   UNL A   1      42.117  27.892  29.319  1.00  0.00     0.031 A 
ATOM     38  C   UNL A   1      42.788  27.816  30.660  1.00  0.00     0.074 A 
ATOM     39  C   UNL A   1      41.038  28.676  29.150  1.00  0.00     0.049 A 
ATOM     40  N   UNL A   1      42.468  28.407  31.782  1.00  0.00    -0.248 NA
ATOM     41  C   UNL A   1      43.979  26.955  30.749  1.00  0.00     0.031 C 
ATOM     42  C   UNL A   1      40.301  28.849  27.898  1.00  0.00     0.029 A 
ATOM     43  N   UNL A   1      40.362  29.463  30.050  1.00  0.00    -0.354 N 
ATOM     44  C   UNL A   1      43.418  28.000  32.708  1.00  0.00     0.074 A 
ATOM     45  C   UNL A   1      44.309  27.085  32.026  1.00  0.00     0.031 C 
ATOM     46  C   UNL A   1      39.262  29.677  28.116  1.00  0.00     0.029 A 
ATOM     47  C   UNL A   1      39.249  30.072  29.524  1.00  0.00     0.049 A 
ATOM     48  H   UNL A   1      40.648  29.581  30.985  1.00  0.00     0.167 HD
ATOM     49  C   UNL A   1      43.543  28.361  34.005  1.00  0.00     0.037 A 
ATOM     50  C   UNL A   1      38.318  30.843  30.116  1.00  0.00     0.037 A 
ATOM     51  C   UNL A   1      42.658  29.263  34.691  1.00  0.00     0.049 A 
ATOM     52  C   UNL A   1      38.439  31.167  31.583  1.00  0.00     0.074 A 
ATOM     53  C   UNL A   1      42.734  29.716  35.998  1.00  0.00     0.029 A 
ATOM     54  N   UNL A   1      41.529  29.838  34.131  1.00  0.00    -0.354 N 
ATOM     55  N   UNL A   1      39.374  30.822  32.433  1.00  0.00    -0.248 NA
ATOM     56  C   UNL A   1      37.369  31.988  32.172  1.00  0.00     0.031 C 
ATOM     57  C   UNL A   1      41.625  30.532  36.241  1.00  0.00     0.029 A 
ATOM     58  C   UNL A   1      40.881  30.617  35.076  1.00  0.00     0.049 A 
ATOM     59  H   UNL A   1      41.233  29.713  33.202  1.00  0.00     0.167 HD
ATOM     60  C   UNL A   1      39.022  31.406  33.645  1.00  0.00     0.074 A 
ATOM     61  C   UNL A   1      37.792  32.134  33.419  1.00  0.00     0.031 C 
ATOM     62  C   UNL A   1      39.661  31.342  34.838  1.00  0.00     0.037 A 
BRANCH  49  63
ATOM     63  C   UNL A   1      44.682  27.769  34.778  1.00  0.00     0.057 A 
ATOM     64  C   UNL A   1      44.556  26.544  35.444  1.00  0.00     0.134 A 
ATOM     65  C   UNL A   1      45.926  28.408  34.817  1.00  0.00     0.134 A 
ATOM     66  F   UNL A   1      43.384  25.893  35.455  1.00  0.00    -0.206 F 
ATOM     67  C   UNL A   1      45.631  25.977  36.130  1.00  0.00     0.040 A 
ATOM     68  C   UNL A   1      47.013  27.842  35.483  1.00  0.00     0.040 A 
ATOM     69  F   UNL A   1      46.108  29.585  34.197  1.00  0.00    -0.206 F 
ATOM     70  C   UNL A   1      46.867  26.624  36.144  1.00  0.00     0.006 A 
ENDBRANCH  49  63
BRANCH  50  71
ATOM     71  C   UNL A   1      37.163  31.357  29.338  1.00  0.00     0.057 A 
ATOM     72  C   UNL A   1      36.051  30.550  29.074  1.00  0.00     0.134 A 
ATOM     73  C   UNL A   1      37.171  32.645  28.791  1.00  0.00     0.134 A 
ATOM     74  F   UNL A   1      36.000  29.296  29.549  1.00  0.00    -0.206 F 
ATOM     75  C   UNL A   1      34.998  30.996  28.274  1.00  0.00     0.040 A 
ATOM     76  C   UNL A   1      36.116  33.112  28.006  1.00  0.00     0.040 A 
ATOM     77  F   UNL A   1      38.210  33.466  29.006  1.00  0.00    -0.206 F 
ATOM     78  C   UNL A   1      35.029  32.282  27.738  1.00  0.00     0.006 A 
ENDBRANCH  50  71
BRANCH  62  79
ATOM     79  C   UNL A   1      39.060  32.099  35.985  1.00  0.00     0.057 A 
ATOM     80  C   UNL A   1      38.188  31.487  36.894  1.00  0.00     0.134 A 
ATOM     81  C   UNL A   1      39.393  33.441  36.209  1.00  0.00     0.134 A 
ATOM     82  F   UNL A   1      37.820  30.208  36.728  1.00  0.00    -0.206 F 
ATOM     83  C   UNL A   1      37.656  32.189  37.977  1.00  0.00     0.040 A 
ATOM     84  C   UNL A   1      38.885  34.147  37.301  1.00  0.00     0.040 A 
ATOM     85  F   UNL A   1      40.229  34.082  35.379  1.00  0.00    -0.206 F 
ATOM     86  C   UNL A   1      38.010  33.521  38.187  1.00  0.00     0.006 A 
ENDBRANCH  62  79
ENDBRANCH  36  37
ENDBRANCH  29  31
ENDBRANCH  28  29
ENDBRANCH  27  28
ENDBRANCH  26  27
ENDBRANCH  25  26
ENDBRANCH   2  25
TORSDOF 17
ENDMDL
MODEL 3
REMARK VINA RESULT:     -11.5      5.039     11.036
REMARK SMILES O=C(COc1ccc(C(=O)/C=C/c2ccc(Cl)c([N+](=O)[O-])c2)cc1)OCCOC(=O)c1ccc(-c2c3nc(c(-c4c(F)cccc4F)c4ccc([nH]4)c(-c4c(F)cccc4F)c4nc(c(-c5c(F)cccc5F)c5ccc2[nH]5)C=C4)C=C3)cc1
REMARK SMILES IDX 1 1 2 2 3 3 4 4 5 5 6 6 24 7 7 8 23 9 8 10 9 11 10 12 11 13
REMARK SMILES IDX 12 14 13 15 14 16 22 17 15 18 18 19 16 20 17 21 19 22 20 23
REMARK SMILES IDX 21 24 25 25 26 26 27 27 28 28 29 29 30 30 31 31 32 32 84 33
REMARK SMILES IDX 33 34 83 35 34 36 35 37 36 38 77 39 37 40 82 41 76 42 78 43
REMARK SMILES IDX 38 44 81 45 75 46 74 47 39 49 65 50 48 51 64 52 49 53 52 54
REMARK SMILES IDX 63 55 79 56 50 57 51 58 62 60 80 61 53 62 40 63 41 64 46 65
REMARK SMILES IDX 42 66 43 67 45 68 47 69 44 70 66 71 67 72 72 73 68 74 69 75
REMARK SMILES IDX 71 76 73 77 70 78 54 79 55 80 60 81 56 82 57 83 59 84 61 85
REMARK SMILES IDX 58 86
REMARK H PARENT 78 48 52 59
REMARK Flexibility Score: inf
ROOT
ATOM      1  O   UNL A   1      32.554  37.079  30.705  1.00  0.00    -0.248 OA
ATOM      2  C   UNL A   1      32.978  35.961  30.413  1.00  0.00     0.344 C 
ENDROOT
BRANCH   2   3
ATOM      3  C   UNL A   1      33.486  35.651  29.008  1.00  0.00     0.351 C 
BRANCH   3   4
ATOM      4  O   UNL A   1      32.638  34.814  28.224  1.00  0.00    -0.482 OA
BRANCH   4   5
ATOM      5  C   UNL A   1      33.235  33.599  28.034  1.00  0.00     0.120 A 
ATOM      6  C   UNL A   1      32.499  32.556  27.477  1.00  0.00     0.047 A 
ATOM      7  C   UNL A   1      34.559  33.416  28.423  1.00  0.00     0.047 A 
ATOM      8  C   UNL A   1      33.127  31.336  27.222  1.00  0.00     0.016 A 
ATOM      9  C   UNL A   1      35.184  32.197  28.172  1.00  0.00     0.016 A 
ATOM     10  C   UNL A   1      34.485  31.167  27.529  1.00  0.00     0.022 A 
BRANCH  10  11
ATOM     11  C   UNL A   1      35.133  29.874  27.187  1.00  0.00     0.185 C 
ATOM     12  O   UNL A   1      36.246  29.607  27.629  1.00  0.00    -0.289 OA
BRANCH  11  13
ATOM     13  C   UNL A   1      34.448  28.896  26.297  1.00  0.00     0.053 C 
ATOM     14  C   UNL A   1      33.635  27.922  26.735  1.00  0.00     0.012 C 
BRANCH  14  15
ATOM     15  C   UNL A   1      32.944  27.017  25.817  1.00  0.00    -0.019 A 
ATOM     16  C   UNL A   1      31.674  26.543  26.155  1.00  0.00     0.010 A 
ATOM     17  C   UNL A   1      33.535  26.605  24.620  1.00  0.00     0.095 A 
ATOM     18  C   UNL A   1      30.991  25.682  25.292  1.00  0.00     0.028 A 
ATOM     19  C   UNL A   1      32.851  25.725  23.757  1.00  0.00     0.288 A 
ATOM     20  C   UNL A   1      31.567  25.269  24.084  1.00  0.00     0.118 A 
ATOM     21  Cl  UNL A   1      30.580  24.261  23.088  1.00  0.00    -0.077 Cl
BRANCH  19  22
ATOM     22  N   UNL A   1      33.540  25.319  22.532  1.00  0.00     0.064 N 
ATOM     23  O   UNL A   1      34.024  24.183  22.467  1.00  0.00    -0.258 OA
ATOM     24  O   UNL A   1      33.641  26.171  21.636  1.00  0.00    -0.258 OA
ENDBRANCH  19  22
ENDBRANCH  14  15
ENDBRANCH  11  13
ENDBRANCH  10  11
ENDBRANCH   4   5
ENDBRANCH   3   4
ENDBRANCH   2   3
BRANCH   2  25
ATOM     25  O   UNL A   1      33.044  34.988  31.355  1.00  0.00    -0.460 OA
BRANCH  25  26
ATOM     26  C   UNL A   1      34.281  34.464  31.890  1.00  0.00     0.274 C 
BRANCH  26  27
ATOM     27  C   UNL A   1      34.082  33.039  32.408  1.00  0.00     0.275 C 
BRANCH  27  28
ATOM     28  O   UNL A   1      35.214  32.232  32.032  1.00  0.00    -0.458 OA
BRANCH  28  29
ATOM     29  C   UNL A   1      36.236  32.187  32.924  1.00  0.00     0.338 C 
ATOM     30  O   UNL A   1      36.164  32.339  34.131  1.00  0.00    -0.246 OA
BRANCH  29  31
ATOM     31  C   UNL A   1      37.442  31.699  32.219  1.00  0.00     0.060 A 
ATOM     32  C   UNL A   1      37.465  31.768  30.821  1.00  0.00     0.016 A 
ATOM     33  C   UNL A   1      38.561  31.237  32.919  1.00  0.00     0.016 A 
ATOM     34  C   UNL A   1      38.605  31.368  30.119  1.00  0.00     0.010 A 
ATOM     35  C   UNL A   1      39.698  30.830  32.216  1.00  0.00     0.010 A 
ATOM     36  C   UNL A   1      39.722  30.883  30.812  1.00  0.00    -0.014 A 
BRANCH  36  37
ATOM     37  C   UNL A   1      40.882  30.329  30.075  1.00  0.00     0.031 A 
ATOM     38  C   UNL A   1      42.028  31.235  29.728  1.00  0.00     0.074 A 
ATOM     39  C   UNL A   1      40.905  29.039  29.694  1.00  0.00     0.049 A 
ATOM     40  N   UNL A   1      43.115  30.974  29.049  1.00  0.00    -0.248 NA
ATOM     41  C   UNL A   1      41.934  32.624  30.208  1.00  0.00     0.031 C 
ATOM     42  C   UNL A   1      39.864  28.051  29.977  1.00  0.00     0.029 A 
ATOM     43  N   UNL A   1      41.839  28.345  28.966  1.00  0.00    -0.354 N 
ATOM     44  C   UNL A   1      43.838  32.158  29.026  1.00  0.00     0.074 A 
ATOM     45  C   UNL A   1      43.053  33.149  29.732  1.00  0.00     0.031 C 
ATOM     46  C   UNL A   1      40.210  26.881  29.410  1.00  0.00     0.029 A 
ATOM     47  C   UNL A   1      41.483  27.044  28.709  1.00  0.00     0.049 A 
ATOM     48  H   UNL A   1      42.686  28.742  28.657  1.00  0.00     0.167 HD
ATOM     49  C   UNL A   1      45.051  32.398  28.476  1.00  0.00     0.037 A 
ATOM     50  C   UNL A   1      42.103  26.100  27.975  1.00  0.00     0.037 A 
ATOM     51  C   UNL A   1      45.834  31.421  27.768  1.00  0.00     0.049 A 
ATOM     52  C   UNL A   1      43.416  26.417  27.308  1.00  0.00     0.074 A 
ATOM     53  C   UNL A   1      47.093  31.566  27.211  1.00  0.00     0.029 A 
ATOM     54  N   UNL A   1      45.427  30.123  27.507  1.00  0.00    -0.354 N 
ATOM     55  N   UNL A   1      44.118  27.524  27.342  1.00  0.00    -0.248 NA
ATOM     56  C   UNL A   1      44.023  25.350  26.495  1.00  0.00     0.031 C 
ATOM     57  C   UNL A   1      47.430  30.368  26.575  1.00  0.00     0.029 A 
ATOM     58  C   UNL A   1      46.397  29.466  26.769  1.00  0.00     0.049 A 
ATOM     59  H   UNL A   1      44.576  29.727  27.803  1.00  0.00     0.167 HD
ATOM     60  C   UNL A   1      45.257  27.277  26.584  1.00  0.00     0.074 A 
ATOM     61  C   UNL A   1      45.158  25.914  26.108  1.00  0.00     0.031 C 
ATOM     62  C   UNL A   1      46.291  28.107  26.306  1.00  0.00     0.037 A 
BRANCH  49  63
ATOM     63  C   UNL A   1      45.608  33.781  28.611  1.00  0.00     0.057 A 
ATOM     64  C   UNL A   1      46.568  34.092  29.581  1.00  0.00     0.134 A 
ATOM     65  C   UNL A   1      45.216  34.798  27.733  1.00  0.00     0.134 A 
ATOM     66  F   UNL A   1      46.972  33.164  30.460  1.00  0.00    -0.206 F 
ATOM     67  C   UNL A   1      47.114  35.374  29.679  1.00  0.00     0.040 A 
ATOM     68  C   UNL A   1      45.767  36.076  27.808  1.00  0.00     0.040 A 
ATOM     69  F   UNL A   1      44.299  34.560  26.782  1.00  0.00    -0.206 F 
ATOM     70  C   UNL A   1      46.718  36.368  28.785  1.00  0.00     0.006 A 
ENDBRANCH  49  63
BRANCH  50  71
ATOM     71  C   UNL A   1      41.491  24.760  27.803  1.00  0.00     0.057 A 
ATOM     72  C   UNL A   1      41.975  23.647  28.499  1.00  0.00     0.134 A 
ATOM     73  C   UNL A   1      40.447  24.549  26.894  1.00  0.00     0.134 A 
ATOM     74  F   UNL A   1      42.993  23.783  29.362  1.00  0.00    -0.206 F 
ATOM     75  C   UNL A   1      41.461  22.368  28.281  1.00  0.00     0.040 A 
ATOM     76  C   UNL A   1      39.909  23.280  26.681  1.00  0.00     0.040 A 
ATOM     77  F   UNL A   1      39.941  25.576  26.194  1.00  0.00    -0.206 F 
ATOM     78  C   UNL A   1      40.423  22.182  27.370  1.00  0.00     0.006 A 
ENDBRANCH  50  71
BRANCH  62  79
ATOM     79  C   UNL A   1      47.412  27.560  25.473  1.00  0.00     0.057 A 
ATOM     80  C   UNL A   1      48.489  26.873  26.049  1.00  0.00     0.134 A 
ATOM     81  C   UNL A   1      47.391  27.681  24.079  1.00  0.00     0.134 A 
ATOM     82  F   UNL A   1      48.573  26.734  27.380  1.00  0.00    -0.206 F 
ATOM     83  C   UNL A   1      49.514  26.340  25.266  1.00  0.00     0.040 A 
ATOM     84  C   UNL A   1      48.399  27.133  23.283  1.00  0.00     0.040 A 
ATOM     85  F   UNL A   1      46.384  28.320  23.465  1.00  0.00    -0.206 F 
ATOM     86  C   UNL A   1      49.467  26.462  23.878  1.00  0.00     0.006 A 
ENDBRANCH  62  79
ENDBRANCH  36  37
ENDBRANCH  29  31
ENDBRANCH  28  29
ENDBRANCH  27  28
ENDBRANCH  26  27
ENDBRANCH  25  26
ENDBRANCH   2  25
TORSDOF 17
ENDMDL
