MODEL 1
REMARK VINA RESULT:     -11.6      0.000      0.000
REMARK SMILES CC(C)CCc1cc2c(cc1Cl)C=C(C(=O)OCCOC(=O)c1ccc(-c3c4nc(c(-c5c(F)cccc5F)c5ccc([nH]5)c(-c5c(F)cccc5F)c5nc(c(-c6c(F)cccc6F)c6ccc3[nH]6)C=C5)C=C4)cc1)[C@@H](C(F)(F)F)O2
REMARK SMILES IDX 18 1 17 2 15 3 16 4 14 5 6 6 7 7 11 8 8 9 10 10 12 11 9 12
REMARK SMILES IDX 82 13 13 14 77 15 5 16 4 17 2 18 1 19 3 20 78 21 79 22 80 23
REMARK SMILES IDX 81 24 19 25 20 26 21 27 22 28 23 29 24 30 76 31 25 32 75 33
REMARK SMILES IDX 26 34 27 35 28 36 69 37 29 38 74 39 68 40 70 41 30 42 73 43
REMARK SMILES IDX 67 44 66 45 31 47 57 48 40 49 56 50 41 51 44 52 55 53 71 54
REMARK SMILES IDX 42 55 43 56 54 58 72 59 45 60 32 61 33 62 38 63 34 64 35 65
REMARK SMILES IDX 37 66 39 67 36 68 58 69 59 70 64 71 60 72 61 73 63 74 65 75
REMARK SMILES IDX 62 76 46 77 47 78 52 79 48 80 49 81 51 82 53 83 50 84
REMARK H PARENT 70 46 44 57
REMARK Flexibility Score: inf
ROOT
ATOM      1  C   UNL A   1      34.757  21.049  25.118  1.00  0.00     0.275 C 
ENDROOT
BRANCH   1   2
ATOM      2  O   UNL A   1      34.632  22.474  24.928  1.00  0.00    -0.459 OA
BRANCH   2   3
ATOM      3  C   UNL A   1      33.915  23.135  25.868  1.00  0.00     0.338 C 
ATOM      4  O   UNL A   1      33.848  22.868  27.053  1.00  0.00    -0.246 OA
BRANCH   3   5
ATOM      5  C   UNL A   1      33.254  24.309  25.264  1.00  0.00     0.087 C 
ATOM      6  C   UNL A   1      31.106  28.784  24.423  1.00  0.00    -0.026 A 
ATOM      7  C   UNL A   1      31.260  27.603  23.670  1.00  0.00     0.052 A 
ATOM      8  C   UNL A   1      31.801  28.881  25.642  1.00  0.00     0.045 A 
ATOM      9  C   UNL A   1      31.963  26.507  24.172  1.00  0.00     0.128 A 
ATOM     10  C   UNL A   1      32.525  27.796  26.135  1.00  0.00     0.032 A 
ATOM     11  Cl  UNL A   1      31.801  30.325  26.594  1.00  0.00    -0.084 Cl
ATOM     12  C   UNL A   1      32.571  26.600  25.416  1.00  0.00     0.019 A 
ATOM     13  O   UNL A   1      32.013  25.391  23.385  1.00  0.00    -0.475 OA
ATOM     14  C   UNL A   1      33.248  25.447  25.966  1.00  0.00     0.027 C 
ATOM     15  C   UNL A   1      32.531  24.156  23.956  1.00  0.00     0.316 C 
BRANCH   6  16
ATOM     16  C   UNL A   1      30.238  29.925  23.931  1.00  0.00     0.037 C 
BRANCH  16  17
ATOM     17  C   UNL A   1      29.510  29.721  22.592  1.00  0.00     0.008 C 
BRANCH  17  18
ATOM     18  C   UNL A   1      27.988  29.978  22.625  1.00  0.00    -0.017 C 
ATOM     19  C   UNL A   1      27.202  28.781  23.159  1.00  0.00     0.007 C 
ATOM     20  C   UNL A   1      27.696  31.221  23.469  1.00  0.00     0.007 C 
ENDBRANCH  17  18
ENDBRANCH  16  17
ENDBRANCH   6  16
BRANCH  15  21
ATOM     21  C   UNL A   1      31.379  23.144  24.094  1.00  0.00     0.430 C 
ATOM     22  F   UNL A   1      30.346  23.451  23.274  1.00  0.00    -0.167 F 
ATOM     23  F   UNL A   1      31.777  21.892  23.766  1.00  0.00    -0.167 F 
ATOM     24  F   UNL A   1      30.895  23.094  25.357  1.00  0.00    -0.167 F 
ENDBRANCH  15  21
ENDBRANCH   3   5
ENDBRANCH   2   3
ENDBRANCH   1   2
BRANCH   1  25
ATOM     25  C   UNL A   1      36.220  20.611  25.055  1.00  0.00     0.275 C 
BRANCH  25  26
ATOM     26  O   UNL A   1      37.076  21.637  25.592  1.00  0.00    -0.458 OA
BRANCH  26  27
ATOM     27  C   UNL A   1      38.350  21.266  25.848  1.00  0.00     0.338 C 
ATOM     28  O   UNL A   1      38.878  20.191  25.616  1.00  0.00    -0.246 OA
BRANCH  27  29
ATOM     29  C   UNL A   1      39.084  22.416  26.392  1.00  0.00     0.060 A 
ATOM     30  C   UNL A   1      40.249  22.257  27.134  1.00  0.00     0.016 A 
ATOM     31  C   UNL A   1      38.641  23.690  26.056  1.00  0.00     0.016 A 
ATOM     32  C   UNL A   1      40.942  23.398  27.564  1.00  0.00     0.010 A 
ATOM     33  C   UNL A   1      39.405  24.811  26.356  1.00  0.00     0.010 A 
ATOM     34  C   UNL A   1      40.540  24.688  27.164  1.00  0.00    -0.014 A 
BRANCH  34  35
ATOM     35  C   UNL A   1      41.250  25.917  27.621  1.00  0.00     0.031 A 
ATOM     36  C   UNL A   1      42.661  26.203  27.154  1.00  0.00     0.074 A 
ATOM     37  C   UNL A   1      40.657  26.758  28.492  1.00  0.00     0.049 A 
ATOM     38  N   UNL A   1      43.464  27.185  27.485  1.00  0.00    -0.248 NA
ATOM     39  C   UNL A   1      43.269  25.232  26.228  1.00  0.00     0.031 C 
ATOM     40  C   UNL A   1      39.334  26.568  29.091  1.00  0.00     0.029 A 
ATOM     41  N   UNL A   1      41.092  27.947  29.024  1.00  0.00    -0.354 N 
ATOM     42  C   UNL A   1      44.670  26.923  26.843  1.00  0.00     0.074 A 
ATOM     43  C   UNL A   1      44.519  25.659  26.162  1.00  0.00     0.031 C 
ATOM     44  C   UNL A   1      39.040  27.632  29.855  1.00  0.00     0.029 A 
ATOM     45  C   UNL A   1      40.167  28.559  29.836  1.00  0.00     0.049 A 
ATOM     46  H   UNL A   1      41.981  28.326  28.839  1.00  0.00     0.167 HD
ATOM     47  C   UNL A   1      45.791  27.682  26.787  1.00  0.00     0.037 A 
ATOM     48  C   UNL A   1      40.218  29.738  30.484  1.00  0.00     0.037 A 
ATOM     49  C   UNL A   1      45.920  28.975  27.402  1.00  0.00     0.049 A 
ATOM     50  C   UNL A   1      41.450  30.591  30.361  1.00  0.00     0.074 A 
ATOM     51  C   UNL A   1      46.982  29.861  27.341  1.00  0.00     0.029 A 
ATOM     52  N   UNL A   1      44.942  29.574  28.180  1.00  0.00    -0.354 N 
ATOM     53  N   UNL A   1      42.554  30.360  29.695  1.00  0.00    -0.248 NA
ATOM     54  C   UNL A   1      41.437  31.876  31.075  1.00  0.00     0.031 C 
ATOM     55  C   UNL A   1      46.654  30.988  28.102  1.00  0.00     0.029 A 
ATOM     56  C   UNL A   1      45.376  30.817  28.608  1.00  0.00     0.049 A 
ATOM     57  H   UNL A   1      44.068  29.174  28.398  1.00  0.00     0.167 HD
ATOM     58  C   UNL A   1      43.357  31.476  29.888  1.00  0.00     0.074 A 
ATOM     59  C   UNL A   1      42.606  32.392  30.721  1.00  0.00     0.031 C 
ATOM     60  C   UNL A   1      44.604  31.722  29.420  1.00  0.00     0.037 A 
BRANCH  47  61
ATOM     61  C   UNL A   1      46.956  27.138  26.007  1.00  0.00     0.057 A 
ATOM     62  C   UNL A   1      47.057  27.348  24.626  1.00  0.00     0.134 A 
ATOM     63  C   UNL A   1      47.974  26.395  26.620  1.00  0.00     0.134 A 
ATOM     64  F   UNL A   1      46.112  28.040  23.970  1.00  0.00    -0.206 F 
ATOM     65  C   UNL A   1      48.132  26.850  23.887  1.00  0.00     0.040 A 
ATOM     66  C   UNL A   1      49.070  25.918  25.898  1.00  0.00     0.040 A 
ATOM     67  F   UNL A   1      47.946  26.165  27.942  1.00  0.00    -0.206 F 
ATOM     68  C   UNL A   1      49.149  26.142  24.526  1.00  0.00     0.006 A 
ENDBRANCH  47  61
BRANCH  48  69
ATOM     69  C   UNL A   1      39.048  30.210  31.266  1.00  0.00     0.057 A 
ATOM     70  C   UNL A   1      38.884  29.881  32.616  1.00  0.00     0.134 A 
ATOM     71  C   UNL A   1      38.066  31.013  30.673  1.00  0.00     0.134 A 
ATOM     72  F   UNL A   1      39.785  29.108  33.239  1.00  0.00    -0.206 F 
ATOM     73  C   UNL A   1      37.783  30.331  33.348  1.00  0.00     0.040 A 
ATOM     74  C   UNL A   1      36.973  31.489  31.399  1.00  0.00     0.040 A 
ATOM     75  F   UNL A   1      38.177  31.376  29.387  1.00  0.00    -0.206 F 
ATOM     76  C   UNL A   1      36.828  31.145  32.741  1.00  0.00     0.006 A 
ENDBRANCH  48  69
BRANCH  60  77
ATOM     77  C   UNL A   1      45.215  33.048  29.761  1.00  0.00     0.057 A 
ATOM     78  C   UNL A   1      45.026  34.153  28.922  1.00  0.00     0.134 A 
ATOM     79  C   UNL A   1      46.018  33.220  30.894  1.00  0.00     0.134 A 
ATOM     80  F   UNL A   1      44.272  34.048  27.817  1.00  0.00    -0.206 F 
ATOM     81  C   UNL A   1      45.616  35.386  29.199  1.00  0.00     0.040 A 
ATOM     82  C   UNL A   1      46.595  34.455  31.194  1.00  0.00     0.040 A 
ATOM     83  F   UNL A   1      46.225  32.202  31.743  1.00  0.00    -0.206 F 
ATOM     84  C   UNL A   1      46.400  35.541  30.341  1.00  0.00     0.006 A 
ENDBRANCH  60  77
ENDBRANCH  34  35
ENDBRANCH  27  29
ENDBRANCH  26  27
ENDBRANCH  25  26
ENDBRANCH   1  25
TORSDOF 15
ENDMDL
MODEL 2
REMARK VINA RESULT:     -11.5      3.914      9.042
REMARK SMILES CC(C)CCc1cc2c(cc1Cl)C=C(C(=O)OCCOC(=O)c1ccc(-c3c4nc(c(-c5c(F)cccc5F)c5ccc([nH]5)c(-c5c(F)cccc5F)c5nc(c(-c6c(F)cccc6F)c6ccc3[nH]6)C=C5)C=C4)cc1)[C@@H](C(F)(F)F)O2
REMARK SMILES IDX 18 1 17 2 15 3 16 4 14 5 6 6 7 7 11 8 8 9 10 10 12 11 9 12
REMARK SMILES IDX 82 13 13 14 77 15 5 16 4 17 2 18 1 19 3 20 78 21 79 22 80 23
REMARK SMILES IDX 81 24 19 25 20 26 21 27 22 28 23 29 24 30 76 31 25 32 75 33
REMARK SMILES IDX 26 34 27 35 28 36 69 37 29 38 74 39 68 40 70 41 30 42 73 43
REMARK SMILES IDX 67 44 66 45 31 47 57 48 40 49 56 50 41 51 44 52 55 53 71 54
REMARK SMILES IDX 42 55 43 56 54 58 72 59 45 60 32 61 33 62 38 63 34 64 35 65
REMARK SMILES IDX 37 66 39 67 36 68 58 69 59 70 64 71 60 72 61 73 63 74 65 75
REMARK SMILES IDX 62 76 46 77 47 78 52 79 48 80 49 81 51 82 53 83 50 84
REMARK H PARENT 70 46 44 57
REMARK Flexibility Score: inf
ROOT
ATOM      1  C   UNL A   1      31.655  28.822  24.684  1.00  0.00     0.275 C 
ENDROOT
BRANCH   1   2
ATOM      2  O   UNL A   1      32.442  27.738  25.221  1.00  0.00    -0.459 OA
BRANCH   2   3
ATOM      3  C   UNL A   1      31.826  26.962  26.145  1.00  0.00     0.338 C 
ATOM      4  O   UNL A   1      31.068  27.336  27.020  1.00  0.00    -0.246 OA
BRANCH   3   5
ATOM      5  C   UNL A   1      32.148  25.541  25.905  1.00  0.00     0.087 C 
ATOM      6  C   UNL A   1      34.472  21.149  25.095  1.00  0.00    -0.026 A 
ATOM      7  C   UNL A   1      33.129  21.577  25.078  1.00  0.00     0.052 A 
ATOM      8  C   UNL A   1      35.441  22.048  25.578  1.00  0.00     0.045 A 
ATOM      9  C   UNL A   1      32.780  22.889  25.396  1.00  0.00     0.128 A 
ATOM     10  C   UNL A   1      35.091  23.354  25.919  1.00  0.00     0.032 A 
ATOM     11  Cl  UNL A   1      37.100  21.602  25.772  1.00  0.00    -0.084 Cl
ATOM     12  C   UNL A   1      33.768  23.781  25.790  1.00  0.00     0.019 A 
ATOM     13  O   UNL A   1      31.457  23.217  25.301  1.00  0.00    -0.475 OA
ATOM     14  C   UNL A   1      33.419  25.158  26.061  1.00  0.00     0.027 C 
ATOM     15  C   UNL A   1      31.075  24.620  25.397  1.00  0.00     0.316 C 
BRANCH   6  16
ATOM     16  C   UNL A   1      34.864  19.762  24.629  1.00  0.00     0.037 C 
BRANCH  16  17
ATOM     17  C   UNL A   1      33.726  18.750  24.414  1.00  0.00     0.008 C 
BRANCH  17  18
ATOM     18  C   UNL A   1      34.136  17.265  24.523  1.00  0.00    -0.017 C 
ATOM     19  C   UNL A   1      33.297  16.499  25.546  1.00  0.00     0.007 C 
ATOM     20  C   UNL A   1      34.028  16.602  23.148  1.00  0.00     0.007 C 
ENDBRANCH  17  18
ENDBRANCH  16  17
ENDBRANCH   6  16
BRANCH  15  21
ATOM     21  C   UNL A   1      30.564  25.096  24.025  1.00  0.00     0.430 C 
ATOM     22  F   UNL A   1      29.991  24.085  23.330  1.00  0.00    -0.167 F 
ATOM     23  F   UNL A   1      29.623  26.061  24.154  1.00  0.00    -0.167 F 
ATOM     24  F   UNL A   1      31.558  25.603  23.259  1.00  0.00    -0.167 F 
ENDBRANCH  15  21
ENDBRANCH   3   5
ENDBRANCH   2   3
ENDBRANCH   1   2
BRANCH   1  25
ATOM     25  C   UNL A   1      31.745  30.062  25.574  1.00  0.00     0.275 C 
BRANCH  25  26
ATOM     26  O   UNL A   1      33.110  30.306  25.961  1.00  0.00    -0.458 OA
BRANCH  26  27
ATOM     27  C   UNL A   1      33.291  31.231  26.929  1.00  0.00     0.338 C 
ATOM     28  O   UNL A   1      32.534  32.130  27.256  1.00  0.00    -0.246 OA
BRANCH  27  29
ATOM     29  C   UNL A   1      34.546  30.946  27.635  1.00  0.00     0.060 A 
ATOM     30  C   UNL A   1      35.388  31.962  28.072  1.00  0.00     0.016 A 
ATOM     31  C   UNL A   1      34.828  29.623  27.956  1.00  0.00     0.016 A 
ATOM     32  C   UNL A   1      36.536  31.627  28.804  1.00  0.00     0.010 A 
ATOM     33  C   UNL A   1      35.883  29.305  28.802  1.00  0.00     0.010 A 
ATOM     34  C   UNL A   1      36.787  30.296  29.195  1.00  0.00    -0.014 A 
BRANCH  34  35
ATOM     35  C   UNL A   1      38.009  29.912  29.959  1.00  0.00     0.031 A 
ATOM     36  C   UNL A   1      38.204  30.391  31.382  1.00  0.00     0.074 A 
ATOM     37  C   UNL A   1      38.972  29.174  29.370  1.00  0.00     0.049 A 
ATOM     38  N   UNL A   1      39.222  30.212  32.188  1.00  0.00    -0.248 NA
ATOM     39  C   UNL A   1      37.133  31.219  31.961  1.00  0.00     0.031 C 
ATOM     40  C   UNL A   1      38.960  28.712  27.982  1.00  0.00     0.029 A 
ATOM     41  N   UNL A   1      40.151  28.680  29.872  1.00  0.00    -0.354 N 
ATOM     42  C   UNL A   1      38.927  30.936  33.338  1.00  0.00     0.074 A 
ATOM     43  C   UNL A   1      37.674  31.612  33.103  1.00  0.00     0.031 C 
ATOM     44  C   UNL A   1      40.043  27.950  27.760  1.00  0.00     0.029 A 
ATOM     45  C   UNL A   1      40.849  27.904  28.977  1.00  0.00     0.049 A 
ATOM     46  H   UNL A   1      40.466  28.862  30.786  1.00  0.00     0.167 HD
ATOM     47  C   UNL A   1      39.613  31.003  34.506  1.00  0.00     0.037 A 
ATOM     48  C   UNL A   1      42.002  27.225  29.123  1.00  0.00     0.037 A 
ATOM     49  C   UNL A   1      40.823  30.273  34.772  1.00  0.00     0.049 A 
ATOM     50  C   UNL A   1      42.717  27.266  30.445  1.00  0.00     0.074 A 
ATOM     51  C   UNL A   1      41.554  30.208  35.945  1.00  0.00     0.029 A 
ATOM     52  N   UNL A   1      41.471  29.467  33.850  1.00  0.00    -0.354 N 
ATOM     53  N   UNL A   1      42.390  27.901  31.544  1.00  0.00    -0.248 NA
ATOM     54  C   UNL A   1      43.960  26.488  30.549  1.00  0.00     0.031 C 
ATOM     55  C   UNL A   1      42.659  29.377  35.725  1.00  0.00     0.029 A 
ATOM     56  C   UNL A   1      42.595  28.901  34.426  1.00  0.00     0.049 A 
ATOM     57  H   UNL A   1      41.176  29.319  32.921  1.00  0.00     0.167 HD
ATOM     58  C   UNL A   1      43.369  27.581  32.475  1.00  0.00     0.074 A 
ATOM     59  C   UNL A   1      44.294  26.682  31.816  1.00  0.00     0.031 C 
ATOM     60  C   UNL A   1      43.493  27.994  33.759  1.00  0.00     0.037 A 
BRANCH  47  61
ATOM     61  C   UNL A   1      39.048  31.876  35.591  1.00  0.00     0.057 A 
ATOM     62  C   UNL A   1      39.362  33.240  35.653  1.00  0.00     0.134 A 
ATOM     63  C   UNL A   1      38.201  31.367  36.584  1.00  0.00     0.134 A 
ATOM     64  F   UNL A   1      40.178  33.794  34.742  1.00  0.00    -0.206 F 
ATOM     65  C   UNL A   1      38.846  34.065  36.654  1.00  0.00     0.040 A 
ATOM     66  C   UNL A   1      37.653  32.187  37.573  1.00  0.00     0.040 A 
ATOM     67  F   UNL A   1      37.849  30.071  36.579  1.00  0.00    -0.206 F 
ATOM     68  C   UNL A   1      37.979  33.541  37.611  1.00  0.00     0.006 A 
ENDBRANCH  47  61
BRANCH  48  69
ATOM     69  C   UNL A   1      42.530  26.403  28.005  1.00  0.00     0.057 A 
ATOM     70  C   UNL A   1      42.183  25.055  27.855  1.00  0.00     0.134 A 
ATOM     71  C   UNL A   1      43.394  26.957  27.053  1.00  0.00     0.134 A 
ATOM     72  F   UNL A   1      41.366  24.464  28.739  1.00  0.00    -0.206 F 
ATOM     73  C   UNL A   1      42.679  24.288  26.799  1.00  0.00     0.040 A 
ATOM     74  C   UNL A   1      43.878  26.207  25.980  1.00  0.00     0.040 A 
ATOM     75  F   UNL A   1      43.749  28.247  27.134  1.00  0.00    -0.206 F 
ATOM     76  C   UNL A   1      43.522  24.866  25.853  1.00  0.00     0.006 A 
ENDBRANCH  48  69
BRANCH  60  77
ATOM     77  C   UNL A   1      44.643  27.444  34.547  1.00  0.00     0.057 A 
ATOM     78  C   UNL A   1      44.503  26.256  35.274  1.00  0.00     0.134 A 
ATOM     79  C   UNL A   1      45.874  28.108  34.616  1.00  0.00     0.134 A 
ATOM     80  F   UNL A   1      43.345  25.578  35.254  1.00  0.00    -0.206 F 
ATOM     81  C   UNL A   1      45.547  25.747  36.045  1.00  0.00     0.040 A 
ATOM     82  C   UNL A   1      46.933  27.596  35.366  1.00  0.00     0.040 A 
ATOM     83  F   UNL A   1      46.074  29.244  33.931  1.00  0.00    -0.206 F 
ATOM     84  C   UNL A   1      46.769  26.415  36.089  1.00  0.00     0.006 A 
ENDBRANCH  60  77
ENDBRANCH  34  35
ENDBRANCH  27  29
ENDBRANCH  26  27
ENDBRANCH  25  26
ENDBRANCH   1  25
TORSDOF 15
ENDMDL
MODEL 3
REMARK VINA RESULT:     -11.4      3.121      7.759
REMARK SMILES CC(C)CCc1cc2c(cc1Cl)C=C(C(=O)OCCOC(=O)c1ccc(-c3c4nc(c(-c5c(F)cccc5F)c5ccc([nH]5)c(-c5c(F)cccc5F)c5nc(c(-c6c(F)cccc6F)c6ccc3[nH]6)C=C5)C=C4)cc1)[C@@H](C(F)(F)F)O2
REMARK SMILES IDX 18 1 17 2 15 3 16 4 14 5 6 6 7 7 11 8 8 9 10 10 12 11 9 12
REMARK SMILES IDX 82 13 13 14 77 15 5 16 4 17 2 18 1 19 3 20 78 21 79 22 80 23
REMARK SMILES IDX 81 24 19 25 20 26 21 27 22 28 23 29 24 30 76 31 25 32 75 33
REMARK SMILES IDX 26 34 27 35 28 36 69 37 29 38 74 39 68 40 70 41 30 42 73 43
REMARK SMILES IDX 67 44 66 45 31 47 57 48 40 49 56 50 41 51 44 52 55 53 71 54
REMARK SMILES IDX 42 55 43 56 54 58 72 59 45 60 32 61 33 62 38 63 34 64 35 65
REMARK SMILES IDX 37 66 39 67 36 68 58 69 59 70 64 71 60 72 61 73 63 74 65 75
REMARK SMILES IDX 62 76 46 77 47 78 52 79 48 80 49 81 51 82 53 83 50 84
REMARK H PARENT 70 46 44 57
REMARK Flexibility Score: inf
ROOT
ATOM      1  C   UNL A   1      33.235  29.887  26.834  1.00  0.00     0.275 C 
ENDROOT
BRANCH   1   2
ATOM      2  O   UNL A   1      33.461  28.462  26.830  1.00  0.00    -0.459 OA
BRANCH   2   3
ATOM      3  C   UNL A   1      33.472  27.868  25.613  1.00  0.00     0.338 C 
ATOM      4  O   UNL A   1      33.717  28.401  24.546  1.00  0.00    -0.246 OA
BRANCH   3   5
ATOM      5  C   UNL A   1      33.210  26.422  25.755  1.00  0.00     0.087 C 
ATOM      6  C   UNL A   1      33.463  21.396  25.611  1.00  0.00    -0.026 A 
ATOM      7  C   UNL A   1      32.472  22.328  25.984  1.00  0.00     0.052 A 
ATOM      8  C   UNL A   1      34.754  21.884  25.342  1.00  0.00     0.045 A 
ATOM      9  C   UNL A   1      32.718  23.700  25.955  1.00  0.00     0.128 A 
ATOM     10  C   UNL A   1      35.009  23.254  25.336  1.00  0.00     0.032 A 
ATOM     11  Cl  UNL A   1      36.086  20.834  25.003  1.00  0.00    -0.084 Cl
ATOM     12  C   UNL A   1      33.981  24.160  25.605  1.00  0.00     0.019 A 
ATOM     13  O   UNL A   1      31.678  24.522  26.287  1.00  0.00    -0.475 OA
ATOM     14  C   UNL A   1      34.222  25.582  25.515  1.00  0.00     0.027 C 
ATOM     15  C   UNL A   1      31.814  25.953  26.051  1.00  0.00     0.316 C 
BRANCH   6  16
ATOM     16  C   UNL A   1      33.157  19.914  25.521  1.00  0.00     0.037 C 
BRANCH  16  17
ATOM     17  C   UNL A   1      32.599  19.397  24.185  1.00  0.00     0.008 C 
BRANCH  17  18
ATOM     18  C   UNL A   1      32.547  17.860  24.045  1.00  0.00    -0.017 C 
ATOM     19  C   UNL A   1      33.639  17.319  23.122  1.00  0.00     0.007 C 
ATOM     20  C   UNL A   1      32.657  17.215  25.429  1.00  0.00     0.007 C 
ENDBRANCH  17  18
ENDBRANCH  16  17
ENDBRANCH   6  16
BRANCH  15  21
ATOM     21  C   UNL A   1      30.857  26.368  24.919  1.00  0.00     0.430 C 
ATOM     22  F   UNL A   1      30.538  27.682  24.994  1.00  0.00    -0.167 F 
ATOM     23  F   UNL A   1      31.416  26.173  23.700  1.00  0.00    -0.167 F 
ATOM     24  F   UNL A   1      29.700  25.667  24.948  1.00  0.00    -0.167 F 
ENDBRANCH  15  21
ENDBRANCH   3   5
ENDBRANCH   2   3
ENDBRANCH   1   2
BRANCH   1  25
ATOM     25  C   UNL A   1      34.304  30.612  27.651  1.00  0.00     0.275 C 
BRANCH  25  26
ATOM     26  O   UNL A   1      35.177  29.664  28.293  1.00  0.00    -0.458 OA
BRANCH  26  27
ATOM     27  C   UNL A   1      36.046  30.178  29.192  1.00  0.00     0.338 C 
ATOM     28  O   UNL A   1      35.793  30.861  30.170  1.00  0.00    -0.246 OA
BRANCH  27  29
ATOM     29  C   UNL A   1      37.400  29.710  28.870  1.00  0.00     0.060 A 
ATOM     30  C   UNL A   1      37.889  29.721  27.569  1.00  0.00     0.016 A 
ATOM     31  C   UNL A   1      38.233  29.351  29.924  1.00  0.00     0.016 A 
ATOM     32  C   UNL A   1      39.215  29.329  27.337  1.00  0.00     0.010 A 
ATOM     33  C   UNL A   1      39.583  29.105  29.710  1.00  0.00     0.010 A 
ATOM     34  C   UNL A   1      40.084  29.036  28.407  1.00  0.00    -0.014 A 
BRANCH  34  35
ATOM     35  C   UNL A   1      41.494  28.601  28.186  1.00  0.00     0.031 A 
ATOM     36  C   UNL A   1      41.804  27.158  27.850  1.00  0.00     0.074 A 
ATOM     37  C   UNL A   1      42.506  29.480  28.333  1.00  0.00     0.049 A 
ATOM     38  N   UNL A   1      42.966  26.575  27.680  1.00  0.00    -0.248 NA
ATOM     39  C   UNL A   1      40.661  26.238  27.734  1.00  0.00     0.031 C 
ATOM     40  C   UNL A   1      42.364  30.880  28.735  1.00  0.00     0.029 A 
ATOM     41  N   UNL A   1      43.859  29.323  28.155  1.00  0.00    -0.354 N 
ATOM     42  C   UNL A   1      42.689  25.227  27.481  1.00  0.00     0.074 A 
ATOM     43  C   UNL A   1      41.261  25.064  27.621  1.00  0.00     0.031 C 
ATOM     44  C   UNL A   1      43.570  31.470  28.711  1.00  0.00     0.029 A 
ATOM     45  C   UNL A   1      44.576  30.482  28.335  1.00  0.00     0.049 A 
ATOM     46  H   UNL A   1      44.274  28.463  27.920  1.00  0.00     0.167 HD
ATOM     47  C   UNL A   1      43.537  24.216  27.169  1.00  0.00     0.037 A 
ATOM     48  C   UNL A   1      45.894  30.723  28.202  1.00  0.00     0.037 A 
ATOM     49  C   UNL A   1      44.949  24.386  26.956  1.00  0.00     0.049 A 
ATOM     50  C   UNL A   1      46.809  29.600  27.798  1.00  0.00     0.074 A 
ATOM     51  C   UNL A   1      45.884  23.446  26.560  1.00  0.00     0.029 A 
ATOM     52  N   UNL A   1      45.625  25.586  27.108  1.00  0.00    -0.354 N 
ATOM     53  N   UNL A   1      46.521  28.346  27.549  1.00  0.00    -0.248 NA
ATOM     54  C   UNL A   1      48.234  29.929  27.650  1.00  0.00     0.031 C 
ATOM     55  C   UNL A   1      47.132  24.074  26.493  1.00  0.00     0.029 A 
ATOM     56  C   UNL A   1      46.967  25.411  26.815  1.00  0.00     0.049 A 
ATOM     57  H   UNL A   1      45.213  26.437  27.384  1.00  0.00     0.167 HD
ATOM     58  C   UNL A   1      47.720  27.744  27.191  1.00  0.00     0.074 A 
ATOM     59  C   UNL A   1      48.737  28.774  27.240  1.00  0.00     0.031 C 
ATOM     60  C   UNL A   1      47.959  26.454  26.852  1.00  0.00     0.037 A 
BRANCH  47  61
ATOM     61  C   UNL A   1      42.947  22.842  27.011  1.00  0.00     0.057 A 
ATOM     62  C   UNL A   1      42.605  22.074  28.131  1.00  0.00     0.134 A 
ATOM     63  C   UNL A   1      42.728  22.272  25.750  1.00  0.00     0.134 A 
ATOM     64  F   UNL A   1      42.798  22.551  29.371  1.00  0.00    -0.206 F 
ATOM     65  C   UNL A   1      42.057  20.796  28.002  1.00  0.00     0.040 A 
ATOM     66  C   UNL A   1      42.152  21.008  25.607  1.00  0.00     0.040 A 
ATOM     67  F   UNL A   1      43.024  22.956  24.634  1.00  0.00    -0.206 F 
ATOM     68  C   UNL A   1      41.818  20.265  26.736  1.00  0.00     0.006 A 
ENDBRANCH  47  61
BRANCH  48  69
ATOM     69  C   UNL A   1      46.425  32.094  28.401  1.00  0.00     0.057 A 
ATOM     70  C   UNL A   1      46.459  33.028  27.359  1.00  0.00     0.134 A 
ATOM     71  C   UNL A   1      46.907  32.503  29.650  1.00  0.00     0.134 A 
ATOM     72  F   UNL A   1      46.021  32.695  26.136  1.00  0.00    -0.206 F 
ATOM     73  C   UNL A   1      46.956  34.319  27.553  1.00  0.00     0.040 A 
ATOM     74  C   UNL A   1      47.384  33.797  29.864  1.00  0.00     0.040 A 
ATOM     75  F   UNL A   1      46.883  31.658  30.692  1.00  0.00    -0.206 F 
ATOM     76  C   UNL A   1      47.412  34.709  28.810  1.00  0.00     0.006 A 
ENDBRANCH  48  69
BRANCH  60  77
ATOM     77  C   UNL A   1      49.363  26.096  26.468  1.00  0.00     0.057 A 
ATOM     78  C   UNL A   1      50.237  25.542  27.411  1.00  0.00     0.134 A 
ATOM     79  C   UNL A   1      49.859  26.334  25.181  1.00  0.00     0.134 A 
ATOM     80  F   UNL A   1      49.823  25.298  28.664  1.00  0.00    -0.206 F 
ATOM     81  C   UNL A   1      51.559  25.238  27.087  1.00  0.00     0.040 A 
ATOM     82  C   UNL A   1      51.173  26.012  24.838  1.00  0.00     0.040 A 
ATOM     83  F   UNL A   1      49.065  26.850  24.230  1.00  0.00    -0.206 F 
ATOM     84  C   UNL A   1      52.029  25.468  25.795  1.00  0.00     0.006 A 
ENDBRANCH  60  77
ENDBRANCH  34  35
ENDBRANCH  27  29
ENDBRANCH  26  27
ENDBRANCH  25  26
ENDBRANCH   1  25
TORSDOF 15
ENDMDL
