MODEL 1
REMARK VINA RESULT:     -11.9      0.000      0.000
REMARK SMILES O=C(Cc1ccccc1-c1ccn(C(F)F)c(=O)c1)OCCOC(=O)c1ccc(-c2c3nc(c(-c4c(F)cccc4F)c4ccc([nH]4)c(-c4c(F)cccc4F)c4nc(c(-c5c(F)cccc5F)c5ccc2[nH]5)C=C4)C=C3)cc1
REMARK SMILES IDX 21 1 20 2 2 3 1 4 3 5 4 6 5 7 9 8 6 9 8 10 7 11 10 12 11 13
REMARK SMILES IDX 19 14 12 15 17 16 13 17 18 18 14 19 15 20 16 21 22 22 23 23
REMARK SMILES IDX 24 24 25 25 26 26 27 27 79 28 28 29 78 30 29 31 30 32 31 33
REMARK SMILES IDX 72 34 32 35 77 36 71 37 73 38 33 39 76 40 70 41 69 42 34 44
REMARK SMILES IDX 60 45 43 46 59 47 44 48 47 49 58 50 74 51 45 52 46 53 57 55
REMARK SMILES IDX 75 56 48 57 35 58 36 59 41 60 37 61 38 62 40 63 42 64 39 65
REMARK SMILES IDX 61 66 62 67 67 68 63 69 64 70 66 71 68 72 65 73 49 74 50 75
REMARK SMILES IDX 55 76 51 77 52 78 54 79 56 80 53 81
REMARK H PARENT 73 43 47 54
REMARK Flexibility Score: inf
ROOT
ATOM      1  C   UNL A   1      38.152  19.964  24.884  1.00  0.00     0.274 C 
ENDROOT
BRANCH   1   2
ATOM      2  O   UNL A   1      37.458  21.167  24.499  1.00  0.00    -0.462 OA
BRANCH   2   3
ATOM      3  C   UNL A   1      36.504  21.744  25.272  1.00  0.00     0.310 C 
ATOM      4  O   UNL A   1      36.786  22.705  25.986  1.00  0.00    -0.252 OA
BRANCH   3   5
ATOM      5  C   UNL A   1      35.144  21.085  25.314  1.00  0.00     0.158 C 
BRANCH   5   6
ATOM      6  C   UNL A   1      34.150  21.625  24.302  1.00  0.00    -0.029 A 
ATOM      7  C   UNL A   1      34.385  22.893  23.745  1.00  0.00     0.005 A 
ATOM      8  C   UNL A   1      33.046  20.869  23.841  1.00  0.00    -0.014 A 
ATOM      9  C   UNL A   1      33.574  23.384  22.723  1.00  0.00     0.000 A 
ATOM     10  C   UNL A   1      32.225  21.383  22.828  1.00  0.00     0.009 A 
ATOM     11  C   UNL A   1      32.498  22.631  22.263  1.00  0.00     0.001 A 
BRANCH   8  12
ATOM     12  C   UNL A   1      32.871  19.474  24.273  1.00  0.00    -0.011 A 
ATOM     13  C   UNL A   1      32.623  19.009  25.624  1.00  0.00     0.027 A 
ATOM     14  C   UNL A   1      33.096  18.580  23.298  1.00  0.00     0.080 A 
ATOM     15  C   UNL A   1      32.631  17.693  25.898  1.00  0.00     0.095 A 
ATOM     16  C   UNL A   1      33.298  17.170  23.655  1.00  0.00     0.255 A 
ATOM     17  N   UNL A   1      32.947  16.776  24.917  1.00  0.00    -0.258 N 
ATOM     18  O   UNL A   1      33.826  16.447  22.829  1.00  0.00    -0.269 OA
BRANCH  17  19
ATOM     19  C   UNL A   1      32.926  15.354  25.135  1.00  0.00     0.451 C 
ATOM     20  F   UNL A   1      34.168  14.923  25.475  1.00  0.00    -0.185 F 
ATOM     21  F   UNL A   1      32.080  15.002  26.135  1.00  0.00    -0.185 F 
ENDBRANCH  17  19
ENDBRANCH   8  12
ENDBRANCH   5   6
ENDBRANCH   3   5
ENDBRANCH   2   3
ENDBRANCH   1   2
BRANCH   1  22
ATOM     22  C   UNL A   1      39.460  20.259  25.619  1.00  0.00     0.275 C 
BRANCH  22  23
ATOM     23  O   UNL A   1      40.279  19.083  25.779  1.00  0.00    -0.458 OA
BRANCH  23  24
ATOM     24  C   UNL A   1      41.615  19.317  25.914  1.00  0.00     0.338 C 
ATOM     25  O   UNL A   1      42.507  18.554  25.601  1.00  0.00    -0.246 OA
BRANCH  24  26
ATOM     26  C   UNL A   1      41.871  20.689  26.435  1.00  0.00     0.060 A 
ATOM     27  C   UNL A   1      41.700  20.899  27.807  1.00  0.00     0.016 A 
ATOM     28  C   UNL A   1      42.250  21.765  25.623  1.00  0.00     0.016 A 
ATOM     29  C   UNL A   1      41.946  22.160  28.362  1.00  0.00     0.010 A 
ATOM     30  C   UNL A   1      42.470  23.039  26.183  1.00  0.00     0.010 A 
ATOM     31  C   UNL A   1      42.340  23.252  27.563  1.00  0.00    -0.014 A 
BRANCH  31  32
ATOM     32  C   UNL A   1      42.601  24.582  28.215  1.00  0.00     0.031 A 
ATOM     33  C   UNL A   1      44.020  25.021  28.455  1.00  0.00     0.074 A 
ATOM     34  C   UNL A   1      41.608  25.456  28.497  1.00  0.00     0.049 A 
ATOM     35  N   UNL A   1      44.474  26.183  28.856  1.00  0.00    -0.248 NA
ATOM     36  C   UNL A   1      45.066  24.009  28.242  1.00  0.00     0.031 C 
ATOM     37  C   UNL A   1      40.183  25.197  28.327  1.00  0.00     0.029 A 
ATOM     38  N   UNL A   1      41.646  26.776  28.898  1.00  0.00    -0.354 N 
ATOM     39  C   UNL A   1      45.850  26.039  28.951  1.00  0.00     0.074 A 
ATOM     40  C   UNL A   1      46.165  24.690  28.532  1.00  0.00     0.031 C 
ATOM     41  C   UNL A   1      39.504  26.350  28.431  1.00  0.00     0.029 A 
ATOM     42  C   UNL A   1      40.421  27.407  28.837  1.00  0.00     0.049 A 
ATOM     43  H   UNL A   1      42.470  27.225  29.199  1.00  0.00     0.167 HD
ATOM     44  C   UNL A   1      46.766  26.927  29.400  1.00  0.00     0.037 A 
ATOM     45  C   UNL A   1      40.060  28.683  29.093  1.00  0.00     0.037 A 
ATOM     46  C   UNL A   1      46.470  28.244  29.895  1.00  0.00     0.049 A 
ATOM     47  C   UNL A   1      41.092  29.629  29.641  1.00  0.00     0.074 A 
ATOM     48  C   UNL A   1      47.340  29.177  30.430  1.00  0.00     0.029 A 
ATOM     49  N   UNL A   1      45.204  28.802  29.943  1.00  0.00    -0.354 N 
ATOM     50  N   UNL A   1      42.391  29.480  29.730  1.00  0.00    -0.248 NA
ATOM     51  C   UNL A   1      40.597  30.900  30.197  1.00  0.00     0.031 C 
ATOM     52  C   UNL A   1      46.592  30.282  30.854  1.00  0.00     0.029 A 
ATOM     53  C   UNL A   1      45.262  30.050  30.543  1.00  0.00     0.049 A 
ATOM     54  H   UNL A   1      44.384  28.377  29.602  1.00  0.00     0.167 HD
ATOM     55  C   UNL A   1      42.860  30.613  30.379  1.00  0.00     0.074 A 
ATOM     56  C   UNL A   1      41.719  31.474  30.607  1.00  0.00     0.031 C 
ATOM     57  C   UNL A   1      44.122  30.895  30.782  1.00  0.00     0.037 A 
BRANCH  44  58
ATOM     58  C   UNL A   1      48.180  26.444  29.476  1.00  0.00     0.057 A 
ATOM     59  C   UNL A   1      48.676  25.781  30.603  1.00  0.00     0.134 A 
ATOM     60  C   UNL A   1      49.054  26.661  28.405  1.00  0.00     0.134 A 
ATOM     61  F   UNL A   1      47.890  25.566  31.670  1.00  0.00    -0.206 F 
ATOM     62  C   UNL A   1      50.006  25.359  30.666  1.00  0.00     0.040 A 
ATOM     63  C   UNL A   1      50.379  26.231  28.450  1.00  0.00     0.040 A 
ATOM     64  F   UNL A   1      48.634  27.301  27.303  1.00  0.00    -0.206 F 
ATOM     65  C   UNL A   1      50.859  25.582  29.586  1.00  0.00     0.006 A 
ENDBRANCH  44  58
BRANCH  45  66
ATOM     66  C   UNL A   1      38.647  29.136  28.935  1.00  0.00     0.057 A 
ATOM     67  C   UNL A   1      37.730  29.048  29.992  1.00  0.00     0.134 A 
ATOM     68  C   UNL A   1      38.158  29.614  27.712  1.00  0.00     0.134 A 
ATOM     69  F   UNL A   1      38.111  28.553  31.179  1.00  0.00    -0.206 F 
ATOM     70  C   UNL A   1      36.389  29.414  29.836  1.00  0.00     0.040 A 
ATOM     71  C   UNL A   1      36.832  30.020  27.554  1.00  0.00     0.040 A 
ATOM     72  F   UNL A   1      38.965  29.699  26.643  1.00  0.00    -0.206 F 
ATOM     73  C   UNL A   1      35.940  29.913  28.616  1.00  0.00     0.006 A 
ENDBRANCH  45  66
BRANCH  57  74
ATOM     74  C   UNL A   1      44.329  32.170  31.542  1.00  0.00     0.057 A 
ATOM     75  C   UNL A   1      44.271  32.199  32.942  1.00  0.00     0.134 A 
ATOM     76  C   UNL A   1      44.630  33.367  30.882  1.00  0.00     0.134 A 
ATOM     77  F   UNL A   1      43.974  31.088  33.633  1.00  0.00    -0.206 F 
ATOM     78  C   UNL A   1      44.488  33.378  33.657  1.00  0.00     0.040 A 
ATOM     79  C   UNL A   1      44.871  34.547  31.588  1.00  0.00     0.040 A 
ATOM     80  F   UNL A   1      44.708  33.405  29.543  1.00  0.00    -0.206 F 
ATOM     81  C   UNL A   1      44.796  34.555  32.978  1.00  0.00     0.006 A 
ENDBRANCH  57  74
ENDBRANCH  31  32
ENDBRANCH  24  26
ENDBRANCH  23  24
ENDBRANCH  22  23
ENDBRANCH   1  22
TORSDOF 14
ENDMDL
MODEL 2
REMARK VINA RESULT:     -11.8      5.091      9.363
REMARK SMILES O=C(Cc1ccccc1-c1ccn(C(F)F)c(=O)c1)OCCOC(=O)c1ccc(-c2c3nc(c(-c4c(F)cccc4F)c4ccc([nH]4)c(-c4c(F)cccc4F)c4nc(c(-c5c(F)cccc5F)c5ccc2[nH]5)C=C4)C=C3)cc1
REMARK SMILES IDX 21 1 20 2 2 3 1 4 3 5 4 6 5 7 9 8 6 9 8 10 7 11 10 12 11 13
REMARK SMILES IDX 19 14 12 15 17 16 13 17 18 18 14 19 15 20 16 21 22 22 23 23
REMARK SMILES IDX 24 24 25 25 26 26 27 27 79 28 28 29 78 30 29 31 30 32 31 33
REMARK SMILES IDX 72 34 32 35 77 36 71 37 73 38 33 39 76 40 70 41 69 42 34 44
REMARK SMILES IDX 60 45 43 46 59 47 44 48 47 49 58 50 74 51 45 52 46 53 57 55
REMARK SMILES IDX 75 56 48 57 35 58 36 59 41 60 37 61 38 62 40 63 42 64 39 65
REMARK SMILES IDX 61 66 62 67 67 68 63 69 64 70 66 71 68 72 65 73 49 74 50 75
REMARK SMILES IDX 55 76 51 77 52 78 54 79 56 80 53 81
REMARK H PARENT 73 43 47 54
REMARK Flexibility Score: inf
ROOT
ATOM      1  C   UNL A   1      33.697  29.992  26.796  1.00  0.00     0.274 C 
ENDROOT
BRANCH   1   2
ATOM      2  O   UNL A   1      33.101  28.812  27.370  1.00  0.00    -0.462 OA
BRANCH   2   3
ATOM      3  C   UNL A   1      31.830  28.424  27.097  1.00  0.00     0.310 C 
ATOM      4  O   UNL A   1      31.098  28.031  28.004  1.00  0.00    -0.252 OA
BRANCH   3   5
ATOM      5  C   UNL A   1      31.410  28.371  25.646  1.00  0.00     0.158 C 
BRANCH   5   6
ATOM      6  C   UNL A   1      31.213  26.970  25.097  1.00  0.00    -0.029 A 
ATOM      7  C   UNL A   1      31.633  25.880  25.879  1.00  0.00     0.005 A 
ATOM      8  C   UNL A   1      30.552  26.717  23.872  1.00  0.00    -0.014 A 
ATOM      9  C   UNL A   1      31.366  24.572  25.480  1.00  0.00     0.000 A 
ATOM     10  C   UNL A   1      30.308  25.396  23.471  1.00  0.00     0.009 A 
ATOM     11  C   UNL A   1      30.703  24.329  24.281  1.00  0.00     0.001 A 
BRANCH   8  12
ATOM     12  C   UNL A   1      29.946  27.824  23.115  1.00  0.00    -0.011 A 
ATOM     13  C   UNL A   1      30.648  28.863  22.386  1.00  0.00     0.027 A 
ATOM     14  C   UNL A   1      28.614  27.899  23.253  1.00  0.00     0.080 A 
ATOM     15  C   UNL A   1      29.969  29.898  21.862  1.00  0.00     0.095 A 
ATOM     16  C   UNL A   1      27.923  29.131  22.850  1.00  0.00     0.255 A 
ATOM     17  N   UNL A   1      28.611  30.023  22.075  1.00  0.00    -0.258 N 
ATOM     18  O   UNL A   1      26.800  29.317  23.282  1.00  0.00    -0.269 OA
BRANCH  17  19
ATOM     19  C   UNL A   1      27.821  31.080  21.502  1.00  0.00     0.451 C 
ATOM     20  F   UNL A   1      27.654  32.074  22.412  1.00  0.00    -0.185 F 
ATOM     21  F   UNL A   1      28.407  31.620  20.405  1.00  0.00    -0.185 F 
ENDBRANCH  17  19
ENDBRANCH   8  12
ENDBRANCH   5   6
ENDBRANCH   3   5
ENDBRANCH   2   3
ENDBRANCH   1   2
BRANCH   1  22
ATOM     22  C   UNL A   1      34.551  30.760  27.806  1.00  0.00     0.275 C 
BRANCH  22  23
ATOM     23  O   UNL A   1      35.303  29.884  28.671  1.00  0.00    -0.458 OA
BRANCH  23  24
ATOM     24  C   UNL A   1      36.133  30.508  29.554  1.00  0.00     0.338 C 
ATOM     25  O   UNL A   1      35.796  31.297  30.412  1.00  0.00    -0.246 OA
BRANCH  24  26
ATOM     26  C   UNL A   1      37.538  30.039  29.393  1.00  0.00     0.060 A 
ATOM     27  C   UNL A   1      38.049  29.971  28.094  1.00  0.00     0.016 A 
ATOM     28  C   UNL A   1      38.350  29.652  30.467  1.00  0.00     0.016 A 
ATOM     29  C   UNL A   1      39.370  29.559  27.877  1.00  0.00     0.010 A 
ATOM     30  C   UNL A   1      39.670  29.213  30.241  1.00  0.00     0.010 A 
ATOM     31  C   UNL A   1      40.207  29.178  28.945  1.00  0.00    -0.014 A 
BRANCH  31  32
ATOM     32  C   UNL A   1      41.620  28.754  28.655  1.00  0.00     0.031 A 
ATOM     33  C   UNL A   1      41.888  27.349  28.189  1.00  0.00     0.074 A 
ATOM     34  C   UNL A   1      42.657  29.622  28.691  1.00  0.00     0.049 A 
ATOM     35  N   UNL A   1      42.999  26.820  27.737  1.00  0.00    -0.248 NA
ATOM     36  C   UNL A   1      40.763  26.404  28.266  1.00  0.00     0.031 C 
ATOM     37  C   UNL A   1      42.577  31.015  29.117  1.00  0.00     0.029 A 
ATOM     38  N   UNL A   1      43.966  29.490  28.275  1.00  0.00    -0.354 N 
ATOM     39  C   UNL A   1      42.710  25.488  27.488  1.00  0.00     0.074 A 
ATOM     40  C   UNL A   1      41.311  25.291  27.801  1.00  0.00     0.031 C 
ATOM     41  C   UNL A   1      43.705  31.652  28.769  1.00  0.00     0.029 A 
ATOM     42  C   UNL A   1      44.658  30.684  28.243  1.00  0.00     0.049 A 
ATOM     43  H   UNL A   1      44.369  28.627  28.026  1.00  0.00     0.167 HD
ATOM     44  C   UNL A   1      43.543  24.500  27.087  1.00  0.00     0.037 A 
ATOM     45  C   UNL A   1      45.917  30.975  27.854  1.00  0.00     0.037 A 
ATOM     46  C   UNL A   1      44.952  24.653  26.845  1.00  0.00     0.049 A 
ATOM     47  C   UNL A   1      46.833  29.847  27.466  1.00  0.00     0.074 A 
ATOM     48  C   UNL A   1      45.876  23.681  26.502  1.00  0.00     0.029 A 
ATOM     49  N   UNL A   1      45.646  25.846  26.949  1.00  0.00    -0.354 N 
ATOM     50  N   UNL A   1      46.548  28.589  27.237  1.00  0.00    -0.248 NA
ATOM     51  C   UNL A   1      48.266  30.166  27.355  1.00  0.00     0.031 C 
ATOM     52  C   UNL A   1      47.141  24.277  26.451  1.00  0.00     0.029 A 
ATOM     53  C   UNL A   1      46.996  25.628  26.723  1.00  0.00     0.049 A 
ATOM     54  H   UNL A   1      45.241  26.721  27.153  1.00  0.00     0.167 HD
ATOM     55  C   UNL A   1      47.762  27.964  26.991  1.00  0.00     0.074 A 
ATOM     56  C   UNL A   1      48.783  28.988  27.035  1.00  0.00     0.031 C 
ATOM     57  C   UNL A   1      48.009  26.648  26.784  1.00  0.00     0.037 A 
BRANCH  44  58
ATOM     58  C   UNL A   1      42.954  23.128  26.996  1.00  0.00     0.057 A 
ATOM     59  C   UNL A   1      42.740  22.338  28.130  1.00  0.00     0.134 A 
ATOM     60  C   UNL A   1      42.610  22.594  25.749  1.00  0.00     0.134 A 
ATOM     61  F   UNL A   1      43.073  22.789  29.349  1.00  0.00    -0.206 F 
ATOM     62  C   UNL A   1      42.212  21.050  28.023  1.00  0.00     0.040 A 
ATOM     63  C   UNL A   1      42.069  21.315  25.632  1.00  0.00     0.040 A 
ATOM     64  F   UNL A   1      42.804  23.305  24.628  1.00  0.00    -0.206 F 
ATOM     65  C   UNL A   1      41.872  20.537  26.771  1.00  0.00     0.006 A 
ENDBRANCH  44  58
BRANCH  45  66
ATOM     66  C   UNL A   1      46.438  32.374  27.896  1.00  0.00     0.057 A 
ATOM     67  C   UNL A   1      47.121  32.863  29.019  1.00  0.00     0.134 A 
ATOM     68  C   UNL A   1      46.220  33.275  26.846  1.00  0.00     0.134 A 
ATOM     69  F   UNL A   1      47.326  32.075  30.085  1.00  0.00    -0.206 F 
ATOM     70  C   UNL A   1      47.561  34.189  29.093  1.00  0.00     0.040 A 
ATOM     71  C   UNL A   1      46.688  34.589  26.890  1.00  0.00     0.040 A 
ATOM     72  F   UNL A   1      45.547  32.892  25.750  1.00  0.00    -0.206 F 
ATOM     73  C   UNL A   1      47.354  35.053  28.020  1.00  0.00     0.006 A 
ENDBRANCH  45  66
BRANCH  57  74
ATOM     74  C   UNL A   1      49.441  26.237  26.625  1.00  0.00     0.057 A 
ATOM     75  C   UNL A   1      50.051  26.198  25.364  1.00  0.00     0.134 A 
ATOM     76  C   UNL A   1      50.231  25.918  27.735  1.00  0.00     0.134 A 
ATOM     77  F   UNL A   1      49.343  26.480  24.259  1.00  0.00    -0.206 F 
ATOM     78  C   UNL A   1      51.391  25.842  25.211  1.00  0.00     0.040 A 
ATOM     79  C   UNL A   1      51.579  25.581  27.597  1.00  0.00     0.040 A 
ATOM     80  F   UNL A   1      49.711  25.943  28.972  1.00  0.00    -0.206 F 
ATOM     81  C   UNL A   1      52.161  25.538  26.332  1.00  0.00     0.006 A 
ENDBRANCH  57  74
ENDBRANCH  31  32
ENDBRANCH  24  26
ENDBRANCH  23  24
ENDBRANCH  22  23
ENDBRANCH   1  22
TORSDOF 14
ENDMDL
MODEL 3
REMARK VINA RESULT:     -11.7      4.217      8.194
REMARK SMILES O=C(Cc1ccccc1-c1ccn(C(F)F)c(=O)c1)OCCOC(=O)c1ccc(-c2c3nc(c(-c4c(F)cccc4F)c4ccc([nH]4)c(-c4c(F)cccc4F)c4nc(c(-c5c(F)cccc5F)c5ccc2[nH]5)C=C4)C=C3)cc1
REMARK SMILES IDX 21 1 20 2 2 3 1 4 3 5 4 6 5 7 9 8 6 9 8 10 7 11 10 12 11 13
REMARK SMILES IDX 19 14 12 15 17 16 13 17 18 18 14 19 15 20 16 21 22 22 23 23
REMARK SMILES IDX 24 24 25 25 26 26 27 27 79 28 28 29 78 30 29 31 30 32 31 33
REMARK SMILES IDX 72 34 32 35 77 36 71 37 73 38 33 39 76 40 70 41 69 42 34 44
REMARK SMILES IDX 60 45 43 46 59 47 44 48 47 49 58 50 74 51 45 52 46 53 57 55
REMARK SMILES IDX 75 56 48 57 35 58 36 59 41 60 37 61 38 62 40 63 42 64 39 65
REMARK SMILES IDX 61 66 62 67 67 68 63 69 64 70 66 71 68 72 65 73 49 74 50 75
REMARK SMILES IDX 55 76 51 77 52 78 54 79 56 80 53 81
REMARK H PARENT 73 43 47 54
REMARK Flexibility Score: inf
ROOT
ATOM      1  C   UNL A   1      37.811  22.097  25.383  1.00  0.00     0.274 C 
ENDROOT
BRANCH   1   2
ATOM      2  O   UNL A   1      36.976  23.178  24.927  1.00  0.00    -0.462 OA
BRANCH   2   3
ATOM      3  C   UNL A   1      35.725  23.394  25.407  1.00  0.00     0.310 C 
ATOM      4  O   UNL A   1      35.426  23.017  26.539  1.00  0.00    -0.252 OA
BRANCH   3   5
ATOM      5  C   UNL A   1      34.704  23.985  24.462  1.00  0.00     0.158 C 
BRANCH   5   6
ATOM      6  C   UNL A   1      33.360  24.291  25.096  1.00  0.00    -0.029 A 
ATOM      7  C   UNL A   1      33.163  25.560  25.667  1.00  0.00     0.005 A 
ATOM      8  C   UNL A   1      32.276  23.381  25.062  1.00  0.00    -0.014 A 
ATOM      9  C   UNL A   1      31.912  25.937  26.152  1.00  0.00     0.000 A 
ATOM     10  C   UNL A   1      31.029  23.765  25.572  1.00  0.00     0.009 A 
ATOM     11  C   UNL A   1      30.846  25.044  26.103  1.00  0.00     0.001 A 
BRANCH   8  12
ATOM     12  C   UNL A   1      32.394  22.117  24.319  1.00  0.00    -0.011 A 
ATOM     13  C   UNL A   1      32.144  21.915  22.904  1.00  0.00     0.027 A 
ATOM     14  C   UNL A   1      32.637  21.057  25.104  1.00  0.00     0.080 A 
ATOM     15  C   UNL A   1      32.147  20.674  22.388  1.00  0.00     0.095 A 
ATOM     16  C   UNL A   1      32.438  19.706  24.563  1.00  0.00     0.255 A 
ATOM     17  N   UNL A   1      32.312  19.576  23.207  1.00  0.00    -0.258 N 
ATOM     18  O   UNL A   1      32.332  18.789  25.356  1.00  0.00    -0.269 OA
BRANCH  17  19
ATOM     19  C   UNL A   1      32.373  18.228  22.709  1.00  0.00     0.451 C 
ATOM     20  F   UNL A   1      32.077  18.213  21.384  1.00  0.00    -0.185 F 
ATOM     21  F   UNL A   1      33.603  17.679  22.863  1.00  0.00    -0.185 F 
ENDBRANCH  17  19
ENDBRANCH   8  12
ENDBRANCH   5   6
ENDBRANCH   3   5
ENDBRANCH   2   3
ENDBRANCH   1   2
BRANCH   1  22
ATOM     22  C   UNL A   1      38.989  22.591  26.225  1.00  0.00     0.275 C 
BRANCH  22  23
ATOM     23  O   UNL A   1      39.118  24.027  26.205  1.00  0.00    -0.458 OA
BRANCH  23  24
ATOM     24  C   UNL A   1      40.354  24.507  26.519  1.00  0.00     0.338 C 
ATOM     25  O   UNL A   1      41.392  24.222  25.957  1.00  0.00    -0.246 OA
BRANCH  24  26
ATOM     26  C   UNL A   1      40.278  25.513  27.616  1.00  0.00     0.060 A 
ATOM     27  C   UNL A   1      41.269  26.498  27.655  1.00  0.00     0.016 A 
ATOM     28  C   UNL A   1      39.285  25.503  28.604  1.00  0.00     0.016 A 
ATOM     29  C   UNL A   1      41.241  27.485  28.648  1.00  0.00     0.010 A 
ATOM     30  C   UNL A   1      39.277  26.483  29.616  1.00  0.00     0.010 A 
ATOM     31  C   UNL A   1      40.243  27.500  29.643  1.00  0.00    -0.014 A 
BRANCH  31  32
ATOM     32  C   UNL A   1      40.256  28.590  30.679  1.00  0.00     0.031 A 
ATOM     33  C   UNL A   1      39.211  29.672  30.626  1.00  0.00     0.074 A 
ATOM     34  C   UNL A   1      41.108  28.579  31.730  1.00  0.00     0.049 A 
ATOM     35  N   UNL A   1      38.942  30.611  31.499  1.00  0.00    -0.248 NA
ATOM     36  C   UNL A   1      38.374  29.718  29.417  1.00  0.00     0.031 C 
ATOM     37  C   UNL A   1      42.178  27.609  31.938  1.00  0.00     0.029 A 
ATOM     38  N   UNL A   1      41.152  29.353  32.872  1.00  0.00    -0.354 N 
ATOM     39  C   UNL A   1      37.918  31.362  30.943  1.00  0.00     0.074 A 
ATOM     40  C   UNL A   1      37.585  30.750  29.674  1.00  0.00     0.031 C 
ATOM     41  C   UNL A   1      42.639  27.718  33.193  1.00  0.00     0.029 A 
ATOM     42  C   UNL A   1      42.018  28.871  33.832  1.00  0.00     0.049 A 
ATOM     43  H   UNL A   1      40.617  30.171  32.990  1.00  0.00     0.167 HD
ATOM     44  C   UNL A   1      37.342  32.491  31.415  1.00  0.00     0.037 A 
ATOM     45  C   UNL A   1      42.300  29.306  35.078  1.00  0.00     0.037 A 
ATOM     46  C   UNL A   1      37.709  33.162  32.632  1.00  0.00     0.049 A 
ATOM     47  C   UNL A   1      41.683  30.593  35.551  1.00  0.00     0.074 A 
ATOM     48  C   UNL A   1      37.216  34.349  33.143  1.00  0.00     0.029 A 
ATOM     49  N   UNL A   1      38.680  32.719  33.515  1.00  0.00    -0.354 N 
ATOM     50  N   UNL A   1      40.717  31.297  35.013  1.00  0.00    -0.248 NA
ATOM     51  C   UNL A   1      42.250  31.191  36.772  1.00  0.00     0.031 C 
ATOM     52  C   UNL A   1      37.927  34.655  34.309  1.00  0.00     0.029 A 
ATOM     53  C   UNL A   1      38.834  33.634  34.544  1.00  0.00     0.049 A 
ATOM     54  H   UNL A   1      39.186  31.878  33.426  1.00  0.00     0.167 HD
ATOM     55  C   UNL A   1      40.586  32.429  35.805  1.00  0.00     0.074 A 
ATOM     56  C   UNL A   1      41.526  32.293  36.898  1.00  0.00     0.031 C 
ATOM     57  C   UNL A   1      39.781  33.503  35.618  1.00  0.00     0.037 A 
BRANCH  44  58
ATOM     58  C   UNL A   1      36.318  33.134  30.534  1.00  0.00     0.057 A 
ATOM     59  C   UNL A   1      34.947  33.008  30.780  1.00  0.00     0.134 A 
ATOM     60  C   UNL A   1      36.718  33.879  29.420  1.00  0.00     0.134 A 
ATOM     61  F   UNL A   1      34.504  32.285  31.820  1.00  0.00    -0.206 F 
ATOM     62  C   UNL A   1      34.004  33.594  29.933  1.00  0.00     0.040 A 
ATOM     63  C   UNL A   1      35.787  34.482  28.576  1.00  0.00     0.040 A 
ATOM     64  F   UNL A   1      38.021  34.025  29.132  1.00  0.00    -0.206 F 
ATOM     65  C   UNL A   1      34.425  34.336  28.829  1.00  0.00     0.006 A 
ENDBRANCH  44  58
BRANCH  45  66
ATOM     66  C   UNL A   1      43.279  28.589  35.947  1.00  0.00     0.057 A 
ATOM     67  C   UNL A   1      44.637  28.940  35.960  1.00  0.00     0.134 A 
ATOM     68  C   UNL A   1      42.900  27.500  36.743  1.00  0.00     0.134 A 
ATOM     69  F   UNL A   1      45.084  29.941  35.187  1.00  0.00    -0.206 F 
ATOM     70  C   UNL A   1      45.572  28.237  36.725  1.00  0.00     0.040 A 
ATOM     71  C   UNL A   1      43.817  26.814  37.542  1.00  0.00     0.040 A 
ATOM     72  F   UNL A   1      41.626  27.082  36.762  1.00  0.00    -0.206 F 
ATOM     73  C   UNL A   1      45.160  27.176  37.528  1.00  0.00     0.006 A 
ENDBRANCH  45  66
BRANCH  57  74
ATOM     74  C   UNL A   1      39.908  34.631  36.597  1.00  0.00     0.057 A 
ATOM     75  C   UNL A   1      39.100  34.696  37.740  1.00  0.00     0.134 A 
ATOM     76  C   UNL A   1      40.866  35.636  36.424  1.00  0.00     0.134 A 
ATOM     77  F   UNL A   1      38.153  33.769  37.956  1.00  0.00    -0.206 F 
ATOM     78  C   UNL A   1      39.230  35.729  38.669  1.00  0.00     0.040 A 
ATOM     79  C   UNL A   1      41.020  36.664  37.357  1.00  0.00     0.040 A 
ATOM     80  F   UNL A   1      41.676  35.629  35.354  1.00  0.00    -0.206 F 
ATOM     81  C   UNL A   1      40.198  36.713  38.480  1.00  0.00     0.006 A 
ENDBRANCH  57  74
ENDBRANCH  31  32
ENDBRANCH  24  26
ENDBRANCH  23  24
ENDBRANCH  22  23
ENDBRANCH   1  22
TORSDOF 14
ENDMDL
