MODEL 1
REMARK VINA RESULT:     -11.4      0.000      0.000
REMARK SMILES O=C(OCCOC(=O)[C@@H](F)[C@H]1CCCc2cccnc21)c1ccc(-c2c3nc(c(-c4c(F)cccc4F)c4ccc([nH]4)c(-c4c(F)cccc4F)c4nc(c(-c5c(F)cccc5F)c5ccc2[nH]5)C=C4)C=C3)cc1
REMARK SMILES IDX 4 1 3 2 2 3 1 4 21 5 22 6 74 7 23 8 73 9 24 10 25 11 26 12
REMARK SMILES IDX 67 13 27 14 72 15 66 16 68 17 28 18 71 19 65 20 64 21 29 23
REMARK SMILES IDX 55 24 38 25 54 26 39 27 42 28 53 29 69 30 40 31 41 32 52 34
REMARK SMILES IDX 70 35 43 36 30 37 31 38 36 39 32 40 33 41 35 42 37 43 34 44
REMARK SMILES IDX 56 45 57 46 62 47 58 48 59 49 61 50 63 51 60 52 44 53 45 54
REMARK SMILES IDX 50 55 46 56 47 57 49 58 51 59 48 60 5 61 6 62 7 63 8 64 9 65
REMARK SMILES IDX 10 66 11 67 12 68 20 69 13 70 15 71 19 72 14 73 16 74 18 75
REMARK SMILES IDX 17 76
REMARK H PARENT 68 22 42 33
REMARK Flexibility Score: inf
ROOT
ATOM      1  C   UNL A   1      33.555  30.381  27.364  1.00  0.00     0.275 C 
ENDROOT
BRANCH   1   2
ATOM      2  O   UNL A   1      34.677  29.734  27.994  1.00  0.00    -0.458 OA
BRANCH   2   3
ATOM      3  C   UNL A   1      35.758  30.226  28.644  1.00  0.00     0.338 C 
ATOM      4  O   UNL A   1      35.591  31.194  29.386  1.00  0.00    -0.246 OA
BRANCH   3   5
ATOM      5  C   UNL A   1      37.170  29.741  28.467  1.00  0.00     0.060 A 
ATOM      6  C   UNL A   1      37.894  29.726  27.277  1.00  0.00     0.016 A 
ATOM      7  C   UNL A   1      37.817  29.245  29.622  1.00  0.00     0.016 A 
ATOM      8  C   UNL A   1      39.239  29.326  27.260  1.00  0.00     0.010 A 
ATOM      9  C   UNL A   1      39.159  28.829  29.608  1.00  0.00     0.010 A 
ATOM     10  C   UNL A   1      39.894  28.900  28.428  1.00  0.00    -0.014 A 
BRANCH  10  11
ATOM     11  C   UNL A   1      41.322  28.491  28.322  1.00  0.00     0.031 A 
ATOM     12  C   UNL A   1      41.617  27.100  27.851  1.00  0.00     0.074 A 
ATOM     13  C   UNL A   1      42.330  29.369  28.503  1.00  0.00     0.049 A 
ATOM     14  N   UNL A   1      42.758  26.570  27.500  1.00  0.00    -0.248 NA
ATOM     15  C   UNL A   1      40.472  26.177  27.788  1.00  0.00     0.031 C 
ATOM     16  C   UNL A   1      42.184  30.727  29.013  1.00  0.00     0.029 A 
ATOM     17  N   UNL A   1      43.670  29.285  28.194  1.00  0.00    -0.354 N 
ATOM     18  C   UNL A   1      42.481  25.237  27.242  1.00  0.00     0.074 A 
ATOM     19  C   UNL A   1      41.053  25.056  27.392  1.00  0.00     0.031 C 
ATOM     20  C   UNL A   1      43.328  31.403  28.810  1.00  0.00     0.029 A 
ATOM     21  C   UNL A   1      44.329  30.497  28.260  1.00  0.00     0.049 A 
ATOM     22  H   UNL A   1      44.116  28.441  27.951  1.00  0.00     0.167 HD
ATOM     23  C   UNL A   1      43.354  24.237  26.986  1.00  0.00     0.037 A 
ATOM     24  C   UNL A   1      45.592  30.829  27.910  1.00  0.00     0.037 A 
ATOM     25  C   UNL A   1      44.777  24.413  26.903  1.00  0.00     0.049 A 
ATOM     26  C   UNL A   1      46.530  29.707  27.533  1.00  0.00     0.074 A 
ATOM     27  C   UNL A   1      45.757  23.453  26.736  1.00  0.00     0.029 A 
ATOM     28  N   UNL A   1      45.424  25.637  27.004  1.00  0.00    -0.354 N 
ATOM     29  N   UNL A   1      46.261  28.444  27.304  1.00  0.00    -0.248 NA
ATOM     30  C   UNL A   1      47.961  30.041  27.450  1.00  0.00     0.031 C 
ATOM     31  C   UNL A   1      47.001  24.089  26.784  1.00  0.00     0.029 A 
ATOM     32  C   UNL A   1      46.793  25.452  26.925  1.00  0.00     0.049 A 
ATOM     33  H   UNL A   1      44.975  26.505  27.114  1.00  0.00     0.167 HD
ATOM     34  C   UNL A   1      47.490  27.825  27.116  1.00  0.00     0.074 A 
ATOM     35  C   UNL A   1      48.497  28.865  27.157  1.00  0.00     0.031 C 
ATOM     36  C   UNL A   1      47.770  26.507  26.984  1.00  0.00     0.037 A 
BRANCH  23  37
ATOM     37  C   UNL A   1      42.790  22.853  26.932  1.00  0.00     0.057 A 
ATOM     38  C   UNL A   1      42.407  22.151  28.080  1.00  0.00     0.134 A 
ATOM     39  C   UNL A   1      42.662  22.204  25.697  1.00  0.00     0.134 A 
ATOM     40  F   UNL A   1      42.541  22.707  29.293  1.00  0.00    -0.206 F 
ATOM     41  C   UNL A   1      41.928  20.843  28.001  1.00  0.00     0.040 A 
ATOM     42  C   UNL A   1      42.168  20.905  25.604  1.00  0.00     0.040 A 
ATOM     43  F   UNL A   1      43.030  22.821  24.563  1.00  0.00    -0.206 F 
ATOM     44  C   UNL A   1      41.804  20.218  26.760  1.00  0.00     0.006 A 
ENDBRANCH  23  37
BRANCH  24  45
ATOM     45  C   UNL A   1      46.101  32.234  27.956  1.00  0.00     0.057 A 
ATOM     46  C   UNL A   1      46.681  32.755  29.125  1.00  0.00     0.134 A 
ATOM     47  C   UNL A   1      45.944  33.125  26.887  1.00  0.00     0.134 A 
ATOM     48  F   UNL A   1      46.833  31.976  30.206  1.00  0.00    -0.206 F 
ATOM     49  C   UNL A   1      47.052  34.099  29.237  1.00  0.00     0.040 A 
ATOM     50  C   UNL A   1      46.352  34.460  26.967  1.00  0.00     0.040 A 
ATOM     51  F   UNL A   1      45.374  32.719  25.742  1.00  0.00    -0.206 F 
ATOM     52  C   UNL A   1      46.892  34.955  28.150  1.00  0.00     0.006 A 
ENDBRANCH  24  45
BRANCH  36  53
ATOM     53  C   UNL A   1      49.217  26.118  26.923  1.00  0.00     0.057 A 
ATOM     54  C   UNL A   1      49.891  26.019  25.698  1.00  0.00     0.134 A 
ATOM     55  C   UNL A   1      49.957  25.905  28.091  1.00  0.00     0.134 A 
ATOM     56  F   UNL A   1      49.234  26.202  24.543  1.00  0.00    -0.206 F 
ATOM     57  C   UNL A   1      51.249  25.708  25.637  1.00  0.00     0.040 A 
ATOM     58  C   UNL A   1      51.321  25.618  28.045  1.00  0.00     0.040 A 
ATOM     59  F   UNL A   1      49.371  25.995  29.294  1.00  0.00    -0.206 F 
ATOM     60  C   UNL A   1      51.969  25.516  26.815  1.00  0.00     0.006 A 
ENDBRANCH  36  53
ENDBRANCH  10  11
ENDBRANCH   3   5
ENDBRANCH   2   3
ENDBRANCH   1   2
BRANCH   1  61
ATOM     61  C   UNL A   1      32.340  29.474  27.203  1.00  0.00     0.274 C 
BRANCH  61  62
ATOM     62  O   UNL A   1      32.363  28.771  25.956  1.00  0.00    -0.460 OA
BRANCH  62  63
ATOM     63  C   UNL A   1      31.776  29.394  24.899  1.00  0.00     0.341 C 
ATOM     64  O   UNL A   1      31.026  30.364  24.999  1.00  0.00    -0.249 OA
BRANCH  63  65
ATOM     65  C   UNL A   1      32.193  28.774  23.576  1.00  0.00     0.284 C 
ATOM     66  F   UNL A   1      33.409  28.155  23.654  1.00  0.00    -0.234 F 
BRANCH  65  67
ATOM     67  C   UNL A   1      31.175  27.804  22.943  1.00  0.00     0.084 C 
ATOM     68  C   UNL A   1      30.944  26.492  23.704  1.00  0.00     0.014 C 
ATOM     69  C   UNL A   1      29.903  28.529  22.610  1.00  0.00     0.050 A 
ATOM     70  C   UNL A   1      29.735  26.413  24.614  1.00  0.00     0.006 C 
ATOM     71  C   UNL A   1      28.667  28.136  23.127  1.00  0.00    -0.026 A 
ATOM     72  N   UNL A   1      30.070  29.638  21.851  1.00  0.00    -0.261 NA
ATOM     73  C   UNL A   1      28.481  26.851  23.881  1.00  0.00     0.037 C 
ATOM     74  C   UNL A   1      27.571  28.959  22.870  1.00  0.00     0.007 A 
ATOM     75  C   UNL A   1      28.991  30.411  21.628  1.00  0.00     0.111 A 
ATOM     76  C   UNL A   1      27.735  30.121  22.124  1.00  0.00     0.020 A 
ENDBRANCH  65  67
ENDBRANCH  63  65
ENDBRANCH  62  63
ENDBRANCH  61  62
ENDBRANCH   1  61
TORSDOF 12
ENDMDL
MODEL 2
REMARK VINA RESULT:     -11.2      6.714     11.024
REMARK SMILES O=C(OCCOC(=O)[C@@H](F)[C@H]1CCCc2cccnc21)c1ccc(-c2c3nc(c(-c4c(F)cccc4F)c4ccc([nH]4)c(-c4c(F)cccc4F)c4nc(c(-c5c(F)cccc5F)c5ccc2[nH]5)C=C4)C=C3)cc1
REMARK SMILES IDX 4 1 3 2 2 3 1 4 21 5 22 6 74 7 23 8 73 9 24 10 25 11 26 12
REMARK SMILES IDX 67 13 27 14 72 15 66 16 68 17 28 18 71 19 65 20 64 21 29 23
REMARK SMILES IDX 55 24 38 25 54 26 39 27 42 28 53 29 69 30 40 31 41 32 52 34
REMARK SMILES IDX 70 35 43 36 30 37 31 38 36 39 32 40 33 41 35 42 37 43 34 44
REMARK SMILES IDX 56 45 57 46 62 47 58 48 59 49 61 50 63 51 60 52 44 53 45 54
REMARK SMILES IDX 50 55 46 56 47 57 49 58 51 59 48 60 5 61 6 62 7 63 8 64 9 65
REMARK SMILES IDX 10 66 11 67 12 68 20 69 13 70 15 71 19 72 14 73 16 74 18 75
REMARK SMILES IDX 17 76
REMARK H PARENT 68 22 42 33
REMARK Flexibility Score: inf
ROOT
ATOM      1  C   UNL A   1      37.840  22.753  25.794  1.00  0.00     0.275 C 
ENDROOT
BRANCH   1   2
ATOM      2  O   UNL A   1      38.653  23.942  25.807  1.00  0.00    -0.458 OA
BRANCH   2   3
ATOM      3  C   UNL A   1      39.709  24.307  26.571  1.00  0.00     0.338 C 
ATOM      4  O   UNL A   1      40.740  23.638  26.484  1.00  0.00    -0.246 OA
BRANCH   3   5
ATOM      5  C   UNL A   1      39.703  25.415  27.587  1.00  0.00     0.060 A 
ATOM      6  C   UNL A   1      38.966  25.446  28.769  1.00  0.00     0.016 A 
ATOM      7  C   UNL A   1      40.518  26.535  27.306  1.00  0.00     0.016 A 
ATOM      8  C   UNL A   1      39.112  26.504  29.679  1.00  0.00     0.010 A 
ATOM      9  C   UNL A   1      40.657  27.605  28.207  1.00  0.00     0.010 A 
ATOM     10  C   UNL A   1      39.979  27.580  29.423  1.00  0.00    -0.014 A 
BRANCH  10  11
ATOM     11  C   UNL A   1      40.073  28.662  30.440  1.00  0.00     0.031 A 
ATOM     12  C   UNL A   1      38.998  29.704  30.455  1.00  0.00     0.074 A 
ATOM     13  C   UNL A   1      41.009  28.646  31.413  1.00  0.00     0.049 A 
ATOM     14  N   UNL A   1      38.753  30.628  31.344  1.00  0.00    -0.248 NA
ATOM     15  C   UNL A   1      38.088  29.717  29.297  1.00  0.00     0.031 C 
ATOM     16  C   UNL A   1      42.138  27.727  31.480  1.00  0.00     0.029 A 
ATOM     17  N   UNL A   1      41.110  29.366  32.583  1.00  0.00    -0.354 N 
ATOM     18  C   UNL A   1      37.708  31.375  30.823  1.00  0.00     0.074 A 
ATOM     19  C   UNL A   1      37.307  30.746  29.583  1.00  0.00     0.031 C 
ATOM     20  C   UNL A   1      42.703  27.806  32.698  1.00  0.00     0.029 A 
ATOM     21  C   UNL A   1      42.049  28.862  33.462  1.00  0.00     0.049 A 
ATOM     22  H   UNL A   1      40.567  30.165  32.773  1.00  0.00     0.167 HD
ATOM     23  C   UNL A   1      37.188  32.529  31.297  1.00  0.00     0.037 A 
ATOM     24  C   UNL A   1      42.336  29.213  34.735  1.00  0.00     0.037 A 
ATOM     25  C   UNL A   1      37.637  33.181  32.496  1.00  0.00     0.049 A 
ATOM     26  C   UNL A   1      41.673  30.454  35.283  1.00  0.00     0.074 A 
ATOM     27  C   UNL A   1      37.238  34.397  33.016  1.00  0.00     0.029 A 
ATOM     28  N   UNL A   1      38.605  32.673  33.350  1.00  0.00    -0.354 N 
ATOM     29  N   UNL A   1      40.693  31.163  34.776  1.00  0.00    -0.248 NA
ATOM     30  C   UNL A   1      42.214  30.994  36.541  1.00  0.00     0.031 C 
ATOM     31  C   UNL A   1      38.000  34.650  34.161  1.00  0.00     0.029 A 
ATOM     32  C   UNL A   1      38.833  33.564  34.383  1.00  0.00     0.049 A 
ATOM     33  H   UNL A   1      39.060  31.808  33.237  1.00  0.00     0.167 HD
ATOM     34  C   UNL A   1      40.547  32.260  35.615  1.00  0.00     0.074 A 
ATOM     35  C   UNL A   1      41.467  32.073  36.717  1.00  0.00     0.031 C 
ATOM     36  C   UNL A   1      39.767  33.356  35.458  1.00  0.00     0.037 A 
BRANCH  23  37
ATOM     37  C   UNL A   1      36.187  33.219  30.426  1.00  0.00     0.057 A 
ATOM     38  C   UNL A   1      36.552  33.929  29.277  1.00  0.00     0.134 A 
ATOM     39  C   UNL A   1      34.830  33.194  30.775  1.00  0.00     0.134 A 
ATOM     40  F   UNL A   1      37.840  34.020  28.914  1.00  0.00    -0.206 F 
ATOM     41  C   UNL A   1      35.600  34.604  28.512  1.00  0.00     0.040 A 
ATOM     42  C   UNL A   1      33.868  33.847  30.008  1.00  0.00     0.040 A 
ATOM     43  F   UNL A   1      34.423  32.544  31.876  1.00  0.00    -0.206 F 
ATOM     44  C   UNL A   1      34.253  34.560  28.874  1.00  0.00     0.006 A 
ENDBRANCH  23  37
BRANCH  24  45
ATOM     45  C   UNL A   1      43.327  28.473  35.575  1.00  0.00     0.057 A 
ATOM     46  C   UNL A   1      42.910  27.480  36.478  1.00  0.00     0.134 A 
ATOM     47  C   UNL A   1      44.691  28.789  35.580  1.00  0.00     0.134 A 
ATOM     48  F   UNL A   1      41.614  27.145  36.560  1.00  0.00    -0.206 F 
ATOM     49  C   UNL A   1      43.798  26.860  37.363  1.00  0.00     0.040 A 
ATOM     50  C   UNL A   1      45.599  28.145  36.427  1.00  0.00     0.040 A 
ATOM     51  F   UNL A   1      45.171  29.744  34.769  1.00  0.00    -0.206 F 
ATOM     52  C   UNL A   1      45.151  27.189  37.334  1.00  0.00     0.006 A 
ENDBRANCH  24  45
BRANCH  36  53
ATOM     53  C   UNL A   1      39.914  34.450  36.473  1.00  0.00     0.057 A 
ATOM     54  C   UNL A   1      40.836  35.490  36.292  1.00  0.00     0.134 A 
ATOM     55  C   UNL A   1      39.090  34.502  37.602  1.00  0.00     0.134 A 
ATOM     56  F   UNL A   1      41.661  35.491  35.233  1.00  0.00    -0.206 F 
ATOM     57  C   UNL A   1      40.942  36.537  37.207  1.00  0.00     0.040 A 
ATOM     58  C   UNL A   1      39.169  35.557  38.512  1.00  0.00     0.040 A 
ATOM     59  F   UNL A   1      38.182  33.541  37.827  1.00  0.00    -0.206 F 
ATOM     60  C   UNL A   1      40.100  36.576  38.316  1.00  0.00     0.006 A 
ENDBRANCH  36  53
ENDBRANCH  10  11
ENDBRANCH   3   5
ENDBRANCH   2   3
ENDBRANCH   1   2
BRANCH   1  61
ATOM     61  C   UNL A   1      36.743  22.778  24.734  1.00  0.00     0.274 C 
BRANCH  61  62
ATOM     62  O   UNL A   1      35.444  22.595  25.309  1.00  0.00    -0.460 OA
BRANCH  62  63
ATOM     63  C   UNL A   1      35.012  21.311  25.431  1.00  0.00     0.341 C 
ATOM     64  O   UNL A   1      35.619  20.334  24.995  1.00  0.00    -0.249 OA
BRANCH  63  65
ATOM     65  C   UNL A   1      33.710  21.226  26.209  1.00  0.00     0.284 C 
ATOM     66  F   UNL A   1      33.559  22.267  27.082  1.00  0.00    -0.234 F 
BRANCH  65  67
ATOM     67  C   UNL A   1      32.431  21.095  25.358  1.00  0.00     0.084 C 
ATOM     68  C   UNL A   1      32.132  22.272  24.420  1.00  0.00     0.014 C 
ATOM     69  C   UNL A   1      32.400  19.762  24.667  1.00  0.00     0.050 A 
ATOM     70  C   UNL A   1      32.542  22.132  22.967  1.00  0.00     0.006 C 
ATOM     71  C   UNL A   1      32.311  19.648  23.278  1.00  0.00    -0.026 A 
ATOM     72  N   UNL A   1      32.561  18.698  25.488  1.00  0.00    -0.261 NA
ATOM     73  C   UNL A   1      32.032  20.825  22.389  1.00  0.00     0.037 C 
ATOM     74  C   UNL A   1      32.432  18.372  22.728  1.00  0.00     0.007 A 
ATOM     75  C   UNL A   1      32.680  17.483  24.922  1.00  0.00     0.111 A 
ATOM     76  C   UNL A   1      32.635  17.275  23.557  1.00  0.00     0.020 A 
ENDBRANCH  65  67
ENDBRANCH  63  65
ENDBRANCH  62  63
ENDBRANCH  61  62
ENDBRANCH   1  61
TORSDOF 12
ENDMDL
MODEL 3
REMARK VINA RESULT:     -11.1      4.267      7.829
REMARK SMILES O=C(OCCOC(=O)[C@@H](F)[C@H]1CCCc2cccnc21)c1ccc(-c2c3nc(c(-c4c(F)cccc4F)c4ccc([nH]4)c(-c4c(F)cccc4F)c4nc(c(-c5c(F)cccc5F)c5ccc2[nH]5)C=C4)C=C3)cc1
REMARK SMILES IDX 4 1 3 2 2 3 1 4 21 5 22 6 74 7 23 8 73 9 24 10 25 11 26 12
REMARK SMILES IDX 67 13 27 14 72 15 66 16 68 17 28 18 71 19 65 20 64 21 29 23
REMARK SMILES IDX 55 24 38 25 54 26 39 27 42 28 53 29 69 30 40 31 41 32 52 34
REMARK SMILES IDX 70 35 43 36 30 37 31 38 36 39 32 40 33 41 35 42 37 43 34 44
REMARK SMILES IDX 56 45 57 46 62 47 58 48 59 49 61 50 63 51 60 52 44 53 45 54
REMARK SMILES IDX 50 55 46 56 47 57 49 58 51 59 48 60 5 61 6 62 7 63 8 64 9 65
REMARK SMILES IDX 10 66 11 67 12 68 20 69 13 70 15 71 19 72 14 73 16 74 18 75
REMARK SMILES IDX 17 76
REMARK H PARENT 68 22 42 33
REMARK Flexibility Score: inf
ROOT
ATOM      1  C   UNL A   1      31.686  30.142  25.287  1.00  0.00     0.275 C 
ENDROOT
BRANCH   1   2
ATOM      2  O   UNL A   1      31.917  30.584  26.638  1.00  0.00    -0.458 OA
BRANCH   2   3
ATOM      3  C   UNL A   1      32.728  31.538  27.152  1.00  0.00     0.338 C 
ATOM      4  O   UNL A   1      32.350  32.708  27.092  1.00  0.00    -0.246 OA
BRANCH   3   5
ATOM      5  C   UNL A   1      34.101  31.297  27.716  1.00  0.00     0.060 A 
ATOM      6  C   UNL A   1      35.067  32.265  27.979  1.00  0.00     0.016 A 
ATOM      7  C   UNL A   1      34.443  29.953  27.993  1.00  0.00     0.016 A 
ATOM      8  C   UNL A   1      36.283  31.920  28.587  1.00  0.00     0.010 A 
ATOM      9  C   UNL A   1      35.667  29.599  28.588  1.00  0.00     0.010 A 
ATOM     10  C   UNL A   1      36.586  30.590  28.923  1.00  0.00    -0.014 A 
BRANCH  10  11
ATOM     11  C   UNL A   1      37.901  30.309  29.563  1.00  0.00     0.031 A 
ATOM     12  C   UNL A   1      38.055  30.637  31.016  1.00  0.00     0.074 A 
ATOM     13  C   UNL A   1      38.885  29.656  28.911  1.00  0.00     0.049 A 
ATOM     14  N   UNL A   1      39.020  30.321  31.837  1.00  0.00    -0.248 NA
ATOM     15  C   UNL A   1      36.984  31.449  31.618  1.00  0.00     0.031 C 
ATOM     16  C   UNL A   1      38.885  29.333  27.490  1.00  0.00     0.029 A 
ATOM     17  N   UNL A   1      40.039  29.063  29.376  1.00  0.00    -0.354 N 
ATOM     18  C   UNL A   1      38.708  30.951  33.032  1.00  0.00     0.074 A 
ATOM     19  C   UNL A   1      37.425  31.596  32.857  1.00  0.00     0.031 C 
ATOM     20  C   UNL A   1      39.870  28.454  27.234  1.00  0.00     0.029 A 
ATOM     21  C   UNL A   1      40.646  28.237  28.449  1.00  0.00     0.049 A 
ATOM     22  H   UNL A   1      40.397  29.214  30.280  1.00  0.00     0.167 HD
ATOM     23  C   UNL A   1      39.468  31.052  34.146  1.00  0.00     0.037 A 
ATOM     24  C   UNL A   1      41.701  27.402  28.577  1.00  0.00     0.037 A 
ATOM     25  C   UNL A   1      40.770  30.463  34.287  1.00  0.00     0.049 A 
ATOM     26  C   UNL A   1      42.483  27.459  29.867  1.00  0.00     0.074 A 
ATOM     27  C   UNL A   1      41.659  30.578  35.339  1.00  0.00     0.029 A 
ATOM     28  N   UNL A   1      41.378  29.662  33.331  1.00  0.00    -0.354 N 
ATOM     29  N   UNL A   1      42.188  28.070  30.990  1.00  0.00    -0.248 NA
ATOM     30  C   UNL A   1      43.789  26.779  29.881  1.00  0.00     0.031 C 
ATOM     31  C   UNL A   1      42.826  29.886  35.000  1.00  0.00     0.029 A 
ATOM     32  C   UNL A   1      42.641  29.294  33.760  1.00  0.00     0.049 A 
ATOM     33  H   UNL A   1      40.970  29.395  32.476  1.00  0.00     0.167 HD
ATOM     34  C   UNL A   1      43.294  27.903  31.813  1.00  0.00     0.074 A 
ATOM     35  C   UNL A   1      44.224  27.050  31.102  1.00  0.00     0.031 C 
ATOM     36  C   UNL A   1      43.548  28.456  33.023  1.00  0.00     0.037 A 
BRANCH  23  37
ATOM     37  C   UNL A   1      38.959  31.955  35.224  1.00  0.00     0.057 A 
ATOM     38  C   UNL A   1      39.190  33.334  35.222  1.00  0.00     0.134 A 
ATOM     39  C   UNL A   1      38.247  31.413  36.303  1.00  0.00     0.134 A 
ATOM     40  F   UNL A   1      39.897  33.904  34.234  1.00  0.00    -0.206 F 
ATOM     41  C   UNL A   1      38.744  34.144  36.267  1.00  0.00     0.040 A 
ATOM     42  C   UNL A   1      37.779  32.214  37.343  1.00  0.00     0.040 A 
ATOM     43  F   UNL A   1      38.009  30.094  36.368  1.00  0.00    -0.206 F 
ATOM     44  C   UNL A   1      38.032  33.585  37.329  1.00  0.00     0.006 A 
ENDBRANCH  23  37
BRANCH  24  45
ATOM     45  C   UNL A   1      42.155  26.498  27.477  1.00  0.00     0.057 A 
ATOM     46  C   UNL A   1      41.766  25.148  27.444  1.00  0.00     0.134 A 
ATOM     47  C   UNL A   1      43.057  26.912  26.488  1.00  0.00     0.134 A 
ATOM     48  F   UNL A   1      40.933  24.663  28.377  1.00  0.00    -0.206 F 
ATOM     49  C   UNL A   1      42.274  24.250  26.499  1.00  0.00     0.040 A 
ATOM     50  C   UNL A   1      43.538  26.037  25.509  1.00  0.00     0.040 A 
ATOM     51  F   UNL A   1      43.502  28.177  26.462  1.00  0.00    -0.206 F 
ATOM     52  C   UNL A   1      43.160  24.698  25.522  1.00  0.00     0.006 A 
ENDBRANCH  24  45
BRANCH  36  53
ATOM     53  C   UNL A   1      44.896  28.193  33.624  1.00  0.00     0.057 A 
ATOM     54  C   UNL A   1      45.976  29.055  33.390  1.00  0.00     0.134 A 
ATOM     55  C   UNL A   1      45.102  27.113  34.491  1.00  0.00     0.134 A 
ATOM     56  F   UNL A   1      45.845  30.102  32.562  1.00  0.00    -0.206 F 
ATOM     57  C   UNL A   1      47.219  28.844  33.987  1.00  0.00     0.040 A 
ATOM     58  C   UNL A   1      46.333  26.906  35.113  1.00  0.00     0.040 A 
ATOM     59  F   UNL A   1      44.105  26.258  34.761  1.00  0.00    -0.206 F 
ATOM     60  C   UNL A   1      47.396  27.771  34.859  1.00  0.00     0.006 A 
ENDBRANCH  36  53
ENDBRANCH  10  11
ENDBRANCH   3   5
ENDBRANCH   2   3
ENDBRANCH   1   2
BRANCH   1  61
ATOM     61  C   UNL A   1      32.837  29.326  24.708  1.00  0.00     0.274 C 
BRANCH  61  62
ATOM     62  O   UNL A   1      32.642  27.920  24.900  1.00  0.00    -0.460 OA
BRANCH  62  63
ATOM     63  C   UNL A   1      33.226  27.098  23.988  1.00  0.00     0.341 C 
ATOM     64  O   UNL A   1      34.018  26.201  24.275  1.00  0.00    -0.249 OA
BRANCH  63  65
ATOM     65  C   UNL A   1      32.751  27.394  22.576  1.00  0.00     0.284 C 
ATOM     66  F   UNL A   1      33.654  26.995  21.631  1.00  0.00    -0.234 F 
BRANCH  65  67
ATOM     67  C   UNL A   1      31.360  26.837  22.210  1.00  0.00     0.084 C 
ATOM     68  C   UNL A   1      30.994  25.490  22.847  1.00  0.00     0.014 C 
ATOM     69  C   UNL A   1      30.309  27.891  22.403  1.00  0.00     0.050 A 
ATOM     70  C   UNL A   1      30.129  25.517  24.092  1.00  0.00     0.006 C 
ATOM     71  C   UNL A   1      29.217  27.704  23.253  1.00  0.00    -0.026 A 
ATOM     72  N   UNL A   1      30.560  29.060  21.766  1.00  0.00    -0.261 NA
ATOM     73  C   UNL A   1      28.897  26.374  23.872  1.00  0.00     0.037 C 
ATOM     74  C   UNL A   1      28.377  28.795  23.471  1.00  0.00     0.007 A 
ATOM     75  C   UNL A   1      29.731  30.092  22.004  1.00  0.00     0.111 A 
ATOM     76  C   UNL A   1      28.644  30.011  22.852  1.00  0.00     0.020 A 
ENDBRANCH  65  67
ENDBRANCH  63  65
ENDBRANCH  62  63
ENDBRANCH  61  62
ENDBRANCH   1  61
TORSDOF 12
ENDMDL
