MODEL 1
REMARK VINA RESULT:     -11.6      0.000      0.000
REMARK SMILES C[C@H]1[C@@H](C(=O)OCCOC(=O)c2ccc(-c3c4nc(c(-c5c(F)cccc5F)c5ccc([nH]5)c(-c5c(F)cccc5F)c5nc(c(-c6c(F)cccc6F)c6ccc3[nH]6)C=C5)C=C4)cc2)CC[N@@H+]1Cc1cc(F)c(F)c(F)c1
REMARK SMILES IDX 7 1 6 2 4 3 5 4 3 5 1 6 2 7 68 8 66 9 67 10 69 12 70 13
REMARK SMILES IDX 71 14 78 15 72 16 76 17 73 18 74 19 77 20 75 21 8 22 9 23
REMARK SMILES IDX 10 24 11 25 12 26 13 27 65 28 14 29 64 30 15 31 16 32 17 33
REMARK SMILES IDX 58 34 18 35 63 36 57 37 59 38 19 39 62 40 56 41 55 42 20 44
REMARK SMILES IDX 46 45 29 46 45 47 30 48 33 49 44 50 60 51 31 52 32 53 43 55
REMARK SMILES IDX 61 56 34 57 21 58 22 59 27 60 23 61 24 62 26 63 28 64 25 65
REMARK SMILES IDX 47 66 48 67 53 68 49 69 50 70 52 71 54 72 51 73 35 74 36 75
REMARK SMILES IDX 41 76 37 77 38 78 40 79 42 80 39 81
REMARK H PARENT 68 11 59 43 33 54
REMARK Flexibility Score: inf
ROOT
ATOM      1  C   UNL A   1      31.776  28.272  24.523  1.00  0.00     0.274 C 
ENDROOT
BRANCH   1   2
ATOM      2  O   UNL A   1      30.710  27.344  24.810  1.00  0.00    -0.462 OA
BRANCH   2   3
ATOM      3  C   UNL A   1      31.011  26.263  25.572  1.00  0.00     0.315 C 
ATOM      4  O   UNL A   1      30.284  25.793  26.439  1.00  0.00    -0.252 OA
BRANCH   3   5
ATOM      5  C   UNL A   1      32.326  25.623  25.175  1.00  0.00     0.162 C 
ATOM      6  C   UNL A   1      31.040  24.003  23.586  1.00  0.00     0.076 C 
ATOM      7  C   UNL A   1      32.350  24.707  23.946  1.00  0.00     0.195 C 
ATOM      8  N   UNL A   1      33.339  23.665  24.270  1.00  0.00    -0.328 N 
ATOM      9  C   UNL A   1      32.942  24.815  26.313  1.00  0.00     0.083 C 
ATOM     10  C   UNL A   1      33.324  23.477  25.715  1.00  0.00     0.263 C 
ATOM     11  H   UNL A   1      33.047  22.803  23.810  1.00  0.00     0.348 HD
BRANCH   8  12
ATOM     12  C   UNL A   1      34.660  23.782  23.655  1.00  0.00     0.299 C 
BRANCH  12  13
ATOM     13  C   UNL A   1      35.850  23.228  24.408  1.00  0.00     0.012 A 
ATOM     14  C   UNL A   1      36.609  24.063  25.244  1.00  0.00     0.052 A 
ATOM     15  C   UNL A   1      36.256  21.892  24.252  1.00  0.00     0.052 A 
ATOM     16  C   UNL A   1      37.735  23.570  25.902  1.00  0.00     0.162 A 
ATOM     17  C   UNL A   1      37.377  21.411  24.930  1.00  0.00     0.162 A 
ATOM     18  F   UNL A   1      38.451  24.396  26.678  1.00  0.00    -0.204 F 
ATOM     19  C   UNL A   1      38.121  22.247  25.751  1.00  0.00     0.194 A 
ATOM     20  F   UNL A   1      37.734  20.130  24.773  1.00  0.00    -0.204 F 
ATOM     21  F   UNL A   1      39.206  21.782  26.385  1.00  0.00    -0.200 F 
ENDBRANCH  12  13
ENDBRANCH   8  12
ENDBRANCH   3   5
ENDBRANCH   2   3
ENDBRANCH   1   2
BRANCH   1  22
ATOM     22  C   UNL A   1      31.652  29.462  25.467  1.00  0.00     0.275 C 
BRANCH  22  23
ATOM     23  O   UNL A   1      32.975  29.847  25.884  1.00  0.00    -0.458 OA
BRANCH  23  24
ATOM     24  C   UNL A   1      33.040  30.895  26.737  1.00  0.00     0.338 C 
ATOM     25  O   UNL A   1      32.236  31.799  26.870  1.00  0.00    -0.246 OA
BRANCH  24  26
ATOM     26  C   UNL A   1      34.277  30.800  27.533  1.00  0.00     0.060 A 
ATOM     27  C   UNL A   1      35.059  31.932  27.788  1.00  0.00     0.016 A 
ATOM     28  C   UNL A   1      34.708  29.538  27.937  1.00  0.00     0.016 A 
ATOM     29  C   UNL A   1      36.307  31.789  28.396  1.00  0.00     0.010 A 
ATOM     30  C   UNL A   1      35.912  29.413  28.628  1.00  0.00     0.010 A 
ATOM     31  C   UNL A   1      36.734  30.532  28.849  1.00  0.00    -0.014 A 
BRANCH  31  32
ATOM     32  C   UNL A   1      38.021  30.347  29.571  1.00  0.00     0.031 A 
ATOM     33  C   UNL A   1      39.091  29.471  28.982  1.00  0.00     0.074 A 
ATOM     34  C   UNL A   1      38.197  30.884  30.794  1.00  0.00     0.049 A 
ATOM     35  N   UNL A   1      40.111  28.900  29.569  1.00  0.00    -0.248 NA
ATOM     36  C   UNL A   1      38.984  29.181  27.543  1.00  0.00     0.031 C 
ATOM     37  C   UNL A   1      37.269  31.791  31.468  1.00  0.00     0.029 A 
ATOM     38  N   UNL A   1      39.213  30.714  31.701  1.00  0.00    -0.354 N 
ATOM     39  C   UNL A   1      40.729  28.133  28.590  1.00  0.00     0.074 A 
ATOM     40  C   UNL A   1      39.980  28.323  27.365  1.00  0.00     0.031 C 
ATOM     41  C   UNL A   1      37.756  32.099  32.679  1.00  0.00     0.029 A 
ATOM     42  C   UNL A   1      38.980  31.338  32.901  1.00  0.00     0.049 A 
ATOM     43  H   UNL A   1      40.029  30.195  31.510  1.00  0.00     0.167 HD
ATOM     44  C   UNL A   1      41.816  27.332  28.712  1.00  0.00     0.037 A 
ATOM     45  C   UNL A   1      39.634  31.259  34.075  1.00  0.00     0.037 A 
ATOM     46  C   UNL A   1      42.585  27.190  29.921  1.00  0.00     0.049 A 
ATOM     47  C   UNL A   1      40.818  30.346  34.197  1.00  0.00     0.074 A 
ATOM     48  C   UNL A   1      43.709  26.415  30.143  1.00  0.00     0.029 A 
ATOM     49  N   UNL A   1      42.314  27.855  31.107  1.00  0.00    -0.354 N 
ATOM     50  N   UNL A   1      41.353  29.565  33.292  1.00  0.00    -0.248 NA
ATOM     51  C   UNL A   1      41.474  30.284  35.511  1.00  0.00     0.031 C 
ATOM     52  C   UNL A   1      44.108  26.594  31.472  1.00  0.00     0.029 A 
ATOM     53  C   UNL A   1      43.249  27.505  32.066  1.00  0.00     0.049 A 
ATOM     54  H   UNL A   1      41.569  28.482  31.246  1.00  0.00     0.167 HD
ATOM     55  C   UNL A   1      42.414  28.928  33.919  1.00  0.00     0.074 A 
ATOM     56  C   UNL A   1      42.453  29.419  35.281  1.00  0.00     0.031 C 
ATOM     57  C   UNL A   1      43.276  28.015  33.411  1.00  0.00     0.037 A 
BRANCH  44  58
ATOM     58  C   UNL A   1      42.221  26.521  27.518  1.00  0.00     0.057 A 
ATOM     59  C   UNL A   1      43.114  27.006  26.556  1.00  0.00     0.134 A 
ATOM     60  C   UNL A   1      41.745  25.213  27.358  1.00  0.00     0.134 A 
ATOM     61  F   UNL A   1      43.595  28.255  26.644  1.00  0.00    -0.206 F 
ATOM     62  C   UNL A   1      43.510  26.224  25.469  1.00  0.00     0.040 A 
ATOM     63  C   UNL A   1      42.148  24.414  26.287  1.00  0.00     0.040 A 
ATOM     64  F   UNL A   1      40.890  24.687  28.248  1.00  0.00    -0.206 F 
ATOM     65  C   UNL A   1      43.031  24.921  25.336  1.00  0.00     0.006 A 
ENDBRANCH  44  58
BRANCH  45  66
ATOM     66  C   UNL A   1      39.138  32.030  35.240  1.00  0.00     0.057 A 
ATOM     67  C   UNL A   1      39.465  33.380  35.400  1.00  0.00     0.134 A 
ATOM     68  C   UNL A   1      38.298  31.447  36.197  1.00  0.00     0.134 A 
ATOM     69  F   UNL A   1      40.282  33.985  34.527  1.00  0.00    -0.206 F 
ATOM     70  C   UNL A   1      38.972  34.126  36.473  1.00  0.00     0.040 A 
ATOM     71  C   UNL A   1      37.780  32.186  37.260  1.00  0.00     0.040 A 
ATOM     72  F   UNL A   1      37.947  30.157  36.093  1.00  0.00    -0.206 F 
ATOM     73  C   UNL A   1      38.120  33.531  37.401  1.00  0.00     0.006 A 
ENDBRANCH  45  66
BRANCH  57  74
ATOM     74  C   UNL A   1      44.357  27.520  34.322  1.00  0.00     0.057 A 
ATOM     75  C   UNL A   1      45.572  28.198  34.456  1.00  0.00     0.134 A 
ATOM     76  C   UNL A   1      44.156  26.376  35.104  1.00  0.00     0.134 A 
ATOM     77  F   UNL A   1      45.826  29.292  33.721  1.00  0.00    -0.206 F 
ATOM     78  C   UNL A   1      46.560  27.750  35.335  1.00  0.00     0.040 A 
ATOM     79  C   UNL A   1      45.128  25.928  35.998  1.00  0.00     0.040 A 
ATOM     80  F   UNL A   1      43.008  25.687  35.021  1.00  0.00    -0.206 F 
ATOM     81  C   UNL A   1      46.335  26.616  36.113  1.00  0.00     0.006 A 
ENDBRANCH  57  74
ENDBRANCH  31  32
ENDBRANCH  24  26
ENDBRANCH  23  24
ENDBRANCH  22  23
ENDBRANCH   1  22
TORSDOF 13
ENDMDL
MODEL 2
REMARK VINA RESULT:     -11.5      0.218      1.633
REMARK SMILES C[C@H]1[C@@H](C(=O)OCCOC(=O)c2ccc(-c3c4nc(c(-c5c(F)cccc5F)c5ccc([nH]5)c(-c5c(F)cccc5F)c5nc(c(-c6c(F)cccc6F)c6ccc3[nH]6)C=C5)C=C4)cc2)CC[N@@H+]1Cc1cc(F)c(F)c(F)c1
REMARK SMILES IDX 7 1 6 2 4 3 5 4 3 5 1 6 2 7 68 8 66 9 67 10 69 12 70 13
REMARK SMILES IDX 71 14 78 15 72 16 76 17 73 18 74 19 77 20 75 21 8 22 9 23
REMARK SMILES IDX 10 24 11 25 12 26 13 27 65 28 14 29 64 30 15 31 16 32 17 33
REMARK SMILES IDX 58 34 18 35 63 36 57 37 59 38 19 39 62 40 56 41 55 42 20 44
REMARK SMILES IDX 46 45 29 46 45 47 30 48 33 49 44 50 60 51 31 52 32 53 43 55
REMARK SMILES IDX 61 56 34 57 21 58 22 59 27 60 23 61 24 62 26 63 28 64 25 65
REMARK SMILES IDX 47 66 48 67 53 68 49 69 50 70 52 71 54 72 51 73 35 74 36 75
REMARK SMILES IDX 41 76 37 77 38 78 40 79 42 80 39 81
REMARK H PARENT 68 11 59 43 33 54
REMARK Flexibility Score: inf
ROOT
ATOM      1  C   UNL A   1      31.830  28.530  24.272  1.00  0.00     0.274 C 
ENDROOT
BRANCH   1   2
ATOM      2  O   UNL A   1      30.890  27.471  24.544  1.00  0.00    -0.462 OA
BRANCH   2   3
ATOM      3  C   UNL A   1      31.255  26.530  25.450  1.00  0.00     0.315 C 
ATOM      4  O   UNL A   1      30.613  26.236  26.452  1.00  0.00    -0.252 OA
BRANCH   3   5
ATOM      5  C   UNL A   1      32.517  25.795  25.046  1.00  0.00     0.162 C 
ATOM      6  C   UNL A   1      31.073  24.075  23.720  1.00  0.00     0.076 C 
ATOM      7  C   UNL A   1      32.429  24.755  23.923  1.00  0.00     0.195 C 
ATOM      8  N   UNL A   1      33.398  23.712  24.298  1.00  0.00    -0.328 N 
ATOM      9  C   UNL A   1      33.174  25.085  26.225  1.00  0.00     0.083 C 
ATOM     10  C   UNL A   1      33.468  23.677  25.753  1.00  0.00     0.263 C 
ATOM     11  H   UNL A   1      33.046  22.819  23.951  1.00  0.00     0.348 HD
BRANCH   8  12
ATOM     12  C   UNL A   1      34.680  23.705  23.596  1.00  0.00     0.299 C 
BRANCH  12  13
ATOM     13  C   UNL A   1      35.894  23.180  24.330  1.00  0.00     0.012 A 
ATOM     14  C   UNL A   1      36.275  21.836  24.195  1.00  0.00     0.052 A 
ATOM     15  C   UNL A   1      36.634  24.000  25.198  1.00  0.00     0.052 A 
ATOM     16  C   UNL A   1      37.365  21.335  24.906  1.00  0.00     0.162 A 
ATOM     17  C   UNL A   1      37.731  23.485  25.891  1.00  0.00     0.162 A 
ATOM     18  F   UNL A   1      37.693  20.042  24.772  1.00  0.00    -0.204 F 
ATOM     19  C   UNL A   1      38.096  22.155  25.752  1.00  0.00     0.194 A 
ATOM     20  F   UNL A   1      38.426  24.293  26.703  1.00  0.00    -0.204 F 
ATOM     21  F   UNL A   1      39.141  21.664  26.433  1.00  0.00    -0.200 F 
ENDBRANCH  12  13
ENDBRANCH   8  12
ENDBRANCH   3   5
ENDBRANCH   2   3
ENDBRANCH   1   2
BRANCH   1  22
ATOM     22  C   UNL A   1      31.645  29.624  25.316  1.00  0.00     0.275 C 
BRANCH  22  23
ATOM     23  O   UNL A   1      32.938  29.955  25.856  1.00  0.00    -0.458 OA
BRANCH  23  24
ATOM     24  C   UNL A   1      32.957  30.957  26.764  1.00  0.00     0.338 C 
ATOM     25  O   UNL A   1      32.108  31.810  26.950  1.00  0.00    -0.246 OA
BRANCH  24  26
ATOM     26  C   UNL A   1      34.203  30.884  27.547  1.00  0.00     0.060 A 
ATOM     27  C   UNL A   1      34.989  32.022  27.759  1.00  0.00     0.016 A 
ATOM     28  C   UNL A   1      34.638  29.634  27.982  1.00  0.00     0.016 A 
ATOM     29  C   UNL A   1      36.244  31.895  28.355  1.00  0.00     0.010 A 
ATOM     30  C   UNL A   1      35.851  29.527  28.661  1.00  0.00     0.010 A 
ATOM     31  C   UNL A   1      36.676  30.651  28.839  1.00  0.00    -0.014 A 
BRANCH  31  32
ATOM     32  C   UNL A   1      37.972  30.485  29.551  1.00  0.00     0.031 A 
ATOM     33  C   UNL A   1      39.040  29.606  28.965  1.00  0.00     0.074 A 
ATOM     34  C   UNL A   1      38.158  31.043  30.762  1.00  0.00     0.049 A 
ATOM     35  N   UNL A   1      40.070  29.051  29.550  1.00  0.00    -0.248 NA
ATOM     36  C   UNL A   1      38.920  29.292  27.532  1.00  0.00     0.031 C 
ATOM     37  C   UNL A   1      37.232  31.956  31.432  1.00  0.00     0.029 A 
ATOM     38  N   UNL A   1      39.185  30.894  31.661  1.00  0.00    -0.354 N 
ATOM     39  C   UNL A   1      40.682  28.271  28.578  1.00  0.00     0.074 A 
ATOM     40  C   UNL A   1      39.919  28.437  27.358  1.00  0.00     0.031 C 
ATOM     41  C   UNL A   1      37.730  32.287  32.632  1.00  0.00     0.029 A 
ATOM     42  C   UNL A   1      38.961  31.537  32.854  1.00  0.00     0.049 A 
ATOM     43  H   UNL A   1      40.002  30.377  31.470  1.00  0.00     0.167 HD
ATOM     44  C   UNL A   1      41.775  27.479  28.700  1.00  0.00     0.037 A 
ATOM     45  C   UNL A   1      39.628  31.481  34.021  1.00  0.00     0.037 A 
ATOM     46  C   UNL A   1      42.557  27.360  29.903  1.00  0.00     0.049 A 
ATOM     47  C   UNL A   1      40.818  30.577  34.146  1.00  0.00     0.074 A 
ATOM     48  C   UNL A   1      43.689  26.595  30.127  1.00  0.00     0.029 A 
ATOM     49  N   UNL A   1      42.296  28.044  31.081  1.00  0.00    -0.354 N 
ATOM     50  N   UNL A   1      41.348  29.784  33.248  1.00  0.00    -0.248 NA
ATOM     51  C   UNL A   1      41.488  30.540  35.454  1.00  0.00     0.031 C 
ATOM     52  C   UNL A   1      44.101  26.799  31.448  1.00  0.00     0.029 A 
ATOM     53  C   UNL A   1      43.243  27.715  32.036  1.00  0.00     0.049 A 
ATOM     54  H   UNL A   1      41.548  28.669  31.218  1.00  0.00     0.167 HD
ATOM     55  C   UNL A   1      42.419  29.163  33.874  1.00  0.00     0.074 A 
ATOM     56  C   UNL A   1      42.470  29.677  35.227  1.00  0.00     0.031 C 
ATOM     57  C   UNL A   1      43.281  28.247  33.372  1.00  0.00     0.037 A 
BRANCH  44  58
ATOM     58  C   UNL A   1      42.173  26.650  27.515  1.00  0.00     0.057 A 
ATOM     59  C   UNL A   1      41.699  25.347  27.325  1.00  0.00     0.134 A 
ATOM     60  C   UNL A   1      43.006  27.188  26.526  1.00  0.00     0.134 A 
ATOM     61  F   UNL A   1      40.910  24.770  28.243  1.00  0.00    -0.206 F 
ATOM     62  C   UNL A   1      42.051  24.602  26.198  1.00  0.00     0.040 A 
ATOM     63  C   UNL A   1      43.348  26.461  25.385  1.00  0.00     0.040 A 
ATOM     64  F   UNL A   1      43.490  28.433  26.646  1.00  0.00    -0.206 F 
ATOM     65  C   UNL A   1      42.873  25.162  25.220  1.00  0.00     0.006 A 
ENDBRANCH  44  58
BRANCH  45  66
ATOM     66  C   UNL A   1      39.140  32.269  35.179  1.00  0.00     0.057 A 
ATOM     67  C   UNL A   1      38.345  31.679  36.166  1.00  0.00     0.134 A 
ATOM     68  C   UNL A   1      39.488  33.615  35.344  1.00  0.00     0.134 A 
ATOM     69  F   UNL A   1      37.964  30.398  36.051  1.00  0.00    -0.206 F 
ATOM     70  C   UNL A   1      37.912  32.401  37.280  1.00  0.00     0.040 A 
ATOM     71  C   UNL A   1      39.082  34.342  36.463  1.00  0.00     0.040 A 
ATOM     72  F   UNL A   1      40.252  34.233  34.431  1.00  0.00    -0.206 F 
ATOM     73  C   UNL A   1      38.289  33.733  37.435  1.00  0.00     0.006 A 
ENDBRANCH  45  66
BRANCH  57  74
ATOM     74  C   UNL A   1      44.374  27.773  34.279  1.00  0.00     0.057 A 
ATOM     75  C   UNL A   1      45.590  28.456  34.383  1.00  0.00     0.134 A 
ATOM     76  C   UNL A   1      44.186  26.647  35.089  1.00  0.00     0.134 A 
ATOM     77  F   UNL A   1      45.833  29.534  33.621  1.00  0.00    -0.206 F 
ATOM     78  C   UNL A   1      46.590  28.029  35.258  1.00  0.00     0.040 A 
ATOM     79  C   UNL A   1      45.171  26.219  35.979  1.00  0.00     0.040 A 
ATOM     80  F   UNL A   1      43.038  25.954  35.035  1.00  0.00    -0.206 F 
ATOM     81  C   UNL A   1      46.377  26.911  36.064  1.00  0.00     0.006 A 
ENDBRANCH  57  74
ENDBRANCH  31  32
ENDBRANCH  24  26
ENDBRANCH  23  24
ENDBRANCH  22  23
ENDBRANCH   1  22
TORSDOF 13
ENDMDL
MODEL 3
REMARK VINA RESULT:     -11.4      1.606      2.653
REMARK SMILES C[C@H]1[C@@H](C(=O)OCCOC(=O)c2ccc(-c3c4nc(c(-c5c(F)cccc5F)c5ccc([nH]5)c(-c5c(F)cccc5F)c5nc(c(-c6c(F)cccc6F)c6ccc3[nH]6)C=C5)C=C4)cc2)CC[N@@H+]1Cc1cc(F)c(F)c(F)c1
REMARK SMILES IDX 7 1 6 2 4 3 5 4 3 5 1 6 2 7 68 8 66 9 67 10 69 12 70 13
REMARK SMILES IDX 71 14 78 15 72 16 76 17 73 18 74 19 77 20 75 21 8 22 9 23
REMARK SMILES IDX 10 24 11 25 12 26 13 27 65 28 14 29 64 30 15 31 16 32 17 33
REMARK SMILES IDX 58 34 18 35 63 36 57 37 59 38 19 39 62 40 56 41 55 42 20 44
REMARK SMILES IDX 46 45 29 46 45 47 30 48 33 49 44 50 60 51 31 52 32 53 43 55
REMARK SMILES IDX 61 56 34 57 21 58 22 59 27 60 23 61 24 62 26 63 28 64 25 65
REMARK SMILES IDX 47 66 48 67 53 68 49 69 50 70 52 71 54 72 51 73 35 74 36 75
REMARK SMILES IDX 41 76 37 77 38 78 40 79 42 80 39 81
REMARK H PARENT 68 11 59 43 33 54
REMARK Flexibility Score: inf
ROOT
ATOM      1  C   UNL A   1      31.027  29.476  24.571  1.00  0.00     0.274 C 
ENDROOT
BRANCH   1   2
ATOM      2  O   UNL A   1      31.763  28.986  23.432  1.00  0.00    -0.462 OA
BRANCH   2   3
ATOM      3  C   UNL A   1      31.170  28.036  22.668  1.00  0.00     0.315 C 
ATOM      4  O   UNL A   1      30.160  28.209  21.994  1.00  0.00    -0.252 OA
BRANCH   3   5
ATOM      5  C   UNL A   1      31.945  26.734  22.654  1.00  0.00     0.162 C 
ATOM      6  C   UNL A   1      30.402  25.813  24.545  1.00  0.00     0.076 C 
ATOM      7  C   UNL A   1      31.348  25.521  23.378  1.00  0.00     0.195 C 
ATOM      8  N   UNL A   1      32.509  24.795  23.919  1.00  0.00    -0.328 N 
ATOM      9  C   UNL A   1      33.358  26.898  23.205  1.00  0.00     0.083 C 
ATOM     10  C   UNL A   1      33.550  25.775  24.203  1.00  0.00     0.263 C 
ATOM     11  H   UNL A   1      32.219  24.343  24.787  1.00  0.00     0.348 HD
BRANCH   8  12
ATOM     12  C   UNL A   1      32.940  23.595  23.205  1.00  0.00     0.299 C 
BRANCH  12  13
ATOM     13  C   UNL A   1      32.869  22.269  23.929  1.00  0.00     0.012 A 
ATOM     14  C   UNL A   1      33.239  22.180  25.281  1.00  0.00     0.052 A 
ATOM     15  C   UNL A   1      32.486  21.092  23.264  1.00  0.00     0.052 A 
ATOM     16  C   UNL A   1      33.222  20.952  25.940  1.00  0.00     0.162 A 
ATOM     17  C   UNL A   1      32.460  19.873  23.943  1.00  0.00     0.162 A 
ATOM     18  F   UNL A   1      33.599  20.895  27.225  1.00  0.00    -0.204 F 
ATOM     19  C   UNL A   1      32.831  19.798  25.277  1.00  0.00     0.194 A 
ATOM     20  F   UNL A   1      32.079  18.770  23.286  1.00  0.00    -0.204 F 
ATOM     21  F   UNL A   1      32.819  18.621  25.918  1.00  0.00    -0.200 F 
ENDBRANCH  12  13
ENDBRANCH   8  12
ENDBRANCH   3   5
ENDBRANCH   2   3
ENDBRANCH   1   2
BRANCH   1  22
ATOM     22  C   UNL A   1      31.787  29.103  25.839  1.00  0.00     0.275 C 
BRANCH  22  23
ATOM     23  O   UNL A   1      33.006  29.867  25.875  1.00  0.00    -0.458 OA
BRANCH  23  24
ATOM     24  C   UNL A   1      33.027  30.899  26.750  1.00  0.00     0.338 C 
ATOM     25  O   UNL A   1      32.181  31.760  26.906  1.00  0.00    -0.246 OA
BRANCH  24  26
ATOM     26  C   UNL A   1      34.271  30.847  27.537  1.00  0.00     0.060 A 
ATOM     27  C   UNL A   1      35.043  31.996  27.744  1.00  0.00     0.016 A 
ATOM     28  C   UNL A   1      34.720  29.605  27.984  1.00  0.00     0.016 A 
ATOM     29  C   UNL A   1      36.297  31.889  28.345  1.00  0.00     0.010 A 
ATOM     30  C   UNL A   1      35.932  29.518  28.667  1.00  0.00     0.010 A 
ATOM     31  C   UNL A   1      36.743  30.654  28.840  1.00  0.00    -0.014 A 
BRANCH  31  32
ATOM     32  C   UNL A   1      38.038  30.510  29.556  1.00  0.00     0.031 A 
ATOM     33  C   UNL A   1      39.128  29.659  28.969  1.00  0.00     0.074 A 
ATOM     34  C   UNL A   1      38.206  31.060  30.774  1.00  0.00     0.049 A 
ATOM     35  N   UNL A   1      40.167  29.121  29.554  1.00  0.00    -0.248 NA
ATOM     36  C   UNL A   1      39.023  29.356  27.532  1.00  0.00     0.031 C 
ATOM     37  C   UNL A   1      37.257  31.947  31.447  1.00  0.00     0.029 A 
ATOM     38  N   UNL A   1      39.231  30.925  31.677  1.00  0.00    -0.354 N 
ATOM     39  C   UNL A   1      40.801  28.363  28.578  1.00  0.00     0.074 A 
ATOM     40  C   UNL A   1      40.041  28.524  27.355  1.00  0.00     0.031 C 
ATOM     41  C   UNL A   1      37.741  32.277  32.653  1.00  0.00     0.029 A 
ATOM     42  C   UNL A   1      38.987  31.552  32.874  1.00  0.00     0.049 A 
ATOM     43  H   UNL A   1      40.060  30.427  31.486  1.00  0.00     0.167 HD
ATOM     44  C   UNL A   1      41.910  27.594  28.699  1.00  0.00     0.037 A 
ATOM     45  C   UNL A   1      39.649  31.499  34.045  1.00  0.00     0.037 A 
ATOM     46  C   UNL A   1      42.688  27.481  29.905  1.00  0.00     0.049 A 
ATOM     47  C   UNL A   1      40.858  30.620  34.167  1.00  0.00     0.074 A 
ATOM     48  C   UNL A   1      43.835  26.739  30.127  1.00  0.00     0.029 A 
ATOM     49  N   UNL A   1      42.406  28.148  31.088  1.00  0.00    -0.354 N 
ATOM     50  N   UNL A   1      41.410  29.847  33.265  1.00  0.00    -0.248 NA
ATOM     51  C   UNL A   1      41.522  30.586  35.478  1.00  0.00     0.031 C 
ATOM     52  C   UNL A   1      44.236  26.939  31.453  1.00  0.00     0.029 A 
ATOM     53  C   UNL A   1      43.355  27.831  32.044  1.00  0.00     0.049 A 
ATOM     54  H   UNL A   1      41.645  28.755  31.226  1.00  0.00     0.167 HD
ATOM     55  C   UNL A   1      42.491  29.244  33.891  1.00  0.00     0.074 A 
ATOM     56  C   UNL A   1      42.523  29.746  35.249  1.00  0.00     0.031 C 
ATOM     57  C   UNL A   1      43.375  28.351  33.386  1.00  0.00     0.037 A 
BRANCH  44  58
ATOM     58  C   UNL A   1      42.331  26.785  27.509  1.00  0.00     0.057 A 
ATOM     59  C   UNL A   1      41.891  25.472  27.306  1.00  0.00     0.134 A 
ATOM     60  C   UNL A   1      43.154  27.351  26.526  1.00  0.00     0.134 A 
ATOM     61  F   UNL A   1      41.113  24.869  28.217  1.00  0.00    -0.206 F 
ATOM     62  C   UNL A   1      42.264  24.746  26.174  1.00  0.00     0.040 A 
ATOM     63  C   UNL A   1      43.518  26.643  25.380  1.00  0.00     0.040 A 
ATOM     64  F   UNL A   1      43.607  28.607  26.658  1.00  0.00    -0.206 F 
ATOM     65  C   UNL A   1      43.075  25.334  25.203  1.00  0.00     0.006 A 
ENDBRANCH  44  58
BRANCH  45  66
ATOM     66  C   UNL A   1      39.138  32.265  35.207  1.00  0.00     0.057 A 
ATOM     67  C   UNL A   1      38.339  31.653  36.177  1.00  0.00     0.134 A 
ATOM     68  C   UNL A   1      39.468  33.613  35.394  1.00  0.00     0.134 A 
ATOM     69  F   UNL A   1      37.974  30.370  36.039  1.00  0.00    -0.206 F 
ATOM     70  C   UNL A   1      37.885  32.355  37.295  1.00  0.00     0.040 A 
ATOM     71  C   UNL A   1      39.041  34.320  36.518  1.00  0.00     0.040 A 
ATOM     72  F   UNL A   1      40.236  34.253  34.499  1.00  0.00    -0.206 F 
ATOM     73  C   UNL A   1      38.244  33.689  37.472  1.00  0.00     0.006 A 
ENDBRANCH  45  66
BRANCH  57  74
ATOM     74  C   UNL A   1      44.473  27.893  34.294  1.00  0.00     0.057 A 
ATOM     75  C   UNL A   1      44.344  26.743  35.079  1.00  0.00     0.134 A 
ATOM     76  C   UNL A   1      45.689  28.587  34.345  1.00  0.00     0.134 A 
ATOM     77  F   UNL A   1      43.198  26.045  35.082  1.00  0.00    -0.206 F 
ATOM     78  C   UNL A   1      45.387  26.301  35.895  1.00  0.00     0.040 A 
ATOM     79  C   UNL A   1      46.744  28.146  35.143  1.00  0.00     0.040 A 
ATOM     80  F   UNL A   1      45.871  29.694  33.609  1.00  0.00    -0.206 F 
ATOM     81  C   UNL A   1      46.593  27.001  35.923  1.00  0.00     0.006 A 
ENDBRANCH  57  74
ENDBRANCH  31  32
ENDBRANCH  24  26
ENDBRANCH  23  24
ENDBRANCH  22  23
ENDBRANCH   1  22
TORSDOF 13
ENDMDL
