MODEL 1
REMARK VINA RESULT:     -13.4      0.000      0.000
REMARK SMILES O=C(OCCOC(=O)c1ccccc1Nc1nc(Cl)nc(Nc2ccc(N3CCOCC3=O)cc2)n1)c1ccc(-c2c3nc(c(-c4c(F)cccc4F)c4ccc([nH]4)c(-c4c(F)cccc4F)c4nc(c(-c5c(F)cccc5F)c5ccc2[nH]5)C=C4)C=C3)cc1
REMARK SMILES IDX 6 1 5 2 4 3 3 4 2 5 1 6 37 7 38 8 90 9 39 10 89 11 40 12
REMARK SMILES IDX 41 13 42 14 83 15 43 16 88 17 82 18 84 19 44 20 87 21 81 22
REMARK SMILES IDX 80 23 45 25 71 26 54 27 70 28 55 29 58 30 69 31 85 32 56 33
REMARK SMILES IDX 57 34 68 36 86 37 59 38 46 39 47 40 52 41 48 42 49 43 51 44
REMARK SMILES IDX 53 45 50 46 72 47 73 48 78 49 74 50 75 51 77 52 79 53 76 54
REMARK SMILES IDX 60 55 61 56 66 57 62 58 63 59 65 60 67 61 64 62 7 63 8 64
REMARK SMILES IDX 9 65 10 66 14 67 11 68 13 69 12 70 15 71 16 73 17 74 36 75
REMARK SMILES IDX 18 76 21 77 19 78 20 79 22 80 23 82 24 83 35 84 25 85 34 86
REMARK SMILES IDX 26 87 27 88 28 89 32 90 29 91 31 92 33 93 30 94
REMARK H PARENT 84 24 58 35 15 72 22 81
REMARK Flexibility Score: inf
ROOT
ATOM      1  O   UNL A   1      33.797  33.040  27.728  1.00  0.00    -0.458 OA
ENDROOT
BRANCH   1   2
ATOM      2  C   UNL A   1      33.469  34.116  28.623  1.00  0.00     0.275 C 
BRANCH   2   3
ATOM      3  C   UNL A   1      34.237  34.038  29.946  1.00  0.00     0.275 C 
BRANCH   3   4
ATOM      4  O   UNL A   1      34.352  32.699  30.457  1.00  0.00    -0.458 OA
BRANCH   4   5
ATOM      5  C   UNL A   1      35.247  32.143  31.305  1.00  0.00     0.338 C 
ATOM      6  O   UNL A   1      35.043  32.266  32.513  1.00  0.00    -0.246 OA
BRANCH   5   7
ATOM      7  C   UNL A   1      36.523  31.457  30.899  1.00  0.00     0.060 A 
ATOM      8  C   UNL A   1      37.386  30.735  31.725  1.00  0.00     0.016 A 
ATOM      9  C   UNL A   1      36.876  31.562  29.534  1.00  0.00     0.016 A 
ATOM     10  C   UNL A   1      38.560  30.160  31.221  1.00  0.00     0.010 A 
ATOM     11  C   UNL A   1      38.041  30.979  29.021  1.00  0.00     0.010 A 
ATOM     12  C   UNL A   1      38.907  30.297  29.875  1.00  0.00    -0.014 A 
BRANCH  12  13
ATOM     13  C   UNL A   1      40.241  29.832  29.441  1.00  0.00     0.031 A 
ATOM     14  C   UNL A   1      40.386  28.462  28.867  1.00  0.00     0.074 A 
ATOM     15  C   UNL A   1      41.316  30.634  29.519  1.00  0.00     0.049 A 
ATOM     16  N   UNL A   1      41.416  27.924  28.270  1.00  0.00    -0.248 NA
ATOM     17  C   UNL A   1      39.235  27.564  29.031  1.00  0.00     0.031 C 
ATOM     18  C   UNL A   1      41.341  31.914  30.208  1.00  0.00     0.029 A 
ATOM     19  N   UNL A   1      42.583  30.501  29.007  1.00  0.00    -0.354 N 
ATOM     20  C   UNL A   1      41.066  26.603  28.047  1.00  0.00     0.074 A 
ATOM     21  C   UNL A   1      39.718  26.429  28.549  1.00  0.00     0.031 C 
ATOM     22  C   UNL A   1      42.542  32.480  30.014  1.00  0.00     0.029 A 
ATOM     23  C   UNL A   1      43.333  31.648  29.129  1.00  0.00     0.049 A 
ATOM     24  H   UNL A   1      42.920  29.672  28.597  1.00  0.00     0.167 HD
ATOM     25  C   UNL A   1      41.821  25.618  27.506  1.00  0.00     0.037 A 
ATOM     26  C   UNL A   1      44.487  32.004  28.535  1.00  0.00     0.037 A 
ATOM     27  C   UNL A   1      43.166  25.804  27.029  1.00  0.00     0.049 A 
ATOM     28  C   UNL A   1      45.202  30.977  27.712  1.00  0.00     0.074 A 
ATOM     29  C   UNL A   1      44.029  24.872  26.479  1.00  0.00     0.029 A 
ATOM     30  N   UNL A   1      43.847  27.012  27.052  1.00  0.00    -0.354 N 
ATOM     31  N   UNL A   1      44.847  29.744  27.452  1.00  0.00    -0.248 NA
ATOM     32  C   UNL A   1      46.494  31.374  27.136  1.00  0.00     0.031 C 
ATOM     33  C   UNL A   1      45.241  25.513  26.193  1.00  0.00     0.029 A 
ATOM     34  C   UNL A   1      45.118  26.852  26.525  1.00  0.00     0.049 A 
ATOM     35  H   UNL A   1      43.482  27.860  27.393  1.00  0.00     0.167 HD
ATOM     36  C   UNL A   1      45.899  29.196  26.740  1.00  0.00     0.074 A 
ATOM     37  C   UNL A   1      46.861  30.259  26.523  1.00  0.00     0.031 C 
ATOM     38  C   UNL A   1      46.077  27.911  26.351  1.00  0.00     0.037 A 
BRANCH  25  39
ATOM     39  C   UNL A   1      41.217  24.248  27.495  1.00  0.00     0.057 A 
ATOM     40  C   UNL A   1      41.685  23.220  28.324  1.00  0.00     0.134 A 
ATOM     41  C   UNL A   1      40.194  23.936  26.590  1.00  0.00     0.134 A 
ATOM     42  F   UNL A   1      42.686  23.447  29.190  1.00  0.00    -0.206 F 
ATOM     43  C   UNL A   1      41.183  21.921  28.226  1.00  0.00     0.040 A 
ATOM     44  C   UNL A   1      39.668  22.648  26.502  1.00  0.00     0.040 A 
ATOM     45  F   UNL A   1      39.709  24.873  25.763  1.00  0.00    -0.206 F 
ATOM     46  C   UNL A   1      40.171  21.633  27.313  1.00  0.00     0.006 A 
ENDBRANCH  25  39
BRANCH  26  47
ATOM     47  C   UNL A   1      45.015  33.391  28.593  1.00  0.00     0.057 A 
ATOM     48  C   UNL A   1      44.607  34.337  27.638  1.00  0.00     0.134 A 
ATOM     49  C   UNL A   1      45.974  33.795  29.524  1.00  0.00     0.134 A 
ATOM     50  F   UNL A   1      43.719  33.996  26.692  1.00  0.00    -0.206 F 
ATOM     51  C   UNL A   1      45.140  35.626  27.602  1.00  0.00     0.040 A 
ATOM     52  C   UNL A   1      46.510  35.088  29.505  1.00  0.00     0.040 A 
ATOM     53  F   UNL A   1      46.390  32.949  30.476  1.00  0.00    -0.206 F 
ATOM     54  C   UNL A   1      46.091  36.007  28.543  1.00  0.00     0.006 A 
ENDBRANCH  26  47
BRANCH  38  55
ATOM     55  C   UNL A   1      47.391  27.594  25.713  1.00  0.00     0.057 A 
ATOM     56  C   UNL A   1      48.506  27.238  26.485  1.00  0.00     0.134 A 
ATOM     57  C   UNL A   1      47.549  27.650  24.325  1.00  0.00     0.134 A 
ATOM     58  F   UNL A   1      48.419  27.187  27.823  1.00  0.00    -0.206 F 
ATOM     59  C   UNL A   1      49.742  26.972  25.898  1.00  0.00     0.040 A 
ATOM     60  C   UNL A   1      48.776  27.364  23.725  1.00  0.00     0.040 A 
ATOM     61  F   UNL A   1      46.520  27.988  23.535  1.00  0.00    -0.206 F 
ATOM     62  C   UNL A   1      49.878  27.032  24.513  1.00  0.00     0.006 A 
ENDBRANCH  38  55
ENDBRANCH  12  13
ENDBRANCH   5   7
ENDBRANCH   4   5
ENDBRANCH   3   4
ENDBRANCH   2   3
ENDBRANCH   1   2
BRANCH   1  63
ATOM     63  C   UNL A   1      32.727  32.305  27.319  1.00  0.00     0.340 C 
ATOM     64  O   UNL A   1      31.606  32.717  27.105  1.00  0.00    -0.246 OA
BRANCH  63  65
ATOM     65  C   UNL A   1      33.146  30.924  27.005  1.00  0.00     0.083 A 
ATOM     66  C   UNL A   1      34.278  30.479  27.726  1.00  0.00     0.018 A 
ATOM     67  C   UNL A   1      32.520  30.108  26.044  1.00  0.00     0.055 A 
ATOM     68  C   UNL A   1      34.792  29.201  27.536  1.00  0.00     0.001 A 
ATOM     69  C   UNL A   1      33.114  28.839  25.853  1.00  0.00     0.027 A 
ATOM     70  C   UNL A   1      34.208  28.379  26.593  1.00  0.00     0.002 A 
BRANCH  67  71
ATOM     71  N   UNL A   1      31.373  30.510  25.315  1.00  0.00    -0.323 N 
ATOM     72  H   UNL A   1      30.906  31.297  25.677  1.00  0.00     0.170 HD
BRANCH  71  73
ATOM     73  C   UNL A   1      30.799  29.960  24.157  1.00  0.00     0.233 A 
ATOM     74  N   UNL A   1      29.608  30.395  23.799  1.00  0.00    -0.182 NA
ATOM     75  N   UNL A   1      31.406  28.943  23.538  1.00  0.00    -0.176 NA
ATOM     76  C   UNL A   1      29.054  29.774  22.787  1.00  0.00     0.228 A 
ATOM     77  C   UNL A   1      30.760  28.428  22.481  1.00  0.00     0.233 A 
ATOM     78  Cl  UNL A   1      27.355  29.583  22.944  1.00  0.00    -0.041 Cl
ATOM     79  N   UNL A   1      29.606  28.878  22.024  1.00  0.00    -0.182 NA
BRANCH  77  80
ATOM     80  N   UNL A   1      31.163  27.198  21.940  1.00  0.00    -0.324 N 
ATOM     81  H   UNL A   1      31.100  27.058  20.968  1.00  0.00     0.170 HD
BRANCH  80  82
ATOM     82  C   UNL A   1      31.654  26.155  22.753  1.00  0.00     0.041 A 
ATOM     83  C   UNL A   1      32.980  26.126  23.204  1.00  0.00     0.028 A 
ATOM     84  C   UNL A   1      30.754  25.244  23.306  1.00  0.00     0.028 A 
ATOM     85  C   UNL A   1      33.398  25.183  24.163  1.00  0.00     0.028 A 
ATOM     86  C   UNL A   1      31.177  24.279  24.225  1.00  0.00     0.028 A 
ATOM     87  C   UNL A   1      32.506  24.221  24.659  1.00  0.00     0.044 A 
BRANCH  87  88
ATOM     88  N   UNL A   1      32.922  23.202  25.578  1.00  0.00    -0.308 N 
ATOM     89  C   UNL A   1      33.970  22.261  25.158  1.00  0.00     0.154 C 
ATOM     90  C   UNL A   1      32.508  23.242  26.920  1.00  0.00     0.253 C 
ATOM     91  C   UNL A   1      34.087  21.038  26.065  1.00  0.00     0.183 C 
ATOM     92  C   UNL A   1      33.073  22.144  27.834  1.00  0.00     0.260 C 
ATOM     93  O   UNL A   1      31.667  24.021  27.374  1.00  0.00    -0.272 OA
ATOM     94  O   UNL A   1      34.244  21.466  27.414  1.00  0.00    -0.370 OA
ENDBRANCH  87  88
ENDBRANCH  80  82
ENDBRANCH  77  80
ENDBRANCH  71  73
ENDBRANCH  67  71
ENDBRANCH  63  65
ENDBRANCH   1  63
TORSDOF 16
ENDMDL
MODEL 2
REMARK VINA RESULT:     -13.3      5.209      7.557
REMARK SMILES O=C(OCCOC(=O)c1ccccc1Nc1nc(Cl)nc(Nc2ccc(N3CCOCC3=O)cc2)n1)c1ccc(-c2c3nc(c(-c4c(F)cccc4F)c4ccc([nH]4)c(-c4c(F)cccc4F)c4nc(c(-c5c(F)cccc5F)c5ccc2[nH]5)C=C4)C=C3)cc1
REMARK SMILES IDX 6 1 5 2 4 3 3 4 2 5 1 6 37 7 38 8 90 9 39 10 89 11 40 12
REMARK SMILES IDX 41 13 42 14 83 15 43 16 88 17 82 18 84 19 44 20 87 21 81 22
REMARK SMILES IDX 80 23 45 25 71 26 54 27 70 28 55 29 58 30 69 31 85 32 56 33
REMARK SMILES IDX 57 34 68 36 86 37 59 38 46 39 47 40 52 41 48 42 49 43 51 44
REMARK SMILES IDX 53 45 50 46 72 47 73 48 78 49 74 50 75 51 77 52 79 53 76 54
REMARK SMILES IDX 60 55 61 56 66 57 62 58 63 59 65 60 67 61 64 62 7 63 8 64
REMARK SMILES IDX 9 65 10 66 14 67 11 68 13 69 12 70 15 71 16 73 17 74 36 75
REMARK SMILES IDX 18 76 21 77 19 78 20 79 22 80 23 82 24 83 35 84 25 85 34 86
REMARK SMILES IDX 26 87 27 88 28 89 32 90 29 91 31 92 33 93 30 94
REMARK H PARENT 84 24 58 35 15 72 22 81
REMARK Flexibility Score: inf
ROOT
ATOM      1  O   UNL A   1      34.013  34.283  29.162  1.00  0.00    -0.458 OA
ENDROOT
BRANCH   1   2
ATOM      2  C   UNL A   1      34.013  35.634  28.671  1.00  0.00     0.275 C 
BRANCH   2   3
ATOM      3  C   UNL A   1      32.970  36.514  29.367  1.00  0.00     0.275 C 
BRANCH   3   4
ATOM      4  O   UNL A   1      32.327  35.863  30.476  1.00  0.00    -0.458 OA
BRANCH   4   5
ATOM      5  C   UNL A   1      32.610  35.868  31.798  1.00  0.00     0.338 C 
ATOM      6  O   UNL A   1      31.884  36.535  32.536  1.00  0.00    -0.246 OA
BRANCH   5   7
ATOM      7  C   UNL A   1      33.794  35.195  32.439  1.00  0.00     0.060 A 
ATOM      8  C   UNL A   1      35.090  35.704  32.548  1.00  0.00     0.016 A 
ATOM      9  C   UNL A   1      33.558  33.913  32.985  1.00  0.00     0.016 A 
ATOM     10  C   UNL A   1      36.111  34.961  33.154  1.00  0.00     0.010 A 
ATOM     11  C   UNL A   1      34.571  33.170  33.604  1.00  0.00     0.010 A 
ATOM     12  C   UNL A   1      35.866  33.684  33.664  1.00  0.00    -0.014 A 
BRANCH  12  13
ATOM     13  C   UNL A   1      37.016  32.876  34.122  1.00  0.00     0.031 A 
ATOM     14  C   UNL A   1      37.692  31.957  33.159  1.00  0.00     0.074 A 
ATOM     15  C   UNL A   1      37.484  32.982  35.376  1.00  0.00     0.049 A 
ATOM     16  N   UNL A   1      38.810  31.296  33.298  1.00  0.00    -0.248 NA
ATOM     17  C   UNL A   1      36.989  31.712  31.893  1.00  0.00     0.031 C 
ATOM     18  C   UNL A   1      36.817  33.705  36.447  1.00  0.00     0.029 A 
ATOM     19  N   UNL A   1      38.630  32.497  35.958  1.00  0.00    -0.354 N 
ATOM     20  C   UNL A   1      38.915  30.504  32.168  1.00  0.00     0.074 A 
ATOM     21  C   UNL A   1      37.760  30.787  31.341  1.00  0.00     0.031 C 
ATOM     22  C   UNL A   1      37.601  33.675  37.536  1.00  0.00     0.029 A 
ATOM     23  C   UNL A   1      38.849  33.009  37.217  1.00  0.00     0.049 A 
ATOM     24  H   UNL A   1      39.231  31.852  35.521  1.00  0.00     0.167 HD
ATOM     25  C   UNL A   1      39.873  29.595  31.871  1.00  0.00     0.037 A 
ATOM     26  C   UNL A   1      39.954  32.997  37.984  1.00  0.00     0.037 A 
ATOM     27  C   UNL A   1      41.005  29.312  32.713  1.00  0.00     0.049 A 
ATOM     28  C   UNL A   1      41.125  32.186  37.519  1.00  0.00     0.074 A 
ATOM     29  C   UNL A   1      42.026  28.399  32.518  1.00  0.00     0.029 A 
ATOM     30  N   UNL A   1      41.261  29.944  33.922  1.00  0.00    -0.354 N 
ATOM     31  N   UNL A   1      41.250  31.480  36.424  1.00  0.00    -0.248 NA
ATOM     32  C   UNL A   1      42.290  32.135  38.413  1.00  0.00     0.031 C 
ATOM     33  C   UNL A   1      42.886  28.462  33.622  1.00  0.00     0.029 A 
ATOM     34  C   UNL A   1      42.424  29.443  34.483  1.00  0.00     0.049 A 
ATOM     35  H   UNL A   1      40.699  30.646  34.322  1.00  0.00     0.167 HD
ATOM     36  C   UNL A   1      42.476  30.848  36.526  1.00  0.00     0.074 A 
ATOM     37  C   UNL A   1      43.101  31.331  37.742  1.00  0.00     0.031 C 
ATOM     38  C   UNL A   1      43.012  29.908  35.712  1.00  0.00     0.037 A 
BRANCH  25  39
ATOM     39  C   UNL A   1      39.664  28.795  30.622  1.00  0.00     0.057 A 
ATOM     40  C   UNL A   1      39.040  27.541  30.635  1.00  0.00     0.134 A 
ATOM     41  C   UNL A   1      40.159  29.261  29.397  1.00  0.00     0.134 A 
ATOM     42  F   UNL A   1      38.575  27.025  31.783  1.00  0.00    -0.206 F 
ATOM     43  C   UNL A   1      38.950  26.761  29.481  1.00  0.00     0.040 A 
ATOM     44  C   UNL A   1      40.051  28.502  28.232  1.00  0.00     0.040 A 
ATOM     45  F   UNL A   1      40.775  30.449  29.319  1.00  0.00    -0.206 F 
ATOM     46  C   UNL A   1      39.456  27.243  28.275  1.00  0.00     0.006 A 
ENDBRANCH  25  39
BRANCH  26  47
ATOM     47  C   UNL A   1      40.079  33.826  39.210  1.00  0.00     0.057 A 
ATOM     48  C   UNL A   1      39.635  33.323  40.443  1.00  0.00     0.134 A 
ATOM     49  C   UNL A   1      40.558  35.137  39.188  1.00  0.00     0.134 A 
ATOM     50  F   UNL A   1      39.126  32.084  40.520  1.00  0.00    -0.206 F 
ATOM     51  C   UNL A   1      39.654  34.095  41.605  1.00  0.00     0.040 A 
ATOM     52  C   UNL A   1      40.591  35.920  40.348  1.00  0.00     0.040 A 
ATOM     53  F   UNL A   1      41.018  35.671  38.048  1.00  0.00    -0.206 F 
ATOM     54  C   UNL A   1      40.140  35.398  41.561  1.00  0.00     0.006 A 
ENDBRANCH  26  47
BRANCH  38  55
ATOM     55  C   UNL A   1      44.304  29.306  36.164  1.00  0.00     0.057 A 
ATOM     56  C   UNL A   1      45.529  29.932  35.893  1.00  0.00     0.134 A 
ATOM     57  C   UNL A   1      44.329  28.097  36.864  1.00  0.00     0.134 A 
ATOM     58  F   UNL A   1      45.569  31.084  35.207  1.00  0.00    -0.206 F 
ATOM     59  C   UNL A   1      46.739  29.359  36.283  1.00  0.00     0.040 A 
ATOM     60  C   UNL A   1      45.532  27.526  37.279  1.00  0.00     0.040 A 
ATOM     61  F   UNL A   1      43.188  27.451  37.149  1.00  0.00    -0.206 F 
ATOM     62  C   UNL A   1      46.741  28.154  36.982  1.00  0.00     0.006 A 
ENDBRANCH  38  55
ENDBRANCH  12  13
ENDBRANCH   5   7
ENDBRANCH   4   5
ENDBRANCH   3   4
ENDBRANCH   2   3
ENDBRANCH   1   2
BRANCH   1  63
ATOM     63  C   UNL A   1      33.575  33.360  28.263  1.00  0.00     0.340 C 
ATOM     64  O   UNL A   1      32.578  33.436  27.576  1.00  0.00    -0.246 OA
BRANCH  63  65
ATOM     65  C   UNL A   1      34.576  32.286  28.103  1.00  0.00     0.083 A 
ATOM     66  C   UNL A   1      35.914  32.703  28.293  1.00  0.00     0.018 A 
ATOM     67  C   UNL A   1      34.264  30.960  27.750  1.00  0.00     0.055 A 
ATOM     68  C   UNL A   1      36.969  31.805  28.174  1.00  0.00     0.001 A 
ATOM     69  C   UNL A   1      35.375  30.102  27.589  1.00  0.00     0.027 A 
ATOM     70  C   UNL A   1      36.697  30.499  27.817  1.00  0.00     0.002 A 
BRANCH  67  71
ATOM     71  N   UNL A   1      32.936  30.499  27.569  1.00  0.00    -0.323 N 
ATOM     72  H   UNL A   1      32.259  30.957  28.117  1.00  0.00     0.170 HD
BRANCH  71  73
ATOM     73  C   UNL A   1      32.435  29.491  26.729  1.00  0.00     0.233 A 
ATOM     74  N   UNL A   1      32.041  29.841  25.521  1.00  0.00    -0.182 NA
ATOM     75  N   UNL A   1      32.256  28.258  27.211  1.00  0.00    -0.176 NA
ATOM     76  C   UNL A   1      31.469  28.899  24.812  1.00  0.00     0.228 A 
ATOM     77  C   UNL A   1      31.709  27.370  26.368  1.00  0.00     0.233 A 
ATOM     78  Cl  UNL A   1      30.172  29.463  23.838  1.00  0.00    -0.041 Cl
ATOM     79  N   UNL A   1      31.374  27.640  25.120  1.00  0.00    -0.182 NA
BRANCH  77  80
ATOM     80  N   UNL A   1      31.225  26.145  26.851  1.00  0.00    -0.324 N 
ATOM     81  H   UNL A   1      30.648  26.137  27.648  1.00  0.00     0.170 HD
BRANCH  80  82
ATOM     82  C   UNL A   1      31.546  24.922  26.223  1.00  0.00     0.041 A 
ATOM     83  C   UNL A   1      32.859  24.593  25.863  1.00  0.00     0.028 A 
ATOM     84  C   UNL A   1      30.577  23.920  26.154  1.00  0.00     0.028 A 
ATOM     85  C   UNL A   1      33.182  23.299  25.412  1.00  0.00     0.028 A 
ATOM     86  C   UNL A   1      30.888  22.648  25.666  1.00  0.00     0.028 A 
ATOM     87  C   UNL A   1      32.190  22.318  25.273  1.00  0.00     0.044 A 
BRANCH  87  88
ATOM     88  N   UNL A   1      32.478  21.016  24.746  1.00  0.00    -0.308 N 
ATOM     89  C   UNL A   1      32.830  19.940  25.683  1.00  0.00     0.154 C 
ATOM     90  C   UNL A   1      32.207  20.717  23.401  1.00  0.00     0.253 C 
ATOM     91  C   UNL A   1      33.435  18.715  25.002  1.00  0.00     0.183 C 
ATOM     92  C   UNL A   1      32.483  19.271  22.961  1.00  0.00     0.260 C 
ATOM     93  O   UNL A   1      31.866  21.544  22.551  1.00  0.00    -0.272 OA
ATOM     94  O   UNL A   1      32.564  18.275  23.965  1.00  0.00    -0.370 OA
ENDBRANCH  87  88
ENDBRANCH  80  82
ENDBRANCH  77  80
ENDBRANCH  71  73
ENDBRANCH  67  71
ENDBRANCH  63  65
ENDBRANCH   1  63
TORSDOF 16
ENDMDL
MODEL 3
REMARK VINA RESULT:     -12.6      5.083      7.344
REMARK SMILES O=C(OCCOC(=O)c1ccccc1Nc1nc(Cl)nc(Nc2ccc(N3CCOCC3=O)cc2)n1)c1ccc(-c2c3nc(c(-c4c(F)cccc4F)c4ccc([nH]4)c(-c4c(F)cccc4F)c4nc(c(-c5c(F)cccc5F)c5ccc2[nH]5)C=C4)C=C3)cc1
REMARK SMILES IDX 6 1 5 2 4 3 3 4 2 5 1 6 37 7 38 8 90 9 39 10 89 11 40 12
REMARK SMILES IDX 41 13 42 14 83 15 43 16 88 17 82 18 84 19 44 20 87 21 81 22
REMARK SMILES IDX 80 23 45 25 71 26 54 27 70 28 55 29 58 30 69 31 85 32 56 33
REMARK SMILES IDX 57 34 68 36 86 37 59 38 46 39 47 40 52 41 48 42 49 43 51 44
REMARK SMILES IDX 53 45 50 46 72 47 73 48 78 49 74 50 75 51 77 52 79 53 76 54
REMARK SMILES IDX 60 55 61 56 66 57 62 58 63 59 65 60 67 61 64 62 7 63 8 64
REMARK SMILES IDX 9 65 10 66 14 67 11 68 13 69 12 70 15 71 16 73 17 74 36 75
REMARK SMILES IDX 18 76 21 77 19 78 20 79 22 80 23 82 24 83 35 84 25 85 34 86
REMARK SMILES IDX 26 87 27 88 28 89 32 90 29 91 31 92 33 93 30 94
REMARK H PARENT 84 24 58 35 15 72 22 81
REMARK Flexibility Score: inf
ROOT
ATOM      1  O   UNL A   1      33.337  34.051  29.133  1.00  0.00    -0.458 OA
ENDROOT
BRANCH   1   2
ATOM      2  C   UNL A   1      33.661  35.409  28.789  1.00  0.00     0.275 C 
BRANCH   2   3
ATOM      3  C   UNL A   1      32.691  36.422  29.403  1.00  0.00     0.275 C 
BRANCH   3   4
ATOM      4  O   UNL A   1      32.193  36.021  30.692  1.00  0.00    -0.458 OA
BRANCH   4   5
ATOM      5  C   UNL A   1      32.785  35.997  31.907  1.00  0.00     0.338 C 
ATOM      6  O   UNL A   1      32.453  36.859  32.722  1.00  0.00    -0.246 OA
BRANCH   5   7
ATOM      7  C   UNL A   1      33.883  35.056  32.324  1.00  0.00     0.060 A 
ATOM      8  C   UNL A   1      33.732  33.771  32.849  1.00  0.00     0.016 A 
ATOM      9  C   UNL A   1      35.203  35.534  32.162  1.00  0.00     0.016 A 
ATOM     10  C   UNL A   1      34.844  33.004  33.218  1.00  0.00     0.010 A 
ATOM     11  C   UNL A   1      36.321  34.767  32.516  1.00  0.00     0.010 A 
ATOM     12  C   UNL A   1      36.141  33.503  33.076  1.00  0.00    -0.014 A 
BRANCH  12  13
ATOM     13  C   UNL A   1      37.261  32.729  33.651  1.00  0.00     0.031 A 
ATOM     14  C   UNL A   1      37.998  31.759  32.787  1.00  0.00     0.074 A 
ATOM     15  C   UNL A   1      37.650  32.909  34.924  1.00  0.00     0.049 A 
ATOM     16  N   UNL A   1      39.106  31.113  33.034  1.00  0.00    -0.248 NA
ATOM     17  C   UNL A   1      37.376  31.438  31.495  1.00  0.00     0.031 C 
ATOM     18  C   UNL A   1      36.916  33.690  35.907  1.00  0.00     0.029 A 
ATOM     19  N   UNL A   1      38.758  32.465  35.603  1.00  0.00    -0.354 N 
ATOM     20  C   UNL A   1      39.283  30.258  31.960  1.00  0.00     0.074 A 
ATOM     21  C   UNL A   1      38.181  30.486  31.048  1.00  0.00     0.031 C 
ATOM     22  C   UNL A   1      37.632  33.727  37.042  1.00  0.00     0.029 A 
ATOM     23  C   UNL A   1      38.898  33.050  36.841  1.00  0.00     0.049 A 
ATOM     24  H   UNL A   1      39.387  31.799  35.242  1.00  0.00     0.167 HD
ATOM     25  C   UNL A   1      40.258  29.337  31.776  1.00  0.00     0.037 A 
ATOM     26  C   UNL A   1      39.953  33.088  37.674  1.00  0.00     0.037 A 
ATOM     27  C   UNL A   1      41.336  29.110  32.703  1.00  0.00     0.049 A 
ATOM     28  C   UNL A   1      41.152  32.258  37.332  1.00  0.00     0.074 A 
ATOM     29  C   UNL A   1      42.369  28.192  32.624  1.00  0.00     0.029 A 
ATOM     30  N   UNL A   1      41.515  29.812  33.886  1.00  0.00    -0.354 N 
ATOM     31  N   UNL A   1      41.345  31.490  36.289  1.00  0.00    -0.248 NA
ATOM     32  C   UNL A   1      42.259  32.265  38.298  1.00  0.00     0.031 C 
ATOM     33  C   UNL A   1      43.158  28.323  33.775  1.00  0.00     0.029 A 
ATOM     34  C   UNL A   1      42.642  29.350  34.547  1.00  0.00     0.049 A 
ATOM     35  H   UNL A   1      40.928  30.532  34.209  1.00  0.00     0.167 HD
ATOM     36  C   UNL A   1      42.564  30.871  36.503  1.00  0.00     0.074 A 
ATOM     37  C   UNL A   1      43.111  31.427  37.726  1.00  0.00     0.031 C 
ATOM     38  C   UNL A   1      43.151  29.888  35.781  1.00  0.00     0.037 A 
BRANCH  25  39
ATOM     39  C   UNL A   1      40.130  28.466  30.565  1.00  0.00     0.057 A 
ATOM     40  C   UNL A   1      40.826  28.732  29.379  1.00  0.00     0.134 A 
ATOM     41  C   UNL A   1      39.241  27.383  30.568  1.00  0.00     0.134 A 
ATOM     42  F   UNL A   1      41.667  29.774  29.302  1.00  0.00    -0.206 F 
ATOM     43  C   UNL A   1      40.613  27.973  28.225  1.00  0.00     0.040 A 
ATOM     44  C   UNL A   1      39.040  26.603  29.429  1.00  0.00     0.040 A 
ATOM     45  F   UNL A   1      38.538  27.083  31.669  1.00  0.00    -0.206 F 
ATOM     46  C   UNL A   1      39.718  26.905  28.250  1.00  0.00     0.006 A 
ENDBRANCH  25  39
BRANCH  26  47
ATOM     47  C   UNL A   1      40.000  33.987  38.856  1.00  0.00     0.057 A 
ATOM     48  C   UNL A   1      39.532  33.534  40.099  1.00  0.00     0.134 A 
ATOM     49  C   UNL A   1      40.426  35.314  38.777  1.00  0.00     0.134 A 
ATOM     50  F   UNL A   1      39.071  32.280  40.228  1.00  0.00    -0.206 F 
ATOM     51  C   UNL A   1      39.477  34.369  41.216  1.00  0.00     0.040 A 
ATOM     52  C   UNL A   1      40.385  36.160  39.892  1.00  0.00     0.040 A 
ATOM     53  F   UNL A   1      40.905  35.804  37.625  1.00  0.00    -0.206 F 
ATOM     54  C   UNL A   1      39.912  35.686  41.115  1.00  0.00     0.006 A 
ENDBRANCH  26  47
BRANCH  38  55
ATOM     55  C   UNL A   1      44.413  29.320  36.346  1.00  0.00     0.057 A 
ATOM     56  C   UNL A   1      44.399  28.160  37.133  1.00  0.00     0.134 A 
ATOM     57  C   UNL A   1      45.646  29.936  36.112  1.00  0.00     0.134 A 
ATOM     58  F   UNL A   1      43.243  27.538  37.408  1.00  0.00    -0.206 F 
ATOM     59  C   UNL A   1      45.569  27.645  37.689  1.00  0.00     0.040 A 
ATOM     60  C   UNL A   1      46.826  29.417  36.644  1.00  0.00     0.040 A 
ATOM     61  F   UNL A   1      45.722  31.050  35.369  1.00  0.00    -0.206 F 
ATOM     62  C   UNL A   1      46.788  28.273  37.442  1.00  0.00     0.006 A 
ENDBRANCH  38  55
ENDBRANCH  12  13
ENDBRANCH   5   7
ENDBRANCH   4   5
ENDBRANCH   3   4
ENDBRANCH   2   3
ENDBRANCH   1   2
BRANCH   1  63
ATOM     63  C   UNL A   1      32.968  33.277  28.076  1.00  0.00     0.340 C 
ATOM     64  O   UNL A   1      32.073  33.505  27.290  1.00  0.00    -0.246 OA
BRANCH  63  65
ATOM     65  C   UNL A   1      33.924  32.165  27.900  1.00  0.00     0.083 A 
ATOM     66  C   UNL A   1      35.253  32.473  28.271  1.00  0.00     0.018 A 
ATOM     67  C   UNL A   1      33.583  30.906  27.371  1.00  0.00     0.055 A 
ATOM     68  C   UNL A   1      36.267  31.527  28.160  1.00  0.00     0.001 A 
ATOM     69  C   UNL A   1      34.659  30.000  27.230  1.00  0.00     0.027 A 
ATOM     70  C   UNL A   1      35.967  30.286  27.634  1.00  0.00     0.002 A 
BRANCH  67  71
ATOM     71  N   UNL A   1      32.260  30.552  27.006  1.00  0.00    -0.323 N 
ATOM     72  H   UNL A   1      31.560  30.876  27.617  1.00  0.00     0.170 HD
BRANCH  71  73
ATOM     73  C   UNL A   1      31.792  29.813  25.907  1.00  0.00     0.233 A 
ATOM     74  N   UNL A   1      31.108  30.457  24.983  1.00  0.00    -0.182 NA
ATOM     75  N   UNL A   1      31.940  28.485  25.893  1.00  0.00    -0.176 NA
ATOM     76  C   UNL A   1      30.585  29.714  24.039  1.00  0.00     0.228 A 
ATOM     77  C   UNL A   1      31.405  27.844  24.843  1.00  0.00     0.233 A 
ATOM     78  Cl  UNL A   1      29.040  30.250  23.518  1.00  0.00    -0.041 Cl
ATOM     79  N   UNL A   1      30.784  28.444  23.845  1.00  0.00    -0.182 NA
BRANCH  77  80
ATOM     80  N   UNL A   1      31.258  26.449  24.869  1.00  0.00    -0.324 N 
ATOM     81  H   UNL A   1      30.358  26.060  24.783  1.00  0.00     0.170 HD
BRANCH  80  82
ATOM     82  C   UNL A   1      32.367  25.589  25.017  1.00  0.00     0.041 A 
ATOM     83  C   UNL A   1      32.621  24.903  26.212  1.00  0.00     0.028 A 
ATOM     84  C   UNL A   1      33.109  25.238  23.889  1.00  0.00     0.028 A 
ATOM     85  C   UNL A   1      33.619  23.911  26.278  1.00  0.00     0.028 A 
ATOM     86  C   UNL A   1      34.129  24.285  23.965  1.00  0.00     0.028 A 
ATOM     87  C   UNL A   1      34.412  23.616  25.160  1.00  0.00     0.044 A 
BRANCH  87  88
ATOM     88  N   UNL A   1      35.484  22.665  25.219  1.00  0.00    -0.308 N 
ATOM     89  C   UNL A   1      35.288  21.345  24.606  1.00  0.00     0.154 C 
ATOM     90  C   UNL A   1      36.763  23.061  25.646  1.00  0.00     0.253 C 
ATOM     91  C   UNL A   1      36.343  20.320  25.018  1.00  0.00     0.183 C 
ATOM     92  C   UNL A   1      37.855  21.981  25.599  1.00  0.00     0.260 C 
ATOM     93  O   UNL A   1      37.033  24.160  26.135  1.00  0.00    -0.272 OA
ATOM     94  O   UNL A   1      37.639  20.853  24.769  1.00  0.00    -0.370 OA
ENDBRANCH  87  88
ENDBRANCH  80  82
ENDBRANCH  77  80
ENDBRANCH  71  73
ENDBRANCH  67  71
ENDBRANCH  63  65
ENDBRANCH   1  63
TORSDOF 16
ENDMDL
