MODEL 1
REMARK VINA RESULT:      -9.6      0.000      0.000
REMARK SMILES Cc1cc(CNS(=O)(=O)c2ccc(C(=O)OCCOC(=O)c3ccc(-c4c5nc(c(-c6c(F)cccc6F)c6ccc([nH]6)c(-c6c(F)cccc6F)c6nc(c(-c7c(F)cccc7F)c7ccc4[nH]7)C=C6)C=C5)cc3)cc2F)no1
REMARK SMILES IDX 17 1 16 2 14 3 15 4 13 5 10 6 11 7 77 8 12 9 76 10 78 11
REMARK SMILES IDX 7 12 8 13 9 14 6 15 5 17 4 18 1 19 2 20 3 21 80 22 79 23
REMARK SMILES IDX 18 24 19 25 20 26 21 27 22 28 23 29 75 30 24 31 74 32 25 33
REMARK SMILES IDX 26 34 27 35 68 36 28 37 73 38 67 39 69 40 29 41 72 42 66 43
REMARK SMILES IDX 65 44 30 46 56 47 39 48 55 49 40 50 43 51 54 52 70 53 41 54
REMARK SMILES IDX 42 55 53 57 71 58 44 59 31 60 32 61 37 62 33 63 34 64 36 65
REMARK SMILES IDX 38 66 35 67 57 68 58 69 63 70 59 71 60 72 62 73 64 74 61 75
REMARK SMILES IDX 45 76 46 77 51 78 47 79 48 80 50 81 52 82 49 83
REMARK H PARENT 6 16 69 45 43 56
REMARK Flexibility Score: inf
ROOT
ATOM      1  C   UNL A   1      44.743  19.380  25.420  1.00  0.00     0.275 C 
ENDROOT
BRANCH   1   2
ATOM      2  O   UNL A   1      44.608  20.818  25.363  1.00  0.00    -0.458 OA
BRANCH   2   3
ATOM      3  C   UNL A   1      45.739  21.499  25.059  1.00  0.00     0.338 C 
ATOM      4  O   UNL A   1      46.780  21.026  24.629  1.00  0.00    -0.246 OA
BRANCH   3   5
ATOM      5  C   UNL A   1      45.546  22.961  25.210  1.00  0.00     0.063 A 
ATOM      6  C   UNL A   1      45.262  25.705  25.654  1.00  0.00     0.118 A 
ATOM      7  C   UNL A   1      46.443  25.070  26.031  1.00  0.00     0.026 A 
ATOM      8  C   UNL A   1      44.233  24.979  25.061  1.00  0.00     0.144 A 
ATOM      9  C   UNL A   1      46.564  23.697  25.840  1.00  0.00     0.017 A 
ATOM     10  C   UNL A   1      44.374  23.609  24.816  1.00  0.00     0.056 A 
ATOM     11  F   UNL A   1      43.082  25.576  24.720  1.00  0.00    -0.205 F 
BRANCH   6  12
ATOM     12  S   UNL A   1      45.061  27.420  26.009  1.00  0.00     0.243 S 
ATOM     13  O   UNL A   1      44.219  27.514  27.186  1.00  0.00    -0.207 OA
ATOM     14  O   UNL A   1      44.706  28.070  24.772  1.00  0.00    -0.207 OA
BRANCH  12  15
ATOM     15  N   UNL A   1      46.567  27.960  26.459  1.00  0.00    -0.205 NA
ATOM     16  H   UNL A   1      47.099  27.145  26.764  1.00  0.00     0.141 HD
BRANCH  15  17
ATOM     17  C   UNL A   1      46.675  28.962  27.517  1.00  0.00     0.158 C 
BRANCH  17  18
ATOM     18  C   UNL A   1      46.225  30.270  26.958  1.00  0.00     0.099 A 
ATOM     19  C   UNL A   1      44.186  33.169  26.023  1.00  0.00     0.091 C 
ATOM     20  C   UNL A   1      45.088  32.050  26.346  1.00  0.00     0.133 A 
ATOM     21  C   UNL A   1      44.956  30.883  27.059  1.00  0.00     0.073 A 
ATOM     22  O   UNL A   1      46.350  32.134  25.850  1.00  0.00    -0.361 OA
ATOM     23  N   UNL A   1      47.071  31.018  26.234  1.00  0.00    -0.083 NA
ENDBRANCH  17  18
ENDBRANCH  15  17
ENDBRANCH  12  15
ENDBRANCH   6  12
ENDBRANCH   3   5
ENDBRANCH   2   3
ENDBRANCH   1   2
BRANCH   1  24
ATOM     24  C   UNL A   1      43.392  18.689  25.607  1.00  0.00     0.275 C 
BRANCH  24  25
ATOM     25  O   UNL A   1      42.333  19.483  25.039  1.00  0.00    -0.458 OA
BRANCH  25  26
ATOM     26  C   UNL A   1      41.222  19.600  25.800  1.00  0.00     0.338 C 
ATOM     27  O   UNL A   1      40.321  18.790  25.938  1.00  0.00    -0.246 OA
BRANCH  26  28
ATOM     28  C   UNL A   1      41.259  20.861  26.556  1.00  0.00     0.060 A 
ATOM     29  C   UNL A   1      41.260  22.052  25.842  1.00  0.00     0.016 A 
ATOM     30  C   UNL A   1      41.489  20.872  27.930  1.00  0.00     0.016 A 
ATOM     31  C   UNL A   1      41.622  23.244  26.463  1.00  0.00     0.010 A 
ATOM     32  C   UNL A   1      41.727  22.093  28.578  1.00  0.00     0.010 A 
ATOM     33  C   UNL A   1      41.845  23.290  27.847  1.00  0.00    -0.014 A 
BRANCH  33  34
ATOM     34  C   UNL A   1      42.231  24.574  28.508  1.00  0.00     0.031 A 
ATOM     35  C   UNL A   1      41.217  25.677  28.696  1.00  0.00     0.074 A 
ATOM     36  C   UNL A   1      43.485  24.757  28.974  1.00  0.00     0.049 A 
ATOM     37  N   UNL A   1      41.401  26.914  29.088  1.00  0.00    -0.248 NA
ATOM     38  C   UNL A   1      39.814  25.353  28.394  1.00  0.00     0.031 C 
ATOM     39  C   UNL A   1      44.565  23.769  28.914  1.00  0.00     0.029 A 
ATOM     40  N   UNL A   1      44.063  25.832  29.607  1.00  0.00    -0.354 N 
ATOM     41  C   UNL A   1      40.154  27.527  29.021  1.00  0.00     0.074 A 
ATOM     42  C   UNL A   1      39.221  26.529  28.548  1.00  0.00     0.031 C 
ATOM     43  C   UNL A   1      45.647  24.258  29.536  1.00  0.00     0.029 A 
ATOM     44  C   UNL A   1      45.380  25.632  29.945  1.00  0.00     0.049 A 
ATOM     45  H   UNL A   1      43.579  26.667  29.800  1.00  0.00     0.167 HD
ATOM     46  C   UNL A   1      39.820  28.804  29.328  1.00  0.00     0.037 A 
ATOM     47  C   UNL A   1      46.294  26.465  30.480  1.00  0.00     0.037 A 
ATOM     48  C   UNL A   1      40.736  29.779  29.862  1.00  0.00     0.049 A 
ATOM     49  C   UNL A   1      45.912  27.885  30.776  1.00  0.00     0.074 A 
ATOM     50  C   UNL A   1      40.483  31.094  30.215  1.00  0.00     0.029 A 
ATOM     51  N   UNL A   1      42.072  29.541  30.142  1.00  0.00    -0.354 N 
ATOM     52  N   UNL A   1      44.748  28.470  30.635  1.00  0.00    -0.248 NA
ATOM     53  C   UNL A   1      46.973  28.768  31.279  1.00  0.00     0.031 C 
ATOM     54  C   UNL A   1      41.676  31.663  30.673  1.00  0.00     0.029 A 
ATOM     55  C   UNL A   1      42.659  30.689  30.650  1.00  0.00     0.049 A 
ATOM     56  H   UNL A   1      42.536  28.684  30.001  1.00  0.00     0.167 HD
ATOM     57  C   UNL A   1      44.933  29.785  31.038  1.00  0.00     0.074 A 
ATOM     58  C   UNL A   1      46.317  29.908  31.448  1.00  0.00     0.031 C 
ATOM     59  C   UNL A   1      44.036  30.799  31.059  1.00  0.00     0.037 A 
BRANCH  46  60
ATOM     60  C   UNL A   1      38.406  29.242  29.077  1.00  0.00     0.057 A 
ATOM     61  C   UNL A   1      38.020  29.692  27.807  1.00  0.00     0.134 A 
ATOM     62  C   UNL A   1      37.450  29.298  30.098  1.00  0.00     0.134 A 
ATOM     63  F   UNL A   1      38.891  29.677  26.786  1.00  0.00    -0.206 F 
ATOM     64  C   UNL A   1      36.739  30.192  27.564  1.00  0.00     0.040 A 
ATOM     65  C   UNL A   1      36.157  29.772  29.862  1.00  0.00     0.040 A 
ATOM     66  F   UNL A   1      37.749  28.871  31.334  1.00  0.00    -0.206 F 
ATOM     67  C   UNL A   1      35.803  30.231  28.594  1.00  0.00     0.006 A 
ENDBRANCH  46  60
BRANCH  47  68
ATOM     68  C   UNL A   1      47.674  25.975  30.732  1.00  0.00     0.057 A 
ATOM     69  C   UNL A   1      48.088  25.578  32.011  1.00  0.00     0.134 A 
ATOM     70  C   UNL A   1      48.622  25.928  29.706  1.00  0.00     0.134 A 
ATOM     71  F   UNL A   1      47.226  25.601  33.038  1.00  0.00    -0.206 F 
ATOM     72  C   UNL A   1      49.401  25.186  32.267  1.00  0.00     0.040 A 
ATOM     73  C   UNL A   1      49.934  25.511  29.940  1.00  0.00     0.040 A 
ATOM     74  F   UNL A   1      48.281  26.270  28.454  1.00  0.00    -0.206 F 
ATOM     75  C   UNL A   1      50.329  25.150  31.228  1.00  0.00     0.006 A 
ENDBRANCH  47  68
BRANCH  59  76
ATOM     76  C   UNL A   1      44.507  32.131  31.563  1.00  0.00     0.057 A 
ATOM     77  C   UNL A   1      44.240  32.531  32.878  1.00  0.00     0.134 A 
ATOM     78  C   UNL A   1      45.163  33.043  30.728  1.00  0.00     0.134 A 
ATOM     79  F   UNL A   1      43.607  31.707  33.726  1.00  0.00    -0.206 F 
ATOM     80  C   UNL A   1      44.596  33.798  33.341  1.00  0.00     0.040 A 
ATOM     81  C   UNL A   1      45.545  34.305  31.185  1.00  0.00     0.040 A 
ATOM     82  F   UNL A   1      45.458  32.713  29.460  1.00  0.00    -0.206 F 
ATOM     83  C   UNL A   1      45.254  34.688  32.494  1.00  0.00     0.006 A 
ENDBRANCH  59  76
ENDBRANCH  33  34
ENDBRANCH  26  28
ENDBRANCH  25  26
ENDBRANCH  24  25
ENDBRANCH   1  24
TORSDOF 15
ENDMDL
MODEL 2
REMARK VINA RESULT:      -9.6      4.793      9.831
REMARK SMILES Cc1cc(CNS(=O)(=O)c2ccc(C(=O)OCCOC(=O)c3ccc(-c4c5nc(c(-c6c(F)cccc6F)c6ccc([nH]6)c(-c6c(F)cccc6F)c6nc(c(-c7c(F)cccc7F)c7ccc4[nH]7)C=C6)C=C5)cc3)cc2F)no1
REMARK SMILES IDX 17 1 16 2 14 3 15 4 13 5 10 6 11 7 77 8 12 9 76 10 78 11
REMARK SMILES IDX 7 12 8 13 9 14 6 15 5 17 4 18 1 19 2 20 3 21 80 22 79 23
REMARK SMILES IDX 18 24 19 25 20 26 21 27 22 28 23 29 75 30 24 31 74 32 25 33
REMARK SMILES IDX 26 34 27 35 68 36 28 37 73 38 67 39 69 40 29 41 72 42 66 43
REMARK SMILES IDX 65 44 30 46 56 47 39 48 55 49 40 50 43 51 54 52 70 53 41 54
REMARK SMILES IDX 42 55 53 57 71 58 44 59 31 60 32 61 37 62 33 63 34 64 36 65
REMARK SMILES IDX 38 66 35 67 57 68 58 69 63 70 59 71 60 72 62 73 64 74 61 75
REMARK SMILES IDX 45 76 46 77 51 78 47 79 48 80 50 81 52 82 49 83
REMARK H PARENT 6 16 69 45 43 56
REMARK Flexibility Score: inf
ROOT
ATOM      1  C   UNL A   1      42.397  20.452  26.210  1.00  0.00     0.275 C 
ENDROOT
BRANCH   1   2
ATOM      2  O   UNL A   1      41.051  20.976  26.254  1.00  0.00    -0.458 OA
BRANCH   2   3
ATOM      3  C   UNL A   1      40.082  20.133  25.821  1.00  0.00     0.338 C 
ATOM      4  O   UNL A   1      40.186  18.928  25.658  1.00  0.00    -0.246 OA
BRANCH   3   5
ATOM      5  C   UNL A   1      38.789  20.838  25.655  1.00  0.00     0.063 A 
ATOM      6  C   UNL A   1      36.332  22.084  25.185  1.00  0.00     0.118 A 
ATOM      7  C   UNL A   1      36.495  20.743  24.846  1.00  0.00     0.026 A 
ATOM      8  C   UNL A   1      37.384  22.797  25.753  1.00  0.00     0.144 A 
ATOM      9  C   UNL A   1      37.732  20.139  25.049  1.00  0.00     0.017 A 
ATOM     10  C   UNL A   1      38.611  22.177  26.011  1.00  0.00     0.056 A 
ATOM     11  F   UNL A   1      37.246  24.095  26.057  1.00  0.00    -0.205 F 
BRANCH   6  12
ATOM     12  S   UNL A   1      34.805  22.882  24.812  1.00  0.00     0.243 S 
ATOM     13  O   UNL A   1      35.086  23.890  23.810  1.00  0.00    -0.207 OA
ATOM     14  O   UNL A   1      34.185  23.219  26.071  1.00  0.00    -0.207 OA
BRANCH  12  15
ATOM     15  N   UNL A   1      33.868  21.725  24.073  1.00  0.00    -0.205 NA
ATOM     16  H   UNL A   1      33.499  22.141  23.217  1.00  0.00     0.141 HD
BRANCH  15  17
ATOM     17  C   UNL A   1      32.731  21.163  24.799  1.00  0.00     0.158 C 
BRANCH  17  18
ATOM     18  C   UNL A   1      32.917  19.685  24.868  1.00  0.00     0.099 A 
ATOM     19  C   UNL A   1      33.684  16.203  24.015  1.00  0.00     0.091 C 
ATOM     20  C   UNL A   1      33.345  17.567  24.455  1.00  0.00     0.133 A 
ATOM     21  C   UNL A   1      33.412  18.810  23.874  1.00  0.00     0.073 A 
ATOM     22  O   UNL A   1      32.844  17.685  25.713  1.00  0.00    -0.361 OA
ATOM     23  N   UNL A   1      32.576  19.016  25.979  1.00  0.00    -0.083 NA
ENDBRANCH  17  18
ENDBRANCH  15  17
ENDBRANCH  12  15
ENDBRANCH   6  12
ENDBRANCH   3   5
ENDBRANCH   2   3
ENDBRANCH   1   2
BRANCH   1  24
ATOM     24  C   UNL A   1      43.352  21.396  25.478  1.00  0.00     0.275 C 
BRANCH  24  25
ATOM     25  O   UNL A   1      42.662  22.588  25.054  1.00  0.00    -0.458 OA
BRANCH  25  26
ATOM     26  C   UNL A   1      43.378  23.731  25.128  1.00  0.00     0.338 C 
ATOM     27  O   UNL A   1      44.393  24.018  24.516  1.00  0.00    -0.246 OA
BRANCH  26  28
ATOM     28  C   UNL A   1      42.713  24.687  26.027  1.00  0.00     0.060 A 
ATOM     29  C   UNL A   1      43.138  26.009  26.005  1.00  0.00     0.016 A 
ATOM     30  C   UNL A   1      41.829  24.255  27.012  1.00  0.00     0.016 A 
ATOM     31  C   UNL A   1      42.793  26.876  27.038  1.00  0.00     0.010 A 
ATOM     32  C   UNL A   1      41.380  25.165  27.981  1.00  0.00     0.010 A 
ATOM     33  C   UNL A   1      41.893  26.475  28.037  1.00  0.00    -0.014 A 
BRANCH  33  34
ATOM     34  C   UNL A   1      41.525  27.412  29.143  1.00  0.00     0.031 A 
ATOM     35  C   UNL A   1      42.335  27.452  30.417  1.00  0.00     0.074 A 
ATOM     36  C   UNL A   1      40.482  28.256  29.008  1.00  0.00     0.049 A 
ATOM     37  N   UNL A   1      42.075  28.066  31.545  1.00  0.00    -0.248 NA
ATOM     38  C   UNL A   1      43.596  26.694  30.432  1.00  0.00     0.031 C 
ATOM     39  C   UNL A   1      39.633  28.375  27.821  1.00  0.00     0.029 A 
ATOM     40  N   UNL A   1      39.963  29.192  29.872  1.00  0.00    -0.354 N 
ATOM     41  C   UNL A   1      43.102  27.721  32.416  1.00  0.00     0.074 A 
ATOM     42  C   UNL A   1      43.990  26.840  31.689  1.00  0.00     0.031 C 
ATOM     43  C   UNL A   1      38.746  29.362  28.006  1.00  0.00     0.029 A 
ATOM     44  C   UNL A   1      38.886  29.877  29.363  1.00  0.00     0.049 A 
ATOM     45  H   UNL A   1      40.329  29.356  30.771  1.00  0.00     0.167 HD
ATOM     46  C   UNL A   1      43.289  28.105  33.702  1.00  0.00     0.037 A 
ATOM     47  C   UNL A   1      38.066  30.785  29.928  1.00  0.00     0.037 A 
ATOM     48  C   UNL A   1      42.442  29.035  34.404  1.00  0.00     0.049 A 
ATOM     49  C   UNL A   1      38.268  31.167  31.365  1.00  0.00     0.074 A 
ATOM     50  C   UNL A   1      42.561  29.493  35.706  1.00  0.00     0.029 A 
ATOM     51  N   UNL A   1      41.334  29.665  33.860  1.00  0.00    -0.354 N 
ATOM     52  N   UNL A   1      39.199  30.773  32.197  1.00  0.00    -0.248 NA
ATOM     53  C   UNL A   1      37.291  32.097  31.949  1.00  0.00     0.031 C 
ATOM     54  C   UNL A   1      41.503  30.371  35.961  1.00  0.00     0.029 A 
ATOM     55  C   UNL A   1      40.754  30.497  34.804  1.00  0.00     0.049 A 
ATOM     56  H   UNL A   1      41.008  29.540  32.939  1.00  0.00     0.167 HD
ATOM     57  C   UNL A   1      38.928  31.410  33.400  1.00  0.00     0.074 A 
ATOM     58  C   UNL A   1      37.756  32.232  33.184  1.00  0.00     0.031 C 
ATOM     59  C   UNL A   1      39.590  31.315  34.578  1.00  0.00     0.037 A 
BRANCH  46  60
ATOM     60  C   UNL A   1      44.443  27.510  34.456  1.00  0.00     0.057 A 
ATOM     61  C   UNL A   1      45.703  28.124  34.421  1.00  0.00     0.134 A 
ATOM     62  C   UNL A   1      44.336  26.297  35.148  1.00  0.00     0.134 A 
ATOM     63  F   UNL A   1      45.877  29.282  33.766  1.00  0.00    -0.206 F 
ATOM     64  C   UNL A   1      46.816  27.548  35.034  1.00  0.00     0.040 A 
ATOM     65  C   UNL A   1      45.438  25.723  35.788  1.00  0.00     0.040 A 
ATOM     66  F   UNL A   1      43.158  25.664  35.232  1.00  0.00    -0.206 F 
ATOM     67  C   UNL A   1      46.685  26.344  35.723  1.00  0.00     0.006 A 
ENDBRANCH  46  60
BRANCH  47  68
ATOM     68  C   UNL A   1      36.953  31.363  29.131  1.00  0.00     0.057 A 
ATOM     69  C   UNL A   1      36.985  32.692  28.686  1.00  0.00     0.134 A 
ATOM     70  C   UNL A   1      35.814  30.611  28.829  1.00  0.00     0.134 A 
ATOM     71  F   UNL A   1      38.049  33.467  28.944  1.00  0.00    -0.206 F 
ATOM     72  C   UNL A   1      35.912  33.261  28.001  1.00  0.00     0.040 A 
ATOM     73  C   UNL A   1      34.744  31.158  28.119  1.00  0.00     0.040 A 
ATOM     74  F   UNL A   1      35.734  29.326  29.204  1.00  0.00    -0.206 F 
ATOM     75  C   UNL A   1      34.786  32.492  27.713  1.00  0.00     0.006 A 
ENDBRANCH  47  68
BRANCH  59  76
ATOM     76  C   UNL A   1      39.083  32.136  35.726  1.00  0.00     0.057 A 
ATOM     77  C   UNL A   1      39.508  33.459  35.898  1.00  0.00     0.134 A 
ATOM     78  C   UNL A   1      38.231  31.596  36.695  1.00  0.00     0.134 A 
ATOM     79  F   UNL A   1      40.332  34.032  35.009  1.00  0.00    -0.206 F 
ATOM     80  C   UNL A   1      39.114  34.213  37.004  1.00  0.00     0.040 A 
ATOM     81  C   UNL A   1      37.810  32.347  37.795  1.00  0.00     0.040 A 
ATOM     82  F   UNL A   1      37.779  30.338  36.580  1.00  0.00    -0.206 F 
ATOM     83  C   UNL A   1      38.260  33.657  37.955  1.00  0.00     0.006 A 
ENDBRANCH  59  76
ENDBRANCH  33  34
ENDBRANCH  26  28
ENDBRANCH  25  26
ENDBRANCH  24  25
ENDBRANCH   1  24
TORSDOF 15
ENDMDL
MODEL 3
REMARK VINA RESULT:      -9.4      4.724      9.424
REMARK SMILES Cc1cc(CNS(=O)(=O)c2ccc(C(=O)OCCOC(=O)c3ccc(-c4c5nc(c(-c6c(F)cccc6F)c6ccc([nH]6)c(-c6c(F)cccc6F)c6nc(c(-c7c(F)cccc7F)c7ccc4[nH]7)C=C6)C=C5)cc3)cc2F)no1
REMARK SMILES IDX 17 1 16 2 14 3 15 4 13 5 10 6 11 7 77 8 12 9 76 10 78 11
REMARK SMILES IDX 7 12 8 13 9 14 6 15 5 17 4 18 1 19 2 20 3 21 80 22 79 23
REMARK SMILES IDX 18 24 19 25 20 26 21 27 22 28 23 29 75 30 24 31 74 32 25 33
REMARK SMILES IDX 26 34 27 35 68 36 28 37 73 38 67 39 69 40 29 41 72 42 66 43
REMARK SMILES IDX 65 44 30 46 56 47 39 48 55 49 40 50 43 51 54 52 70 53 41 54
REMARK SMILES IDX 42 55 53 57 71 58 44 59 31 60 32 61 37 62 33 63 34 64 36 65
REMARK SMILES IDX 38 66 35 67 57 68 58 69 63 70 59 71 60 72 62 73 64 74 61 75
REMARK SMILES IDX 45 76 46 77 51 78 47 79 48 80 50 81 52 82 49 83
REMARK H PARENT 6 16 69 45 43 56
REMARK Flexibility Score: inf
ROOT
ATOM      1  C   UNL A   1      42.584  20.719  26.463  1.00  0.00     0.275 C 
ENDROOT
BRANCH   1   2
ATOM      2  O   UNL A   1      41.200  21.135  26.510  1.00  0.00    -0.458 OA
BRANCH   2   3
ATOM      3  C   UNL A   1      40.314  20.274  25.955  1.00  0.00     0.338 C 
ATOM      4  O   UNL A   1      40.491  19.086  25.736  1.00  0.00    -0.246 OA
BRANCH   3   5
ATOM      5  C   UNL A   1      39.003  20.926  25.720  1.00  0.00     0.063 A 
ATOM      6  C   UNL A   1      36.525  22.071  25.121  1.00  0.00     0.118 A 
ATOM      7  C   UNL A   1      36.756  20.733  24.805  1.00  0.00     0.026 A 
ATOM      8  C   UNL A   1      37.521  22.830  25.731  1.00  0.00     0.144 A 
ATOM      9  C   UNL A   1      38.004  20.180  25.074  1.00  0.00     0.017 A 
ATOM     10  C   UNL A   1      38.757  22.260  26.053  1.00  0.00     0.056 A 
ATOM     11  F   UNL A   1      37.318  24.123  26.014  1.00  0.00    -0.205 F 
BRANCH   6  12
ATOM     12  S   UNL A   1      34.988  22.804  24.669  1.00  0.00     0.243 S 
ATOM     13  O   UNL A   1      34.119  21.731  24.229  1.00  0.00    -0.207 OA
ATOM     14  O   UNL A   1      35.289  23.930  23.818  1.00  0.00    -0.207 OA
BRANCH  12  15
ATOM     15  N   UNL A   1      34.341  23.390  26.084  1.00  0.00    -0.205 NA
ATOM     16  H   UNL A   1      35.076  23.342  26.791  1.00  0.00     0.141 HD
BRANCH  15  17
ATOM     17  C   UNL A   1      33.161  22.738  26.648  1.00  0.00     0.158 C 
BRANCH  17  18
ATOM     18  C   UNL A   1      31.984  23.617  26.388  1.00  0.00     0.099 A 
ATOM     19  C   UNL A   1      29.695  26.065  24.904  1.00  0.00     0.091 C 
ATOM     20  C   UNL A   1      30.543  25.068  25.580  1.00  0.00     0.133 A 
ATOM     21  C   UNL A   1      31.762  24.499  25.306  1.00  0.00     0.073 A 
ATOM     22  O   UNL A   1      30.063  24.564  26.747  1.00  0.00    -0.361 OA
ATOM     23  N   UNL A   1      30.964  23.648  27.259  1.00  0.00    -0.083 NA
ENDBRANCH  17  18
ENDBRANCH  15  17
ENDBRANCH  12  15
ENDBRANCH   6  12
ENDBRANCH   3   5
ENDBRANCH   2   3
ENDBRANCH   1   2
BRANCH   1  24
ATOM     24  C   UNL A   1      43.371  21.485  25.398  1.00  0.00     0.275 C 
BRANCH  24  25
ATOM     25  O   UNL A   1      42.670  22.682  25.011  1.00  0.00    -0.458 OA
BRANCH  25  26
ATOM     26  C   UNL A   1      43.388  23.825  25.081  1.00  0.00     0.338 C 
ATOM     27  O   UNL A   1      44.391  24.117  24.451  1.00  0.00    -0.246 OA
BRANCH  26  28
ATOM     28  C   UNL A   1      42.742  24.773  26.000  1.00  0.00     0.060 A 
ATOM     29  C   UNL A   1      43.182  26.091  25.996  1.00  0.00     0.016 A 
ATOM     30  C   UNL A   1      41.862  24.336  26.987  1.00  0.00     0.016 A 
ATOM     31  C   UNL A   1      42.856  26.944  27.046  1.00  0.00     0.010 A 
ATOM     32  C   UNL A   1      41.432  25.235  27.974  1.00  0.00     0.010 A 
ATOM     33  C   UNL A   1      41.960  26.538  28.047  1.00  0.00    -0.014 A 
BRANCH  33  34
ATOM     34  C   UNL A   1      41.613  27.460  29.171  1.00  0.00     0.031 A 
ATOM     35  C   UNL A   1      42.445  27.484  30.430  1.00  0.00     0.074 A 
ATOM     36  C   UNL A   1      40.567  28.306  29.065  1.00  0.00     0.049 A 
ATOM     37  N   UNL A   1      42.206  28.084  31.571  1.00  0.00    -0.248 NA
ATOM     38  C   UNL A   1      43.706  26.726  30.413  1.00  0.00     0.031 C 
ATOM     39  C   UNL A   1      39.697  28.440  27.895  1.00  0.00     0.029 A 
ATOM     40  N   UNL A   1      40.064  29.231  29.951  1.00  0.00    -0.354 N 
ATOM     41  C   UNL A   1      43.249  27.728  32.419  1.00  0.00     0.074 A 
ATOM     42  C   UNL A   1      44.123  26.857  31.664  1.00  0.00     0.031 C 
ATOM     43  C   UNL A   1      38.813  29.425  28.109  1.00  0.00     0.029 A 
ATOM     44  C   UNL A   1      38.978  29.923  29.469  1.00  0.00     0.049 A 
ATOM     45  H   UNL A   1      40.446  29.384  30.845  1.00  0.00     0.167 HD
ATOM     46  C   UNL A   1      43.458  28.096  33.705  1.00  0.00     0.037 A 
ATOM     47  C   UNL A   1      38.168  30.823  30.060  1.00  0.00     0.037 A 
ATOM     48  C   UNL A   1      42.624  29.017  34.435  1.00  0.00     0.049 A 
ATOM     49  C   UNL A   1      38.396  31.187  31.498  1.00  0.00     0.074 A 
ATOM     50  C   UNL A   1      42.767  29.458  35.740  1.00  0.00     0.029 A 
ATOM     51  N   UNL A   1      41.507  29.654  33.918  1.00  0.00    -0.354 N 
ATOM     52  N   UNL A   1      39.343  30.783  32.309  1.00  0.00    -0.248 NA
ATOM     53  C   UNL A   1      37.431  32.110  32.112  1.00  0.00     0.031 C 
ATOM     54  C   UNL A   1      41.714  30.333  36.025  1.00  0.00     0.029 A 
ATOM     55  C   UNL A   1      40.944  30.474  34.883  1.00  0.00     0.049 A 
ATOM     56  H   UNL A   1      41.164  29.541  33.002  1.00  0.00     0.167 HD
ATOM     57  C   UNL A   1      39.093  31.405  33.524  1.00  0.00     0.074 A 
ATOM     58  C   UNL A   1      37.918  32.229  33.340  1.00  0.00     0.031 C 
ATOM     59  C   UNL A   1      39.776  31.295  34.688  1.00  0.00     0.037 A 
BRANCH  46  60
ATOM     60  C   UNL A   1      44.625  27.491  34.431  1.00  0.00     0.057 A 
ATOM     61  C   UNL A   1      45.885  28.105  34.379  1.00  0.00     0.134 A 
ATOM     62  C   UNL A   1      44.531  26.271  35.110  1.00  0.00     0.134 A 
ATOM     63  F   UNL A   1      46.048  29.271  33.735  1.00  0.00    -0.206 F 
ATOM     64  C   UNL A   1      47.010  27.521  34.965  1.00  0.00     0.040 A 
ATOM     65  C   UNL A   1      45.644  25.689  35.723  1.00  0.00     0.040 A 
ATOM     66  F   UNL A   1      43.353  25.637  35.208  1.00  0.00    -0.206 F 
ATOM     67  C   UNL A   1      46.889  26.310  35.642  1.00  0.00     0.006 A 
ENDBRANCH  46  60
BRANCH  47  68
ATOM     68  C   UNL A   1      37.042  31.412  29.291  1.00  0.00     0.057 A 
ATOM     69  C   UNL A   1      35.869  30.686  29.040  1.00  0.00     0.134 A 
ATOM     70  C   UNL A   1      37.127  32.701  28.757  1.00  0.00     0.134 A 
ATOM     71  F   UNL A   1      35.725  29.443  29.524  1.00  0.00    -0.206 F 
ATOM     72  C   UNL A   1      34.839  31.207  28.258  1.00  0.00     0.040 A 
ATOM     73  C   UNL A   1      36.091  33.247  27.996  1.00  0.00     0.040 A 
ATOM     74  F   UNL A   1      38.212  33.456  28.984  1.00  0.00    -0.206 F 
ATOM     75  C   UNL A   1      34.948  32.493  27.734  1.00  0.00     0.006 A 
ENDBRANCH  47  68
BRANCH  59  76
ATOM     76  C   UNL A   1      39.290  32.101  35.855  1.00  0.00     0.057 A 
ATOM     77  C   UNL A   1      38.324  31.583  36.727  1.00  0.00     0.134 A 
ATOM     78  C   UNL A   1      39.726  33.412  36.076  1.00  0.00     0.134 A 
ATOM     79  F   UNL A   1      37.857  30.335  36.564  1.00  0.00    -0.206 F 
ATOM     80  C   UNL A   1      37.798  32.346  37.769  1.00  0.00     0.040 A 
ATOM     81  C   UNL A   1      39.225  34.179  37.129  1.00  0.00     0.040 A 
ATOM     82  F   UNL A   1      40.660  33.961  35.283  1.00  0.00    -0.206 F 
ATOM     83  C   UNL A   1      38.251  33.648  37.974  1.00  0.00     0.006 A 
ENDBRANCH  59  76
ENDBRANCH  33  34
ENDBRANCH  26  28
ENDBRANCH  25  26
ENDBRANCH  24  25
ENDBRANCH   1  24
TORSDOF 15
ENDMDL
