MODEL 1
REMARK VINA RESULT:     -10.4      0.000      0.000
REMARK SMILES O=C(OCCOC(=O)[C@H]1C[C@](O)(c2ccc(F)cc2)[C@@H](c2ccc(F)cc2)O1)c1ccc(-c2c3nc(c(-c4c(F)cccc4F)c4ccc([nH]4)c(-c4c(F)cccc4F)c4nc(c(-c5c(F)cccc5F)c5ccc2[nH]5)C=C4)C=C3)cc1
REMARK SMILES IDX 4 1 3 2 2 3 1 4 29 5 30 6 82 7 31 8 81 9 32 10 33 11 34 12
REMARK SMILES IDX 75 13 35 14 80 15 74 16 76 17 36 18 79 19 73 20 72 21 37 23
REMARK SMILES IDX 63 24 46 25 62 26 47 27 50 28 61 29 77 30 48 31 49 32 60 34
REMARK SMILES IDX 78 35 51 36 38 37 39 38 44 39 40 40 41 41 43 42 45 43 42 44
REMARK SMILES IDX 64 45 65 46 70 47 66 48 67 49 69 50 71 51 68 52 52 53 53 54
REMARK SMILES IDX 58 55 54 56 55 57 57 58 59 59 56 60 5 61 6 62 7 63 8 64 9 65
REMARK SMILES IDX 10 66 28 67 11 68 20 69 13 70 14 71 19 72 15 73 18 74 16 75
REMARK SMILES IDX 17 76 12 77 21 79 22 80 27 81 23 82 26 83 24 84 25 85
REMARK H PARENT 76 22 50 33 12 78
REMARK Flexibility Score: inf
ROOT
ATOM      1  C   UNL A   1      33.972  33.639  28.708  1.00  0.00     0.275 C 
ENDROOT
BRANCH   1   2
ATOM      2  O   UNL A   1      34.917  32.937  27.876  1.00  0.00    -0.458 OA
BRANCH   2   3
ATOM      3  C   UNL A   1      34.940  31.590  27.922  1.00  0.00     0.338 C 
ATOM      4  O   UNL A   1      33.984  30.891  27.645  1.00  0.00    -0.246 OA
BRANCH   3   5
ATOM      5  C   UNL A   1      36.286  31.095  28.335  1.00  0.00     0.060 A 
ATOM      6  C   UNL A   1      36.684  29.776  28.098  1.00  0.00     0.016 A 
ATOM      7  C   UNL A   1      37.209  32.006  28.854  1.00  0.00     0.016 A 
ATOM      8  C   UNL A   1      37.997  29.390  28.338  1.00  0.00     0.010 A 
ATOM      9  C   UNL A   1      38.548  31.640  29.023  1.00  0.00     0.010 A 
ATOM     10  C   UNL A   1      38.945  30.320  28.787  1.00  0.00    -0.014 A 
BRANCH  10  11
ATOM     11  C   UNL A   1      40.291  29.808  29.134  1.00  0.00     0.031 A 
ATOM     12  C   UNL A   1      40.973  30.373  30.342  1.00  0.00     0.074 A 
ATOM     13  C   UNL A   1      40.777  28.720  28.508  1.00  0.00     0.049 A 
ATOM     14  N   UNL A   1      41.904  29.836  31.084  1.00  0.00    -0.248 NA
ATOM     15  C   UNL A   1      40.534  31.703  30.792  1.00  0.00     0.031 C 
ATOM     16  C   UNL A   1      40.204  28.110  27.306  1.00  0.00     0.029 A 
ATOM     17  N   UNL A   1      41.818  27.889  28.841  1.00  0.00    -0.354 N 
ATOM     18  C   UNL A   1      42.113  30.735  32.119  1.00  0.00     0.074 A 
ATOM     19  C   UNL A   1      41.285  31.889  31.865  1.00  0.00     0.031 C 
ATOM     20  C   UNL A   1      40.853  26.962  27.046  1.00  0.00     0.029 A 
ATOM     21  C   UNL A   1      41.876  26.752  28.068  1.00  0.00     0.049 A 
ATOM     22  H   UNL A   1      42.460  28.087  29.561  1.00  0.00     0.167 HD
ATOM     23  C   UNL A   1      42.893  30.592  33.213  1.00  0.00     0.037 A 
ATOM     24  C   UNL A   1      42.628  25.642  28.208  1.00  0.00     0.037 A 
ATOM     25  C   UNL A   1      43.744  29.461  33.439  1.00  0.00     0.049 A 
ATOM     26  C   UNL A   1      43.530  25.524  29.410  1.00  0.00     0.074 A 
ATOM     27  C   UNL A   1      44.622  29.232  34.481  1.00  0.00     0.029 A 
ATOM     28  N   UNL A   1      43.826  28.367  32.589  1.00  0.00    -0.354 N 
ATOM     29  N   UNL A   1      43.672  26.348  30.420  1.00  0.00    -0.248 NA
ATOM     30  C   UNL A   1      44.360  24.314  29.502  1.00  0.00     0.031 C 
ATOM     31  C   UNL A   1      45.262  28.011  34.242  1.00  0.00     0.029 A 
ATOM     32  C   UNL A   1      44.752  27.464  33.073  1.00  0.00     0.049 A 
ATOM     33  H   UNL A   1      43.301  28.252  31.763  1.00  0.00     0.167 HD
ATOM     34  C   UNL A   1      44.588  25.752  31.276  1.00  0.00     0.074 A 
ATOM     35  C   UNL A   1      44.956  24.486  30.674  1.00  0.00     0.031 C 
ATOM     36  C   UNL A   1      45.085  26.207  32.452  1.00  0.00     0.037 A 
BRANCH  23  37
ATOM     37  C   UNL A   1      42.839  31.698  34.220  1.00  0.00     0.057 A 
ATOM     38  C   UNL A   1      42.059  31.586  35.374  1.00  0.00     0.134 A 
ATOM     39  C   UNL A   1      43.616  32.857  34.070  1.00  0.00     0.134 A 
ATOM     40  F   UNL A   1      41.302  30.498  35.582  1.00  0.00    -0.206 F 
ATOM     41  C   UNL A   1      42.057  32.584  36.350  1.00  0.00     0.040 A 
ATOM     42  C   UNL A   1      43.639  33.851  35.047  1.00  0.00     0.040 A 
ATOM     43  F   UNL A   1      44.409  33.008  32.997  1.00  0.00    -0.206 F 
ATOM     44  C   UNL A   1      42.857  33.715  36.192  1.00  0.00     0.006 A 
ENDBRANCH  23  37
BRANCH  24  45
ATOM     45  C   UNL A   1      42.505  24.527  27.233  1.00  0.00     0.057 A 
ATOM     46  C   UNL A   1      43.374  24.418  26.140  1.00  0.00     0.134 A 
ATOM     47  C   UNL A   1      41.517  23.544  27.367  1.00  0.00     0.134 A 
ATOM     48  F   UNL A   1      44.338  25.330  25.951  1.00  0.00    -0.206 F 
ATOM     49  C   UNL A   1      43.261  23.378  25.214  1.00  0.00     0.040 A 
ATOM     50  C   UNL A   1      41.406  22.487  26.459  1.00  0.00     0.040 A 
ATOM     51  F   UNL A   1      40.663  23.582  28.400  1.00  0.00    -0.206 F 
ATOM     52  C   UNL A   1      42.278  22.406  25.376  1.00  0.00     0.006 A 
ENDBRANCH  24  45
BRANCH  36  53
ATOM     53  C   UNL A   1      46.072  25.340  33.172  1.00  0.00     0.057 A 
ATOM     54  C   UNL A   1      45.639  24.403  34.118  1.00  0.00     0.134 A 
ATOM     55  C   UNL A   1      47.451  25.512  33.007  1.00  0.00     0.134 A 
ATOM     56  F   UNL A   1      44.329  24.203  34.330  1.00  0.00    -0.206 F 
ATOM     57  C   UNL A   1      46.546  23.679  34.892  1.00  0.00     0.040 A 
ATOM     58  C   UNL A   1      48.368  24.778  33.759  1.00  0.00     0.040 A 
ATOM     59  F   UNL A   1      47.925  26.391  32.112  1.00  0.00    -0.206 F 
ATOM     60  C   UNL A   1      47.916  23.867  34.713  1.00  0.00     0.006 A 
ENDBRANCH  36  53
ENDBRANCH  10  11
ENDBRANCH   3   5
ENDBRANCH   2   3
ENDBRANCH   1   2
BRANCH   1  61
ATOM     61  C   UNL A   1      34.355  34.055  30.139  1.00  0.00     0.274 C 
BRANCH  61  62
ATOM     62  O   UNL A   1      34.404  32.961  31.069  1.00  0.00    -0.460 OA
BRANCH  62  63
ATOM     63  C   UNL A   1      34.398  33.357  32.383  1.00  0.00     0.335 C 
ATOM     64  O   UNL A   1      33.405  33.319  33.100  1.00  0.00    -0.249 OA
BRANCH  63  65
ATOM     65  C   UNL A   1      35.787  33.836  32.842  1.00  0.00     0.232 C 
ATOM     66  C   UNL A   1      35.974  33.808  34.353  1.00  0.00     0.087 C 
ATOM     67  O   UNL A   1      36.783  33.009  32.271  1.00  0.00    -0.355 OA
ATOM     68  C   UNL A   1      37.293  33.072  34.642  1.00  0.00     0.123 C 
ATOM     69  C   UNL A   1      37.719  32.532  33.249  1.00  0.00     0.186 C 
BRANCH  68  70
ATOM     70  C   UNL A   1      38.297  33.964  35.390  1.00  0.00    -0.013 A 
ATOM     71  C   UNL A   1      39.132  34.820  34.635  1.00  0.00     0.010 A 
ATOM     72  C   UNL A   1      38.391  34.054  36.791  1.00  0.00     0.010 A 
ATOM     73  C   UNL A   1      40.027  35.702  35.245  1.00  0.00     0.039 A 
ATOM     74  C   UNL A   1      39.292  34.935  37.404  1.00  0.00     0.039 A 
ATOM     75  C   UNL A   1      40.100  35.751  36.627  1.00  0.00     0.123 A 
ATOM     76  F   UNL A   1      40.944  36.605  37.218  1.00  0.00    -0.207 F 
ENDBRANCH  68  70
BRANCH  68  77
ATOM     77  O   UNL A   1      37.028  32.024  35.589  1.00  0.00    -0.382 OA
ATOM     78  H   UNL A   1      36.329  31.446  35.244  1.00  0.00     0.212 HD
ENDBRANCH  68  77
BRANCH  69  79
ATOM     79  C   UNL A   1      37.831  31.032  33.022  1.00  0.00    -0.016 A 
ATOM     80  C   UNL A   1      36.980  30.358  32.128  1.00  0.00     0.009 A 
ATOM     81  C   UNL A   1      38.898  30.316  33.598  1.00  0.00     0.009 A 
ATOM     82  C   UNL A   1      37.200  29.016  31.804  1.00  0.00     0.039 A 
ATOM     83  C   UNL A   1      39.130  28.982  33.253  1.00  0.00     0.039 A 
ATOM     84  C   UNL A   1      38.282  28.346  32.355  1.00  0.00     0.123 A 
ATOM     85  F   UNL A   1      38.527  27.078  32.000  1.00  0.00    -0.207 F 
ENDBRANCH  69  79
ENDBRANCH  63  65
ENDBRANCH  62  63
ENDBRANCH  61  62
ENDBRANCH   1  61
TORSDOF 14
ENDMDL
MODEL 2
REMARK VINA RESULT:     -10.2      4.824      9.770
REMARK SMILES O=C(OCCOC(=O)[C@H]1C[C@](O)(c2ccc(F)cc2)[C@@H](c2ccc(F)cc2)O1)c1ccc(-c2c3nc(c(-c4c(F)cccc4F)c4ccc([nH]4)c(-c4c(F)cccc4F)c4nc(c(-c5c(F)cccc5F)c5ccc2[nH]5)C=C4)C=C3)cc1
REMARK SMILES IDX 4 1 3 2 2 3 1 4 29 5 30 6 82 7 31 8 81 9 32 10 33 11 34 12
REMARK SMILES IDX 75 13 35 14 80 15 74 16 76 17 36 18 79 19 73 20 72 21 37 23
REMARK SMILES IDX 63 24 46 25 62 26 47 27 50 28 61 29 77 30 48 31 49 32 60 34
REMARK SMILES IDX 78 35 51 36 38 37 39 38 44 39 40 40 41 41 43 42 45 43 42 44
REMARK SMILES IDX 64 45 65 46 70 47 66 48 67 49 69 50 71 51 68 52 52 53 53 54
REMARK SMILES IDX 58 55 54 56 55 57 57 58 59 59 56 60 5 61 6 62 7 63 8 64 9 65
REMARK SMILES IDX 10 66 28 67 11 68 20 69 13 70 14 71 19 72 15 73 18 74 16 75
REMARK SMILES IDX 17 76 12 77 21 79 22 80 27 81 23 82 26 83 24 84 25 85
REMARK H PARENT 76 22 50 33 12 78
REMARK Flexibility Score: inf
ROOT
ATOM      1  C   UNL A   1      34.084  33.165  29.115  1.00  0.00     0.275 C 
ENDROOT
BRANCH   1   2
ATOM      2  O   UNL A   1      35.296  33.337  29.876  1.00  0.00    -0.458 OA
BRANCH   2   3
ATOM      3  C   UNL A   1      35.635  32.390  30.774  1.00  0.00     0.338 C 
ATOM      4  O   UNL A   1      34.890  32.001  31.654  1.00  0.00    -0.246 OA
BRANCH   3   5
ATOM      5  C   UNL A   1      37.018  31.889  30.522  1.00  0.00     0.060 A 
ATOM      6  C   UNL A   1      37.863  31.517  31.571  1.00  0.00     0.016 A 
ATOM      7  C   UNL A   1      37.426  31.670  29.204  1.00  0.00     0.016 A 
ATOM      8  C   UNL A   1      39.077  30.897  31.303  1.00  0.00     0.010 A 
ATOM      9  C   UNL A   1      38.611  30.979  28.935  1.00  0.00     0.010 A 
ATOM     10  C   UNL A   1      39.456  30.608  29.985  1.00  0.00    -0.014 A 
BRANCH  10  11
ATOM     11  C   UNL A   1      40.814  30.056  29.772  1.00  0.00     0.031 A 
ATOM     12  C   UNL A   1      40.937  28.629  29.337  1.00  0.00     0.074 A 
ATOM     13  C   UNL A   1      41.879  30.880  29.758  1.00  0.00     0.049 A 
ATOM     14  N   UNL A   1      41.915  28.048  28.695  1.00  0.00    -0.248 NA
ATOM     15  C   UNL A   1      39.802  27.742  29.638  1.00  0.00     0.031 C 
ATOM     16  C   UNL A   1      41.871  32.279  30.191  1.00  0.00     0.029 A 
ATOM     17  N   UNL A   1      43.155  30.681  29.293  1.00  0.00    -0.354 N 
ATOM     18  C   UNL A   1      41.483  26.751  28.463  1.00  0.00     0.074 A 
ATOM     19  C   UNL A   1      40.202  26.598  29.107  1.00  0.00     0.031 C 
ATOM     20  C   UNL A   1      43.060  32.833  29.902  1.00  0.00     0.029 A 
ATOM     21  C   UNL A   1      43.906  31.833  29.254  1.00  0.00     0.049 A 
ATOM     22  H   UNL A   1      43.499  29.801  29.015  1.00  0.00     0.167 HD
ATOM     23  C   UNL A   1      42.082  25.782  27.734  1.00  0.00     0.037 A 
ATOM     24  C   UNL A   1      45.114  32.066  28.703  1.00  0.00     0.037 A 
ATOM     25  C   UNL A   1      43.373  25.927  27.130  1.00  0.00     0.049 A 
ATOM     26  C   UNL A   1      45.789  30.957  27.937  1.00  0.00     0.074 A 
ATOM     27  C   UNL A   1      44.106  24.997  26.419  1.00  0.00     0.029 A 
ATOM     28  N   UNL A   1      44.130  27.089  27.182  1.00  0.00    -0.354 N 
ATOM     29  N   UNL A   1      45.344  29.754  27.664  1.00  0.00    -0.248 NA
ATOM     30  C   UNL A   1      47.121  31.244  27.387  1.00  0.00     0.031 C 
ATOM     31  C   UNL A   1      45.325  25.587  26.069  1.00  0.00     0.029 A 
ATOM     32  C   UNL A   1      45.332  26.897  26.528  1.00  0.00     0.049 A 
ATOM     33  H   UNL A   1      43.852  27.926  27.621  1.00  0.00     0.167 HD
ATOM     34  C   UNL A   1      46.328  29.146  26.895  1.00  0.00     0.074 A 
ATOM     35  C   UNL A   1      47.388  30.122  26.730  1.00  0.00     0.031 C 
ATOM     36  C   UNL A   1      46.359  27.895  26.374  1.00  0.00     0.037 A 
BRANCH  23  37
ATOM     37  C   UNL A   1      41.323  24.502  27.575  1.00  0.00     0.057 A 
ATOM     38  C   UNL A   1      40.295  24.385  26.635  1.00  0.00     0.134 A 
ATOM     39  C   UNL A   1      41.658  23.361  28.320  1.00  0.00     0.134 A 
ATOM     40  F   UNL A   1      39.936  25.436  25.884  1.00  0.00    -0.206 F 
ATOM     41  C   UNL A   1      39.630  23.174  26.434  1.00  0.00     0.040 A 
ATOM     42  C   UNL A   1      41.015  22.141  28.113  1.00  0.00     0.040 A 
ATOM     43  F   UNL A   1      42.657  23.404  29.216  1.00  0.00    -0.206 F 
ATOM     44  C   UNL A   1      39.997  22.046  27.167  1.00  0.00     0.006 A 
ENDBRANCH  23  37
BRANCH  24  45
ATOM     45  C   UNL A   1      45.726  33.418  28.786  1.00  0.00     0.057 A 
ATOM     46  C   UNL A   1      46.553  33.777  29.858  1.00  0.00     0.134 A 
ATOM     47  C   UNL A   1      45.500  34.386  27.800  1.00  0.00     0.134 A 
ATOM     48  F   UNL A   1      46.806  32.898  30.839  1.00  0.00    -0.206 F 
ATOM     49  C   UNL A   1      47.127  35.047  29.950  1.00  0.00     0.040 A 
ATOM     50  C   UNL A   1      46.084  35.654  27.869  1.00  0.00     0.040 A 
ATOM     51  F   UNL A   1      44.729  34.102  26.740  1.00  0.00    -0.206 F 
ATOM     52  C   UNL A   1      46.897  35.988  28.949  1.00  0.00     0.006 A 
ENDBRANCH  24  45
BRANCH  36  53
ATOM     53  C   UNL A   1      47.564  27.506  25.574  1.00  0.00     0.057 A 
ATOM     54  C   UNL A   1      47.554  27.605  24.177  1.00  0.00     0.134 A 
ATOM     55  C   UNL A   1      48.687  26.931  26.179  1.00  0.00     0.134 A 
ATOM     56  F   UNL A   1      46.499  28.135  23.539  1.00  0.00    -0.206 F 
ATOM     57  C   UNL A   1      48.613  27.126  23.407  1.00  0.00     0.040 A 
ATOM     58  C   UNL A   1      49.763  26.469  25.421  1.00  0.00     0.040 A 
ATOM     59  F   UNL A   1      48.757  26.815  27.514  1.00  0.00    -0.206 F 
ATOM     60  C   UNL A   1      49.722  26.556  24.030  1.00  0.00     0.006 A 
ENDBRANCH  36  53
ENDBRANCH  10  11
ENDBRANCH   3   5
ENDBRANCH   2   3
ENDBRANCH   1   2
BRANCH   1  61
ATOM     61  C   UNL A   1      34.115  32.441  27.758  1.00  0.00     0.274 C 
BRANCH  61  62
ATOM     62  O   UNL A   1      33.946  31.017  27.854  1.00  0.00    -0.460 OA
BRANCH  62  63
ATOM     63  C   UNL A   1      32.982  30.520  27.014  1.00  0.00     0.335 C 
ATOM     64  O   UNL A   1      31.924  31.093  26.779  1.00  0.00    -0.249 OA
BRANCH  63  65
ATOM     65  C   UNL A   1      33.398  29.172  26.399  1.00  0.00     0.232 C 
ATOM     66  C   UNL A   1      32.841  27.964  27.140  1.00  0.00     0.087 C 
ATOM     67  O   UNL A   1      32.943  29.104  25.061  1.00  0.00    -0.355 OA
ATOM     68  C   UNL A   1      32.187  27.043  26.096  1.00  0.00     0.123 C 
ATOM     69  C   UNL A   1      32.238  27.883  24.790  1.00  0.00     0.186 C 
BRANCH  68  70
ATOM     70  C   UNL A   1      32.841  25.652  26.067  1.00  0.00    -0.013 A 
ATOM     71  C   UNL A   1      32.075  24.537  26.478  1.00  0.00     0.010 A 
ATOM     72  C   UNL A   1      34.134  25.392  25.576  1.00  0.00     0.010 A 
ATOM     73  C   UNL A   1      32.579  23.235  26.424  1.00  0.00     0.039 A 
ATOM     74  C   UNL A   1      34.644  24.088  25.527  1.00  0.00     0.039 A 
ATOM     75  C   UNL A   1      33.862  23.022  25.949  1.00  0.00     0.123 A 
ATOM     76  F   UNL A   1      34.347  21.777  25.879  1.00  0.00    -0.207 F 
ENDBRANCH  68  70
BRANCH  68  77
ATOM     77  O   UNL A   1      30.845  26.757  26.522  1.00  0.00    -0.382 OA
ATOM     78  H   UNL A   1      30.785  26.851  27.486  1.00  0.00     0.212 HD
ENDBRANCH  68  77
BRANCH  69  79
ATOM     79  C   UNL A   1      30.944  28.292  24.102  1.00  0.00    -0.016 A 
ATOM     80  C   UNL A   1      29.980  27.340  23.725  1.00  0.00     0.009 A 
ATOM     81  C   UNL A   1      30.625  29.657  23.969  1.00  0.00     0.009 A 
ATOM     82  C   UNL A   1      28.729  27.739  23.247  1.00  0.00     0.039 A 
ATOM     83  C   UNL A   1      29.364  30.053  23.515  1.00  0.00     0.039 A 
ATOM     84  C   UNL A   1      28.426  29.090  23.164  1.00  0.00     0.123 A 
ATOM     85  F   UNL A   1      27.206  29.472  22.762  1.00  0.00    -0.207 F 
ENDBRANCH  69  79
ENDBRANCH  63  65
ENDBRANCH  62  63
ENDBRANCH  61  62
ENDBRANCH   1  61
TORSDOF 14
ENDMDL
MODEL 3
REMARK VINA RESULT:     -10.2      4.784      8.484
REMARK SMILES O=C(OCCOC(=O)[C@H]1C[C@](O)(c2ccc(F)cc2)[C@@H](c2ccc(F)cc2)O1)c1ccc(-c2c3nc(c(-c4c(F)cccc4F)c4ccc([nH]4)c(-c4c(F)cccc4F)c4nc(c(-c5c(F)cccc5F)c5ccc2[nH]5)C=C4)C=C3)cc1
REMARK SMILES IDX 4 1 3 2 2 3 1 4 29 5 30 6 82 7 31 8 81 9 32 10 33 11 34 12
REMARK SMILES IDX 75 13 35 14 80 15 74 16 76 17 36 18 79 19 73 20 72 21 37 23
REMARK SMILES IDX 63 24 46 25 62 26 47 27 50 28 61 29 77 30 48 31 49 32 60 34
REMARK SMILES IDX 78 35 51 36 38 37 39 38 44 39 40 40 41 41 43 42 45 43 42 44
REMARK SMILES IDX 64 45 65 46 70 47 66 48 67 49 69 50 71 51 68 52 52 53 53 54
REMARK SMILES IDX 58 55 54 56 55 57 57 58 59 59 56 60 5 61 6 62 7 63 8 64 9 65
REMARK SMILES IDX 10 66 28 67 11 68 20 69 13 70 14 71 19 72 15 73 18 74 16 75
REMARK SMILES IDX 17 76 12 77 21 79 22 80 27 81 23 82 26 83 24 84 25 85
REMARK H PARENT 76 22 50 33 12 78
REMARK Flexibility Score: inf
ROOT
ATOM      1  C   UNL A   1      31.844  29.962  25.932  1.00  0.00     0.275 C 
ENDROOT
BRANCH   1   2
ATOM      2  O   UNL A   1      32.571  30.157  27.161  1.00  0.00    -0.458 OA
BRANCH   2   3
ATOM      3  C   UNL A   1      33.208  31.330  27.355  1.00  0.00     0.338 C 
ATOM      4  O   UNL A   1      32.692  32.415  27.164  1.00  0.00    -0.246 OA
BRANCH   3   5
ATOM      5  C   UNL A   1      34.600  31.104  27.845  1.00  0.00     0.060 A 
ATOM      6  C   UNL A   1      35.511  32.157  27.966  1.00  0.00     0.016 A 
ATOM      7  C   UNL A   1      34.955  29.836  28.309  1.00  0.00     0.016 A 
ATOM      8  C   UNL A   1      36.740  31.950  28.581  1.00  0.00     0.010 A 
ATOM      9  C   UNL A   1      36.157  29.643  28.996  1.00  0.00     0.010 A 
ATOM     10  C   UNL A   1      37.068  30.696  29.115  1.00  0.00    -0.014 A 
BRANCH  10  11
ATOM     11  C   UNL A   1      38.439  30.520  29.648  1.00  0.00     0.031 A 
ATOM     12  C   UNL A   1      38.724  30.998  31.038  1.00  0.00     0.074 A 
ATOM     13  C   UNL A   1      39.327  29.759  28.980  1.00  0.00     0.049 A 
ATOM     14  N   UNL A   1      39.655  30.604  31.866  1.00  0.00    -0.248 NA
ATOM     15  C   UNL A   1      37.832  32.035  31.581  1.00  0.00     0.031 C 
ATOM     16  C   UNL A   1      39.157  29.268  27.611  1.00  0.00     0.029 A 
ATOM     17  N   UNL A   1      40.512  29.202  29.391  1.00  0.00    -0.354 N 
ATOM     18  C   UNL A   1      39.417  31.299  33.043  1.00  0.00     0.074 A 
ATOM     19  C   UNL A   1      38.319  32.203  32.799  1.00  0.00     0.031 C 
ATOM     20  C   UNL A   1      40.161  28.423  27.321  1.00  0.00     0.029 A 
ATOM     21  C   UNL A   1      41.034  28.306  28.487  1.00  0.00     0.049 A 
ATOM     22  H   UNL A   1      40.946  29.422  30.247  1.00  0.00     0.167 HD
ATOM     23  C   UNL A   1      40.031  31.162  34.239  1.00  0.00     0.037 A 
ATOM     24  C   UNL A   1      42.064  27.444  28.612  1.00  0.00     0.037 A 
ATOM     25  C   UNL A   1      41.147  30.291  34.464  1.00  0.00     0.049 A 
ATOM     26  C   UNL A   1      42.768  27.343  29.940  1.00  0.00     0.074 A 
ATOM     27  C   UNL A   1      41.888  30.112  35.617  1.00  0.00     0.029 A 
ATOM     28  N   UNL A   1      41.690  29.458  33.497  1.00  0.00    -0.354 N 
ATOM     29  N   UNL A   1      42.495  27.954  31.068  1.00  0.00    -0.248 NA
ATOM     30  C   UNL A   1      43.909  26.420  30.019  1.00  0.00     0.031 C 
ATOM     31  C   UNL A   1      42.903  29.192  35.335  1.00  0.00     0.029 A 
ATOM     32  C   UNL A   1      42.767  28.770  34.020  1.00  0.00     0.049 A 
ATOM     33  H   UNL A   1      41.356  29.370  32.574  1.00  0.00     0.167 HD
ATOM     34  C   UNL A   1      43.413  27.477  31.995  1.00  0.00     0.074 A 
ATOM     35  C   UNL A   1      44.241  26.511  31.301  1.00  0.00     0.031 C 
ATOM     36  C   UNL A   1      43.563  27.807  33.301  1.00  0.00     0.037 A 
BRANCH  23  37
ATOM     37  C   UNL A   1      39.487  31.984  35.366  1.00  0.00     0.057 A 
ATOM     38  C   UNL A   1      38.516  31.471  36.230  1.00  0.00     0.134 A 
ATOM     39  C   UNL A   1      39.977  33.272  35.629  1.00  0.00     0.134 A 
ATOM     40  F   UNL A   1      38.015  30.241  36.039  1.00  0.00    -0.206 F 
ATOM     41  C   UNL A   1      38.054  32.206  37.323  1.00  0.00     0.040 A 
ATOM     42  C   UNL A   1      39.539  34.007  36.730  1.00  0.00     0.040 A 
ATOM     43  F   UNL A   1      40.933  33.806  34.852  1.00  0.00    -0.206 F 
ATOM     44  C   UNL A   1      38.574  33.474  37.581  1.00  0.00     0.006 A 
ENDBRANCH  23  37
BRANCH  24  45
ATOM     45  C   UNL A   1      42.439  26.559  27.479  1.00  0.00     0.057 A 
ATOM     46  C   UNL A   1      41.935  25.256  27.377  1.00  0.00     0.134 A 
ATOM     47  C   UNL A   1      43.310  26.989  26.471  1.00  0.00     0.134 A 
ATOM     48  F   UNL A   1      41.101  24.780  28.313  1.00  0.00    -0.206 F 
ATOM     49  C   UNL A   1      42.287  24.413  26.320  1.00  0.00     0.040 A 
ATOM     50  C   UNL A   1      43.654  26.164  25.397  1.00  0.00     0.040 A 
ATOM     51  F   UNL A   1      43.816  28.231  26.501  1.00  0.00    -0.206 F 
ATOM     52  C   UNL A   1      43.146  24.869  25.323  1.00  0.00     0.006 A 
ENDBRANCH  24  45
BRANCH  36  53
ATOM     53  C   UNL A   1      44.652  27.123  34.070  1.00  0.00     0.057 A 
ATOM     54  C   UNL A   1      45.951  27.647  34.083  1.00  0.00     0.134 A 
ATOM     55  C   UNL A   1      44.438  25.893  34.701  1.00  0.00     0.134 A 
ATOM     56  F   UNL A   1      46.220  28.817  33.483  1.00  0.00    -0.206 F 
ATOM     57  C   UNL A   1      47.005  26.959  34.683  1.00  0.00     0.040 A 
ATOM     58  C   UNL A   1      45.480  25.206  35.323  1.00  0.00     0.040 A 
ATOM     59  F   UNL A   1      43.213  25.345  34.726  1.00  0.00    -0.206 F 
ATOM     60  C   UNL A   1      46.770  25.734  35.304  1.00  0.00     0.006 A 
ENDBRANCH  36  53
ENDBRANCH  10  11
ENDBRANCH   3   5
ENDBRANCH   2   3
ENDBRANCH   1   2
BRANCH   1  61
ATOM     61  C   UNL A   1      32.595  29.650  24.626  1.00  0.00     0.274 C 
BRANCH  61  62
ATOM     62  O   UNL A   1      33.539  28.572  24.742  1.00  0.00    -0.460 OA
BRANCH  62  63
ATOM     63  C   UNL A   1      34.014  28.127  23.534  1.00  0.00     0.335 C 
ATOM     64  O   UNL A   1      34.738  28.791  22.801  1.00  0.00    -0.249 OA
BRANCH  63  65
ATOM     65  C   UNL A   1      33.540  26.696  23.225  1.00  0.00     0.232 C 
ATOM     66  C   UNL A   1      33.366  25.829  24.465  1.00  0.00     0.087 C 
ATOM     67  O   UNL A   1      32.294  26.746  22.557  1.00  0.00    -0.355 OA
ATOM     68  C   UNL A   1      31.973  25.182  24.384  1.00  0.00     0.123 C 
ATOM     69  C   UNL A   1      31.321  25.878  23.157  1.00  0.00     0.186 C 
BRANCH  68  70
ATOM     70  C   UNL A   1      32.052  23.647  24.365  1.00  0.00    -0.013 A 
ATOM     71  C   UNL A   1      32.099  22.989  23.114  1.00  0.00     0.010 A 
ATOM     72  C   UNL A   1      32.168  22.842  25.514  1.00  0.00     0.010 A 
ATOM     73  C   UNL A   1      32.231  21.602  23.015  1.00  0.00     0.039 A 
ATOM     74  C   UNL A   1      32.296  21.450  25.416  1.00  0.00     0.039 A 
ATOM     75  C   UNL A   1      32.327  20.843  24.170  1.00  0.00     0.123 A 
ATOM     76  F   UNL A   1      32.471  19.515  24.083  1.00  0.00    -0.207 F 
ENDBRANCH  68  70
BRANCH  68  77
ATOM     77  O   UNL A   1      31.277  25.451  25.613  1.00  0.00    -0.382 OA
ATOM     78  H   UNL A   1      31.421  26.376  25.869  1.00  0.00     0.212 HD
ENDBRANCH  68  77
BRANCH  69  79
ATOM     79  C   UNL A   1      30.068  26.719  23.342  1.00  0.00    -0.016 A 
ATOM     80  C   UNL A   1      29.990  28.039  22.863  1.00  0.00     0.009 A 
ATOM     81  C   UNL A   1      28.903  26.129  23.870  1.00  0.00     0.009 A 
ATOM     82  C   UNL A   1      28.783  28.741  22.892  1.00  0.00     0.039 A 
ATOM     83  C   UNL A   1      27.691  26.826  23.875  1.00  0.00     0.039 A 
ATOM     84  C   UNL A   1      27.642  28.123  23.380  1.00  0.00     0.123 A 
ATOM     85  F   UNL A   1      26.471  28.775  23.354  1.00  0.00    -0.207 F 
ENDBRANCH  69  79
ENDBRANCH  63  65
ENDBRANCH  62  63
ENDBRANCH  61  62
ENDBRANCH   1  61
TORSDOF 14
ENDMDL
