MODEL 1
REMARK VINA RESULT:      -9.4      0.000      0.000
REMARK SMILES CC[C@H]([NH2+][C@@H](C)c1c(C)noc1C)C(=O)OCCOC(=O)c1ccc(-c2c3nc(c(-c4c(F)cccc4F)c4ccc([nH]4)c(-c4c(F)cccc4F)c4nc(c(-c5c(F)cccc5F)c5ccc2[nH]5)C=C4)C=C3)cc1
REMARK SMILES IDX 17 1 16 2 14 3 15 4 3 5 2 6 1 7 4 8 5 11 6 12 7 13 8 14
REMARK SMILES IDX 12 15 9 16 10 17 11 18 13 19 18 20 19 21 20 22 21 23 22 24
REMARK SMILES IDX 23 25 75 26 24 27 74 28 25 29 26 30 27 31 68 32 28 33 73 34
REMARK SMILES IDX 67 35 69 36 29 37 72 38 66 39 65 40 30 42 56 43 39 44 55 45
REMARK SMILES IDX 40 46 43 47 54 48 70 49 41 50 42 51 53 53 71 54 44 55 31 56
REMARK SMILES IDX 32 57 37 58 33 59 34 60 36 61 38 62 35 63 57 64 58 65 63 66
REMARK SMILES IDX 59 67 60 68 62 69 64 70 61 71 45 72 46 73 51 74 47 75 48 76
REMARK SMILES IDX 50 77 52 78 49 79
REMARK H PARENT 4 9 4 10 69 41 43 52
REMARK Flexibility Score: inf
ROOT
ATOM      1  C   UNL A   1      33.382  34.873  28.174  1.00  0.00     0.274 C 
ENDROOT
BRANCH   1   2
ATOM      2  O   UNL A   1      32.454  35.424  29.128  1.00  0.00    -0.458 OA
BRANCH   2   3
ATOM      3  C   UNL A   1      32.991  36.226  30.094  1.00  0.00     0.364 C 
ATOM      4  O   UNL A   1      33.142  37.439  29.983  1.00  0.00    -0.245 OA
BRANCH   3   5
ATOM      5  C   UNL A   1      33.412  35.449  31.363  1.00  0.00     0.293 C 
BRANCH   5   6
ATOM      6  C   UNL A   1      32.837  36.165  32.596  1.00  0.00     0.074 C 
ATOM      7  C   UNL A   1      33.864  37.093  33.234  1.00  0.00     0.011 C 
ENDBRANCH   5   6
BRANCH   5   8
ATOM      8  N   UNL A   1      34.858  35.174  31.353  1.00  0.00    -0.328 N 
ATOM      9  H   UNL A   1      35.327  36.016  31.687  1.00  0.00     0.347 HD
ATOM     10  H   UNL A   1      35.055  34.904  30.390  1.00  0.00     0.347 HD
BRANCH   8  11
ATOM     11  C   UNL A   1      35.355  34.060  32.147  1.00  0.00     0.216 C 
ATOM     12  C   UNL A   1      35.388  32.812  31.260  1.00  0.00     0.081 C 
BRANCH  11  13
ATOM     13  C   UNL A   1      36.706  34.326  32.735  1.00  0.00     0.074 A 
ATOM     14  C   UNL A   1      37.035  34.327  34.127  1.00  0.00     0.090 A 
ATOM     15  C   UNL A   1      37.926  34.569  32.127  1.00  0.00     0.143 A 
ATOM     16  C   UNL A   1      36.150  34.058  35.286  1.00  0.00     0.071 C 
ATOM     17  N   UNL A   1      38.329  34.593  34.328  1.00  0.00    -0.085 NA
ATOM     18  O   UNL A   1      38.882  34.745  33.077  1.00  0.00    -0.361 OA
ATOM     19  C   UNL A   1      38.398  34.683  30.733  1.00  0.00     0.091 C 
ENDBRANCH  11  13
ENDBRANCH   8  11
ENDBRANCH   5   8
ENDBRANCH   3   5
ENDBRANCH   2   3
ENDBRANCH   1   2
BRANCH   1  20
ATOM     20  C   UNL A   1      33.192  33.363  28.011  1.00  0.00     0.275 C 
BRANCH  20  21
ATOM     21  O   UNL A   1      34.437  32.718  27.686  1.00  0.00    -0.458 OA
BRANCH  21  22
ATOM     22  C   UNL A   1      34.421  31.368  27.715  1.00  0.00     0.338 C 
ATOM     23  O   UNL A   1      33.508  30.621  27.395  1.00  0.00    -0.246 OA
BRANCH  22  24
ATOM     24  C   UNL A   1      35.746  30.874  28.107  1.00  0.00     0.060 A 
ATOM     25  C   UNL A   1      35.829  29.597  28.662  1.00  0.00     0.016 A 
ATOM     26  C   UNL A   1      36.873  31.692  28.044  1.00  0.00     0.016 A 
ATOM     27  C   UNL A   1      37.035  29.123  29.164  1.00  0.00     0.010 A 
ATOM     28  C   UNL A   1      38.092  31.214  28.544  1.00  0.00     0.010 A 
ATOM     29  C   UNL A   1      38.175  29.933  29.120  1.00  0.00    -0.014 A 
BRANCH  29  30
ATOM     30  C   UNL A   1      39.425  29.461  29.761  1.00  0.00     0.031 A 
ATOM     31  C   UNL A   1      40.238  28.386  29.099  1.00  0.00     0.074 A 
ATOM     32  C   UNL A   1      39.861  30.029  30.900  1.00  0.00     0.049 A 
ATOM     33  N   UNL A   1      41.306  27.766  29.535  1.00  0.00    -0.248 NA
ATOM     34  C   UNL A   1      39.792  27.951  27.765  1.00  0.00     0.031 C 
ATOM     35  C   UNL A   1      39.201  31.131  31.601  1.00  0.00     0.029 A 
ATOM     36  N   UNL A   1      40.969  29.761  31.663  1.00  0.00    -0.354 N 
ATOM     37  C   UNL A   1      41.636  26.844  28.550  1.00  0.00     0.074 A 
ATOM     38  C   UNL A   1      40.660  26.986  27.491  1.00  0.00     0.031 C 
ATOM     39  C   UNL A   1      39.924  31.453  32.686  1.00  0.00     0.029 A 
ATOM     40  C   UNL A   1      41.065  30.548  32.784  1.00  0.00     0.049 A 
ATOM     41  H   UNL A   1      41.631  29.071  31.430  1.00  0.00     0.167 HD
ATOM     42  C   UNL A   1      42.659  25.959  28.535  1.00  0.00     0.037 A 
ATOM     43  C   UNL A   1      41.958  30.520  33.792  1.00  0.00     0.037 A 
ATOM     44  C   UNL A   1      43.649  25.842  29.572  1.00  0.00     0.049 A 
ATOM     45  C   UNL A   1      43.056  29.495  33.775  1.00  0.00     0.074 A 
ATOM     46  C   UNL A   1      44.725  24.976  29.646  1.00  0.00     0.029 A 
ATOM     47  N   UNL A   1      43.686  26.627  30.715  1.00  0.00    -0.354 N 
ATOM     48  N   UNL A   1      43.331  28.594  32.863  1.00  0.00    -0.248 NA
ATOM     49  C   UNL A   1      43.957  29.470  34.937  1.00  0.00     0.031 C 
ATOM     50  C   UNL A   1      45.401  25.219  30.848  1.00  0.00     0.029 A 
ATOM     51  C   UNL A   1      44.759  26.256  31.506  1.00  0.00     0.049 A 
ATOM     52  H   UNL A   1      43.044  27.341  30.930  1.00  0.00     0.167 HD
ATOM     53  C   UNL A   1      44.438  27.902  33.334  1.00  0.00     0.074 A 
ATOM     54  C   UNL A   1      44.796  28.498  34.606  1.00  0.00     0.031 C 
ATOM     55  C   UNL A   1      45.098  26.862  32.768  1.00  0.00     0.037 A 
BRANCH  42  56
ATOM     56  C   UNL A   1      42.734  25.018  27.371  1.00  0.00     0.057 A 
ATOM     57  C   UNL A   1      43.463  25.323  26.216  1.00  0.00     0.134 A 
ATOM     58  C   UNL A   1      42.080  23.781  27.420  1.00  0.00     0.134 A 
ATOM     59  F   UNL A   1      44.095  26.500  26.102  1.00  0.00    -0.206 F 
ATOM     60  C   UNL A   1      43.526  24.433  25.141  1.00  0.00     0.040 A 
ATOM     61  C   UNL A   1      42.150  22.876  26.360  1.00  0.00     0.040 A 
ATOM     62  F   UNL A   1      41.365  23.431  28.500  1.00  0.00    -0.206 F 
ATOM     63  C   UNL A   1      42.872  23.204  25.214  1.00  0.00     0.006 A 
ENDBRANCH  42  56
BRANCH  43  64
ATOM     64  C   UNL A   1      41.830  31.474  34.920  1.00  0.00     0.057 A 
ATOM     65  C   UNL A   1      40.984  31.207  36.001  1.00  0.00     0.134 A 
ATOM     66  C   UNL A   1      42.549  32.675  34.942  1.00  0.00     0.134 A 
ATOM     67  F   UNL A   1      40.251  30.084  36.024  1.00  0.00    -0.206 F 
ATOM     68  C   UNL A   1      40.851  32.104  37.063  1.00  0.00     0.040 A 
ATOM     69  C   UNL A   1      42.444  33.570  36.006  1.00  0.00     0.040 A 
ATOM     70  F   UNL A   1      43.374  32.989  33.932  1.00  0.00    -0.206 F 
ATOM     71  C   UNL A   1      41.589  33.287  37.070  1.00  0.00     0.006 A 
ENDBRANCH  43  64
BRANCH  55  72
ATOM     72  C   UNL A   1      46.279  26.321  33.511  1.00  0.00     0.057 A 
ATOM     73  C   UNL A   1      46.150  25.260  34.416  1.00  0.00     0.134 A 
ATOM     74  C   UNL A   1      47.560  26.842  33.297  1.00  0.00     0.134 A 
ATOM     75  F   UNL A   1      44.945  24.728  34.673  1.00  0.00    -0.206 F 
ATOM     76  C   UNL A   1      47.255  24.745  35.094  1.00  0.00     0.040 A 
ATOM     77  C   UNL A   1      48.676  26.325  33.955  1.00  0.00     0.040 A 
ATOM     78  F   UNL A   1      47.748  27.855  32.437  1.00  0.00    -0.206 F 
ATOM     79  C   UNL A   1      48.524  25.275  34.860  1.00  0.00     0.006 A 
ENDBRANCH  55  72
ENDBRANCH  29  30
ENDBRANCH  22  24
ENDBRANCH  21  22
ENDBRANCH  20  21
ENDBRANCH   1  20
TORSDOF 15
ENDMDL
MODEL 2
REMARK VINA RESULT:      -9.3      0.995      6.481
REMARK SMILES CC[C@H]([NH2+][C@@H](C)c1c(C)noc1C)C(=O)OCCOC(=O)c1ccc(-c2c3nc(c(-c4c(F)cccc4F)c4ccc([nH]4)c(-c4c(F)cccc4F)c4nc(c(-c5c(F)cccc5F)c5ccc2[nH]5)C=C4)C=C3)cc1
REMARK SMILES IDX 17 1 16 2 14 3 15 4 3 5 2 6 1 7 4 8 5 11 6 12 7 13 8 14
REMARK SMILES IDX 12 15 9 16 10 17 11 18 13 19 18 20 19 21 20 22 21 23 22 24
REMARK SMILES IDX 23 25 75 26 24 27 74 28 25 29 26 30 27 31 68 32 28 33 73 34
REMARK SMILES IDX 67 35 69 36 29 37 72 38 66 39 65 40 30 42 56 43 39 44 55 45
REMARK SMILES IDX 40 46 43 47 54 48 70 49 41 50 42 51 53 53 71 54 44 55 31 56
REMARK SMILES IDX 32 57 37 58 33 59 34 60 36 61 38 62 35 63 57 64 58 65 63 66
REMARK SMILES IDX 59 67 60 68 62 69 64 70 61 71 45 72 46 73 51 74 47 75 48 76
REMARK SMILES IDX 50 77 52 78 49 79
REMARK H PARENT 4 9 4 10 69 41 43 52
REMARK Flexibility Score: inf
ROOT
ATOM      1  C   UNL A   1      33.962  34.620  28.045  1.00  0.00     0.274 C 
ENDROOT
BRANCH   1   2
ATOM      2  O   UNL A   1      34.262  35.529  29.121  1.00  0.00    -0.458 OA
BRANCH   2   3
ATOM      3  C   UNL A   1      33.369  35.554  30.152  1.00  0.00     0.364 C 
ATOM      4  O   UNL A   1      32.217  35.971  30.063  1.00  0.00    -0.245 OA
BRANCH   3   5
ATOM      5  C   UNL A   1      33.954  35.007  31.476  1.00  0.00     0.293 C 
BRANCH   5   6
ATOM      6  C   UNL A   1      33.230  35.680  32.653  1.00  0.00     0.074 C 
ATOM      7  C   UNL A   1      33.969  36.927  33.126  1.00  0.00     0.011 C 
ENDBRANCH   5   6
BRANCH   5   8
ATOM      8  N   UNL A   1      35.424  35.067  31.462  1.00  0.00    -0.328 N 
ATOM      9  H   UNL A   1      35.693  35.970  31.851  1.00  0.00     0.347 HD
ATOM     10  H   UNL A   1      35.672  34.908  30.486  1.00  0.00     0.347 HD
BRANCH   8  11
ATOM     11  C   UNL A   1      36.164  34.047  32.191  1.00  0.00     0.216 C 
ATOM     12  C   UNL A   1      35.567  32.679  31.848  1.00  0.00     0.081 C 
BRANCH  11  13
ATOM     13  C   UNL A   1      37.631  34.073  31.893  1.00  0.00     0.074 A 
ATOM     14  C   UNL A   1      38.681  34.266  32.844  1.00  0.00     0.090 A 
ATOM     15  C   UNL A   1      38.318  33.872  30.708  1.00  0.00     0.143 A 
ATOM     16  C   UNL A   1      38.577  34.466  34.310  1.00  0.00     0.071 C 
ATOM     17  N   UNL A   1      39.885  34.230  32.265  1.00  0.00    -0.085 NA
ATOM     18  O   UNL A   1      39.654  33.985  30.931  1.00  0.00    -0.361 OA
ATOM     19  C   UNL A   1      37.936  33.583  29.311  1.00  0.00     0.091 C 
ENDBRANCH  11  13
ENDBRANCH   8  11
ENDBRANCH   5   8
ENDBRANCH   3   5
ENDBRANCH   2   3
ENDBRANCH   1   2
BRANCH   1  20
ATOM     20  C   UNL A   1      33.978  33.164  28.516  1.00  0.00     0.275 C 
BRANCH  20  21
ATOM     21  O   UNL A   1      34.763  32.344  27.632  1.00  0.00    -0.458 OA
BRANCH  21  22
ATOM     22  C   UNL A   1      34.529  31.015  27.705  1.00  0.00     0.338 C 
ATOM     23  O   UNL A   1      33.500  30.418  27.425  1.00  0.00    -0.246 OA
BRANCH  22  24
ATOM     24  C   UNL A   1      35.765  30.324  28.092  1.00  0.00     0.060 A 
ATOM     25  C   UNL A   1      35.805  29.712  29.344  1.00  0.00     0.016 A 
ATOM     26  C   UNL A   1      36.906  30.376  27.293  1.00  0.00     0.016 A 
ATOM     27  C   UNL A   1      36.985  29.147  29.816  1.00  0.00     0.010 A 
ATOM     28  C   UNL A   1      38.095  29.804  27.765  1.00  0.00     0.010 A 
ATOM     29  C   UNL A   1      38.144  29.200  29.034  1.00  0.00    -0.014 A 
BRANCH  29  30
ATOM     30  C   UNL A   1      39.420  28.698  29.595  1.00  0.00     0.031 A 
ATOM     31  C   UNL A   1      39.985  29.329  30.835  1.00  0.00     0.074 A 
ATOM     32  C   UNL A   1      40.043  27.647  29.032  1.00  0.00     0.049 A 
ATOM     33  N   UNL A   1      41.128  29.107  31.432  1.00  0.00    -0.248 NA
ATOM     34  C   UNL A   1      39.149  30.346  31.495  1.00  0.00     0.031 C 
ATOM     35  C   UNL A   1      39.558  26.901  27.870  1.00  0.00     0.029 A 
ATOM     36  N   UNL A   1      41.215  27.019  29.368  1.00  0.00    -0.354 N 
ATOM     37  C   UNL A   1      41.168  29.979  32.511  1.00  0.00     0.074 A 
ATOM     38  C   UNL A   1      39.932  30.733  32.492  1.00  0.00     0.031 C 
ATOM     39  C   UNL A   1      40.421  25.908  27.598  1.00  0.00     0.029 A 
ATOM     40  C   UNL A   1      41.542  25.982  28.530  1.00  0.00     0.049 A 
ATOM     41  H   UNL A   1      41.770  27.288  30.136  1.00  0.00     0.167 HD
ATOM     42  C   UNL A   1      42.148  30.138  33.431  1.00  0.00     0.037 A 
ATOM     43  C   UNL A   1      42.637  25.200  28.500  1.00  0.00     0.037 A 
ATOM     44  C   UNL A   1      43.359  29.364  33.469  1.00  0.00     0.049 A 
ATOM     45  C   UNL A   1      43.733  25.428  29.503  1.00  0.00     0.074 A 
ATOM     46  C   UNL A   1      44.412  29.450  34.364  1.00  0.00     0.029 A 
ATOM     47  N   UNL A   1      43.674  28.352  32.574  1.00  0.00    -0.354 N 
ATOM     48  N   UNL A   1      43.782  26.290  30.490  1.00  0.00    -0.248 NA
ATOM     49  C   UNL A   1      44.933  24.589  29.376  1.00  0.00     0.031 C 
ATOM     50  C   UNL A   1      45.377  28.506  33.995  1.00  0.00     0.029 A 
ATOM     51  C   UNL A   1      44.911  27.814  32.887  1.00  0.00     0.049 A 
ATOM     52  H   UNL A   1      43.103  28.061  31.828  1.00  0.00     0.167 HD
ATOM     53  C   UNL A   1      45.011  26.091  31.106  1.00  0.00     0.074 A 
ATOM     54  C   UNL A   1      45.670  25.016  30.392  1.00  0.00     0.031 C 
ATOM     55  C   UNL A   1      45.548  26.744  32.165  1.00  0.00     0.037 A 
BRANCH  42  56
ATOM     56  C   UNL A   1      41.961  31.219  34.451  1.00  0.00     0.057 A 
ATOM     57  C   UNL A   1      42.374  32.536  34.221  1.00  0.00     0.134 A 
ATOM     58  C   UNL A   1      41.339  30.936  35.673  1.00  0.00     0.134 A 
ATOM     59  F   UNL A   1      42.992  32.865  33.077  1.00  0.00    -0.206 F 
ATOM     60  C   UNL A   1      42.189  33.534  35.182  1.00  0.00     0.040 A 
ATOM     61  C   UNL A   1      41.132  31.928  36.633  1.00  0.00     0.040 A 
ATOM     62  F   UNL A   1      40.921  29.693  35.953  1.00  0.00    -0.206 F 
ATOM     63  C   UNL A   1      41.562  33.231  36.389  1.00  0.00     0.006 A 
ENDBRANCH  42  56
BRANCH  43  64
ATOM     64  C   UNL A   1      42.767  24.148  27.463  1.00  0.00     0.057 A 
ATOM     65  C   UNL A   1      42.368  22.832  27.713  1.00  0.00     0.134 A 
ATOM     66  C   UNL A   1      43.297  24.435  26.199  1.00  0.00     0.134 A 
ATOM     67  F   UNL A   1      41.876  22.492  28.914  1.00  0.00    -0.206 F 
ATOM     68  C   UNL A   1      42.495  21.834  26.745  1.00  0.00     0.040 A 
ATOM     69  C   UNL A   1      43.409  23.453  25.214  1.00  0.00     0.040 A 
ATOM     70  F   UNL A   1      43.701  25.678  25.900  1.00  0.00    -0.206 F 
ATOM     71  C   UNL A   1      43.011  22.146  25.489  1.00  0.00     0.006 A 
ENDBRANCH  43  64
BRANCH  55  72
ATOM     72  C   UNL A   1      46.902  26.300  32.621  1.00  0.00     0.057 A 
ATOM     73  C   UNL A   1      48.072  26.894  32.131  1.00  0.00     0.134 A 
ATOM     74  C   UNL A   1      47.038  25.291  33.582  1.00  0.00     0.134 A 
ATOM     75  F   UNL A   1      48.005  27.857  31.199  1.00  0.00    -0.206 F 
ATOM     76  C   UNL A   1      49.332  26.489  32.572  1.00  0.00     0.040 A 
ATOM     77  C   UNL A   1      48.292  24.889  34.044  1.00  0.00     0.040 A 
ATOM     78  F   UNL A   1      45.954  24.687  34.093  1.00  0.00    -0.206 F 
ATOM     79  C   UNL A   1      49.444  25.487  33.535  1.00  0.00     0.006 A 
ENDBRANCH  55  72
ENDBRANCH  29  30
ENDBRANCH  22  24
ENDBRANCH  21  22
ENDBRANCH  20  21
ENDBRANCH   1  20
TORSDOF 15
ENDMDL
MODEL 3
REMARK VINA RESULT:      -9.3      5.533     10.553
REMARK SMILES CC[C@H]([NH2+][C@@H](C)c1c(C)noc1C)C(=O)OCCOC(=O)c1ccc(-c2c3nc(c(-c4c(F)cccc4F)c4ccc([nH]4)c(-c4c(F)cccc4F)c4nc(c(-c5c(F)cccc5F)c5ccc2[nH]5)C=C4)C=C3)cc1
REMARK SMILES IDX 17 1 16 2 14 3 15 4 3 5 2 6 1 7 4 8 5 11 6 12 7 13 8 14
REMARK SMILES IDX 12 15 9 16 10 17 11 18 13 19 18 20 19 21 20 22 21 23 22 24
REMARK SMILES IDX 23 25 75 26 24 27 74 28 25 29 26 30 27 31 68 32 28 33 73 34
REMARK SMILES IDX 67 35 69 36 29 37 72 38 66 39 65 40 30 42 56 43 39 44 55 45
REMARK SMILES IDX 40 46 43 47 54 48 70 49 41 50 42 51 53 53 71 54 44 55 31 56
REMARK SMILES IDX 32 57 37 58 33 59 34 60 36 61 38 62 35 63 57 64 58 65 63 66
REMARK SMILES IDX 59 67 60 68 62 69 64 70 61 71 45 72 46 73 51 74 47 75 48 76
REMARK SMILES IDX 50 77 52 78 49 79
REMARK H PARENT 4 9 4 10 69 41 43 52
REMARK Flexibility Score: inf
ROOT
ATOM      1  C   UNL A   1      35.819  21.065  24.825  1.00  0.00     0.274 C 
ENDROOT
BRANCH   1   2
ATOM      2  O   UNL A   1      35.689  22.499  24.873  1.00  0.00    -0.458 OA
BRANCH   2   3
ATOM      3  C   UNL A   1      35.334  23.108  23.704  1.00  0.00     0.364 C 
ATOM      4  O   UNL A   1      36.056  23.184  22.714  1.00  0.00    -0.245 OA
BRANCH   3   5
ATOM      5  C   UNL A   1      33.914  23.718  23.744  1.00  0.00     0.293 C 
BRANCH   5   6
ATOM      6  C   UNL A   1      33.240  23.497  22.380  1.00  0.00     0.074 C 
ATOM      7  C   UNL A   1      32.647  24.791  21.832  1.00  0.00     0.011 C 
ENDBRANCH   5   6
BRANCH   5   8
ATOM      8  N   UNL A   1      33.949  25.094  24.266  1.00  0.00    -0.328 N 
ATOM      9  H   UNL A   1      33.227  25.621  23.776  1.00  0.00     0.347 HD
ATOM     10  H   UNL A   1      34.910  25.398  24.107  1.00  0.00     0.347 HD
BRANCH   8  11
ATOM     11  C   UNL A   1      33.740  25.299  25.692  1.00  0.00     0.216 C 
ATOM     12  C   UNL A   1      33.843  26.799  25.985  1.00  0.00     0.081 C 
BRANCH  11  13
ATOM     13  C   UNL A   1      32.430  24.756  26.168  1.00  0.00     0.074 A 
ATOM     14  C   UNL A   1      32.245  23.602  26.994  1.00  0.00     0.090 A 
ATOM     15  C   UNL A   1      31.139  25.225  25.997  1.00  0.00     0.143 A 
ATOM     16  C   UNL A   1      33.273  22.703  27.571  1.00  0.00     0.071 C 
ATOM     17  N   UNL A   1      30.953  23.381  27.251  1.00  0.00    -0.085 NA
ATOM     18  O   UNL A   1      30.265  24.395  26.625  1.00  0.00    -0.361 OA
ATOM     19  C   UNL A   1      30.526  26.376  25.304  1.00  0.00     0.091 C 
ENDBRANCH  11  13
ENDBRANCH   8  11
ENDBRANCH   5   8
ENDBRANCH   3   5
ENDBRANCH   2   3
ENDBRANCH   1   2
BRANCH   1  20
ATOM     20  C   UNL A   1      37.288  20.632  24.837  1.00  0.00     0.275 C 
BRANCH  20  21
ATOM     21  O   UNL A   1      37.874  20.832  26.136  1.00  0.00    -0.458 OA
BRANCH  21  22
ATOM     22  C   UNL A   1      39.222  20.751  26.188  1.00  0.00     0.338 C 
ATOM     23  O   UNL A   1      39.934  19.833  25.807  1.00  0.00    -0.246 OA
BRANCH  22  24
ATOM     24  C   UNL A   1      39.765  22.016  26.698  1.00  0.00     0.060 A 
ATOM     25  C   UNL A   1      39.265  23.203  26.165  1.00  0.00     0.016 A 
ATOM     26  C   UNL A   1      40.831  22.037  27.596  1.00  0.00     0.016 A 
ATOM     27  C   UNL A   1      39.823  24.426  26.520  1.00  0.00     0.010 A 
ATOM     28  C   UNL A   1      41.392  23.269  27.958  1.00  0.00     0.010 A 
ATOM     29  C   UNL A   1      40.901  24.468  27.410  1.00  0.00    -0.014 A 
BRANCH  29  30
ATOM     30  C   UNL A   1      41.560  25.765  27.690  1.00  0.00     0.031 A 
ATOM     31  C   UNL A   1      40.840  26.804  28.501  1.00  0.00     0.074 A 
ATOM     32  C   UNL A   1      42.818  25.993  27.270  1.00  0.00     0.049 A 
ATOM     33  N   UNL A   1      41.195  28.032  28.778  1.00  0.00    -0.248 NA
ATOM     34  C   UNL A   1      39.547  26.405  29.081  1.00  0.00     0.031 C 
ATOM     35  C   UNL A   1      43.649  25.036  26.538  1.00  0.00     0.029 A 
ATOM     36  N   UNL A   1      43.618  27.098  27.406  1.00  0.00    -0.354 N 
ATOM     37  C   UNL A   1      40.156  28.566  29.529  1.00  0.00     0.074 A 
ATOM     38  C   UNL A   1      39.157  27.528  29.670  1.00  0.00     0.031 C 
ATOM     39  C   UNL A   1      44.848  25.595  26.300  1.00  0.00     0.029 A 
ATOM     40  C   UNL A   1      44.848  26.961  26.815  1.00  0.00     0.049 A 
ATOM     41  H   UNL A   1      43.335  27.913  27.881  1.00  0.00     0.167 HD
ATOM     42  C   UNL A   1      40.046  29.810  30.051  1.00  0.00     0.037 A 
ATOM     43  C   UNL A   1      45.852  27.848  26.677  1.00  0.00     0.037 A 
ATOM     44  C   UNL A   1      41.055  30.830  29.940  1.00  0.00     0.049 A 
ATOM     45  C   UNL A   1      45.686  29.238  27.223  1.00  0.00     0.074 A 
ATOM     46  C   UNL A   1      41.036  32.121  30.437  1.00  0.00     0.029 A 
ATOM     47  N   UNL A   1      42.271  30.666  29.294  1.00  0.00    -0.354 N 
ATOM     48  N   UNL A   1      44.678  29.748  27.889  1.00  0.00    -0.248 NA
ATOM     49  C   UNL A   1      46.787  30.181  26.981  1.00  0.00     0.031 C 
ATOM     50  C   UNL A   1      42.231  32.749  30.068  1.00  0.00     0.029 A 
ATOM     51  C   UNL A   1      43.005  31.837  29.367  1.00  0.00     0.049 A 
ATOM     52  H   UNL A   1      42.566  29.840  28.849  1.00  0.00     0.167 HD
ATOM     53  C   UNL A   1      45.026  31.066  28.154  1.00  0.00     0.074 A 
ATOM     54  C   UNL A   1      46.346  31.273  27.590  1.00  0.00     0.031 C 
ATOM     55  C   UNL A   1      44.315  32.022  28.801  1.00  0.00     0.037 A 
BRANCH  42  56
ATOM     56  C   UNL A   1      38.769  30.146  30.758  1.00  0.00     0.057 A 
ATOM     57  C   UNL A   1      38.589  29.900  32.124  1.00  0.00     0.134 A 
ATOM     58  C   UNL A   1      37.712  30.744  30.060  1.00  0.00     0.134 A 
ATOM     59  F   UNL A   1      39.557  29.312  32.842  1.00  0.00    -0.206 F 
ATOM     60  C   UNL A   1      37.393  30.223  32.769  1.00  0.00     0.040 A 
ATOM     61  C   UNL A   1      36.519  31.088  30.697  1.00  0.00     0.040 A 
ATOM     62  F   UNL A   1      37.824  31.006  28.749  1.00  0.00    -0.206 F 
ATOM     63  C   UNL A   1      36.356  30.823  32.055  1.00  0.00     0.006 A 
ENDBRANCH  42  56
BRANCH  43  64
ATOM     64  C   UNL A   1      47.092  27.458  25.963  1.00  0.00     0.057 A 
ATOM     65  C   UNL A   1      47.197  27.582  24.575  1.00  0.00     0.134 A 
ATOM     66  C   UNL A   1      48.199  26.951  26.654  1.00  0.00     0.134 A 
ATOM     67  F   UNL A   1      46.159  28.039  23.857  1.00  0.00    -0.206 F 
ATOM     68  C   UNL A   1      48.358  27.210  23.894  1.00  0.00     0.040 A 
ATOM     69  C   UNL A   1      49.374  26.596  25.990  1.00  0.00     0.040 A 
ATOM     70  F   UNL A   1      48.158  26.806  27.986  1.00  0.00    -0.206 F 
ATOM     71  C   UNL A   1      49.453  26.722  24.604  1.00  0.00     0.006 A 
ENDBRANCH  43  64
BRANCH  55  72
ATOM     72  C   UNL A   1      44.959  33.365  28.947  1.00  0.00     0.057 A 
ATOM     73  C   UNL A   1      44.755  34.381  28.005  1.00  0.00     0.134 A 
ATOM     74  C   UNL A   1      45.764  33.656  30.055  1.00  0.00     0.134 A 
ATOM     75  F   UNL A   1      44.005  34.157  26.915  1.00  0.00    -0.206 F 
ATOM     76  C   UNL A   1      45.342  35.638  28.153  1.00  0.00     0.040 A 
ATOM     77  C   UNL A   1      46.343  34.915  30.223  1.00  0.00     0.040 A 
ATOM     78  F   UNL A   1      45.992  32.726  30.994  1.00  0.00    -0.206 F 
ATOM     79  C   UNL A   1      46.135  35.909  29.268  1.00  0.00     0.006 A 
ENDBRANCH  55  72
ENDBRANCH  29  30
ENDBRANCH  22  24
ENDBRANCH  21  22
ENDBRANCH  20  21
ENDBRANCH   1  20
TORSDOF 15
ENDMDL
