MODEL 1
REMARK VINA RESULT:     -10.6      0.000      0.000
REMARK SMILES C[C@H](C(=O)OCCOC(=O)c1ccc(-c2c3nc(c(-c4c(F)cccc4F)c4ccc([nH]4)c(-c4c(F)cccc4F)c4nc(c(-c5c(F)cccc5F)c5ccc2[nH]5)C=C4)C=C3)cc1)c1ccc(C[C@@H]2CCC[C@H]2O)cc1
REMARK SMILES IDX 6 1 5 2 3 3 4 4 2 5 1 6 65 7 66 8 77 9 67 10 76 11 68 12
REMARK SMILES IDX 69 13 70 14 71 15 74 16 72 17 73 18 75 19 7 21 8 22 9 23
REMARK SMILES IDX 10 24 11 25 12 26 64 27 13 28 63 29 14 30 15 31 16 32 57 33
REMARK SMILES IDX 17 34 62 35 56 36 58 37 18 38 61 39 55 40 54 41 19 43 45 44
REMARK SMILES IDX 28 45 44 46 29 47 32 48 43 49 59 50 30 51 31 52 42 54 60 55
REMARK SMILES IDX 33 56 20 57 21 58 26 59 22 60 23 61 25 62 27 63 24 64 46 65
REMARK SMILES IDX 47 66 52 67 48 68 49 69 51 70 53 71 50 72 34 73 35 74 40 75
REMARK SMILES IDX 36 76 37 77 39 78 41 79 38 80
REMARK H PARENT 75 20 58 42 32 53
REMARK Flexibility Score: inf
ROOT
ATOM      1  C   UNL A   1      33.299  34.915  28.719  1.00  0.00     0.274 C 
ENDROOT
BRANCH   1   2
ATOM      2  O   UNL A   1      34.618  34.368  28.913  1.00  0.00    -0.462 OA
BRANCH   2   3
ATOM      3  C   UNL A   1      34.665  33.029  29.173  1.00  0.00     0.313 C 
ATOM      4  O   UNL A   1      34.292  32.545  30.237  1.00  0.00    -0.252 OA
BRANCH   3   5
ATOM      5  C   UNL A   1      35.093  32.223  27.937  1.00  0.00     0.126 C 
ATOM      6  C   UNL A   1      36.551  31.762  27.971  1.00  0.00     0.025 C 
BRANCH   5   7
ATOM      7  C   UNL A   1      34.179  31.042  27.602  1.00  0.00    -0.034 A 
ATOM      8  C   UNL A   1      34.690  29.736  27.618  1.00  0.00     0.005 A 
ATOM      9  C   UNL A   1      32.820  31.205  27.297  1.00  0.00     0.005 A 
ATOM     10  C   UNL A   1      33.881  28.642  27.285  1.00  0.00     0.004 A 
ATOM     11  C   UNL A   1      32.028  30.119  26.914  1.00  0.00     0.004 A 
ATOM     12  C   UNL A   1      32.553  28.823  26.883  1.00  0.00    -0.048 A 
BRANCH  12  13
ATOM     13  C   UNL A   1      31.675  27.667  26.464  1.00  0.00     0.041 C 
BRANCH  13  14
ATOM     14  C   UNL A   1      31.674  27.205  24.991  1.00  0.00     0.022 C 
ATOM     15  C   UNL A   1      32.932  27.582  24.198  1.00  0.00     0.007 C 
ATOM     16  C   UNL A   1      30.531  27.749  24.133  1.00  0.00     0.117 C 
ATOM     17  C   UNL A   1      32.579  28.805  23.356  1.00  0.00     0.003 C 
ATOM     18  C   UNL A   1      31.082  29.031  23.526  1.00  0.00     0.032 C 
BRANCH  16  19
ATOM     19  O   UNL A   1      30.237  26.791  23.114  1.00  0.00    -0.393 OA
ATOM     20  H   UNL A   1      31.066  26.419  22.771  1.00  0.00     0.210 HD
ENDBRANCH  16  19
ENDBRANCH  13  14
ENDBRANCH  12  13
ENDBRANCH   5   7
ENDBRANCH   3   5
ENDBRANCH   2   3
ENDBRANCH   1   2
BRANCH   1  21
ATOM     21  C   UNL A   1      32.934  35.954  29.787  1.00  0.00     0.275 C 
BRANCH  21  22
ATOM     22  O   UNL A   1      32.367  35.367  30.974  1.00  0.00    -0.458 OA
BRANCH  22  23
ATOM     23  C   UNL A   1      32.801  35.899  32.143  1.00  0.00     0.338 C 
ATOM     24  O   UNL A   1      32.308  36.845  32.739  1.00  0.00    -0.246 OA
BRANCH  23  25
ATOM     25  C   UNL A   1      33.914  35.105  32.704  1.00  0.00     0.060 A 
ATOM     26  C   UNL A   1      35.203  35.636  32.598  1.00  0.00     0.016 A 
ATOM     27  C   UNL A   1      33.724  33.836  33.260  1.00  0.00     0.016 A 
ATOM     28  C   UNL A   1      36.300  34.906  33.045  1.00  0.00     0.010 A 
ATOM     29  C   UNL A   1      34.832  33.099  33.706  1.00  0.00     0.010 A 
ATOM     30  C   UNL A   1      36.126  33.631  33.599  1.00  0.00    -0.014 A 
BRANCH  30  31
ATOM     31  C   UNL A   1      37.327  32.859  34.006  1.00  0.00     0.031 A 
ATOM     32  C   UNL A   1      37.976  31.929  33.024  1.00  0.00     0.074 A 
ATOM     33  C   UNL A   1      37.894  33.075  35.207  1.00  0.00     0.049 A 
ATOM     34  N   UNL A   1      39.085  31.245  33.140  1.00  0.00    -0.248 NA
ATOM     35  C   UNL A   1      37.280  31.742  31.742  1.00  0.00     0.031 C 
ATOM     36  C   UNL A   1      37.390  34.005  36.216  1.00  0.00     0.029 A 
ATOM     37  N   UNL A   1      39.064  32.594  35.745  1.00  0.00    -0.354 N 
ATOM     38  C   UNL A   1      39.199  30.510  31.968  1.00  0.00     0.074 A 
ATOM     39  C   UNL A   1      38.061  30.857  31.140  1.00  0.00     0.031 C 
ATOM     40  C   UNL A   1      38.292  34.098  37.208  1.00  0.00     0.029 A 
ATOM     41  C   UNL A   1      39.412  33.201  36.930  1.00  0.00     0.049 A 
ATOM     42  H   UNL A   1      39.601  31.886  35.323  1.00  0.00     0.167 HD
ATOM     43  C   UNL A   1      40.145  29.602  31.629  1.00  0.00     0.037 A 
ATOM     44  C   UNL A   1      40.522  33.067  37.683  1.00  0.00     0.037 A 
ATOM     45  C   UNL A   1      41.270  29.252  32.456  1.00  0.00     0.049 A 
ATOM     46  C   UNL A   1      41.577  32.073  37.268  1.00  0.00     0.074 A 
ATOM     47  C   UNL A   1      42.250  28.302  32.223  1.00  0.00     0.029 A 
ATOM     48  N   UNL A   1      41.567  29.840  33.675  1.00  0.00    -0.354 N 
ATOM     49  N   UNL A   1      41.660  31.363  36.169  1.00  0.00    -0.248 NA
ATOM     50  C   UNL A   1      42.678  31.843  38.216  1.00  0.00     0.031 C 
ATOM     51  C   UNL A   1      43.115  28.287  33.322  1.00  0.00     0.029 A 
ATOM     52  C   UNL A   1      42.703  29.262  34.217  1.00  0.00     0.049 A 
ATOM     53  H   UNL A   1      41.046  30.563  34.095  1.00  0.00     0.167 HD
ATOM     54  C   UNL A   1      42.811  30.594  36.301  1.00  0.00     0.074 A 
ATOM     55  C   UNL A   1      43.425  30.968  37.558  1.00  0.00     0.031 C 
ATOM     56  C   UNL A   1      43.301  29.641  35.470  1.00  0.00     0.037 A 
BRANCH  43  57
ATOM     57  C   UNL A   1      39.948  28.857  30.342  1.00  0.00     0.057 A 
ATOM     58  C   UNL A   1      39.212  27.669  30.270  1.00  0.00     0.134 A 
ATOM     59  C   UNL A   1      40.503  29.350  29.154  1.00  0.00     0.134 A 
ATOM     60  F   UNL A   1      38.672  27.135  31.376  1.00  0.00    -0.206 F 
ATOM     61  C   UNL A   1      39.052  26.987  29.062  1.00  0.00     0.040 A 
ATOM     62  C   UNL A   1      40.331  28.690  27.938  1.00  0.00     0.040 A 
ATOM     63  F   UNL A   1      41.219  30.486  29.158  1.00  0.00    -0.206 F 
ATOM     64  C   UNL A   1      39.609  27.500  27.891  1.00  0.00     0.006 A 
ENDBRANCH  43  57
BRANCH  44  65
ATOM     65  C   UNL A   1      40.728  33.905  38.895  1.00  0.00     0.057 A 
ATOM     66  C   UNL A   1      40.189  33.521  40.130  1.00  0.00     0.134 A 
ATOM     67  C   UNL A   1      41.427  35.117  38.850  1.00  0.00     0.134 A 
ATOM     68  F   UNL A   1      39.468  32.394  40.229  1.00  0.00    -0.206 F 
ATOM     69  C   UNL A   1      40.329  34.313  41.271  1.00  0.00     0.040 A 
ATOM     70  C   UNL A   1      41.598  35.906  39.990  1.00  0.00     0.040 A 
ATOM     71  F   UNL A   1      41.956  35.553  37.698  1.00  0.00    -0.206 F 
ATOM     72  C   UNL A   1      41.042  35.508  41.203  1.00  0.00     0.006 A 
ENDBRANCH  44  65
BRANCH  56  73
ATOM     73  C   UNL A   1      44.546  28.922  35.902  1.00  0.00     0.057 A 
ATOM     74  C   UNL A   1      44.485  27.740  36.654  1.00  0.00     0.134 A 
ATOM     75  C   UNL A   1      45.813  29.381  35.523  1.00  0.00     0.134 A 
ATOM     76  F   UNL A   1      43.302  27.251  37.057  1.00  0.00    -0.206 F 
ATOM     77  C   UNL A   1      45.640  27.053  37.029  1.00  0.00     0.040 A 
ATOM     78  C   UNL A   1      46.974  28.689  35.871  1.00  0.00     0.040 A 
ATOM     79  F   UNL A   1      45.942  30.499  34.794  1.00  0.00    -0.206 F 
ATOM     80  C   UNL A   1      46.890  27.523  36.631  1.00  0.00     0.006 A 
ENDBRANCH  56  73
ENDBRANCH  30  31
ENDBRANCH  23  25
ENDBRANCH  22  23
ENDBRANCH  21  22
ENDBRANCH   1  21
TORSDOF 15
ENDMDL
MODEL 2
REMARK VINA RESULT:     -10.5      5.018     10.287
REMARK SMILES C[C@H](C(=O)OCCOC(=O)c1ccc(-c2c3nc(c(-c4c(F)cccc4F)c4ccc([nH]4)c(-c4c(F)cccc4F)c4nc(c(-c5c(F)cccc5F)c5ccc2[nH]5)C=C4)C=C3)cc1)c1ccc(C[C@@H]2CCC[C@H]2O)cc1
REMARK SMILES IDX 6 1 5 2 3 3 4 4 2 5 1 6 65 7 66 8 77 9 67 10 76 11 68 12
REMARK SMILES IDX 69 13 70 14 71 15 74 16 72 17 73 18 75 19 7 21 8 22 9 23
REMARK SMILES IDX 10 24 11 25 12 26 64 27 13 28 63 29 14 30 15 31 16 32 57 33
REMARK SMILES IDX 17 34 62 35 56 36 58 37 18 38 61 39 55 40 54 41 19 43 45 44
REMARK SMILES IDX 28 45 44 46 29 47 32 48 43 49 59 50 30 51 31 52 42 54 60 55
REMARK SMILES IDX 33 56 20 57 21 58 26 59 22 60 23 61 25 62 27 63 24 64 46 65
REMARK SMILES IDX 47 66 52 67 48 68 49 69 51 70 53 71 50 72 34 73 35 74 40 75
REMARK SMILES IDX 36 76 37 77 39 78 41 79 38 80
REMARK H PARENT 75 20 58 42 32 53
REMARK Flexibility Score: inf
ROOT
ATOM      1  C   UNL A   1      44.194  21.267  25.232  1.00  0.00     0.274 C 
ENDROOT
BRANCH   1   2
ATOM      2  O   UNL A   1      43.031  21.329  26.080  1.00  0.00    -0.462 OA
BRANCH   2   3
ATOM      3  C   UNL A   1      42.159  20.285  25.956  1.00  0.00     0.313 C 
ATOM      4  O   UNL A   1      42.406  19.290  25.284  1.00  0.00    -0.252 OA
BRANCH   3   5
ATOM      5  C   UNL A   1      40.933  20.456  26.865  1.00  0.00     0.126 C 
ATOM      6  C   UNL A   1      41.153  21.423  28.030  1.00  0.00     0.025 C 
BRANCH   5   7
ATOM      7  C   UNL A   1      39.640  20.813  26.127  1.00  0.00    -0.034 A 
ATOM      8  C   UNL A   1      39.165  22.133  26.147  1.00  0.00     0.005 A 
ATOM      9  C   UNL A   1      38.907  19.868  25.395  1.00  0.00     0.005 A 
ATOM     10  C   UNL A   1      37.970  22.477  25.504  1.00  0.00     0.004 A 
ATOM     11  C   UNL A   1      37.688  20.202  24.799  1.00  0.00     0.004 A 
ATOM     12  C   UNL A   1      37.190  21.508  24.862  1.00  0.00    -0.048 A 
BRANCH  12  13
ATOM     13  C   UNL A   1      35.870  21.841  24.210  1.00  0.00     0.041 C 
BRANCH  13  14
ATOM     14  C   UNL A   1      34.552  21.514  24.946  1.00  0.00     0.022 C 
ATOM     15  C   UNL A   1      33.412  22.510  24.696  1.00  0.00     0.007 C 
ATOM     16  C   UNL A   1      34.650  21.452  26.470  1.00  0.00     0.117 C 
ATOM     17  C   UNL A   1      33.350  23.430  25.912  1.00  0.00     0.003 C 
ATOM     18  C   UNL A   1      34.329  22.866  26.934  1.00  0.00     0.032 C 
BRANCH  16  19
ATOM     19  O   UNL A   1      33.670  20.528  26.948  1.00  0.00    -0.393 OA
ATOM     20  H   UNL A   1      33.780  20.407  27.904  1.00  0.00     0.210 HD
ENDBRANCH  16  19
ENDBRANCH  13  14
ENDBRANCH  12  13
ENDBRANCH   5   7
ENDBRANCH   3   5
ENDBRANCH   2   3
ENDBRANCH   1   2
BRANCH   1  21
ATOM     21  C   UNL A   1      44.237  22.413  24.214  1.00  0.00     0.275 C 
BRANCH  21  22
ATOM     22  O   UNL A   1      43.464  23.559  24.622  1.00  0.00    -0.458 OA
BRANCH  22  23
ATOM     23  C   UNL A   1      44.189  24.607  25.086  1.00  0.00     0.338 C 
ATOM     24  O   UNL A   1      45.242  25.022  24.628  1.00  0.00    -0.246 OA
BRANCH  23  25
ATOM     25  C   UNL A   1      43.478  25.295  26.185  1.00  0.00     0.060 A 
ATOM     26  C   UNL A   1      43.790  26.638  26.413  1.00  0.00     0.016 A 
ATOM     27  C   UNL A   1      42.576  24.633  27.024  1.00  0.00     0.016 A 
ATOM     28  C   UNL A   1      43.204  27.322  27.475  1.00  0.00     0.010 A 
ATOM     29  C   UNL A   1      41.991  25.322  28.097  1.00  0.00     0.010 A 
ATOM     30  C   UNL A   1      42.303  26.671  28.328  1.00  0.00    -0.014 A 
BRANCH  30  31
ATOM     31  C   UNL A   1      41.750  27.417  29.486  1.00  0.00     0.031 A 
ATOM     32  C   UNL A   1      42.542  27.502  30.757  1.00  0.00     0.074 A 
ATOM     33  C   UNL A   1      40.600  28.104  29.359  1.00  0.00     0.049 A 
ATOM     34  N   UNL A   1      42.291  28.186  31.844  1.00  0.00    -0.248 NA
ATOM     35  C   UNL A   1      43.778  26.708  30.812  1.00  0.00     0.031 C 
ATOM     36  C   UNL A   1      39.780  28.149  28.150  1.00  0.00     0.029 A 
ATOM     37  N   UNL A   1      39.970  28.963  30.227  1.00  0.00    -0.354 N 
ATOM     38  C   UNL A   1      43.311  27.871  32.731  1.00  0.00     0.074 A 
ATOM     39  C   UNL A   1      44.203  26.959  32.043  1.00  0.00     0.031 C 
ATOM     40  C   UNL A   1      38.809  29.063  28.319  1.00  0.00     0.029 A 
ATOM     41  C   UNL A   1      38.908  29.631  29.661  1.00  0.00     0.049 A 
ATOM     42  H   UNL A   1      40.251  29.089  31.161  1.00  0.00     0.167 HD
ATOM     43  C   UNL A   1      43.470  28.276  34.013  1.00  0.00     0.037 A 
ATOM     44  C   UNL A   1      38.129  30.610  30.164  1.00  0.00     0.037 A 
ATOM     45  C   UNL A   1      42.580  29.176  34.700  1.00  0.00     0.049 A 
ATOM     46  C   UNL A   1      38.346  31.068  31.584  1.00  0.00     0.074 A 
ATOM     47  C   UNL A   1      42.626  29.599  36.017  1.00  0.00     0.029 A 
ATOM     48  N   UNL A   1      41.481  29.792  34.121  1.00  0.00    -0.354 N 
ATOM     49  N   UNL A   1      39.299  30.742  32.423  1.00  0.00    -0.248 NA
ATOM     50  C   UNL A   1      37.358  32.009  32.133  1.00  0.00     0.031 C 
ATOM     51  C   UNL A   1      41.531  30.439  36.245  1.00  0.00     0.029 A 
ATOM     52  C   UNL A   1      40.831  30.578  35.058  1.00  0.00     0.049 A 
ATOM     53  H   UNL A   1      41.205  29.687  33.182  1.00  0.00     0.167 HD
ATOM     54  C   UNL A   1      39.017  31.426  33.601  1.00  0.00     0.074 A 
ATOM     55  C   UNL A   1      37.840  32.230  33.348  1.00  0.00     0.031 C 
ATOM     56  C   UNL A   1      39.658  31.370  34.794  1.00  0.00     0.037 A 
BRANCH  43  57
ATOM     57  C   UNL A   1      44.605  27.672  34.786  1.00  0.00     0.057 A 
ATOM     58  C   UNL A   1      45.880  28.250  34.817  1.00  0.00     0.134 A 
ATOM     59  C   UNL A   1      44.409  26.493  35.516  1.00  0.00     0.134 A 
ATOM     60  F   UNL A   1      46.138  29.368  34.122  1.00  0.00    -0.206 F 
ATOM     61  C   UNL A   1      46.925  27.663  35.534  1.00  0.00     0.040 A 
ATOM     62  C   UNL A   1      45.438  25.911  36.254  1.00  0.00     0.040 A 
ATOM     63  F   UNL A   1      43.209  25.891  35.527  1.00  0.00    -0.206 F 
ATOM     64  C   UNL A   1      46.704  26.492  36.259  1.00  0.00     0.006 A 
ENDBRANCH  43  57
BRANCH  44  65
ATOM     65  C   UNL A   1      37.085  31.259  29.326  1.00  0.00     0.057 A 
ATOM     66  C   UNL A   1      35.905  30.577  28.999  1.00  0.00     0.134 A 
ATOM     67  C   UNL A   1      37.245  32.548  28.804  1.00  0.00     0.134 A 
ATOM     68  F   UNL A   1      35.711  29.321  29.430  1.00  0.00    -0.206 F 
ATOM     69  C   UNL A   1      34.931  31.146  28.177  1.00  0.00     0.040 A 
ATOM     70  C   UNL A   1      36.266  33.140  28.003  1.00  0.00     0.040 A 
ATOM     71  F   UNL A   1      38.356  33.252  29.064  1.00  0.00    -0.206 F 
ATOM     72  C   UNL A   1      35.108  32.436  27.682  1.00  0.00     0.006 A 
ENDBRANCH  44  65
BRANCH  56  73
ATOM     73  C   UNL A   1      39.089  32.181  35.922  1.00  0.00     0.057 A 
ATOM     74  C   UNL A   1      38.193  31.623  36.845  1.00  0.00     0.134 A 
ATOM     75  C   UNL A   1      39.475  33.512  36.121  1.00  0.00     0.134 A 
ATOM     76  F   UNL A   1      37.776  30.355  36.707  1.00  0.00    -0.206 F 
ATOM     77  C   UNL A   1      37.687  32.366  37.913  1.00  0.00     0.040 A 
ATOM     78  C   UNL A   1      38.995  34.258  37.199  1.00  0.00     0.040 A 
ATOM     79  F   UNL A   1      40.337  34.104  35.281  1.00  0.00    -0.206 F 
ATOM     80  C   UNL A   1      38.094  33.686  38.096  1.00  0.00     0.006 A 
ENDBRANCH  56  73
ENDBRANCH  30  31
ENDBRANCH  23  25
ENDBRANCH  22  23
ENDBRANCH  21  22
ENDBRANCH   1  21
TORSDOF 15
ENDMDL
MODEL 3
REMARK VINA RESULT:     -10.3      3.013      8.004
REMARK SMILES C[C@H](C(=O)OCCOC(=O)c1ccc(-c2c3nc(c(-c4c(F)cccc4F)c4ccc([nH]4)c(-c4c(F)cccc4F)c4nc(c(-c5c(F)cccc5F)c5ccc2[nH]5)C=C4)C=C3)cc1)c1ccc(C[C@@H]2CCC[C@H]2O)cc1
REMARK SMILES IDX 6 1 5 2 3 3 4 4 2 5 1 6 65 7 66 8 77 9 67 10 76 11 68 12
REMARK SMILES IDX 69 13 70 14 71 15 74 16 72 17 73 18 75 19 7 21 8 22 9 23
REMARK SMILES IDX 10 24 11 25 12 26 64 27 13 28 63 29 14 30 15 31 16 32 57 33
REMARK SMILES IDX 17 34 62 35 56 36 58 37 18 38 61 39 55 40 54 41 19 43 45 44
REMARK SMILES IDX 28 45 44 46 29 47 32 48 43 49 59 50 30 51 31 52 42 54 60 55
REMARK SMILES IDX 33 56 20 57 21 58 26 59 22 60 23 61 25 62 27 63 24 64 46 65
REMARK SMILES IDX 47 66 52 67 48 68 49 69 51 70 53 71 50 72 34 73 35 74 40 75
REMARK SMILES IDX 36 76 37 77 39 78 41 79 38 80
REMARK H PARENT 75 20 58 42 32 53
REMARK Flexibility Score: inf
ROOT
ATOM      1  C   UNL A   1      31.745  27.668  27.256  1.00  0.00     0.274 C 
ENDROOT
BRANCH   1   2
ATOM      2  O   UNL A   1      32.538  26.689  26.557  1.00  0.00    -0.462 OA
BRANCH   2   3
ATOM      3  C   UNL A   1      31.913  25.502  26.305  1.00  0.00     0.313 C 
ATOM      4  O   UNL A   1      31.403  24.819  27.187  1.00  0.00    -0.252 OA
BRANCH   3   5
ATOM      5  C   UNL A   1      31.808  25.221  24.798  1.00  0.00     0.126 C 
ATOM      6  C   UNL A   1      31.021  23.955  24.456  1.00  0.00     0.025 C 
BRANCH   5   7
ATOM      7  C   UNL A   1      31.293  26.399  23.967  1.00  0.00    -0.034 A 
ATOM      8  C   UNL A   1      32.192  27.172  23.219  1.00  0.00     0.005 A 
ATOM      9  C   UNL A   1      29.933  26.733  23.899  1.00  0.00     0.005 A 
ATOM     10  C   UNL A   1      31.749  28.273  22.475  1.00  0.00     0.004 A 
ATOM     11  C   UNL A   1      29.500  27.862  23.199  1.00  0.00     0.004 A 
ATOM     12  C   UNL A   1      30.404  28.662  22.493  1.00  0.00    -0.048 A 
BRANCH  12  13
ATOM     13  C   UNL A   1      29.909  29.877  21.747  1.00  0.00     0.041 C 
BRANCH  13  14
ATOM     14  C   UNL A   1      28.487  30.413  22.021  1.00  0.00     0.022 C 
ATOM     15  C   UNL A   1      27.876  31.232  20.876  1.00  0.00     0.007 C 
ATOM     16  C   UNL A   1      28.355  31.334  23.233  1.00  0.00     0.117 C 
ATOM     17  C   UNL A   1      28.028  32.703  21.251  1.00  0.00     0.003 C 
ATOM     18  C   UNL A   1      28.563  32.735  22.677  1.00  0.00     0.032 C 
BRANCH  16  19
ATOM     19  O   UNL A   1      27.037  31.192  23.767  1.00  0.00    -0.393 OA
ATOM     20  H   UNL A   1      26.726  30.285  23.622  1.00  0.00     0.210 HD
ENDBRANCH  16  19
ENDBRANCH  13  14
ENDBRANCH  12  13
ENDBRANCH   5   7
ENDBRANCH   3   5
ENDBRANCH   2   3
ENDBRANCH   1   2
BRANCH   1  21
ATOM     21  C   UNL A   1      31.590  28.971  26.461  1.00  0.00     0.275 C 
BRANCH  21  22
ATOM     22  O   UNL A   1      32.850  29.603  26.164  1.00  0.00    -0.458 OA
BRANCH  22  23
ATOM     23  C   UNL A   1      33.116  30.722  26.882  1.00  0.00     0.338 C 
ATOM     24  O   UNL A   1      32.335  31.626  27.137  1.00  0.00    -0.246 OA
BRANCH  23  25
ATOM     25  C   UNL A   1      34.482  30.674  27.447  1.00  0.00     0.060 A 
ATOM     26  C   UNL A   1      34.989  29.421  27.803  1.00  0.00     0.016 A 
ATOM     27  C   UNL A   1      35.233  31.828  27.692  1.00  0.00     0.016 A 
ATOM     28  C   UNL A   1      36.242  29.317  28.402  1.00  0.00     0.010 A 
ATOM     29  C   UNL A   1      36.493  31.722  28.299  1.00  0.00     0.010 A 
ATOM     30  C   UNL A   1      37.003  30.465  28.658  1.00  0.00    -0.014 A 
BRANCH  30  31
ATOM     31  C   UNL A   1      38.305  30.317  29.355  1.00  0.00     0.031 A 
ATOM     32  C   UNL A   1      38.421  30.713  30.798  1.00  0.00     0.074 A 
ATOM     33  C   UNL A   1      39.342  29.728  28.732  1.00  0.00     0.049 A 
ATOM     34  N   UNL A   1      39.431  30.569  31.617  1.00  0.00    -0.248 NA
ATOM     35  C   UNL A   1      37.245  31.363  31.394  1.00  0.00     0.031 C 
ATOM     36  C   UNL A   1      39.324  29.242  27.353  1.00  0.00     0.029 A 
ATOM     37  N   UNL A   1      40.580  29.361  29.203  1.00  0.00    -0.354 N 
ATOM     38  C   UNL A   1      39.031  31.150  32.813  1.00  0.00     0.074 A 
ATOM     39  C   UNL A   1      37.674  31.620  32.621  1.00  0.00     0.031 C 
ATOM     40  C   UNL A   1      40.457  28.558  27.120  1.00  0.00     0.029 A 
ATOM     41  C   UNL A   1      41.301  28.599  28.312  1.00  0.00     0.049 A 
ATOM     42  H   UNL A   1      40.917  29.618  30.091  1.00  0.00     0.167 HD
ATOM     43  C   UNL A   1      39.744  31.309  33.953  1.00  0.00     0.037 A 
ATOM     44  C   UNL A   1      42.490  27.982  28.460  1.00  0.00     0.037 A 
ATOM     45  C   UNL A   1      41.095  30.849  34.141  1.00  0.00     0.049 A 
ATOM     46  C   UNL A   1      43.250  28.147  29.751  1.00  0.00     0.074 A 
ATOM     47  C   UNL A   1      41.919  31.014  35.241  1.00  0.00     0.029 A 
ATOM     48  N   UNL A   1      41.821  30.131  33.203  1.00  0.00    -0.354 N 
ATOM     49  N   UNL A   1      42.873  28.723  30.867  1.00  0.00    -0.248 NA
ATOM     50  C   UNL A   1      44.615  27.600  29.790  1.00  0.00     0.031 C 
ATOM     51  C   UNL A   1      43.158  30.432  34.951  1.00  0.00     0.029 A 
ATOM     52  C   UNL A   1      43.089  29.861  33.691  1.00  0.00     0.049 A 
ATOM     53  H   UNL A   1      41.484  29.852  32.320  1.00  0.00     0.167 HD
ATOM     54  C   UNL A   1      43.957  28.619  31.732  1.00  0.00     0.074 A 
ATOM     55  C   UNL A   1      44.982  27.873  31.033  1.00  0.00     0.031 C 
ATOM     56  C   UNL A   1      44.101  29.122  32.983  1.00  0.00     0.037 A 
BRANCH  43  57
ATOM     57  C   UNL A   1      39.100  32.094  35.057  1.00  0.00     0.057 A 
ATOM     58  C   UNL A   1      39.169  33.490  35.122  1.00  0.00     0.134 A 
ATOM     59  C   UNL A   1      38.393  31.432  36.069  1.00  0.00     0.134 A 
ATOM     60  F   UNL A   1      39.849  34.182  34.195  1.00  0.00    -0.206 F 
ATOM     61  C   UNL A   1      38.572  34.200  36.166  1.00  0.00     0.040 A 
ATOM     62  C   UNL A   1      37.772  32.130  37.104  1.00  0.00     0.040 A 
ATOM     63  F   UNL A   1      38.289  30.094  36.063  1.00  0.00    -0.206 F 
ATOM     64  C   UNL A   1      37.867  33.519  37.159  1.00  0.00     0.006 A 
ENDBRANCH  43  57
BRANCH  44  65
ATOM     65  C   UNL A   1      43.043  27.121  27.379  1.00  0.00     0.057 A 
ATOM     66  C   UNL A   1      42.761  25.749  27.343  1.00  0.00     0.134 A 
ATOM     67  C   UNL A   1      43.887  27.628  26.384  1.00  0.00     0.134 A 
ATOM     68  F   UNL A   1      41.996  25.193  28.295  1.00  0.00    -0.206 F 
ATOM     69  C   UNL A   1      43.304  24.913  26.366  1.00  0.00     0.040 A 
ATOM     70  C   UNL A   1      44.415  26.808  25.384  1.00  0.00     0.040 A 
ATOM     71  F   UNL A   1      44.210  28.929  26.367  1.00  0.00    -0.206 F 
ATOM     72  C   UNL A   1      44.129  25.445  25.378  1.00  0.00     0.006 A 
ENDBRANCH  44  65
BRANCH  56  73
ATOM     73  C   UNL A   1      45.420  28.903  33.667  1.00  0.00     0.057 A 
ATOM     74  C   UNL A   1      45.653  27.771  34.461  1.00  0.00     0.134 A 
ATOM     75  C   UNL A   1      46.482  29.798  33.490  1.00  0.00     0.134 A 
ATOM     76  F   UNL A   1      44.675  26.879  34.677  1.00  0.00    -0.206 F 
ATOM     77  C   UNL A   1      46.889  27.550  35.072  1.00  0.00     0.040 A 
ATOM     78  C   UNL A   1      47.729  29.574  34.076  1.00  0.00     0.040 A 
ATOM     79  F   UNL A   1      46.330  30.894  32.734  1.00  0.00    -0.206 F 
ATOM     80  C   UNL A   1      47.934  28.449  34.873  1.00  0.00     0.006 A 
ENDBRANCH  56  73
ENDBRANCH  30  31
ENDBRANCH  23  25
ENDBRANCH  22  23
ENDBRANCH  21  22
ENDBRANCH   1  21
TORSDOF 15
ENDMDL
