MODEL 1
REMARK VINA RESULT:     -11.9      0.000      0.000
REMARK SMILES Cc1cc(Cl)c2c(c1)C=C(C(=O)OCCOC(=O)c1ccc(-c3c4nc(c(-c5c(F)cccc5F)c5ccc([nH]5)c(-c5c(F)cccc5F)c5nc(c(-c6c(F)cccc6F)c6ccc3[nH]6)C=C5)C=C4)cc1)[C@@H](C(F)(F)F)O2
REMARK SMILES IDX 15 1 14 2 13 3 11 4 12 5 10 6 1 7 2 8 3 9 8 10 4 11 7 12
REMARK SMILES IDX 5 13 6 14 9 15 78 16 73 17 74 18 75 19 76 20 77 21 16 22
REMARK SMILES IDX 17 23 18 24 19 25 20 26 72 27 21 28 71 29 22 30 23 31 24 32
REMARK SMILES IDX 65 33 25 34 70 35 64 36 66 37 26 38 69 39 63 40 62 41 27 43
REMARK SMILES IDX 53 44 36 45 52 46 37 47 40 48 51 49 67 50 38 51 39 52 50 54
REMARK SMILES IDX 68 55 41 56 28 57 29 58 34 59 30 60 31 61 33 62 35 63 32 64
REMARK SMILES IDX 54 65 55 66 60 67 56 68 57 69 59 70 61 71 58 72 42 73 43 74
REMARK SMILES IDX 48 75 44 76 45 77 47 78 49 79 46 80
REMARK H PARENT 66 42 40 53
REMARK Flexibility Score: inf
ROOT
ATOM      1  C   UNL A   1      36.501  20.443  24.995  1.00  0.00     0.275 C 
ENDROOT
BRANCH   1   2
ATOM      2  C   UNL A   1      35.196  21.231  24.888  1.00  0.00     0.275 C 
BRANCH   2   3
ATOM      3  O   UNL A   1      35.444  22.654  24.870  1.00  0.00    -0.459 OA
BRANCH   3   4
ATOM      4  C   UNL A   1      35.255  23.259  23.675  1.00  0.00     0.338 C 
ATOM      5  O   UNL A   1      35.797  22.976  22.618  1.00  0.00    -0.246 OA
BRANCH   4   6
ATOM      6  C   UNL A   1      34.254  24.334  23.791  1.00  0.00     0.087 C 
ATOM      7  C   UNL A   1      32.685  29.028  27.465  1.00  0.00     0.044 C 
ATOM      8  C   UNL A   1      32.533  28.055  26.334  1.00  0.00    -0.049 A 
ATOM      9  C   UNL A   1      31.366  28.037  25.562  1.00  0.00     0.028 A 
ATOM     10  C   UNL A   1      33.559  27.159  26.022  1.00  0.00     0.015 A 
ATOM     11  C   UNL A   1      31.226  27.130  24.504  1.00  0.00     0.084 A 
ATOM     12  C   UNL A   1      33.410  26.237  24.974  1.00  0.00     0.019 A 
ATOM     13  Cl  UNL A   1      29.756  27.152  23.597  1.00  0.00    -0.080 Cl
ATOM     14  C   UNL A   1      32.246  26.217  24.205  1.00  0.00     0.146 A 
ATOM     15  C   UNL A   1      34.461  25.273  24.719  1.00  0.00     0.027 C 
ATOM     16  O   UNL A   1      32.073  25.355  23.155  1.00  0.00    -0.474 OA
ATOM     17  C   UNL A   1      32.991  24.240  22.987  1.00  0.00     0.316 C 
BRANCH  17  18
ATOM     18  C   UNL A   1      32.247  22.925  23.271  1.00  0.00     0.430 C 
ATOM     19  F   UNL A   1      30.945  23.001  22.908  1.00  0.00    -0.167 F 
ATOM     20  F   UNL A   1      32.782  21.893  22.570  1.00  0.00    -0.167 F 
ATOM     21  F   UNL A   1      32.288  22.588  24.580  1.00  0.00    -0.167 F 
ENDBRANCH  17  18
ENDBRANCH   4   6
ENDBRANCH   3   4
ENDBRANCH   2   3
ENDBRANCH   1   2
BRANCH   1  22
ATOM     22  O   UNL A   1      37.627  21.338  24.927  1.00  0.00    -0.458 OA
BRANCH  22  23
ATOM     23  C   UNL A   1      38.694  20.993  25.680  1.00  0.00     0.338 C 
ATOM     24  O   UNL A   1      39.216  19.895  25.772  1.00  0.00    -0.246 OA
BRANCH  23  25
ATOM     25  C   UNL A   1      39.227  22.177  26.373  1.00  0.00     0.060 A 
ATOM     26  C   UNL A   1      38.676  23.423  26.096  1.00  0.00     0.016 A 
ATOM     27  C   UNL A   1      40.386  22.083  27.140  1.00  0.00     0.016 A 
ATOM     28  C   UNL A   1      39.368  24.581  26.437  1.00  0.00     0.010 A 
ATOM     29  C   UNL A   1      40.998  23.251  27.612  1.00  0.00     0.010 A 
ATOM     30  C   UNL A   1      40.531  24.518  27.217  1.00  0.00    -0.014 A 
BRANCH  30  31
ATOM     31  C   UNL A   1      41.270  25.768  27.572  1.00  0.00     0.031 A 
ATOM     32  C   UNL A   1      40.631  26.808  28.460  1.00  0.00     0.074 A 
ATOM     33  C   UNL A   1      42.533  25.963  27.137  1.00  0.00     0.049 A 
ATOM     34  N   UNL A   1      41.042  28.018  28.746  1.00  0.00    -0.248 NA
ATOM     35  C   UNL A   1      39.356  26.447  29.103  1.00  0.00     0.031 C 
ATOM     36  C   UNL A   1      43.303  25.027  26.317  1.00  0.00     0.029 A 
ATOM     37  N   UNL A   1      43.402  27.008  27.342  1.00  0.00    -0.354 N 
ATOM     38  C   UNL A   1      40.053  28.579  29.547  1.00  0.00     0.074 A 
ATOM     39  C   UNL A   1      39.016  27.583  29.697  1.00  0.00     0.031 C 
ATOM     40  C   UNL A   1      44.546  25.501  26.150  1.00  0.00     0.029 A 
ATOM     41  C   UNL A   1      44.631  26.826  26.750  1.00  0.00     0.049 A 
ATOM     42  H   UNL A   1      43.168  27.810  27.862  1.00  0.00     0.167 HD
ATOM     43  C   UNL A   1      40.017  29.810  30.111  1.00  0.00     0.037 A 
ATOM     44  C   UNL A   1      45.696  27.646  26.658  1.00  0.00     0.037 A 
ATOM     45  C   UNL A   1      41.080  30.776  30.017  1.00  0.00     0.049 A 
ATOM     46  C   UNL A   1      45.610  29.025  27.241  1.00  0.00     0.074 A 
ATOM     47  C   UNL A   1      41.141  32.045  30.567  1.00  0.00     0.029 A 
ATOM     48  N   UNL A   1      42.275  30.574  29.345  1.00  0.00    -0.354 N 
ATOM     49  N   UNL A   1      44.639  29.567  27.935  1.00  0.00    -0.248 NA
ATOM     50  C   UNL A   1      46.749  29.921  26.997  1.00  0.00     0.031 C 
ATOM     51  C   UNL A   1      42.359  32.623  30.200  1.00  0.00     0.029 A 
ATOM     52  C   UNL A   1      43.074  31.700  29.453  1.00  0.00     0.049 A 
ATOM     53  H   UNL A   1      42.521  29.751  28.864  1.00  0.00     0.167 HD
ATOM     54  C   UNL A   1      45.048  30.864  28.210  1.00  0.00     0.074 A 
ATOM     55  C   UNL A   1      46.367  31.021  27.632  1.00  0.00     0.031 C 
ATOM     56  C   UNL A   1      44.382  31.842  28.870  1.00  0.00     0.037 A 
BRANCH  43  57
ATOM     57  C   UNL A   1      38.781  30.200  30.870  1.00  0.00     0.057 A 
ATOM     58  C   UNL A   1      38.635  29.942  32.239  1.00  0.00     0.134 A 
ATOM     59  C   UNL A   1      37.748  30.900  30.232  1.00  0.00     0.134 A 
ATOM     60  F   UNL A   1      39.583  29.265  32.907  1.00  0.00    -0.206 F 
ATOM     61  C   UNL A   1      37.501  30.352  32.941  1.00  0.00     0.040 A 
ATOM     62  C   UNL A   1      36.621  31.339  30.930  1.00  0.00     0.040 A 
ATOM     63  F   UNL A   1      37.827  31.189  28.925  1.00  0.00    -0.206 F 
ATOM     64  C   UNL A   1      36.494  31.061  32.289  1.00  0.00     0.006 A 
ENDBRANCH  43  57
BRANCH  44  65
ATOM     65  C   UNL A   1      46.917  27.193  25.943  1.00  0.00     0.057 A 
ATOM     66  C   UNL A   1      47.083  27.434  24.575  1.00  0.00     0.134 A 
ATOM     67  C   UNL A   1      47.957  26.532  26.612  1.00  0.00     0.134 A 
ATOM     68  F   UNL A   1      46.113  28.041  23.875  1.00  0.00    -0.206 F 
ATOM     69  C   UNL A   1      48.239  27.040  23.898  1.00  0.00     0.040 A 
ATOM     70  C   UNL A   1      49.129  26.157  25.953  1.00  0.00     0.040 A 
ATOM     71  F   UNL A   1      47.860  26.269  27.923  1.00  0.00    -0.206 F 
ATOM     72  C   UNL A   1      49.270  26.409  24.591  1.00  0.00     0.006 A 
ENDBRANCH  44  65
BRANCH  56  73
ATOM     73  C   UNL A   1      45.065  33.169  29.008  1.00  0.00     0.057 A 
ATOM     74  C   UNL A   1      45.958  33.423  30.055  1.00  0.00     0.134 A 
ATOM     75  C   UNL A   1      44.885  34.171  28.048  1.00  0.00     0.134 A 
ATOM     76  F   UNL A   1      46.162  32.506  31.013  1.00  0.00    -0.206 F 
ATOM     77  C   UNL A   1      46.646  34.634  30.145  1.00  0.00     0.040 A 
ATOM     78  C   UNL A   1      45.583  35.377  28.115  1.00  0.00     0.040 A 
ATOM     79  F   UNL A   1      44.048  33.984  27.016  1.00  0.00    -0.206 F 
ATOM     80  C   UNL A   1      46.466  35.612  29.167  1.00  0.00     0.006 A 
ENDBRANCH  56  73
ENDBRANCH  30  31
ENDBRANCH  23  25
ENDBRANCH  22  23
ENDBRANCH   1  22
TORSDOF 12
ENDMDL
MODEL 2
REMARK VINA RESULT:     -11.9      3.945      8.791
REMARK SMILES Cc1cc(Cl)c2c(c1)C=C(C(=O)OCCOC(=O)c1ccc(-c3c4nc(c(-c5c(F)cccc5F)c5ccc([nH]5)c(-c5c(F)cccc5F)c5nc(c(-c6c(F)cccc6F)c6ccc3[nH]6)C=C5)C=C4)cc1)[C@@H](C(F)(F)F)O2
REMARK SMILES IDX 15 1 14 2 13 3 11 4 12 5 10 6 1 7 2 8 3 9 8 10 4 11 7 12
REMARK SMILES IDX 5 13 6 14 9 15 78 16 73 17 74 18 75 19 76 20 77 21 16 22
REMARK SMILES IDX 17 23 18 24 19 25 20 26 72 27 21 28 71 29 22 30 23 31 24 32
REMARK SMILES IDX 65 33 25 34 70 35 64 36 66 37 26 38 69 39 63 40 62 41 27 43
REMARK SMILES IDX 53 44 36 45 52 46 37 47 40 48 51 49 67 50 38 51 39 52 50 54
REMARK SMILES IDX 68 55 41 56 28 57 29 58 34 59 30 60 31 61 33 62 35 63 32 64
REMARK SMILES IDX 54 65 55 66 60 67 56 68 57 69 59 70 61 71 58 72 42 73 43 74
REMARK SMILES IDX 48 75 44 76 45 77 47 78 49 79 46 80
REMARK H PARENT 66 42 40 53
REMARK Flexibility Score: inf
ROOT
ATOM      1  C   UNL A   1      31.649  30.460  25.638  1.00  0.00     0.275 C 
ENDROOT
BRANCH   1   2
ATOM      2  C   UNL A   1      31.584  29.061  25.024  1.00  0.00     0.275 C 
BRANCH   2   3
ATOM      3  O   UNL A   1      32.462  28.146  25.715  1.00  0.00    -0.459 OA
BRANCH   3   4
ATOM      4  C   UNL A   1      31.843  27.200  26.459  1.00  0.00     0.338 C 
ATOM      5  O   UNL A   1      31.028  27.388  27.348  1.00  0.00    -0.246 OA
BRANCH   4   6
ATOM      6  C   UNL A   1      32.262  25.852  26.037  1.00  0.00     0.087 C 
ATOM      7  C   UNL A   1      37.336  22.649  24.626  1.00  0.00     0.044 C 
ATOM      8  C   UNL A   1      35.864  22.911  24.754  1.00  0.00    -0.049 A 
ATOM      9  C   UNL A   1      34.931  21.984  24.275  1.00  0.00     0.028 A 
ATOM     10  C   UNL A   1      35.399  24.078  25.366  1.00  0.00     0.015 A 
ATOM     11  C   UNL A   1      33.558  22.229  24.399  1.00  0.00     0.084 A 
ATOM     12  C   UNL A   1      34.023  24.331  25.471  1.00  0.00     0.019 A 
ATOM     13  Cl  UNL A   1      32.459  21.049  23.778  1.00  0.00    -0.080 Cl
ATOM     14  C   UNL A   1      33.092  23.409  24.992  1.00  0.00     0.146 A 
ATOM     15  C   UNL A   1      33.571  25.581  26.047  1.00  0.00     0.027 C 
ATOM     16  O   UNL A   1      31.740  23.603  25.103  1.00  0.00    -0.474 OA
ATOM     17  C   UNL A   1      31.235  24.914  25.474  1.00  0.00     0.316 C 
BRANCH  17  18
ATOM     18  C   UNL A   1      30.513  25.538  24.269  1.00  0.00     0.430 C 
ATOM     19  F   UNL A   1      29.569  26.427  24.660  1.00  0.00    -0.167 F 
ATOM     20  F   UNL A   1      31.377  26.218  23.473  1.00  0.00    -0.167 F 
ATOM     21  F   UNL A   1      29.904  24.607  23.501  1.00  0.00    -0.167 F 
ENDBRANCH  17  18
ENDBRANCH   4   6
ENDBRANCH   3   4
ENDBRANCH   2   3
ENDBRANCH   1   2
BRANCH   1  22
ATOM     22  O   UNL A   1      32.340  30.414  26.901  1.00  0.00    -0.458 OA
BRANCH  22  23
ATOM     23  C   UNL A   1      33.013  31.536  27.239  1.00  0.00     0.338 C 
ATOM     24  O   UNL A   1      32.594  32.680  27.250  1.00  0.00    -0.246 OA
BRANCH  23  25
ATOM     25  C   UNL A   1      34.375  31.194  27.679  1.00  0.00     0.060 A 
ATOM     26  C   UNL A   1      34.689  29.862  27.922  1.00  0.00     0.016 A 
ATOM     27  C   UNL A   1      35.274  32.197  28.034  1.00  0.00     0.016 A 
ATOM     28  C   UNL A   1      35.817  29.538  28.669  1.00  0.00     0.010 A 
ATOM     29  C   UNL A   1      36.484  31.853  28.651  1.00  0.00     0.010 A 
ATOM     30  C   UNL A   1      36.745  30.524  29.032  1.00  0.00    -0.014 A 
BRANCH  30  31
ATOM     31  C   UNL A   1      37.950  30.166  29.840  1.00  0.00     0.031 A 
ATOM     32  C   UNL A   1      39.050  29.324  29.240  1.00  0.00     0.074 A 
ATOM     33  C   UNL A   1      38.088  30.625  31.102  1.00  0.00     0.049 A 
ATOM     34  N   UNL A   1      40.087  28.777  29.825  1.00  0.00    -0.248 NA
ATOM     35  C   UNL A   1      38.971  29.050  27.795  1.00  0.00     0.031 C 
ATOM     36  C   UNL A   1      37.138  31.492  31.800  1.00  0.00     0.029 A 
ATOM     37  N   UNL A   1      39.097  30.444  32.018  1.00  0.00    -0.354 N 
ATOM     38  C   UNL A   1      40.744  28.050  28.839  1.00  0.00     0.074 A 
ATOM     39  C   UNL A   1      39.986  28.216  27.618  1.00  0.00     0.031 C 
ATOM     40  C   UNL A   1      37.637  31.825  32.998  1.00  0.00     0.029 A 
ATOM     41  C   UNL A   1      38.888  31.106  33.205  1.00  0.00     0.049 A 
ATOM     42  H   UNL A   1      39.893  29.892  31.841  1.00  0.00     0.167 HD
ATOM     43  C   UNL A   1      41.878  27.317  28.941  1.00  0.00     0.037 A 
ATOM     44  C   UNL A   1      39.594  31.106  34.352  1.00  0.00     0.037 A 
ATOM     45  C   UNL A   1      42.668  27.207  30.139  1.00  0.00     0.049 A 
ATOM     46  C   UNL A   1      40.815  30.241  34.459  1.00  0.00     0.074 A 
ATOM     47  C   UNL A   1      43.841  26.499  30.336  1.00  0.00     0.029 A 
ATOM     48  N   UNL A   1      42.376  27.838  31.339  1.00  0.00    -0.354 N 
ATOM     49  N   UNL A   1      41.385  29.502  33.538  1.00  0.00    -0.248 NA
ATOM     50  C   UNL A   1      41.471  30.178  35.773  1.00  0.00     0.031 C 
ATOM     51  C   UNL A   1      44.241  26.674  31.663  1.00  0.00     0.029 A 
ATOM     52  C   UNL A   1      43.338  27.522  32.284  1.00  0.00     0.049 A 
ATOM     53  H   UNL A   1      41.600  28.425  31.495  1.00  0.00     0.167 HD
ATOM     54  C   UNL A   1      42.462  28.887  34.159  1.00  0.00     0.074 A 
ATOM     55  C   UNL A   1      42.485  29.359  35.528  1.00  0.00     0.031 C 
ATOM     56  C   UNL A   1      43.345  27.998  33.642  1.00  0.00     0.037 A 
BRANCH  43  57
ATOM     57  C   UNL A   1      42.333  26.554  27.730  1.00  0.00     0.057 A 
ATOM     58  C   UNL A   1      41.921  25.239  27.479  1.00  0.00     0.134 A 
ATOM     59  C   UNL A   1      43.148  27.169  26.769  1.00  0.00     0.134 A 
ATOM     60  F   UNL A   1      41.150  24.589  28.364  1.00  0.00    -0.206 F 
ATOM     61  C   UNL A   1      42.315  24.560  26.325  1.00  0.00     0.040 A 
ATOM     62  C   UNL A   1      43.527  26.508  25.599  1.00  0.00     0.040 A 
ATOM     63  F   UNL A   1      43.572  28.430  26.942  1.00  0.00    -0.206 F 
ATOM     64  C   UNL A   1      43.112  25.197  25.376  1.00  0.00     0.006 A 
ENDBRANCH  43  57
BRANCH  44  65
ATOM     65  C   UNL A   1      39.132  31.921  35.505  1.00  0.00     0.057 A 
ATOM     66  C   UNL A   1      39.535  33.253  35.653  1.00  0.00     0.134 A 
ATOM     67  C   UNL A   1      38.258  31.401  36.470  1.00  0.00     0.134 A 
ATOM     68  F   UNL A   1      40.389  33.801  34.776  1.00  0.00    -0.206 F 
ATOM     69  C   UNL A   1      39.084  34.039  36.716  1.00  0.00     0.040 A 
ATOM     70  C   UNL A   1      37.778  32.184  37.520  1.00  0.00     0.040 A 
ATOM     71  F   UNL A   1      37.835  30.132  36.386  1.00  0.00    -0.206 F 
ATOM     72  C   UNL A   1      38.194  33.507  37.646  1.00  0.00     0.006 A 
ENDBRANCH  44  65
BRANCH  56  73
ATOM     73  C   UNL A   1      44.413  27.477  34.556  1.00  0.00     0.057 A 
ATOM     74  C   UNL A   1      45.613  28.173  34.744  1.00  0.00     0.134 A 
ATOM     75  C   UNL A   1      44.210  26.313  35.306  1.00  0.00     0.134 A 
ATOM     76  F   UNL A   1      45.870  29.288  34.044  1.00  0.00    -0.206 F 
ATOM     77  C   UNL A   1      46.578  27.724  35.646  1.00  0.00     0.040 A 
ATOM     78  C   UNL A   1      45.158  25.866  36.226  1.00  0.00     0.040 A 
ATOM     79  F   UNL A   1      43.077  25.606  35.175  1.00  0.00    -0.206 F 
ATOM     80  C   UNL A   1      46.348  26.572  36.398  1.00  0.00     0.006 A 
ENDBRANCH  56  73
ENDBRANCH  30  31
ENDBRANCH  23  25
ENDBRANCH  22  23
ENDBRANCH   1  22
TORSDOF 12
ENDMDL
MODEL 3
REMARK VINA RESULT:     -11.9      4.252      8.976
REMARK SMILES Cc1cc(Cl)c2c(c1)C=C(C(=O)OCCOC(=O)c1ccc(-c3c4nc(c(-c5c(F)cccc5F)c5ccc([nH]5)c(-c5c(F)cccc5F)c5nc(c(-c6c(F)cccc6F)c6ccc3[nH]6)C=C5)C=C4)cc1)[C@@H](C(F)(F)F)O2
REMARK SMILES IDX 15 1 14 2 13 3 11 4 12 5 10 6 1 7 2 8 3 9 8 10 4 11 7 12
REMARK SMILES IDX 5 13 6 14 9 15 78 16 73 17 74 18 75 19 76 20 77 21 16 22
REMARK SMILES IDX 17 23 18 24 19 25 20 26 72 27 21 28 71 29 22 30 23 31 24 32
REMARK SMILES IDX 65 33 25 34 70 35 64 36 66 37 26 38 69 39 63 40 62 41 27 43
REMARK SMILES IDX 53 44 36 45 52 46 37 47 40 48 51 49 67 50 38 51 39 52 50 54
REMARK SMILES IDX 68 55 41 56 28 57 29 58 34 59 30 60 31 61 33 62 35 63 32 64
REMARK SMILES IDX 54 65 55 66 60 67 56 68 57 69 59 70 61 71 58 72 42 73 43 74
REMARK SMILES IDX 48 75 44 76 45 77 47 78 49 79 46 80
REMARK H PARENT 66 42 40 53
REMARK Flexibility Score: inf
ROOT
ATOM      1  C   UNL A   1      31.047  31.607  25.997  1.00  0.00     0.275 C 
ENDROOT
BRANCH   1   2
ATOM      2  C   UNL A   1      31.069  30.452  24.996  1.00  0.00     0.275 C 
BRANCH   2   3
ATOM      3  O   UNL A   1      32.178  29.562  25.250  1.00  0.00    -0.459 OA
BRANCH   3   4
ATOM      4  C   UNL A   1      32.265  28.495  24.424  1.00  0.00     0.338 C 
ATOM      5  O   UNL A   1      32.546  28.512  23.235  1.00  0.00    -0.246 OA
BRANCH   4   6
ATOM      6  C   UNL A   1      31.997  27.246  25.158  1.00  0.00     0.087 C 
ATOM      7  C   UNL A   1      34.764  21.998  26.830  1.00  0.00     0.044 C 
ATOM      8  C   UNL A   1      33.624  22.957  26.649  1.00  0.00    -0.049 A 
ATOM      9  C   UNL A   1      32.315  22.574  26.965  1.00  0.00     0.028 A 
ATOM     10  C   UNL A   1      33.850  24.251  26.174  1.00  0.00     0.015 A 
ATOM     11  C   UNL A   1      31.252  23.471  26.799  1.00  0.00     0.084 A 
ATOM     12  C   UNL A   1      32.782  25.142  25.990  1.00  0.00     0.019 A 
ATOM     13  Cl  UNL A   1      29.659  22.934  27.198  1.00  0.00    -0.080 Cl
ATOM     14  C   UNL A   1      31.477  24.762  26.303  1.00  0.00     0.146 A 
ATOM     15  C   UNL A   1      33.038  26.454  25.430  1.00  0.00     0.027 C 
ATOM     16  O   UNL A   1      30.410  25.611  26.166  1.00  0.00    -0.474 OA
ATOM     17  C   UNL A   1      30.573  26.849  25.421  1.00  0.00     0.316 C 
BRANCH  17  18
ATOM     18  C   UNL A   1      29.769  26.763  24.114  1.00  0.00     0.430 C 
ATOM     19  F   UNL A   1      28.606  26.092  24.289  1.00  0.00    -0.167 F 
ATOM     20  F   UNL A   1      29.437  27.997  23.656  1.00  0.00    -0.167 F 
ATOM     21  F   UNL A   1      30.457  26.140  23.131  1.00  0.00    -0.167 F 
ENDBRANCH  17  18
ENDBRANCH   4   6
ENDBRANCH   3   4
ENDBRANCH   2   3
ENDBRANCH   1   2
BRANCH   1  22
ATOM     22  O   UNL A   1      32.015  31.379  27.038  1.00  0.00    -0.458 OA
BRANCH  22  23
ATOM     23  C   UNL A   1      32.750  32.454  27.398  1.00  0.00     0.338 C 
ATOM     24  O   UNL A   1      32.388  33.616  27.456  1.00  0.00    -0.246 OA
BRANCH  23  25
ATOM     25  C   UNL A   1      34.101  32.031  27.797  1.00  0.00     0.060 A 
ATOM     26  C   UNL A   1      34.359  30.676  27.971  1.00  0.00     0.016 A 
ATOM     27  C   UNL A   1      35.051  32.975  28.183  1.00  0.00     0.016 A 
ATOM     28  C   UNL A   1      35.483  30.267  28.681  1.00  0.00     0.010 A 
ATOM     29  C   UNL A   1      36.253  32.548  28.761  1.00  0.00     0.010 A 
ATOM     30  C   UNL A   1      36.460  31.192  29.073  1.00  0.00    -0.014 A 
BRANCH  30  31
ATOM     31  C   UNL A   1      37.660  30.742  29.841  1.00  0.00     0.031 A 
ATOM     32  C   UNL A   1      38.716  29.888  29.179  1.00  0.00     0.074 A 
ATOM     33  C   UNL A   1      37.837  31.127  31.122  1.00  0.00     0.049 A 
ATOM     34  N   UNL A   1      39.737  29.269  29.718  1.00  0.00    -0.248 NA
ATOM     35  C   UNL A   1      38.604  29.694  27.724  1.00  0.00     0.031 C 
ATOM     36  C   UNL A   1      36.933  31.994  31.881  1.00  0.00     0.029 A 
ATOM     37  N   UNL A   1      38.850  30.856  32.011  1.00  0.00    -0.354 N 
ATOM     38  C   UNL A   1      40.348  28.569  28.684  1.00  0.00     0.074 A 
ATOM     39  C   UNL A   1      39.581  28.830  27.486  1.00  0.00     0.031 C 
ATOM     40  C   UNL A   1      37.464  32.242  33.086  1.00  0.00     0.029 A 
ATOM     41  C   UNL A   1      38.686  31.463  33.234  1.00  0.00     0.049 A 
ATOM     42  H   UNL A   1      39.619  30.282  31.792  1.00  0.00     0.167 HD
ATOM     43  C   UNL A   1      41.451  27.784  28.728  1.00  0.00     0.037 A 
ATOM     44  C   UNL A   1      39.408  31.372  34.368  1.00  0.00     0.037 A 
ATOM     45  C   UNL A   1      42.253  27.579  29.906  1.00  0.00     0.049 A 
ATOM     46  C   UNL A   1      40.593  30.454  34.409  1.00  0.00     0.074 A 
ATOM     47  C   UNL A   1      43.398  26.814  30.046  1.00  0.00     0.029 A 
ATOM     48  N   UNL A   1      42.005  28.157  31.142  1.00  0.00    -0.354 N 
ATOM     49  N   UNL A   1      41.117  29.741  33.441  1.00  0.00    -0.248 NA
ATOM     50  C   UNL A   1      41.265  30.293  35.707  1.00  0.00     0.031 C 
ATOM     51  C   UNL A   1      43.824  26.901  31.374  1.00  0.00     0.029 A 
ATOM     52  C   UNL A   1      42.967  27.752  32.053  1.00  0.00     0.049 A 
ATOM     53  H   UNL A   1      41.258  28.766  31.341  1.00  0.00     0.167 HD
ATOM     54  C   UNL A   1      42.177  29.050  34.011  1.00  0.00     0.074 A 
ATOM     55  C   UNL A   1      42.240  29.448  35.402  1.00  0.00     0.031 C 
ATOM     56  C   UNL A   1      43.014  28.154  33.434  1.00  0.00     0.037 A 
BRANCH  43  57
ATOM     57  C   UNL A   1      41.857  27.069  27.472  1.00  0.00     0.057 A 
ATOM     58  C   UNL A   1      42.688  27.661  26.512  1.00  0.00     0.134 A 
ATOM     59  C   UNL A   1      41.459  25.743  27.250  1.00  0.00     0.134 A 
ATOM     60  F   UNL A   1      43.094  28.932  26.658  1.00  0.00    -0.206 F 
ATOM     61  C   UNL A   1      43.095  26.967  25.372  1.00  0.00     0.040 A 
ATOM     62  C   UNL A   1      41.881  25.030  26.126  1.00  0.00     0.040 A 
ATOM     63  F   UNL A   1      40.671  25.112  28.133  1.00  0.00    -0.206 F 
ATOM     64  C   UNL A   1      42.699  25.644  25.181  1.00  0.00     0.006 A 
ENDBRANCH  43  57
BRANCH  44  65
ATOM     65  C   UNL A   1      38.997  32.144  35.569  1.00  0.00     0.057 A 
ATOM     66  C   UNL A   1      38.231  31.551  36.579  1.00  0.00     0.134 A 
ATOM     67  C   UNL A   1      39.380  33.480  35.751  1.00  0.00     0.134 A 
ATOM     68  F   UNL A   1      37.814  30.283  36.452  1.00  0.00    -0.206 F 
ATOM     69  C   UNL A   1      37.863  32.256  37.727  1.00  0.00     0.040 A 
ATOM     70  C   UNL A   1      39.043  34.187  36.906  1.00  0.00     0.040 A 
ATOM     71  F   UNL A   1      40.114  34.107  34.820  1.00  0.00    -0.206 F 
ATOM     72  C   UNL A   1      38.280  33.575  37.897  1.00  0.00     0.006 A 
ENDBRANCH  44  65
BRANCH  56  73
ATOM     73  C   UNL A   1      44.072  27.541  34.301  1.00  0.00     0.057 A 
ATOM     74  C   UNL A   1      43.873  26.307  34.930  1.00  0.00     0.134 A 
ATOM     75  C   UNL A   1      45.322  28.153  34.448  1.00  0.00     0.134 A 
ATOM     76  F   UNL A   1      42.691  25.678  34.836  1.00  0.00    -0.206 F 
ATOM     77  C   UNL A   1      44.882  25.704  35.681  1.00  0.00     0.040 A 
ATOM     78  C   UNL A   1      46.346  27.550  35.178  1.00  0.00     0.040 A 
ATOM     79  F   UNL A   1      45.576  29.333  33.863  1.00  0.00    -0.206 F 
ATOM     80  C   UNL A   1      46.127  26.321  35.798  1.00  0.00     0.006 A 
ENDBRANCH  56  73
ENDBRANCH  30  31
ENDBRANCH  23  25
ENDBRANCH  22  23
ENDBRANCH   1  22
TORSDOF 12
ENDMDL
