MODEL 1
REMARK VINA RESULT:     -11.2      0.000      0.000
REMARK SMILES CCCCCCNC(=O)Oc1cccc(-c2ccc([C@H](C)C(=O)OCCOC(=O)c3ccc(-c4c5nc(c(-c6c(F)cccc6F)c6ccc([nH]6)c(-c6c(F)cccc6F)c6nc(c(-c7c(F)cccc7F)c7ccc4[nH]7)C=C6)C=C5)cc3)cc2F)c1
REMARK SMILES IDX 20 1 21 2 19 3 16 4 17 5 85 6 18 7 84 8 86 9 15 10 11 11
REMARK SMILES IDX 12 12 87 13 13 14 14 15 10 16 8 17 7 18 9 20 6 21 5 22 4 23
REMARK SMILES IDX 3 24 2 25 1 26 22 27 23 28 24 29 25 30 26 31 27 32 28 33
REMARK SMILES IDX 29 34 30 35 31 36 83 37 32 38 82 39 33 40 34 41 35 42 76 43
REMARK SMILES IDX 36 44 81 45 75 46 77 47 37 48 80 49 74 50 73 51 38 53 64 54
REMARK SMILES IDX 47 55 63 56 48 57 51 58 62 59 78 60 49 61 50 62 61 64 79 65
REMARK SMILES IDX 52 66 39 67 40 68 45 69 41 70 42 71 44 72 46 73 43 74 65 75
REMARK SMILES IDX 66 76 71 77 67 78 68 79 70 80 72 81 69 82 53 83 54 84 59 85
REMARK SMILES IDX 55 86 56 87 58 88 60 89 57 90
REMARK H PARENT 7 19 77 52 51 63
REMARK Flexibility Score: inf
ROOT
ATOM      1  C   UNL A   1      41.087  21.396  27.198  1.00  0.00     0.126 C 
ATOM      2  C   UNL A   1      41.733  22.322  28.229  1.00  0.00     0.025 C 
ENDROOT
BRANCH   1   3
ATOM      3  C   UNL A   1      39.791  21.956  26.637  1.00  0.00    -0.031 A 
ATOM      4  C   UNL A   1      37.373  22.949  25.536  1.00  0.00     0.018 A 
ATOM      5  C   UNL A   1      38.210  23.775  26.295  1.00  0.00     0.012 A 
ATOM      6  C   UNL A   1      37.774  21.624  25.329  1.00  0.00     0.131 A 
ATOM      7  C   UNL A   1      39.397  23.286  26.844  1.00  0.00     0.005 A 
ATOM      8  C   UNL A   1      38.963  21.131  25.861  1.00  0.00     0.044 A 
ATOM      9  F   UNL A   1      37.009  20.787  24.610  1.00  0.00    -0.206 F 
BRANCH   4  10
ATOM     10  C   UNL A   1      36.090  23.458  25.048  1.00  0.00    -0.012 A 
ATOM     11  C   UNL A   1      33.960  24.518  25.499  1.00  0.00     0.133 A 
ATOM     12  C   UNL A   1      33.663  24.564  24.141  1.00  0.00     0.047 A 
ATOM     13  C   UNL A   1      35.146  23.951  25.957  1.00  0.00     0.056 A 
ATOM     14  C   UNL A   1      34.586  24.060  23.225  1.00  0.00     0.004 A 
ATOM     15  C   UNL A   1      35.791  23.515  23.676  1.00  0.00     0.009 A 
BRANCH  11  16
ATOM     16  O   UNL A   1      32.977  24.954  26.396  1.00  0.00    -0.410 OA
BRANCH  16  17
ATOM     17  C   UNL A   1      31.742  24.321  26.365  1.00  0.00     0.412 C 
ATOM     18  N   UNL A   1      30.696  25.199  26.317  1.00  0.00    -0.321 N 
ATOM     19  H   UNL A   1      29.791  24.813  26.324  1.00  0.00     0.167 HD
ATOM     20  O   UNL A   1      31.548  23.111  26.378  1.00  0.00    -0.224 OA
BRANCH  18  21
ATOM     21  C   UNL A   1      30.790  26.642  26.257  1.00  0.00     0.119 C 
BRANCH  21  22
ATOM     22  C   UNL A   1      30.994  27.142  24.828  1.00  0.00     0.021 C 
BRANCH  22  23
ATOM     23  C   UNL A   1      31.227  28.653  24.702  1.00  0.00     0.002 C 
BRANCH  23  24
ATOM     24  C   UNL A   1      32.648  29.069  24.309  1.00  0.00    -0.000 C 
BRANCH  24  25
ATOM     25  C   UNL A   1      33.762  28.128  24.774  1.00  0.00    -0.003 C 
ATOM     26  C   UNL A   1      34.102  28.283  26.248  1.00  0.00     0.004 C 
ENDBRANCH  24  25
ENDBRANCH  23  24
ENDBRANCH  22  23
ENDBRANCH  21  22
ENDBRANCH  18  21
ENDBRANCH  16  17
ENDBRANCH  11  16
ENDBRANCH   4  10
ENDBRANCH   1   3
BRANCH   1  27
ATOM     27  C   UNL A   1      42.056  20.921  26.119  1.00  0.00     0.313 C 
ATOM     28  O   UNL A   1      42.308  19.734  25.932  1.00  0.00    -0.252 OA
BRANCH  27  29
ATOM     29  O   UNL A   1      42.549  21.937  25.360  1.00  0.00    -0.462 OA
BRANCH  29  30
ATOM     30  C   UNL A   1      43.972  21.924  25.140  1.00  0.00     0.274 C 
BRANCH  30  31
ATOM     31  C   UNL A   1      44.446  23.158  24.367  1.00  0.00     0.275 C 
BRANCH  31  32
ATOM     32  O   UNL A   1      43.681  24.333  24.692  1.00  0.00    -0.458 OA
BRANCH  32  33
ATOM     33  C   UNL A   1      44.403  25.371  25.174  1.00  0.00     0.338 C 
ATOM     34  O   UNL A   1      45.466  25.794  24.750  1.00  0.00    -0.246 OA
BRANCH  33  35
ATOM     35  C   UNL A   1      43.656  26.055  26.240  1.00  0.00     0.060 A 
ATOM     36  C   UNL A   1      44.048  27.349  26.585  1.00  0.00     0.016 A 
ATOM     37  C   UNL A   1      42.662  25.398  26.965  1.00  0.00     0.016 A 
ATOM     38  C   UNL A   1      43.459  28.002  27.661  1.00  0.00     0.010 A 
ATOM     39  C   UNL A   1      42.069  26.053  28.050  1.00  0.00     0.010 A 
ATOM     40  C   UNL A   1      42.475  27.350  28.410  1.00  0.00    -0.014 A 
BRANCH  40  41
ATOM     41  C   UNL A   1      41.932  28.006  29.619  1.00  0.00     0.031 A 
ATOM     42  C   UNL A   1      40.680  28.824  29.517  1.00  0.00     0.074 A 
ATOM     43  C   UNL A   1      42.542  27.836  30.807  1.00  0.00     0.049 A 
ATOM     44  N   UNL A   1      40.101  29.571  30.421  1.00  0.00    -0.248 NA
ATOM     45  C   UNL A   1      39.985  28.798  28.220  1.00  0.00     0.031 C 
ATOM     46  C   UNL A   1      43.722  27.005  31.040  1.00  0.00     0.029 A 
ATOM     47  N   UNL A   1      42.250  28.361  32.039  1.00  0.00    -0.354 N 
ATOM     48  C   UNL A   1      38.991  30.125  29.797  1.00  0.00     0.074 A 
ATOM     49  C   UNL A   1      38.981  29.637  28.435  1.00  0.00     0.031 C 
ATOM     50  C   UNL A   1      44.059  27.080  32.337  1.00  0.00     0.029 A 
ATOM     51  C   UNL A   1      43.151  28.004  33.012  1.00  0.00     0.049 A 
ATOM     52  H   UNL A   1      41.471  28.938  32.211  1.00  0.00     0.167 HD
ATOM     53  C   UNL A   1      38.069  30.967  30.318  1.00  0.00     0.037 A 
ATOM     54  C   UNL A   1      43.252  28.408  34.292  1.00  0.00     0.037 A 
ATOM     55  C   UNL A   1      38.078  31.432  31.681  1.00  0.00     0.049 A 
ATOM     56  C   UNL A   1      42.254  29.397  34.827  1.00  0.00     0.074 A 
ATOM     57  C   UNL A   1      37.186  32.283  32.308  1.00  0.00     0.029 A 
ATOM     58  N   UNL A   1      39.028  31.078  32.627  1.00  0.00    -0.354 N 
ATOM     59  N   UNL A   1      41.225  29.941  34.224  1.00  0.00    -0.248 NA
ATOM     60  C   UNL A   1      42.440  29.839  36.216  1.00  0.00     0.031 C 
ATOM     61  C   UNL A   1      37.619  32.474  33.626  1.00  0.00     0.029 A 
ATOM     62  C   UNL A   1      38.756  31.709  33.829  1.00  0.00     0.049 A 
ATOM     63  H   UNL A   1      39.784  30.468  32.467  1.00  0.00     0.167 HD
ATOM     64  C   UNL A   1      40.630  30.774  35.163  1.00  0.00     0.074 A 
ATOM     65  C   UNL A   1      41.405  30.651  36.380  1.00  0.00     0.031 C 
ATOM     66  C   UNL A   1      39.541  31.569  35.029  1.00  0.00     0.037 A 
BRANCH  53  67
ATOM     67  C   UNL A   1      36.997  31.469  29.398  1.00  0.00     0.057 A 
ATOM     68  C   UNL A   1      37.032  32.755  28.847  1.00  0.00     0.134 A 
ATOM     69  C   UNL A   1      35.924  30.642  29.043  1.00  0.00     0.134 A 
ATOM     70  F   UNL A   1      38.023  33.603  29.161  1.00  0.00    -0.206 F 
ATOM     71  C   UNL A   1      36.025  33.209  27.991  1.00  0.00     0.040 A 
ATOM     72  C   UNL A   1      34.924  31.076  28.171  1.00  0.00     0.040 A 
ATOM     73  F   UNL A   1      35.832  29.396  29.535  1.00  0.00    -0.206 F 
ATOM     74  C   UNL A   1      34.971  32.366  27.647  1.00  0.00     0.006 A 
ENDBRANCH  53  67
BRANCH  54  75
ATOM     75  C   UNL A   1      44.359  27.906  35.142  1.00  0.00     0.057 A 
ATOM     76  C   UNL A   1      44.293  26.648  35.750  1.00  0.00     0.134 A 
ATOM     77  C   UNL A   1      45.505  28.676  35.373  1.00  0.00     0.134 A 
ATOM     78  F   UNL A   1      43.210  25.875  35.585  1.00  0.00    -0.206 F 
ATOM     79  C   UNL A   1      45.324  26.176  36.564  1.00  0.00     0.040 A 
ATOM     80  C   UNL A   1      46.554  28.208  36.166  1.00  0.00     0.040 A 
ATOM     81  F   UNL A   1      45.628  29.892  34.820  1.00  0.00    -0.206 F 
ATOM     82  C   UNL A   1      46.462  26.955  36.769  1.00  0.00     0.006 A 
ENDBRANCH  54  75
BRANCH  66  83
ATOM     83  C   UNL A   1      39.112  32.346  36.238  1.00  0.00     0.057 A 
ATOM     84  C   UNL A   1      39.557  33.653  36.469  1.00  0.00     0.134 A 
ATOM     85  C   UNL A   1      38.216  31.792  37.159  1.00  0.00     0.134 A 
ATOM     86  F   UNL A   1      40.428  34.234  35.629  1.00  0.00    -0.206 F 
ATOM     87  C   UNL A   1      39.139  34.377  37.586  1.00  0.00     0.040 A 
ATOM     88  C   UNL A   1      37.773  32.514  38.268  1.00  0.00     0.040 A 
ATOM     89  F   UNL A   1      37.747  30.546  36.991  1.00  0.00    -0.206 F 
ATOM     90  C   UNL A   1      38.239  33.809  38.486  1.00  0.00     0.006 A 
ENDBRANCH  66  83
ENDBRANCH  40  41
ENDBRANCH  33  35
ENDBRANCH  32  33
ENDBRANCH  31  32
ENDBRANCH  30  31
ENDBRANCH  29  30
ENDBRANCH  27  29
ENDBRANCH   1  27
TORSDOF 20
ENDMDL
MODEL 2
REMARK VINA RESULT:     -11.1      1.070      6.172
REMARK SMILES CCCCCCNC(=O)Oc1cccc(-c2ccc([C@H](C)C(=O)OCCOC(=O)c3ccc(-c4c5nc(c(-c6c(F)cccc6F)c6ccc([nH]6)c(-c6c(F)cccc6F)c6nc(c(-c7c(F)cccc7F)c7ccc4[nH]7)C=C6)C=C5)cc3)cc2F)c1
REMARK SMILES IDX 20 1 21 2 19 3 16 4 17 5 85 6 18 7 84 8 86 9 15 10 11 11
REMARK SMILES IDX 12 12 87 13 13 14 14 15 10 16 8 17 7 18 9 20 6 21 5 22 4 23
REMARK SMILES IDX 3 24 2 25 1 26 22 27 23 28 24 29 25 30 26 31 27 32 28 33
REMARK SMILES IDX 29 34 30 35 31 36 83 37 32 38 82 39 33 40 34 41 35 42 76 43
REMARK SMILES IDX 36 44 81 45 75 46 77 47 37 48 80 49 74 50 73 51 38 53 64 54
REMARK SMILES IDX 47 55 63 56 48 57 51 58 62 59 78 60 49 61 50 62 61 64 79 65
REMARK SMILES IDX 52 66 39 67 40 68 45 69 41 70 42 71 44 72 46 73 43 74 65 75
REMARK SMILES IDX 66 76 71 77 67 78 68 79 70 80 72 81 69 82 53 83 54 84 59 85
REMARK SMILES IDX 55 86 56 87 58 88 60 89 57 90
REMARK H PARENT 7 19 77 52 51 63
REMARK Flexibility Score: inf
ROOT
ATOM      1  C   UNL A   1      41.619  19.790  26.931  1.00  0.00     0.126 C 
ATOM      2  C   UNL A   1      42.301  20.716  27.939  1.00  0.00     0.025 C 
ENDROOT
BRANCH   1   3
ATOM      3  C   UNL A   1      40.318  20.364  26.394  1.00  0.00    -0.031 A 
ATOM      4  C   UNL A   1      37.888  21.379  25.342  1.00  0.00     0.018 A 
ATOM      5  C   UNL A   1      38.797  22.222  25.992  1.00  0.00     0.012 A 
ATOM      6  C   UNL A   1      38.223  20.025  25.218  1.00  0.00     0.131 A 
ATOM      7  C   UNL A   1      39.991  21.722  26.517  1.00  0.00     0.005 A 
ATOM      8  C   UNL A   1      39.417  19.520  25.727  1.00  0.00     0.044 A 
ATOM      9  F   UNL A   1      37.387  19.171  24.606  1.00  0.00    -0.206 F 
BRANCH   4  10
ATOM     10  C   UNL A   1      36.603  21.906  24.881  1.00  0.00    -0.012 A 
ATOM     11  C   UNL A   1      34.273  22.398  25.320  1.00  0.00     0.133 A 
ATOM     12  C   UNL A   1      34.143  23.024  24.085  1.00  0.00     0.047 A 
ATOM     13  C   UNL A   1      35.478  21.822  25.711  1.00  0.00     0.056 A 
ATOM     14  C   UNL A   1      35.249  23.100  23.240  1.00  0.00     0.004 A 
ATOM     15  C   UNL A   1      36.470  22.548  23.638  1.00  0.00     0.009 A 
BRANCH  11  16
ATOM     16  O   UNL A   1      33.122  22.265  26.107  1.00  0.00    -0.410 OA
BRANCH  16  17
ATOM     17  C   UNL A   1      32.089  21.476  25.619  1.00  0.00     0.412 C 
ATOM     18  N   UNL A   1      30.857  22.035  25.816  1.00  0.00    -0.321 N 
ATOM     19  H   UNL A   1      30.078  21.510  25.519  1.00  0.00     0.167 HD
ATOM     20  O   UNL A   1      32.206  20.391  25.064  1.00  0.00    -0.224 OA
BRANCH  18  21
ATOM     21  C   UNL A   1      30.585  23.322  26.419  1.00  0.00     0.119 C 
BRANCH  21  22
ATOM     22  C   UNL A   1      30.941  24.477  25.484  1.00  0.00     0.021 C 
BRANCH  22  23
ATOM     23  C   UNL A   1      30.404  25.846  25.918  1.00  0.00     0.002 C 
BRANCH  23  24
ATOM     24  C   UNL A   1      31.427  26.775  26.581  1.00  0.00    -0.000 C 
BRANCH  24  25
ATOM     25  C   UNL A   1      31.868  27.975  25.739  1.00  0.00    -0.003 C 
ATOM     26  C   UNL A   1      33.363  27.998  25.464  1.00  0.00     0.004 C 
ENDBRANCH  24  25
ENDBRANCH  23  24
ENDBRANCH  22  23
ENDBRANCH  21  22
ENDBRANCH  18  21
ENDBRANCH  16  17
ENDBRANCH  11  16
ENDBRANCH   4  10
ENDBRANCH   1   3
BRANCH   1  27
ATOM     27  C   UNL A   1      42.556  19.291  25.834  1.00  0.00     0.313 C 
ATOM     28  O   UNL A   1      42.799  18.100  25.664  1.00  0.00    -0.252 OA
BRANCH  27  29
ATOM     29  O   UNL A   1      43.031  20.290  25.043  1.00  0.00    -0.462 OA
BRANCH  29  30
ATOM     30  C   UNL A   1      44.458  20.472  25.048  1.00  0.00     0.274 C 
BRANCH  30  31
ATOM     31  C   UNL A   1      44.863  21.845  25.590  1.00  0.00     0.275 C 
BRANCH  31  32
ATOM     32  O   UNL A   1      43.737  22.733  25.724  1.00  0.00    -0.458 OA
BRANCH  32  33
ATOM     33  C   UNL A   1      43.981  24.021  25.390  1.00  0.00     0.338 C 
ATOM     34  O   UNL A   1      44.549  24.433  24.392  1.00  0.00    -0.246 OA
BRANCH  33  35
ATOM     35  C   UNL A   1      43.329  24.924  26.350  1.00  0.00     0.060 A 
ATOM     36  C   UNL A   1      43.752  26.254  26.386  1.00  0.00     0.016 A 
ATOM     37  C   UNL A   1      42.400  24.451  27.275  1.00  0.00     0.016 A 
ATOM     38  C   UNL A   1      43.258  27.125  27.348  1.00  0.00     0.010 A 
ATOM     39  C   UNL A   1      41.903  25.326  28.247  1.00  0.00     0.010 A 
ATOM     40  C   UNL A   1      42.341  26.662  28.295  1.00  0.00    -0.014 A 
BRANCH  40  41
ATOM     41  C   UNL A   1      41.905  27.563  29.384  1.00  0.00     0.031 A 
ATOM     42  C   UNL A   1      42.654  27.568  30.684  1.00  0.00     0.074 A 
ATOM     43  C   UNL A   1      40.867  28.398  29.192  1.00  0.00     0.049 A 
ATOM     44  N   UNL A   1      42.376  28.191  31.799  1.00  0.00    -0.248 NA
ATOM     45  C   UNL A   1      43.884  26.760  30.733  1.00  0.00     0.031 C 
ATOM     46  C   UNL A   1      40.111  28.532  27.947  1.00  0.00     0.029 A 
ATOM     47  N   UNL A   1      40.270  29.286  30.048  1.00  0.00    -0.354 N 
ATOM     48  C   UNL A   1      43.377  27.831  32.691  1.00  0.00     0.074 A 
ATOM     49  C   UNL A   1      44.265  26.927  31.992  1.00  0.00     0.031 C 
ATOM     50  C   UNL A   1      39.144  29.447  28.122  1.00  0.00     0.029 A 
ATOM     51  C   UNL A   1      39.181  29.921  29.503  1.00  0.00     0.049 A 
ATOM     52  H   UNL A   1      40.589  29.452  30.964  1.00  0.00     0.167 HD
ATOM     53  C   UNL A   1      43.534  28.219  33.978  1.00  0.00     0.037 A 
ATOM     54  C   UNL A   1      38.294  30.761  30.068  1.00  0.00     0.037 A 
ATOM     55  C   UNL A   1      42.655  29.134  34.658  1.00  0.00     0.049 A 
ATOM     56  C   UNL A   1      38.452  31.124  31.518  1.00  0.00     0.074 A 
ATOM     57  C   UNL A   1      42.729  29.595  35.960  1.00  0.00     0.029 A 
ATOM     58  N   UNL A   1      41.540  29.728  34.084  1.00  0.00    -0.354 N 
ATOM     59  N   UNL A   1      39.383  30.756  32.366  1.00  0.00    -0.248 NA
ATOM     60  C   UNL A   1      37.429  32.007  32.095  1.00  0.00     0.031 C 
ATOM     61  C   UNL A   1      41.637  30.441  36.186  1.00  0.00     0.029 A 
ATOM     62  C   UNL A   1      40.907  30.537  35.012  1.00  0.00     0.049 A 
ATOM     63  H   UNL A   1      41.244  29.594  33.155  1.00  0.00     0.167 HD
ATOM     64  C   UNL A   1      39.070  31.376  33.568  1.00  0.00     0.074 A 
ATOM     65  C   UNL A   1      37.870  32.155  33.336  1.00  0.00     0.031 C 
ATOM     66  C   UNL A   1      39.715  31.306  34.757  1.00  0.00     0.037 A 
BRANCH  53  67
ATOM     67  C   UNL A   1      44.679  27.625  34.742  1.00  0.00     0.057 A 
ATOM     68  C   UNL A   1      44.575  26.392  35.396  1.00  0.00     0.134 A 
ATOM     69  C   UNL A   1      45.910  28.290  34.804  1.00  0.00     0.134 A 
ATOM     70  F   UNL A   1      43.418  25.713  35.389  1.00  0.00    -0.206 F 
ATOM     71  C   UNL A   1      45.651  25.850  36.104  1.00  0.00     0.040 A 
ATOM     72  C   UNL A   1      46.998  27.748  35.490  1.00  0.00     0.040 A 
ATOM     73  F   UNL A   1      46.076  29.475  34.197  1.00  0.00    -0.206 F 
ATOM     74  C   UNL A   1      46.868  26.527  36.147  1.00  0.00     0.006 A 
ENDBRANCH  53  67
BRANCH  54  75
ATOM     75  C   UNL A   1      37.159  31.285  29.270  1.00  0.00     0.057 A 
ATOM     76  C   UNL A   1      36.040  30.493  28.992  1.00  0.00     0.134 A 
ATOM     77  C   UNL A   1      37.170  32.590  28.760  1.00  0.00     0.134 A 
ATOM     78  F   UNL A   1      35.984  29.228  29.432  1.00  0.00    -0.206 F 
ATOM     79  C   UNL A   1      34.977  30.975  28.227  1.00  0.00     0.040 A 
ATOM     80  C   UNL A   1      36.103  33.093  28.015  1.00  0.00     0.040 A 
ATOM     81  F   UNL A   1      38.214  33.399  28.991  1.00  0.00    -0.206 F 
ATOM     82  C   UNL A   1      35.003  32.281  27.742  1.00  0.00     0.006 A 
ENDBRANCH  54  75
BRANCH  66  83
ATOM     83  C   UNL A   1      39.151  32.114  35.887  1.00  0.00     0.057 A 
ATOM     84  C   UNL A   1      38.247  31.564  36.805  1.00  0.00     0.134 A 
ATOM     85  C   UNL A   1      39.544  33.443  36.080  1.00  0.00     0.134 A 
ATOM     86  F   UNL A   1      37.821  30.299  36.666  1.00  0.00    -0.206 F 
ATOM     87  C   UNL A   1      37.739  32.315  37.866  1.00  0.00     0.040 A 
ATOM     88  C   UNL A   1      39.061  34.198  37.149  1.00  0.00     0.040 A 
ATOM     89  F   UNL A   1      40.412  34.026  35.239  1.00  0.00    -0.206 F 
ATOM     90  C   UNL A   1      38.152  33.635  38.043  1.00  0.00     0.006 A 
ENDBRANCH  66  83
ENDBRANCH  40  41
ENDBRANCH  33  35
ENDBRANCH  32  33
ENDBRANCH  31  32
ENDBRANCH  30  31
ENDBRANCH  29  30
ENDBRANCH  27  29
ENDBRANCH   1  27
TORSDOF 20
ENDMDL
MODEL 3
REMARK VINA RESULT:     -10.9      1.565      2.713
REMARK SMILES CCCCCCNC(=O)Oc1cccc(-c2ccc([C@H](C)C(=O)OCCOC(=O)c3ccc(-c4c5nc(c(-c6c(F)cccc6F)c6ccc([nH]6)c(-c6c(F)cccc6F)c6nc(c(-c7c(F)cccc7F)c7ccc4[nH]7)C=C6)C=C5)cc3)cc2F)c1
REMARK SMILES IDX 20 1 21 2 19 3 16 4 17 5 85 6 18 7 84 8 86 9 15 10 11 11
REMARK SMILES IDX 12 12 87 13 13 14 14 15 10 16 8 17 7 18 9 20 6 21 5 22 4 23
REMARK SMILES IDX 3 24 2 25 1 26 22 27 23 28 24 29 25 30 26 31 27 32 28 33
REMARK SMILES IDX 29 34 30 35 31 36 83 37 32 38 82 39 33 40 34 41 35 42 76 43
REMARK SMILES IDX 36 44 81 45 75 46 77 47 37 48 80 49 74 50 73 51 38 53 64 54
REMARK SMILES IDX 47 55 63 56 48 57 51 58 62 59 78 60 49 61 50 62 61 64 79 65
REMARK SMILES IDX 52 66 39 67 40 68 45 69 41 70 42 71 44 72 46 73 43 74 65 75
REMARK SMILES IDX 66 76 71 77 67 78 68 79 70 80 72 81 69 82 53 83 54 84 59 85
REMARK SMILES IDX 55 86 56 87 58 88 60 89 57 90
REMARK H PARENT 7 19 77 52 51 63
REMARK Flexibility Score: inf
ROOT
ATOM      1  C   UNL A   1      40.911  21.359  27.161  1.00  0.00     0.126 C 
ATOM      2  C   UNL A   1      41.430  22.200  28.328  1.00  0.00     0.025 C 
ENDROOT
BRANCH   1   3
ATOM      3  C   UNL A   1      39.647  21.930  26.542  1.00  0.00    -0.031 A 
ATOM      4  C   UNL A   1      37.290  22.944  25.332  1.00  0.00     0.018 A 
ATOM      5  C   UNL A   1      38.108  23.767  26.116  1.00  0.00     0.012 A 
ATOM      6  C   UNL A   1      37.681  21.611  25.156  1.00  0.00     0.131 A 
ATOM      7  C   UNL A   1      39.264  23.268  26.718  1.00  0.00     0.005 A 
ATOM      8  C   UNL A   1      38.839  21.107  25.742  1.00  0.00     0.044 A 
ATOM      9  F   UNL A   1      36.934  20.776  24.416  1.00  0.00    -0.206 F 
BRANCH   4  10
ATOM     10  C   UNL A   1      36.036  23.465  24.787  1.00  0.00    -0.012 A 
ATOM     11  C   UNL A   1      34.097  24.897  25.019  1.00  0.00     0.133 A 
ATOM     12  C   UNL A   1      33.681  24.592  23.728  1.00  0.00     0.047 A 
ATOM     13  C   UNL A   1      35.246  24.326  25.559  1.00  0.00     0.056 A 
ATOM     14  C   UNL A   1      34.447  23.722  22.953  1.00  0.00     0.004 A 
ATOM     15  C   UNL A   1      35.618  23.166  23.479  1.00  0.00     0.009 A 
BRANCH  11  16
ATOM     16  O   UNL A   1      33.261  25.706  25.799  1.00  0.00    -0.410 OA
BRANCH  16  17
ATOM     17  C   UNL A   1      31.971  25.940  25.340  1.00  0.00     0.412 C 
ATOM     18  N   UNL A   1      31.065  25.040  25.827  1.00  0.00    -0.321 N 
ATOM     19  H   UNL A   1      30.136  25.132  25.515  1.00  0.00     0.167 HD
ATOM     20  O   UNL A   1      31.622  26.836  24.583  1.00  0.00    -0.224 OA
BRANCH  18  21
ATOM     21  C   UNL A   1      31.338  23.964  26.756  1.00  0.00     0.119 C 
BRANCH  21  22
ATOM     22  C   UNL A   1      30.838  22.618  26.233  1.00  0.00     0.021 C 
BRANCH  22  23
ATOM     23  C   UNL A   1      31.742  21.958  25.184  1.00  0.00     0.002 C 
BRANCH  23  24
ATOM     24  C   UNL A   1      33.015  21.303  25.730  1.00  0.00    -0.000 C 
BRANCH  24  25
ATOM     25  C   UNL A   1      33.691  20.300  24.793  1.00  0.00    -0.003 C 
ATOM     26  C   UNL A   1      32.715  19.586  23.871  1.00  0.00     0.004 C 
ENDBRANCH  24  25
ENDBRANCH  23  24
ENDBRANCH  22  23
ENDBRANCH  21  22
ENDBRANCH  18  21
ENDBRANCH  16  17
ENDBRANCH  11  16
ENDBRANCH   4  10
ENDBRANCH   1   3
BRANCH   1  27
ATOM     27  C   UNL A   1      41.987  21.020  26.132  1.00  0.00     0.313 C 
ATOM     28  O   UNL A   1      42.444  19.888  26.002  1.00  0.00    -0.252 OA
BRANCH  27  29
ATOM     29  O   UNL A   1      42.328  22.078  25.349  1.00  0.00    -0.462 OA
BRANCH  29  30
ATOM     30  C   UNL A   1      43.687  22.537  25.470  1.00  0.00     0.274 C 
BRANCH  30  31
ATOM     31  C   UNL A   1      43.763  24.022  25.835  1.00  0.00     0.275 C 
BRANCH  31  32
ATOM     32  O   UNL A   1      42.475  24.568  26.175  1.00  0.00    -0.458 OA
BRANCH  32  33
ATOM     33  C   UNL A   1      42.263  25.838  25.757  1.00  0.00     0.338 C 
ATOM     34  O   UNL A   1      42.356  26.268  24.621  1.00  0.00    -0.246 OA
BRANCH  33  35
ATOM     35  C   UNL A   1      41.749  26.654  26.867  1.00  0.00     0.060 A 
ATOM     36  C   UNL A   1      42.194  27.974  26.967  1.00  0.00     0.016 A 
ATOM     37  C   UNL A   1      40.932  26.106  27.854  1.00  0.00     0.016 A 
ATOM     38  C   UNL A   1      41.837  28.758  28.056  1.00  0.00     0.010 A 
ATOM     39  C   UNL A   1      40.573  26.893  28.953  1.00  0.00     0.010 A 
ATOM     40  C   UNL A   1      41.035  28.217  29.065  1.00  0.00    -0.014 A 
BRANCH  40  41
ATOM     41  C   UNL A   1      40.751  29.020  30.274  1.00  0.00     0.031 A 
ATOM     42  C   UNL A   1      39.624  30.009  30.256  1.00  0.00     0.074 A 
ATOM     43  C   UNL A   1      41.479  28.835  31.390  1.00  0.00     0.049 A 
ATOM     44  N   UNL A   1      39.277  30.888  31.160  1.00  0.00    -0.248 NA
ATOM     45  C   UNL A   1      38.770  30.007  29.056  1.00  0.00     0.031 C 
ATOM     46  C   UNL A   1      42.550  27.852  31.547  1.00  0.00     0.029 A 
ATOM     47  N   UNL A   1      41.425  29.472  32.603  1.00  0.00    -0.354 N 
ATOM     48  C   UNL A   1      38.186  31.562  30.630  1.00  0.00     0.074 A 
ATOM     49  C   UNL A   1      37.931  30.998  29.322  1.00  0.00     0.031 C 
ATOM     50  C   UNL A   1      43.059  27.956  32.785  1.00  0.00     0.029 A 
ATOM     51  C   UNL A   1      42.385  29.045  33.487  1.00  0.00     0.049 A 
ATOM     52  H   UNL A   1      40.764  30.169  32.819  1.00  0.00     0.167 HD
ATOM     53  C   UNL A   1      37.466  32.564  31.187  1.00  0.00     0.037 A 
ATOM     54  C   UNL A   1      42.707  29.507  34.709  1.00  0.00     0.037 A 
ATOM     55  C   UNL A   1      37.716  33.105  32.498  1.00  0.00     0.049 A 
ATOM     56  C   UNL A   1      41.936  30.666  35.278  1.00  0.00     0.074 A 
ATOM     57  C   UNL A   1      37.042  34.117  33.157  1.00  0.00     0.029 A 
ATOM     58  N   UNL A   1      38.722  32.672  33.349  1.00  0.00    -0.354 N 
ATOM     59  N   UNL A   1      40.923  31.320  34.760  1.00  0.00    -0.248 NA
ATOM     60  C   UNL A   1      42.359  31.159  36.596  1.00  0.00     0.031 C 
ATOM     61  C   UNL A   1      37.664  34.322  34.394  1.00  0.00     0.029 A 
ATOM     62  C   UNL A   1      38.699  33.410  34.521  1.00  0.00     0.049 A 
ATOM     63  H   UNL A   1      39.357  31.947  33.150  1.00  0.00     0.167 HD
ATOM     64  C   UNL A   1      40.578  32.288  35.693  1.00  0.00     0.074 A 
ATOM     65  C   UNL A   1      41.479  32.126  36.816  1.00  0.00     0.031 C 
ATOM     66  C   UNL A   1      39.604  33.228  35.627  1.00  0.00     0.037 A 
BRANCH  53  67
ATOM     67  C   UNL A   1      36.365  33.162  30.364  1.00  0.00     0.057 A 
ATOM     68  C   UNL A   1      36.622  34.062  29.323  1.00  0.00     0.134 A 
ATOM     69  C   UNL A   1      35.031  32.815  30.605  1.00  0.00     0.134 A 
ATOM     70  F   UNL A   1      37.877  34.449  29.051  1.00  0.00    -0.206 F 
ATOM     71  C   UNL A   1      35.586  34.612  28.563  1.00  0.00     0.040 A 
ATOM     72  C   UNL A   1      33.989  33.340  29.840  1.00  0.00     0.040 A 
ATOM     73  F   UNL A   1      34.717  31.956  31.588  1.00  0.00    -0.206 F 
ATOM     74  C   UNL A   1      34.266  34.246  28.818  1.00  0.00     0.006 A 
ENDBRANCH  53  67
BRANCH  54  75
ATOM     75  C   UNL A   1      43.832  28.899  35.459  1.00  0.00     0.057 A 
ATOM     76  C   UNL A   1      45.149  29.331  35.269  1.00  0.00     0.134 A 
ATOM     77  C   UNL A   1      43.618  27.865  36.379  1.00  0.00     0.134 A 
ATOM     78  F   UNL A   1      45.419  30.300  34.383  1.00  0.00    -0.206 F 
ATOM     79  C   UNL A   1      46.214  28.751  35.959  1.00  0.00     0.040 A 
ATOM     80  C   UNL A   1      44.671  27.292  37.094  1.00  0.00     0.040 A 
ATOM     81  F   UNL A   1      42.379  27.405  36.606  1.00  0.00    -0.206 F 
ATOM     82  C   UNL A   1      45.976  27.732  36.880  1.00  0.00     0.006 A 
ENDBRANCH  54  75
BRANCH  66  83
ATOM     83  C   UNL A   1      39.448  34.133  36.812  1.00  0.00     0.057 A 
ATOM     84  C   UNL A   1      38.739  33.736  37.952  1.00  0.00     0.134 A 
ATOM     85  C   UNL A   1      40.044  35.399  36.826  1.00  0.00     0.134 A 
ATOM     86  F   UNL A   1      38.134  32.539  37.995  1.00  0.00    -0.206 F 
ATOM     87  C   UNL A   1      38.613  34.576  39.059  1.00  0.00     0.040 A 
ATOM     88  C   UNL A   1      39.943  36.239  37.935  1.00  0.00     0.040 A 
ATOM     89  F   UNL A   1      40.742  35.836  35.766  1.00  0.00    -0.206 F 
ATOM     90  C   UNL A   1      39.222  35.829  39.055  1.00  0.00     0.006 A 
ENDBRANCH  66  83
ENDBRANCH  40  41
ENDBRANCH  33  35
ENDBRANCH  32  33
ENDBRANCH  31  32
ENDBRANCH  30  31
ENDBRANCH  29  30
ENDBRANCH  27  29
ENDBRANCH   1  27
TORSDOF 20
ENDMDL
