MODEL 1
REMARK VINA RESULT:     -11.8      0.000      0.000
REMARK SMILES COc1cccc(C(=O)/C=C(/Nc2cc(C)c(C)cc2[N+](=O)[O-])C(=O)OCCOC(=O)c2ccc(-c3c4nc(c(-c5c(F)cccc5F)c5ccc([nH]5)c(-c5c(F)cccc5F)c5nc(c(-c6c(F)cccc6F)c6ccc3[nH]6)C=C5)C=C4)cc2)c1
REMARK SMILES IDX 27 1 26 2 24 3 25 4 11 5 10 6 8 7 9 8 7 9 3 10 4 11 86 12
REMARK SMILES IDX 5 13 6 14 2 15 1 16 12 17 13 19 14 20 20 21 15 22 19 23
REMARK SMILES IDX 16 24 17 25 18 26 21 27 22 28 23 29 28 30 29 31 30 32 31 33
REMARK SMILES IDX 32 34 33 35 85 36 34 37 84 38 35 39 36 40 37 41 78 42 38 43
REMARK SMILES IDX 83 44 77 45 79 46 39 47 82 48 76 49 75 50 40 52 66 53 49 54
REMARK SMILES IDX 65 55 50 56 53 57 64 58 80 59 51 60 52 61 63 63 81 64 54 65
REMARK SMILES IDX 41 66 42 67 47 68 43 69 44 70 46 71 48 72 45 73 67 74 68 75
REMARK SMILES IDX 73 76 69 77 70 78 72 79 74 80 71 81 55 82 56 83 61 84 57 85
REMARK SMILES IDX 58 86 60 87 62 88 59 89
REMARK H PARENT 12 18 79 51 53 62
REMARK Flexibility Score: inf
ROOT
ATOM      1  C   UNL A   1      31.765  29.905  25.707  1.00  0.00     0.275 C 
ENDROOT
BRANCH   1   2
ATOM      2  O   UNL A   1      32.401  28.639  25.874  1.00  0.00    -0.457 OA
BRANCH   2   3
ATOM      3  C   UNL A   1      33.031  28.135  24.789  1.00  0.00     0.355 C 
ATOM      4  O   UNL A   1      33.806  28.705  24.029  1.00  0.00    -0.244 OA
BRANCH   3   5
ATOM      5  C   UNL A   1      32.560  26.749  24.621  1.00  0.00     0.129 C 
ATOM      6  C   UNL A   1      31.680  26.490  23.641  1.00  0.00     0.086 C 
BRANCH   6   7
ATOM      7  C   UNL A   1      30.845  27.204  22.607  1.00  0.00     0.188 C 
ATOM      8  O   UNL A   1      31.039  26.769  21.461  1.00  0.00    -0.289 OA
BRANCH   7   9
ATOM      9  C   UNL A   1      29.841  28.330  22.716  1.00  0.00     0.026 A 
ATOM     10  C   UNL A   1      28.924  30.592  22.433  1.00  0.00     0.119 A 
ATOM     11  C   UNL A   1      27.653  30.174  22.788  1.00  0.00     0.046 A 
ATOM     12  C   UNL A   1      29.988  29.673  22.371  1.00  0.00     0.058 A 
ATOM     13  C   UNL A   1      27.461  28.849  23.142  1.00  0.00     0.005 A 
ATOM     14  C   UNL A   1      28.544  27.959  23.129  1.00  0.00     0.012 A 
BRANCH  10  15
ATOM     15  O   UNL A   1      29.047  31.887  22.002  1.00  0.00    -0.497 OA
ATOM     16  C   UNL A   1      28.073  32.250  21.026  1.00  0.00     0.278 C 
ENDBRANCH  10  15
ENDBRANCH   7   9
ENDBRANCH   6   7
BRANCH   5  17
ATOM     17  N   UNL A   1      33.127  25.821  25.510  1.00  0.00    -0.344 N 
ATOM     18  H   UNL A   1      33.278  26.085  26.447  1.00  0.00     0.167 HD
BRANCH  17  19
ATOM     19  C   UNL A   1      33.489  24.511  25.095  1.00  0.00     0.118 A 
ATOM     20  C   UNL A   1      34.639  24.336  24.308  1.00  0.00     0.037 A 
ATOM     21  C   UNL A   1      32.932  23.355  25.679  1.00  0.00     0.292 A 
ATOM     22  C   UNL A   1      35.296  23.083  24.231  1.00  0.00    -0.046 A 
ATOM     23  C   UNL A   1      33.628  22.141  25.703  1.00  0.00     0.091 A 
ATOM     24  C   UNL A   1      36.489  22.947  23.320  1.00  0.00     0.045 C 
ATOM     25  C   UNL A   1      34.852  22.017  25.038  1.00  0.00    -0.041 A 
ATOM     26  C   UNL A   1      35.618  20.731  25.189  1.00  0.00     0.045 C 
BRANCH  21  27
ATOM     27  N   UNL A   1      31.587  23.387  26.268  1.00  0.00     0.064 N 
ATOM     28  O   UNL A   1      30.695  22.731  25.709  1.00  0.00    -0.258 OA
ATOM     29  O   UNL A   1      31.404  24.120  27.251  1.00  0.00    -0.258 OA
ENDBRANCH  21  27
ENDBRANCH  17  19
ENDBRANCH   5  17
ENDBRANCH   3   5
ENDBRANCH   2   3
ENDBRANCH   1   2
BRANCH   1  30
ATOM     30  C   UNL A   1      32.447  30.971  26.575  1.00  0.00     0.275 C 
BRANCH  30  31
ATOM     31  O   UNL A   1      33.395  30.424  27.521  1.00  0.00    -0.458 OA
BRANCH  31  32
ATOM     32  C   UNL A   1      34.415  31.252  27.870  1.00  0.00     0.338 C 
ATOM     33  O   UNL A   1      34.335  32.462  28.020  1.00  0.00    -0.246 OA
BRANCH  32  34
ATOM     34  C   UNL A   1      35.660  30.497  28.176  1.00  0.00     0.060 A 
ATOM     35  C   UNL A   1      35.755  29.890  29.437  1.00  0.00     0.016 A 
ATOM     36  C   UNL A   1      36.735  30.398  27.288  1.00  0.00     0.016 A 
ATOM     37  C   UNL A   1      36.908  29.188  29.811  1.00  0.00     0.010 A 
ATOM     38  C   UNL A   1      37.904  29.713  27.675  1.00  0.00     0.010 A 
ATOM     39  C   UNL A   1      38.004  29.112  28.945  1.00  0.00    -0.014 A 
BRANCH  39  40
ATOM     40  C   UNL A   1      39.307  28.582  29.442  1.00  0.00     0.031 A 
ATOM     41  C   UNL A   1      39.980  29.300  30.580  1.00  0.00     0.074 A 
ATOM     42  C   UNL A   1      39.883  27.471  28.944  1.00  0.00     0.049 A 
ATOM     43  N   UNL A   1      41.098  29.013  31.196  1.00  0.00    -0.248 NA
ATOM     44  C   UNL A   1      39.277  30.475  31.118  1.00  0.00     0.031 C 
ATOM     45  C   UNL A   1      39.287  26.592  27.949  1.00  0.00     0.029 A 
ATOM     46  N   UNL A   1      41.103  26.889  29.201  1.00  0.00    -0.354 N 
ATOM     47  C   UNL A   1      41.215  29.947  32.214  1.00  0.00     0.074 A 
ATOM     48  C   UNL A   1      40.078  30.837  32.109  1.00  0.00     0.031 C 
ATOM     49  C   UNL A   1      40.166  25.635  27.609  1.00  0.00     0.029 A 
ATOM     50  C   UNL A   1      41.386  25.815  28.388  1.00  0.00     0.049 A 
ATOM     51  H   UNL A   1      41.716  27.211  29.902  1.00  0.00     0.167 HD
ATOM     52  C   UNL A   1      42.175  30.046  33.162  1.00  0.00     0.037 A 
ATOM     53  C   UNL A   1      42.499  25.061  28.287  1.00  0.00     0.037 A 
ATOM     54  C   UNL A   1      43.323  29.186  33.250  1.00  0.00     0.049 A 
ATOM     55  C   UNL A   1      43.633  25.299  29.251  1.00  0.00     0.074 A 
ATOM     56  C   UNL A   1      44.348  29.210  34.180  1.00  0.00     0.029 A 
ATOM     57  N   UNL A   1      43.615  28.163  32.360  1.00  0.00    -0.354 N 
ATOM     58  N   UNL A   1      43.704  26.148  30.246  1.00  0.00    -0.248 NA
ATOM     59  C   UNL A   1      44.828  24.454  29.100  1.00  0.00     0.031 C 
ATOM     60  C   UNL A   1      45.293  28.247  33.813  1.00  0.00     0.029 A 
ATOM     61  C   UNL A   1      44.829  27.583  32.689  1.00  0.00     0.049 A 
ATOM     62  H   UNL A   1      43.044  27.891  31.605  1.00  0.00     0.167 HD
ATOM     63  C   UNL A   1      44.918  25.901  30.873  1.00  0.00     0.074 A 
ATOM     64  C   UNL A   1      45.554  24.824  30.145  1.00  0.00     0.031 C 
ATOM     65  C   UNL A   1      45.450  26.504  31.964  1.00  0.00     0.037 A 
BRANCH  52  66
ATOM     66  C   UNL A   1      42.039  31.160  34.156  1.00  0.00     0.057 A 
ATOM     67  C   UNL A   1      41.350  30.996  35.364  1.00  0.00     0.134 A 
ATOM     68  C   UNL A   1      42.621  32.408  33.904  1.00  0.00     0.134 A 
ATOM     69  F   UNL A   1      40.755  29.829  35.655  1.00  0.00    -0.206 F 
ATOM     70  C   UNL A   1      41.227  32.042  36.279  1.00  0.00     0.040 A 
ATOM     71  C   UNL A   1      42.525  33.454  34.822  1.00  0.00     0.040 A 
ATOM     72  F   UNL A   1      43.294  32.629  32.766  1.00  0.00    -0.206 F 
ATOM     73  C   UNL A   1      41.821  33.274  36.012  1.00  0.00     0.006 A 
ENDBRANCH  52  66
BRANCH  53  74
ATOM     74  C   UNL A   1      42.614  24.002  27.247  1.00  0.00     0.057 A 
ATOM     75  C   UNL A   1      42.291  22.667  27.520  1.00  0.00     0.134 A 
ATOM     76  C   UNL A   1      43.128  24.289  25.975  1.00  0.00     0.134 A 
ATOM     77  F   UNL A   1      41.823  22.319  28.728  1.00  0.00    -0.206 F 
ATOM     78  C   UNL A   1      42.504  21.654  26.581  1.00  0.00     0.040 A 
ATOM     79  C   UNL A   1      43.324  23.289  25.019  1.00  0.00     0.040 A 
ATOM     80  F   UNL A   1      43.467  25.545  25.648  1.00  0.00    -0.206 F 
ATOM     81  C   UNL A   1      43.022  21.963  25.326  1.00  0.00     0.006 A 
ENDBRANCH  53  74
BRANCH  65  82
ATOM     82  C   UNL A   1      46.768  25.988  32.466  1.00  0.00     0.057 A 
ATOM     83  C   UNL A   1      47.989  26.475  31.983  1.00  0.00     0.134 A 
ATOM     84  C   UNL A   1      46.813  25.026  33.483  1.00  0.00     0.134 A 
ATOM     85  F   UNL A   1      48.015  27.389  31.000  1.00  0.00    -0.206 F 
ATOM     86  C   UNL A   1      49.207  26.007  32.476  1.00  0.00     0.040 A 
ATOM     87  C   UNL A   1      48.025  24.572  34.007  1.00  0.00     0.040 A 
ATOM     88  F   UNL A   1      45.681  24.523  33.999  1.00  0.00    -0.206 F 
ATOM     89  C   UNL A   1      49.226  25.059  33.498  1.00  0.00     0.006 A 
ENDBRANCH  65  82
ENDBRANCH  39  40
ENDBRANCH  32  34
ENDBRANCH  31  32
ENDBRANCH  30  31
ENDBRANCH   1  30
TORSDOF 17
ENDMDL
MODEL 2
REMARK VINA RESULT:     -11.8      3.298      8.165
REMARK SMILES COc1cccc(C(=O)/C=C(/Nc2cc(C)c(C)cc2[N+](=O)[O-])C(=O)OCCOC(=O)c2ccc(-c3c4nc(c(-c5c(F)cccc5F)c5ccc([nH]5)c(-c5c(F)cccc5F)c5nc(c(-c6c(F)cccc6F)c6ccc3[nH]6)C=C5)C=C4)cc2)c1
REMARK SMILES IDX 27 1 26 2 24 3 25 4 11 5 10 6 8 7 9 8 7 9 3 10 4 11 86 12
REMARK SMILES IDX 5 13 6 14 2 15 1 16 12 17 13 19 14 20 20 21 15 22 19 23
REMARK SMILES IDX 16 24 17 25 18 26 21 27 22 28 23 29 28 30 29 31 30 32 31 33
REMARK SMILES IDX 32 34 33 35 85 36 34 37 84 38 35 39 36 40 37 41 78 42 38 43
REMARK SMILES IDX 83 44 77 45 79 46 39 47 82 48 76 49 75 50 40 52 66 53 49 54
REMARK SMILES IDX 65 55 50 56 53 57 64 58 80 59 51 60 52 61 63 63 81 64 54 65
REMARK SMILES IDX 41 66 42 67 47 68 43 69 44 70 46 71 48 72 45 73 67 74 68 75
REMARK SMILES IDX 73 76 69 77 70 78 72 79 74 80 71 81 55 82 56 83 61 84 57 85
REMARK SMILES IDX 58 86 60 87 62 88 59 89
REMARK H PARENT 12 18 79 51 53 62
REMARK Flexibility Score: inf
ROOT
ATOM      1  C   UNL A   1      37.064  20.883  24.978  1.00  0.00     0.275 C 
ENDROOT
BRANCH   1   2
ATOM      2  O   UNL A   1      36.341  22.112  24.921  1.00  0.00    -0.457 OA
BRANCH   2   3
ATOM      3  C   UNL A   1      35.254  22.208  25.718  1.00  0.00     0.355 C 
ATOM      4  O   UNL A   1      35.066  21.685  26.811  1.00  0.00    -0.244 OA
BRANCH   3   5
ATOM      5  C   UNL A   1      34.259  23.023  24.998  1.00  0.00     0.129 C 
ATOM      6  C   UNL A   1      33.039  22.502  24.792  1.00  0.00     0.086 C 
BRANCH   6   7
ATOM      7  C   UNL A   1      32.278  21.212  24.970  1.00  0.00     0.188 C 
ATOM      8  O   UNL A   1      31.190  21.381  25.543  1.00  0.00    -0.289 OA
BRANCH   7   9
ATOM      9  C   UNL A   1      32.598  19.784  24.588  1.00  0.00     0.026 A 
ATOM     10  C   UNL A   1      33.142  17.411  24.917  1.00  0.00     0.119 A 
ATOM     11  C   UNL A   1      32.876  17.115  23.591  1.00  0.00     0.046 A 
ATOM     12  C   UNL A   1      32.975  18.720  25.406  1.00  0.00     0.058 A 
ATOM     13  C   UNL A   1      32.502  18.143  22.741  1.00  0.00     0.005 A 
ATOM     14  C   UNL A   1      32.395  19.451  23.232  1.00  0.00     0.012 A 
BRANCH  10  15
ATOM     15  O   UNL A   1      33.417  16.350  25.740  1.00  0.00    -0.497 OA
ATOM     16  C   UNL A   1      32.501  15.268  25.587  1.00  0.00     0.278 C 
ENDBRANCH  10  15
ENDBRANCH   7   9
ENDBRANCH   6   7
BRANCH   5  17
ATOM     17  N   UNL A   1      34.704  24.302  24.626  1.00  0.00    -0.344 N 
ATOM     18  H   UNL A   1      35.633  24.417  24.322  1.00  0.00     0.167 HD
BRANCH  17  19
ATOM     19  C   UNL A   1      33.847  25.435  24.676  1.00  0.00     0.118 A 
ATOM     20  C   UNL A   1      33.493  25.971  25.925  1.00  0.00     0.037 A 
ATOM     21  C   UNL A   1      33.581  26.229  23.541  1.00  0.00     0.292 A 
ATOM     22  C   UNL A   1      33.035  27.305  26.052  1.00  0.00    -0.046 A 
ATOM     23  C   UNL A   1      33.236  27.581  23.660  1.00  0.00     0.091 A 
ATOM     24  C   UNL A   1      32.613  27.799  27.412  1.00  0.00     0.045 C 
ATOM     25  C   UNL A   1      33.030  28.147  24.922  1.00  0.00    -0.041 A 
ATOM     26  C   UNL A   1      32.776  29.628  25.006  1.00  0.00     0.045 C 
BRANCH  21  27
ATOM     27  N   UNL A   1      33.642  25.652  22.192  1.00  0.00     0.064 N 
ATOM     28  O   UNL A   1      33.697  26.435  21.231  1.00  0.00    -0.258 OA
ATOM     29  O   UNL A   1      33.568  24.420  22.087  1.00  0.00    -0.258 OA
ENDBRANCH  21  27
ENDBRANCH  17  19
ENDBRANCH   5  17
ENDBRANCH   3   5
ENDBRANCH   2   3
ENDBRANCH   1   2
BRANCH   1  30
ATOM     30  C   UNL A   1      38.533  21.136  25.342  1.00  0.00     0.275 C 
BRANCH  30  31
ATOM     31  O   UNL A   1      39.111  20.096  26.162  1.00  0.00    -0.458 OA
BRANCH  31  32
ATOM     32  C   UNL A   1      40.462  19.971  26.082  1.00  0.00     0.338 C 
ATOM     33  O   UNL A   1      41.066  19.033  25.583  1.00  0.00    -0.246 OA
BRANCH  32  34
ATOM     34  C   UNL A   1      41.160  21.189  26.575  1.00  0.00     0.060 A 
ATOM     35  C   UNL A   1      40.994  21.529  27.926  1.00  0.00     0.016 A 
ATOM     36  C   UNL A   1      41.933  22.016  25.754  1.00  0.00     0.016 A 
ATOM     37  C   UNL A   1      41.594  22.678  28.457  1.00  0.00     0.010 A 
ATOM     38  C   UNL A   1      42.516  23.184  26.283  1.00  0.00     0.010 A 
ATOM     39  C   UNL A   1      42.340  23.531  27.637  1.00  0.00    -0.014 A 
BRANCH  39  40
ATOM     40  C   UNL A   1      42.763  24.868  28.147  1.00  0.00     0.031 A 
ATOM     41  C   UNL A   1      41.717  25.939  28.289  1.00  0.00     0.074 A 
ATOM     42  C   UNL A   1      44.028  25.142  28.522  1.00  0.00     0.049 A 
ATOM     43  N   UNL A   1      41.838  27.164  28.733  1.00  0.00    -0.248 NA
ATOM     44  C   UNL A   1      40.344  25.564  27.915  1.00  0.00     0.031 C 
ATOM     45  C   UNL A   1      45.112  24.174  28.580  1.00  0.00     0.029 A 
ATOM     46  N   UNL A   1      44.620  26.318  28.921  1.00  0.00    -0.354 N 
ATOM     47  C   UNL A   1      40.556  27.693  28.726  1.00  0.00     0.074 A 
ATOM     48  C   UNL A   1      39.677  26.674  28.194  1.00  0.00     0.031 C 
ATOM     49  C   UNL A   1      46.257  24.799  28.903  1.00  0.00     0.029 A 
ATOM     50  C   UNL A   1      45.981  26.218  29.104  1.00  0.00     0.049 A 
ATOM     51  H   UNL A   1      44.117  27.153  29.063  1.00  0.00     0.167 HD
ATOM     52  C   UNL A   1      40.146  28.914  29.141  1.00  0.00     0.037 A 
ATOM     53  C   UNL A   1      46.898  27.160  29.403  1.00  0.00     0.037 A 
ATOM     54  C   UNL A   1      41.020  29.941  29.638  1.00  0.00     0.049 A 
ATOM     55  C   UNL A   1      46.433  28.562  29.700  1.00  0.00     0.074 A 
ATOM     56  C   UNL A   1      40.692  31.209  30.085  1.00  0.00     0.029 A 
ATOM     57  N   UNL A   1      42.399  29.828  29.730  1.00  0.00    -0.354 N 
ATOM     58  N   UNL A   1      45.210  29.034  29.746  1.00  0.00    -0.248 NA
ATOM     59  C   UNL A   1      47.469  29.557  30.019  1.00  0.00     0.031 C 
ATOM     60  C   UNL A   1      41.878  31.887  30.381  1.00  0.00     0.029 A 
ATOM     61  C   UNL A   1      42.941  31.022  30.178  1.00  0.00     0.049 A 
ATOM     62  H   UNL A   1      42.916  29.020  29.509  1.00  0.00     0.167 HD
ATOM     63  C   UNL A   1      45.326  30.356  30.154  1.00  0.00     0.074 A 
ATOM     64  C   UNL A   1      46.739  30.615  30.340  1.00  0.00     0.031 C 
ATOM     65  C   UNL A   1      44.348  31.268  30.369  1.00  0.00     0.037 A 
BRANCH  52  66
ATOM     66  C   UNL A   1      38.682  29.215  29.028  1.00  0.00     0.057 A 
ATOM     67  C   UNL A   1      37.816  29.107  30.124  1.00  0.00     0.134 A 
ATOM     68  C   UNL A   1      38.137  29.634  27.808  1.00  0.00     0.134 A 
ATOM     69  F   UNL A   1      38.274  28.692  31.314  1.00  0.00    -0.206 F 
ATOM     70  C   UNL A   1      36.454  29.386  30.005  1.00  0.00     0.040 A 
ATOM     71  C   UNL A   1      36.781  29.939  27.683  1.00  0.00     0.040 A 
ATOM     72  F   UNL A   1      38.913  29.757  26.722  1.00  0.00    -0.206 F 
ATOM     73  C   UNL A   1      35.934  29.809  28.783  1.00  0.00     0.006 A 
ENDBRANCH  52  66
BRANCH  53  74
ATOM     74  C   UNL A   1      48.348  26.829  29.448  1.00  0.00     0.057 A 
ATOM     75  C   UNL A   1      49.146  26.865  28.298  1.00  0.00     0.134 A 
ATOM     76  C   UNL A   1      48.954  26.391  30.634  1.00  0.00     0.134 A 
ATOM     77  F   UNL A   1      48.620  27.246  27.124  1.00  0.00    -0.206 F 
ATOM     78  C   UNL A   1      50.479  26.448  28.316  1.00  0.00     0.040 A 
ATOM     79  C   UNL A   1      50.293  25.994  30.671  1.00  0.00     0.040 A 
ATOM     80  F   UNL A   1      48.247  26.324  31.772  1.00  0.00    -0.206 F 
ATOM     81  C   UNL A   1      51.057  26.010  29.505  1.00  0.00     0.006 A 
ENDBRANCH  53  74
BRANCH  65  82
ATOM     82  C   UNL A   1      44.761  32.622  30.870  1.00  0.00     0.057 A 
ATOM     83  C   UNL A   1      44.915  32.893  32.236  1.00  0.00     0.134 A 
ATOM     84  C   UNL A   1      45.056  33.653  29.969  1.00  0.00     0.134 A 
ATOM     85  F   UNL A   1      44.638  31.952  33.152  1.00  0.00    -0.206 F 
ATOM     86  C   UNL A   1      45.326  34.147  32.688  1.00  0.00     0.040 A 
ATOM     87  C   UNL A   1      45.497  34.903  30.408  1.00  0.00     0.040 A 
ATOM     88  F   UNL A   1      44.938  33.459  28.647  1.00  0.00    -0.206 F 
ATOM     89  C   UNL A   1      45.626  35.154  31.771  1.00  0.00     0.006 A 
ENDBRANCH  65  82
ENDBRANCH  39  40
ENDBRANCH  32  34
ENDBRANCH  31  32
ENDBRANCH  30  31
ENDBRANCH   1  30
TORSDOF 17
ENDMDL
MODEL 3
REMARK VINA RESULT:     -11.8      3.901      8.862
REMARK SMILES COc1cccc(C(=O)/C=C(/Nc2cc(C)c(C)cc2[N+](=O)[O-])C(=O)OCCOC(=O)c2ccc(-c3c4nc(c(-c5c(F)cccc5F)c5ccc([nH]5)c(-c5c(F)cccc5F)c5nc(c(-c6c(F)cccc6F)c6ccc3[nH]6)C=C5)C=C4)cc2)c1
REMARK SMILES IDX 27 1 26 2 24 3 25 4 11 5 10 6 8 7 9 8 7 9 3 10 4 11 86 12
REMARK SMILES IDX 5 13 6 14 2 15 1 16 12 17 13 19 14 20 20 21 15 22 19 23
REMARK SMILES IDX 16 24 17 25 18 26 21 27 22 28 23 29 28 30 29 31 30 32 31 33
REMARK SMILES IDX 32 34 33 35 85 36 34 37 84 38 35 39 36 40 37 41 78 42 38 43
REMARK SMILES IDX 83 44 77 45 79 46 39 47 82 48 76 49 75 50 40 52 66 53 49 54
REMARK SMILES IDX 65 55 50 56 53 57 64 58 80 59 51 60 52 61 63 63 81 64 54 65
REMARK SMILES IDX 41 66 42 67 47 68 43 69 44 70 46 71 48 72 45 73 67 74 68 75
REMARK SMILES IDX 73 76 69 77 70 78 72 79 74 80 71 81 55 82 56 83 61 84 57 85
REMARK SMILES IDX 58 86 60 87 62 88 59 89
REMARK H PARENT 12 18 79 51 53 62
REMARK Flexibility Score: inf
ROOT
ATOM      1  C   UNL A   1      36.446  22.680  23.508  1.00  0.00     0.275 C 
ENDROOT
BRANCH   1   2
ATOM      2  O   UNL A   1      35.494  23.697  23.814  1.00  0.00    -0.457 OA
BRANCH   2   3
ATOM      3  C   UNL A   1      34.285  23.588  23.219  1.00  0.00     0.355 C 
ATOM      4  O   UNL A   1      34.037  23.398  22.033  1.00  0.00    -0.244 OA
BRANCH   3   5
ATOM      5  C   UNL A   1      33.268  23.816  24.261  1.00  0.00     0.129 C 
ATOM      6  C   UNL A   1      33.083  22.864  25.189  1.00  0.00     0.086 C 
BRANCH   6   7
ATOM      7  C   UNL A   1      33.523  21.460  25.521  1.00  0.00     0.188 C 
ATOM      8  O   UNL A   1      33.999  21.372  26.664  1.00  0.00    -0.289 OA
BRANCH   7   9
ATOM      9  C   UNL A   1      33.492  20.173  24.727  1.00  0.00     0.026 A 
ATOM     10  C   UNL A   1      34.066  17.862  24.121  1.00  0.00     0.119 A 
ATOM     11  C   UNL A   1      33.007  17.779  23.233  1.00  0.00     0.046 A 
ATOM     12  C   UNL A   1      34.280  19.032  24.873  1.00  0.00     0.058 A 
ATOM     13  C   UNL A   1      32.200  18.890  23.053  1.00  0.00     0.005 A 
ATOM     14  C   UNL A   1      32.462  20.067  23.769  1.00  0.00     0.012 A 
BRANCH  10  15
ATOM     15  O   UNL A   1      34.779  16.711  24.336  1.00  0.00    -0.497 OA
ATOM     16  C   UNL A   1      34.116  15.792  25.201  1.00  0.00     0.278 C 
ENDBRANCH  10  15
ENDBRANCH   7   9
ENDBRANCH   6   7
BRANCH   5  17
ATOM     17  N   UNL A   1      32.612  25.055  24.183  1.00  0.00    -0.344 N 
ATOM     18  H   UNL A   1      32.155  25.304  23.347  1.00  0.00     0.167 HD
BRANCH  17  19
ATOM     19  C   UNL A   1      32.589  25.961  25.278  1.00  0.00     0.118 A 
ATOM     20  C   UNL A   1      33.717  26.758  25.531  1.00  0.00     0.037 A 
ATOM     21  C   UNL A   1      31.394  26.318  25.936  1.00  0.00     0.292 A 
ATOM     22  C   UNL A   1      33.622  27.953  26.286  1.00  0.00    -0.046 A 
ATOM     23  C   UNL A   1      31.259  27.548  26.589  1.00  0.00     0.091 A 
ATOM     24  C   UNL A   1      34.881  28.730  26.572  1.00  0.00     0.045 C 
ATOM     25  C   UNL A   1      32.357  28.407  26.707  1.00  0.00    -0.041 A 
ATOM     26  C   UNL A   1      32.135  29.767  27.313  1.00  0.00     0.045 C 
BRANCH  21  27
ATOM     27  N   UNL A   1      30.252  25.394  25.969  1.00  0.00     0.064 N 
ATOM     28  O   UNL A   1      29.204  25.750  25.410  1.00  0.00    -0.258 OA
ATOM     29  O   UNL A   1      30.379  24.342  26.612  1.00  0.00    -0.258 OA
ENDBRANCH  21  27
ENDBRANCH  17  19
ENDBRANCH   5  17
ENDBRANCH   3   5
ENDBRANCH   2   3
ENDBRANCH   1   2
BRANCH   1  30
ATOM     30  C   UNL A   1      37.009  22.062  24.794  1.00  0.00     0.275 C 
BRANCH  30  31
ATOM     31  O   UNL A   1      37.497  23.042  25.740  1.00  0.00    -0.458 OA
BRANCH  31  32
ATOM     32  C   UNL A   1      38.748  22.818  26.220  1.00  0.00     0.338 C 
ATOM     33  O   UNL A   1      39.343  21.751  26.196  1.00  0.00    -0.246 OA
BRANCH  32  34
ATOM     34  C   UNL A   1      39.392  24.073  26.693  1.00  0.00     0.060 A 
ATOM     35  C   UNL A   1      39.227  24.418  28.042  1.00  0.00     0.016 A 
ATOM     36  C   UNL A   1      40.112  24.929  25.854  1.00  0.00     0.016 A 
ATOM     37  C   UNL A   1      39.777  25.600  28.555  1.00  0.00     0.010 A 
ATOM     38  C   UNL A   1      40.644  26.129  26.364  1.00  0.00     0.010 A 
ATOM     39  C   UNL A   1      40.470  26.480  27.717  1.00  0.00    -0.014 A 
BRANCH  39  40
ATOM     40  C   UNL A   1      40.833  27.841  28.209  1.00  0.00     0.031 A 
ATOM     41  C   UNL A   1      42.291  28.197  28.308  1.00  0.00     0.074 A 
ATOM     42  C   UNL A   1      39.914  28.773  28.531  1.00  0.00     0.049 A 
ATOM     43  N   UNL A   1      42.848  29.321  28.681  1.00  0.00    -0.248 NA
ATOM     44  C   UNL A   1      43.246  27.158  27.893  1.00  0.00     0.031 C 
ATOM     45  C   UNL A   1      38.478  28.629  28.351  1.00  0.00     0.029 A 
ATOM     46  N   UNL A   1      40.049  30.027  29.080  1.00  0.00    -0.354 N 
ATOM     47  C   UNL A   1      44.211  29.137  28.513  1.00  0.00     0.074 A 
ATOM     48  C   UNL A   1      44.404  27.781  28.045  1.00  0.00     0.031 C 
ATOM     49  C   UNL A   1      37.850  29.703  28.858  1.00  0.00     0.029 A 
ATOM     50  C   UNL A   1      38.848  30.632  29.378  1.00  0.00     0.049 A 
ATOM     51  H   UNL A   1      40.922  30.451  29.246  1.00  0.00     0.167 HD
ATOM     52  C   UNL A   1      45.213  30.024  28.714  1.00  0.00     0.037 A 
ATOM     53  C   UNL A   1      38.585  31.802  29.994  1.00  0.00     0.037 A 
ATOM     54  C   UNL A   1      45.029  31.361  29.211  1.00  0.00     0.049 A 
ATOM     55  C   UNL A   1      39.731  32.707  30.364  1.00  0.00     0.074 A 
ATOM     56  C   UNL A   1      45.986  32.332  29.444  1.00  0.00     0.029 A 
ATOM     57  N   UNL A   1      43.807  31.906  29.576  1.00  0.00    -0.354 N 
ATOM     58  N   UNL A   1      41.014  32.545  30.145  1.00  0.00    -0.248 NA
ATOM     59  C   UNL A   1      39.396  33.971  31.037  1.00  0.00     0.031 C 
ATOM     60  C   UNL A   1      45.353  33.441  30.015  1.00  0.00     0.029 A 
ATOM     61  C   UNL A   1      43.994  33.183  30.082  1.00  0.00     0.049 A 
ATOM     62  H   UNL A   1      42.937  31.453  29.491  1.00  0.00     0.167 HD
ATOM     63  C   UNL A   1      41.628  33.705  30.597  1.00  0.00     0.074 A 
ATOM     64  C   UNL A   1      40.579  34.563  31.106  1.00  0.00     0.031 C 
ATOM     65  C   UNL A   1      42.942  34.035  30.577  1.00  0.00     0.037 A 
BRANCH  52  66
ATOM     66  C   UNL A   1      46.608  29.552  28.436  1.00  0.00     0.057 A 
ATOM     67  C   UNL A   1      47.210  29.716  27.182  1.00  0.00     0.134 A 
ATOM     68  C   UNL A   1      47.362  28.939  29.444  1.00  0.00     0.134 A 
ATOM     69  F   UNL A   1      46.533  30.279  26.171  1.00  0.00    -0.206 F 
ATOM     70  C   UNL A   1      48.508  29.268  26.935  1.00  0.00     0.040 A 
ATOM     71  C   UNL A   1      48.669  28.508  29.215  1.00  0.00     0.040 A 
ATOM     72  F   UNL A   1      46.842  28.752  30.666  1.00  0.00    -0.206 F 
ATOM     73  C   UNL A   1      49.244  28.667  27.955  1.00  0.00     0.006 A 
ENDBRANCH  52  66
BRANCH  53  74
ATOM     74  C   UNL A   1      37.186  32.206  30.302  1.00  0.00     0.057 A 
ATOM     75  C   UNL A   1      36.443  33.008  29.427  1.00  0.00     0.134 A 
ATOM     76  C   UNL A   1      36.586  31.864  31.522  1.00  0.00     0.134 A 
ATOM     77  F   UNL A   1      36.970  33.396  28.256  1.00  0.00    -0.206 F 
ATOM     78  C   UNL A   1      35.173  33.481  29.764  1.00  0.00     0.040 A 
ATOM     79  C   UNL A   1      35.306  32.311  31.862  1.00  0.00     0.040 A 
ATOM     80  F   UNL A   1      37.243  31.106  32.412  1.00  0.00    -0.206 F 
ATOM     81  C   UNL A   1      34.600  33.133  30.985  1.00  0.00     0.006 A 
ENDBRANCH  53  74
BRANCH  65  82
ATOM     82  C   UNL A   1      43.322  35.396  31.083  1.00  0.00     0.057 A 
ATOM     83  C   UNL A   1      43.543  35.648  32.443  1.00  0.00     0.134 A 
ATOM     84  C   UNL A   1      43.516  36.457  30.189  1.00  0.00     0.134 A 
ATOM     85  F   UNL A   1      43.362  34.679  33.353  1.00  0.00    -0.206 F 
ATOM     86  C   UNL A   1      43.921  36.912  32.897  1.00  0.00     0.040 A 
ATOM     87  C   UNL A   1      43.925  37.717  30.628  1.00  0.00     0.040 A 
ATOM     88  F   UNL A   1      43.331  36.283  28.871  1.00  0.00    -0.206 F 
ATOM     89  C   UNL A   1      44.122  37.949  31.987  1.00  0.00     0.006 A 
ENDBRANCH  65  82
ENDBRANCH  39  40
ENDBRANCH  32  34
ENDBRANCH  31  32
ENDBRANCH  30  31
ENDBRANCH   1  30
TORSDOF 17
ENDMDL
