MODEL 1
REMARK VINA RESULT:     -12.2      0.000      0.000
REMARK SMILES Cc1cc(S(F)(F)(F)(F)F)cc2c1O[C@H](C(F)(F)F)C(C(=O)OCCOC(=O)c1ccc(-c3c4nc(c(-c5c(F)cccc5F)c5ccc([nH]5)c(-c5c(F)cccc5F)c5nc(c(-c6c(F)cccc6F)c6ccc3[nH]6)C=C5)C=C4)cc1)=C2
REMARK SMILES IDX 25 1 24 2 23 3 21 4 22 5 20 6 1 7 2 8 3 9 13 10 4 11 12 12
REMARK SMILES IDX 14 13 11 14 83 15 15 16 5 17 6 18 7 19 8 20 9 21 10 22 16 23
REMARK SMILES IDX 17 24 18 25 19 26 26 27 27 28 28 29 29 30 30 31 82 32 31 33
REMARK SMILES IDX 81 34 32 35 33 36 34 37 75 38 35 39 80 40 74 41 76 42 36 43
REMARK SMILES IDX 79 44 73 45 72 46 37 48 63 49 46 50 62 51 47 52 50 53 61 54
REMARK SMILES IDX 77 55 48 56 49 57 60 59 78 60 51 61 38 62 39 63 44 64 40 65
REMARK SMILES IDX 41 66 43 67 45 68 42 69 64 70 65 71 70 72 66 73 67 74 69 75
REMARK SMILES IDX 71 76 68 77 52 78 53 79 58 80 54 81 55 82 57 83 59 84 56 85
REMARK H PARENT 76 47 50 58
REMARK Flexibility Score: inf
ROOT
ATOM      1  C   UNL A   1      37.401  21.835  24.793  1.00  0.00     0.275 C 
ENDROOT
BRANCH   1   2
ATOM      2  C   UNL A   1      36.238  20.883  25.018  1.00  0.00     0.275 C 
BRANCH   2   3
ATOM      3  O   UNL A   1      35.061  21.428  24.439  1.00  0.00    -0.459 OA
BRANCH   3   4
ATOM      4  C   UNL A   1      34.252  22.323  25.187  1.00  0.00     0.338 C 
ATOM      5  O   UNL A   1      33.649  21.916  26.230  1.00  0.00    -0.246 OA
BRANCH   4   6
ATOM      6  C   UNL A   1      34.103  23.768  24.740  1.00  0.00     0.087 C 
ATOM      7  C   UNL A   1      33.765  28.153  22.008  1.00  0.00     0.048 C 
ATOM      8  C   UNL A   1      33.697  27.733  23.467  1.00  0.00    -0.007 A 
ATOM      9  C   UNL A   1      33.666  28.731  24.417  1.00  0.00     0.031 A 
ATOM     10  C   UNL A   1      33.832  26.406  23.872  1.00  0.00     0.130 A 
ATOM     11  C   UNL A   1      33.772  28.427  25.769  1.00  0.00     0.108 A 
ATOM     12  C   UNL A   1      33.934  26.102  25.249  1.00  0.00     0.019 A 
ATOM     13  O   UNL A   1      33.872  25.299  22.909  1.00  0.00    -0.475 OA
ATOM     14  C   UNL A   1      33.898  27.134  26.188  1.00  0.00     0.036 A 
ATOM     15  C   UNL A   1      34.075  24.700  25.645  1.00  0.00     0.027 C 
ATOM     16  C   UNL A   1      34.005  24.039  23.375  1.00  0.00     0.316 C 
BRANCH  11  17
ATOM     17  S   UNL A   1      33.743  29.764  26.989  1.00  0.00     0.310 S 
ATOM     18  F   UNL A   1      34.005  28.758  28.187  1.00  0.00    -0.094 F 
ATOM     19  F   UNL A   1      32.203  29.504  27.198  1.00  0.00    -0.094 F 
ATOM     20  F   UNL A   1      33.720  30.911  28.038  1.00  0.00    -0.094 F 
ATOM     21  F   UNL A   1      35.310  29.915  26.868  1.00  0.00    -0.094 F 
ATOM     22  F   UNL A   1      33.801  28.527  26.007  1.00  0.00    -0.094 F 
ENDBRANCH  11  17
BRANCH  16  23
ATOM     23  C   UNL A   1      32.663  23.420  23.019  1.00  0.00     0.430 C 
ATOM     24  F   UNL A   1      32.859  22.228  22.464  1.00  0.00    -0.167 F 
ATOM     25  F   UNL A   1      31.933  23.280  24.123  1.00  0.00    -0.167 F 
ATOM     26  F   UNL A   1      32.023  24.210  22.162  1.00  0.00    -0.167 F 
ENDBRANCH  16  23
ENDBRANCH   4   6
ENDBRANCH   3   4
ENDBRANCH   2   3
ENDBRANCH   1   2
BRANCH   1  27
ATOM     27  O   UNL A   1      37.774  22.426  26.029  1.00  0.00    -0.458 OA
BRANCH  27  28
ATOM     28  C   UNL A   1      39.146  22.632  26.332  1.00  0.00     0.338 C 
ATOM     29  O   UNL A   1      39.984  21.694  26.151  1.00  0.00    -0.246 OA
BRANCH  28  30
ATOM     30  C   UNL A   1      39.612  23.974  26.871  1.00  0.00     0.060 A 
ATOM     31  C   UNL A   1      40.472  24.787  26.138  1.00  0.00     0.016 A 
ATOM     32  C   UNL A   1      39.187  24.408  28.037  1.00  0.00     0.016 A 
ATOM     33  C   UNL A   1      40.428  26.170  26.423  1.00  0.00     0.010 A 
ATOM     34  C   UNL A   1      39.595  25.652  28.533  1.00  0.00     0.010 A 
ATOM     35  C   UNL A   1      40.201  26.520  27.753  1.00  0.00    -0.014 A 
BRANCH  35  36
ATOM     36  C   UNL A   1      40.643  27.873  28.287  1.00  0.00     0.031 A 
ATOM     37  C   UNL A   1      42.016  28.124  28.301  1.00  0.00     0.074 A 
ATOM     38  C   UNL A   1      39.683  28.794  28.671  1.00  0.00     0.049 A 
ATOM     39  N   UNL A   1      42.632  29.259  28.637  1.00  0.00    -0.248 NA
ATOM     40  C   UNL A   1      43.038  27.136  27.926  1.00  0.00     0.031 C 
ATOM     41  C   UNL A   1      38.296  28.551  28.652  1.00  0.00     0.029 A 
ATOM     42  N   UNL A   1      39.880  30.078  29.129  1.00  0.00    -0.354 N 
ATOM     43  C   UNL A   1      43.953  29.122  28.505  1.00  0.00     0.074 A 
ATOM     44  C   UNL A   1      44.234  27.753  28.052  1.00  0.00     0.031 C 
ATOM     45  C   UNL A   1      37.667  29.667  29.104  1.00  0.00     0.029 A 
ATOM     46  C   UNL A   1      38.649  30.628  29.412  1.00  0.00     0.049 A 
ATOM     47  H   UNL A   1      40.750  30.526  29.236  1.00  0.00     0.167 HD
ATOM     48  C   UNL A   1      44.934  30.086  28.743  1.00  0.00     0.037 A 
ATOM     49  C   UNL A   1      38.378  31.891  29.910  1.00  0.00     0.037 A 
ATOM     50  C   UNL A   1      44.660  31.364  29.202  1.00  0.00     0.049 A 
ATOM     51  C   UNL A   1      39.364  32.837  30.205  1.00  0.00     0.074 A 
ATOM     52  C   UNL A   1      45.637  32.350  29.441  1.00  0.00     0.029 A 
ATOM     53  N   UNL A   1      43.431  31.906  29.508  1.00  0.00    -0.354 N 
ATOM     54  N   UNL A   1      40.681  32.713  30.037  1.00  0.00    -0.248 NA
ATOM     55  C   UNL A   1      39.091  34.166  30.765  1.00  0.00     0.031 C 
ATOM     56  C   UNL A   1      45.006  33.467  29.892  1.00  0.00     0.029 A 
ATOM     57  C   UNL A   1      43.625  33.197  29.944  1.00  0.00     0.049 A 
ATOM     58  H   UNL A   1      42.563  31.448  29.427  1.00  0.00     0.167 HD
ATOM     59  C   UNL A   1      41.300  33.834  30.412  1.00  0.00     0.074 A 
ATOM     60  C   UNL A   1      40.286  34.783  30.893  1.00  0.00     0.031 C 
ATOM     61  C   UNL A   1      42.668  34.105  30.370  1.00  0.00     0.037 A 
BRANCH  48  62
ATOM     62  C   UNL A   1      46.384  29.712  28.486  1.00  0.00     0.057 A 
ATOM     63  C   UNL A   1      46.904  29.904  27.291  1.00  0.00     0.134 A 
ATOM     64  C   UNL A   1      47.152  29.167  29.521  1.00  0.00     0.134 A 
ATOM     65  F   UNL A   1      46.172  30.413  26.304  1.00  0.00    -0.206 F 
ATOM     66  C   UNL A   1      48.236  29.562  27.088  1.00  0.00     0.040 A 
ATOM     67  C   UNL A   1      48.461  29.071  29.410  1.00  0.00     0.040 A 
ATOM     68  F   UNL A   1      46.554  28.742  30.629  1.00  0.00    -0.206 F 
ATOM     69  C   UNL A   1      49.060  29.521  28.234  1.00  0.00     0.006 A 
ENDBRANCH  48  62
BRANCH  49  70
ATOM     70  C   UNL A   1      36.926  32.270  30.153  1.00  0.00     0.057 A 
ATOM     71  C   UNL A   1      36.360  31.977  31.303  1.00  0.00     0.134 A 
ATOM     72  C   UNL A   1      36.206  32.926  29.148  1.00  0.00     0.134 A 
ATOM     73  F   UNL A   1      37.041  31.346  32.255  1.00  0.00    -0.206 F 
ATOM     74  C   UNL A   1      35.034  32.344  31.500  1.00  0.00     0.040 A 
ATOM     75  C   UNL A   1      35.045  33.488  29.409  1.00  0.00     0.040 A 
ATOM     76  F   UNL A   1      36.701  32.983  27.915  1.00  0.00    -0.206 F 
ATOM     77  C   UNL A   1      34.550  33.410  30.709  1.00  0.00     0.006 A 
ENDBRANCH  49  70
BRANCH  61  78
ATOM     78  C   UNL A   1      43.138  35.480  30.817  1.00  0.00     0.057 A 
ATOM     79  C   UNL A   1      43.405  35.691  32.088  1.00  0.00     0.134 A 
ATOM     80  C   UNL A   1      43.257  36.512  29.879  1.00  0.00     0.134 A 
ATOM     81  F   UNL A   1      43.284  34.713  32.981  1.00  0.00    -0.206 F 
ATOM     82  C   UNL A   1      43.817  36.962  32.474  1.00  0.00     0.040 A 
ATOM     83  C   UNL A   1      43.872  37.634  30.187  1.00  0.00     0.040 A 
ATOM     84  F   UNL A   1      42.743  36.356  28.663  1.00  0.00    -0.206 F 
ATOM     85  C   UNL A   1      44.399  37.769  31.471  1.00  0.00     0.006 A 
ENDBRANCH  61  78
ENDBRANCH  35  36
ENDBRANCH  28  30
ENDBRANCH  27  28
ENDBRANCH   1  27
TORSDOF 13
ENDMDL
MODEL 2
REMARK VINA RESULT:     -12.2      2.211      3.408
REMARK SMILES Cc1cc(S(F)(F)(F)(F)F)cc2c1O[C@H](C(F)(F)F)C(C(=O)OCCOC(=O)c1ccc(-c3c4nc(c(-c5c(F)cccc5F)c5ccc([nH]5)c(-c5c(F)cccc5F)c5nc(c(-c6c(F)cccc6F)c6ccc3[nH]6)C=C5)C=C4)cc1)=C2
REMARK SMILES IDX 25 1 24 2 23 3 21 4 22 5 20 6 1 7 2 8 3 9 13 10 4 11 12 12
REMARK SMILES IDX 14 13 11 14 83 15 15 16 5 17 6 18 7 19 8 20 9 21 10 22 16 23
REMARK SMILES IDX 17 24 18 25 19 26 26 27 27 28 28 29 29 30 30 31 82 32 31 33
REMARK SMILES IDX 81 34 32 35 33 36 34 37 75 38 35 39 80 40 74 41 76 42 36 43
REMARK SMILES IDX 79 44 73 45 72 46 37 48 63 49 46 50 62 51 47 52 50 53 61 54
REMARK SMILES IDX 77 55 48 56 49 57 60 59 78 60 51 61 38 62 39 63 44 64 40 65
REMARK SMILES IDX 41 66 43 67 45 68 42 69 64 70 65 71 70 72 66 73 67 74 69 75
REMARK SMILES IDX 71 76 68 77 52 78 53 79 58 80 54 81 55 82 57 83 59 84 56 85
REMARK H PARENT 76 47 50 58
REMARK Flexibility Score: inf
ROOT
ATOM      1  C   UNL A   1      38.480  19.809  24.821  1.00  0.00     0.275 C 
ENDROOT
BRANCH   1   2
ATOM      2  C   UNL A   1      37.706  20.999  25.364  1.00  0.00     0.275 C 
BRANCH   2   3
ATOM      3  O   UNL A   1      36.351  20.911  24.951  1.00  0.00    -0.459 OA
BRANCH   3   4
ATOM      4  C   UNL A   1      35.352  21.661  25.626  1.00  0.00     0.338 C 
ATOM      5  O   UNL A   1      34.929  21.279  26.763  1.00  0.00    -0.246 OA
BRANCH   4   6
ATOM      6  C   UNL A   1      34.788  22.921  24.990  1.00  0.00     0.087 C 
ATOM      7  C   UNL A   1      32.965  26.487  21.709  1.00  0.00     0.048 C 
ATOM      8  C   UNL A   1      33.235  26.370  23.200  1.00  0.00    -0.007 A 
ATOM      9  C   UNL A   1      33.113  27.511  23.962  1.00  0.00     0.031 A 
ATOM     10  C   UNL A   1      33.750  25.211  23.779  1.00  0.00     0.130 A 
ATOM     11  C   UNL A   1      33.503  27.518  25.296  1.00  0.00     0.108 A 
ATOM     12  C   UNL A   1      34.140  25.221  25.138  1.00  0.00     0.019 A 
ATOM     13  O   UNL A   1      33.905  23.964  23.020  1.00  0.00    -0.475 OA
ATOM     14  C   UNL A   1      34.005  26.393  25.885  1.00  0.00     0.036 A 
ATOM     15  C   UNL A   1      34.678  23.991  25.719  1.00  0.00     0.027 C 
ATOM     16  C   UNL A   1      34.412  22.882  23.647  1.00  0.00     0.316 C 
BRANCH  11  17
ATOM     17  S   UNL A   1      33.344  29.039  26.264  1.00  0.00     0.310 S 
ATOM     18  F   UNL A   1      33.561  28.264  27.631  1.00  0.00    -0.094 F 
ATOM     19  F   UNL A   1      31.804  28.747  26.423  1.00  0.00    -0.094 F 
ATOM     20  F   UNL A   1      33.210  30.345  27.097  1.00  0.00    -0.094 F 
ATOM     21  F   UNL A   1      34.909  29.241  26.214  1.00  0.00    -0.094 F 
ATOM     22  F   UNL A   1      33.512  27.658  25.515  1.00  0.00    -0.094 F 
ENDBRANCH  11  17
BRANCH  16  23
ATOM     23  C   UNL A   1      33.221  21.937  23.674  1.00  0.00     0.430 C 
ATOM     24  F   UNL A   1      32.425  22.258  24.689  1.00  0.00    -0.167 F 
ATOM     25  F   UNL A   1      32.547  22.040  22.532  1.00  0.00    -0.167 F 
ATOM     26  F   UNL A   1      33.650  20.687  23.824  1.00  0.00    -0.167 F 
ENDBRANCH  16  23
ENDBRANCH   4   6
ENDBRANCH   3   4
ENDBRANCH   2   3
ENDBRANCH   1   2
BRANCH   1  27
ATOM     27  O   UNL A   1      39.287  19.258  25.850  1.00  0.00    -0.458 OA
BRANCH  27  28
ATOM     28  C   UNL A   1      40.653  19.630  25.958  1.00  0.00     0.338 C 
ATOM     29  O   UNL A   1      41.562  18.823  25.586  1.00  0.00    -0.246 OA
BRANCH  28  30
ATOM     30  C   UNL A   1      41.028  20.992  26.519  1.00  0.00     0.060 A 
ATOM     31  C   UNL A   1      40.780  21.318  27.848  1.00  0.00     0.016 A 
ATOM     32  C   UNL A   1      41.624  21.884  25.758  1.00  0.00     0.016 A 
ATOM     33  C   UNL A   1      41.600  22.319  28.416  1.00  0.00     0.010 A 
ATOM     34  C   UNL A   1      41.992  23.133  26.272  1.00  0.00     0.010 A 
ATOM     35  C   UNL A   1      41.985  23.356  27.568  1.00  0.00    -0.014 A 
BRANCH  35  36
ATOM     36  C   UNL A   1      42.387  24.711  28.128  1.00  0.00     0.031 A 
ATOM     37  C   UNL A   1      43.750  24.920  28.346  1.00  0.00     0.074 A 
ATOM     38  C   UNL A   1      41.413  25.673  28.336  1.00  0.00     0.049 A 
ATOM     39  N   UNL A   1      44.347  26.045  28.742  1.00  0.00    -0.248 NA
ATOM     40  C   UNL A   1      44.782  23.889  28.159  1.00  0.00     0.031 C 
ATOM     41  C   UNL A   1      40.037  25.472  28.110  1.00  0.00     0.029 A 
ATOM     42  N   UNL A   1      41.583  26.964  28.784  1.00  0.00    -0.354 N 
ATOM     43  C   UNL A   1      45.667  25.864  28.819  1.00  0.00     0.074 A 
ATOM     44  C   UNL A   1      45.965  24.473  28.451  1.00  0.00     0.031 C 
ATOM     45  C   UNL A   1      39.386  26.620  28.430  1.00  0.00     0.029 A 
ATOM     46  C   UNL A   1      40.343  27.560  28.860  1.00  0.00     0.049 A 
ATOM     47  H   UNL A   1      42.441  27.388  29.012  1.00  0.00     0.167 HD
ATOM     48  C   UNL A   1      46.633  26.804  29.180  1.00  0.00     0.037 A 
ATOM     49  C   UNL A   1      40.043  28.846  29.277  1.00  0.00     0.037 A 
ATOM     50  C   UNL A   1      46.338  28.104  29.557  1.00  0.00     0.049 A 
ATOM     51  C   UNL A   1      41.005  29.770  29.695  1.00  0.00     0.074 A 
ATOM     52  C   UNL A   1      47.300  29.067  29.916  1.00  0.00     0.029 A 
ATOM     53  N   UNL A   1      45.096  28.693  29.655  1.00  0.00    -0.354 N 
ATOM     54  N   UNL A   1      42.327  29.600  29.734  1.00  0.00    -0.248 NA
ATOM     55  C   UNL A   1      40.697  31.124  30.171  1.00  0.00     0.031 C 
ATOM     56  C   UNL A   1      46.648  30.217  30.235  1.00  0.00     0.029 A 
ATOM     57  C   UNL A   1      45.267  29.991  30.082  1.00  0.00     0.049 A 
ATOM     58  H   UNL A   1      44.235  28.260  29.455  1.00  0.00     0.167 HD
ATOM     59  C   UNL A   1      42.921  30.713  30.170  1.00  0.00     0.074 A 
ATOM     60  C   UNL A   1      41.880  31.707  30.465  1.00  0.00     0.031 C 
ATOM     61  C   UNL A   1      44.289  30.941  30.332  1.00  0.00     0.037 A 
BRANCH  48  62
ATOM     62  C   UNL A   1      48.092  26.378  29.158  1.00  0.00     0.057 A 
ATOM     63  C   UNL A   1      48.628  25.839  30.233  1.00  0.00     0.134 A 
ATOM     64  C   UNL A   1      48.849  26.562  27.996  1.00  0.00     0.134 A 
ATOM     65  F   UNL A   1      47.912  25.672  31.341  1.00  0.00    -0.206 F 
ATOM     66  C   UNL A   1      49.962  25.449  30.181  1.00  0.00     0.040 A 
ATOM     67  C   UNL A   1      50.023  25.982  27.858  1.00  0.00     0.040 A 
ATOM     68  F   UNL A   1      48.378  27.332  27.020  1.00  0.00    -0.206 F 
ATOM     69  C   UNL A   1      50.493  25.183  28.900  1.00  0.00     0.006 A 
ENDBRANCH  48  62
BRANCH  49  70
ATOM     70  C   UNL A   1      38.586  29.277  29.283  1.00  0.00     0.057 A 
ATOM     71  C   UNL A   1      37.853  29.079  30.357  1.00  0.00     0.134 A 
ATOM     72  C   UNL A   1      38.038  29.879  28.144  1.00  0.00     0.134 A 
ATOM     73  F   UNL A   1      38.371  28.499  31.437  1.00  0.00    -0.206 F 
ATOM     74  C   UNL A   1      36.526  29.492  30.338  1.00  0.00     0.040 A 
ATOM     75  C   UNL A   1      36.872  30.486  28.199  1.00  0.00     0.040 A 
ATOM     76  F   UNL A   1      38.704  29.836  26.994  1.00  0.00    -0.206 F 
ATOM     77  C   UNL A   1      36.196  30.511  29.417  1.00  0.00     0.006 A 
ENDBRANCH  49  70
BRANCH  61  78
ATOM     78  C   UNL A   1      44.733  32.313  30.809  1.00  0.00     0.057 A 
ATOM     79  C   UNL A   1      44.995  33.253  29.926  1.00  0.00     0.134 A 
ATOM     80  C   UNL A   1      44.882  32.557  32.180  1.00  0.00     0.134 A 
ATOM     81  F   UNL A   1      44.863  33.020  28.624  1.00  0.00    -0.206 F 
ATOM     82  C   UNL A   1      45.416  34.495  30.389  1.00  0.00     0.040 A 
ATOM     83  C   UNL A   1      45.040  33.782  32.633  1.00  0.00     0.040 A 
ATOM     84  F   UNL A   1      44.864  31.537  33.034  1.00  0.00    -0.206 F 
ATOM     85  C   UNL A   1      45.058  34.830  31.714  1.00  0.00     0.006 A 
ENDBRANCH  61  78
ENDBRANCH  35  36
ENDBRANCH  28  30
ENDBRANCH  27  28
ENDBRANCH   1  27
TORSDOF 13
ENDMDL
MODEL 3
REMARK VINA RESULT:     -12.1      0.921      6.181
REMARK SMILES Cc1cc(S(F)(F)(F)(F)F)cc2c1O[C@H](C(F)(F)F)C(C(=O)OCCOC(=O)c1ccc(-c3c4nc(c(-c5c(F)cccc5F)c5ccc([nH]5)c(-c5c(F)cccc5F)c5nc(c(-c6c(F)cccc6F)c6ccc3[nH]6)C=C5)C=C4)cc1)=C2
REMARK SMILES IDX 25 1 24 2 23 3 21 4 22 5 20 6 1 7 2 8 3 9 13 10 4 11 12 12
REMARK SMILES IDX 14 13 11 14 83 15 15 16 5 17 6 18 7 19 8 20 9 21 10 22 16 23
REMARK SMILES IDX 17 24 18 25 19 26 26 27 27 28 28 29 29 30 30 31 82 32 31 33
REMARK SMILES IDX 81 34 32 35 33 36 34 37 75 38 35 39 80 40 74 41 76 42 36 43
REMARK SMILES IDX 79 44 73 45 72 46 37 48 63 49 46 50 62 51 47 52 50 53 61 54
REMARK SMILES IDX 77 55 48 56 49 57 60 59 78 60 51 61 38 62 39 63 44 64 40 65
REMARK SMILES IDX 41 66 43 67 45 68 42 69 64 70 65 71 70 72 66 73 67 74 69 75
REMARK SMILES IDX 71 76 68 77 52 78 53 79 58 80 54 81 55 82 57 83 59 84 56 85
REMARK H PARENT 76 47 50 58
REMARK Flexibility Score: inf
ROOT
ATOM      1  C   UNL A   1      37.419  21.726  24.778  1.00  0.00     0.275 C 
ENDROOT
BRANCH   1   2
ATOM      2  C   UNL A   1      36.168  21.002  25.248  1.00  0.00     0.275 C 
BRANCH   2   3
ATOM      3  O   UNL A   1      35.034  21.533  24.578  1.00  0.00    -0.459 OA
BRANCH   3   4
ATOM      4  C   UNL A   1      34.161  22.424  25.255  1.00  0.00     0.338 C 
ATOM      5  O   UNL A   1      33.479  22.016  26.247  1.00  0.00    -0.246 OA
BRANCH   4   6
ATOM      6  C   UNL A   1      34.041  23.868  24.794  1.00  0.00     0.087 C 
ATOM      7  C   UNL A   1      33.813  28.233  22.020  1.00  0.00     0.048 C 
ATOM      8  C   UNL A   1      33.714  27.827  23.481  1.00  0.00    -0.007 A 
ATOM      9  C   UNL A   1      33.679  28.834  24.422  1.00  0.00     0.031 A 
ATOM     10  C   UNL A   1      33.823  26.502  23.900  1.00  0.00     0.130 A 
ATOM     11  C   UNL A   1      33.756  28.540  25.778  1.00  0.00     0.108 A 
ATOM     12  C   UNL A   1      33.895  26.208  25.280  1.00  0.00     0.019 A 
ATOM     13  O   UNL A   1      33.865  25.386  22.947  1.00  0.00    -0.475 OA
ATOM     14  C   UNL A   1      33.857  27.248  26.210  1.00  0.00     0.036 A 
ATOM     15  C   UNL A   1      34.009  24.808  25.690  1.00  0.00     0.027 C 
ATOM     16  C   UNL A   1      33.971  24.129  23.425  1.00  0.00     0.316 C 
BRANCH  11  17
ATOM     17  S   UNL A   1      33.723  29.887  26.986  1.00  0.00     0.310 S 
ATOM     18  F   UNL A   1      33.923  28.884  28.200  1.00  0.00    -0.094 F 
ATOM     19  F   UNL A   1      32.172  29.667  27.150  1.00  0.00    -0.094 F 
ATOM     20  F   UNL A   1      33.698  31.043  28.026  1.00  0.00    -0.094 F 
ATOM     21  F   UNL A   1      35.297  29.997  26.913  1.00  0.00    -0.094 F 
ATOM     22  F   UNL A   1      33.780  28.640  26.016  1.00  0.00    -0.094 F 
ENDBRANCH  11  17
BRANCH  16  23
ATOM     23  C   UNL A   1      32.628  23.525  23.050  1.00  0.00     0.430 C 
ATOM     24  F   UNL A   1      31.848  23.478  24.126  1.00  0.00    -0.167 F 
ATOM     25  F   UNL A   1      32.050  24.276  22.117  1.00  0.00    -0.167 F 
ATOM     26  F   UNL A   1      32.810  22.295  22.579  1.00  0.00    -0.167 F 
ENDBRANCH  16  23
ENDBRANCH   4   6
ENDBRANCH   3   4
ENDBRANCH   2   3
ENDBRANCH   1   2
BRANCH   1  27
ATOM     27  O   UNL A   1      37.731  22.771  25.688  1.00  0.00    -0.458 OA
BRANCH  27  28
ATOM     28  C   UNL A   1      39.018  22.834  26.283  1.00  0.00     0.338 C 
ATOM     29  O   UNL A   1      39.769  21.807  26.282  1.00  0.00    -0.246 OA
BRANCH  28  30
ATOM     30  C   UNL A   1      39.499  24.127  26.920  1.00  0.00     0.060 A 
ATOM     31  C   UNL A   1      40.423  24.946  26.278  1.00  0.00     0.016 A 
ATOM     32  C   UNL A   1      39.027  24.512  28.085  1.00  0.00     0.016 A 
ATOM     33  C   UNL A   1      40.410  26.313  26.636  1.00  0.00     0.010 A 
ATOM     34  C   UNL A   1      39.450  25.712  28.669  1.00  0.00     0.010 A 
ATOM     35  C   UNL A   1      40.124  26.599  27.971  1.00  0.00    -0.014 A 
BRANCH  35  36
ATOM     36  C   UNL A   1      40.581  27.904  28.602  1.00  0.00     0.031 A 
ATOM     37  C   UNL A   1      39.594  28.856  28.859  1.00  0.00     0.074 A 
ATOM     38  C   UNL A   1      41.915  28.061  28.939  1.00  0.00     0.049 A 
ATOM     39  N   UNL A   1      39.735  30.027  29.481  1.00  0.00    -0.248 NA
ATOM     40  C   UNL A   1      38.184  28.706  28.470  1.00  0.00     0.031 C 
ATOM     41  C   UNL A   1      42.915  27.102  28.691  1.00  0.00     0.029 A 
ATOM     42  N   UNL A   1      42.508  29.139  29.559  1.00  0.00    -0.354 N 
ATOM     43  C   UNL A   1      38.559  30.654  29.556  1.00  0.00     0.074 A 
ATOM     44  C   UNL A   1      37.546  29.816  28.901  1.00  0.00     0.031 C 
ATOM     45  C   UNL A   1      44.097  27.598  29.143  1.00  0.00     0.029 A 
ATOM     46  C   UNL A   1      43.855  28.876  29.682  1.00  0.00     0.049 A 
ATOM     47  H   UNL A   1      42.050  29.956  29.861  1.00  0.00     0.167 HD
ATOM     48  C   UNL A   1      38.293  31.891  30.146  1.00  0.00     0.037 A 
ATOM     49  C   UNL A   1      44.832  29.691  30.230  1.00  0.00     0.037 A 
ATOM     50  C   UNL A   1      39.263  32.688  30.731  1.00  0.00     0.049 A 
ATOM     51  C   UNL A   1      44.575  30.955  30.768  1.00  0.00     0.074 A 
ATOM     52  C   UNL A   1      39.010  33.934  31.337  1.00  0.00     0.029 A 
ATOM     53  N   UNL A   1      40.613  32.437  30.834  1.00  0.00    -0.354 N 
ATOM     54  N   UNL A   1      43.394  31.564  30.877  1.00  0.00    -0.248 NA
ATOM     55  C   UNL A   1      45.607  31.842  31.320  1.00  0.00     0.031 C 
ATOM     56  C   UNL A   1      40.192  34.430  31.790  1.00  0.00     0.029 A 
ATOM     57  C   UNL A   1      41.203  33.503  31.474  1.00  0.00     0.049 A 
ATOM     58  H   UNL A   1      41.076  31.632  30.506  1.00  0.00     0.167 HD
ATOM     59  C   UNL A   1      43.542  32.754  31.463  1.00  0.00     0.074 A 
ATOM     60  C   UNL A   1      44.970  32.953  31.750  1.00  0.00     0.031 C 
ATOM     61  C   UNL A   1      42.546  33.681  31.773  1.00  0.00     0.037 A 
BRANCH  48  62
ATOM     62  C   UNL A   1      36.858  32.391  30.145  1.00  0.00     0.057 A 
ATOM     63  C   UNL A   1      36.055  32.067  31.137  1.00  0.00     0.134 A 
ATOM     64  C   UNL A   1      36.405  33.191  29.091  1.00  0.00     0.134 A 
ATOM     65  F   UNL A   1      36.482  31.299  32.136  1.00  0.00    -0.206 F 
ATOM     66  C   UNL A   1      34.751  32.547  31.115  1.00  0.00     0.040 A 
ATOM     67  C   UNL A   1      35.265  33.844  29.181  1.00  0.00     0.040 A 
ATOM     68  F   UNL A   1      37.134  33.294  27.984  1.00  0.00    -0.206 F 
ATOM     69  C   UNL A   1      34.519  33.714  30.353  1.00  0.00     0.006 A 
ENDBRANCH  48  62
BRANCH  49  70
ATOM     70  C   UNL A   1      46.264  29.183  30.245  1.00  0.00     0.057 A 
ATOM     71  C   UNL A   1      47.052  29.428  29.221  1.00  0.00     0.134 A 
ATOM     72  C   UNL A   1      46.729  28.459  31.348  1.00  0.00     0.134 A 
ATOM     73  F   UNL A   1      46.608  30.109  28.168  1.00  0.00    -0.206 F 
ATOM     74  C   UNL A   1      48.360  28.960  29.266  1.00  0.00     0.040 A 
ATOM     75  C   UNL A   1      48.015  28.227  31.508  1.00  0.00     0.040 A 
ATOM     76  F   UNL A   1      45.862  28.000  32.246  1.00  0.00    -0.206 F 
ATOM     77  C   UNL A   1      48.899  28.716  30.549  1.00  0.00     0.006 A 
ENDBRANCH  49  70
BRANCH  61  78
ATOM     78  C   UNL A   1      42.955  34.961  32.482  1.00  0.00     0.057 A 
ATOM     79  C   UNL A   1      43.381  35.985  31.774  1.00  0.00     0.134 A 
ATOM     80  C   UNL A   1      42.900  35.029  33.879  1.00  0.00     0.134 A 
ATOM     81  F   UNL A   1      43.443  35.918  30.447  1.00  0.00    -0.206 F 
ATOM     82  C   UNL A   1      43.766  37.139  32.448  1.00  0.00     0.040 A 
ATOM     83  C   UNL A   1      43.026  36.181  34.502  1.00  0.00     0.040 A 
ATOM     84  F   UNL A   1      42.717  33.916  34.584  1.00  0.00    -0.206 F 
ATOM     85  C   UNL A   1      43.219  37.330  33.737  1.00  0.00     0.006 A 
ENDBRANCH  61  78
ENDBRANCH  35  36
ENDBRANCH  28  30
ENDBRANCH  27  28
ENDBRANCH   1  27
TORSDOF 13
ENDMDL
