MODEL 1
REMARK VINA RESULT:     -11.4      0.000      0.000
REMARK SMILES CC1(C)C(n2c(SCC(=O)OCCOC(=O)c3ccc(-c4c5nc(c(-c6c(F)cccc6F)c6ccc([nH]6)c(-c6c(F)cccc6F)c6nc(c(-c7c(F)cccc7F)c7ccc4[nH]7)C=C6)C=C5)cc3)nc3cnccc32)C1(C)C
REMARK SMILES IDX 12 1 11 2 9 3 10 4 8 5 7 6 6 7 5 8 77 9 71 10 72 11 76 12
REMARK SMILES IDX 73 13 75 14 74 15 4 16 1 17 2 18 3 19 78 20 79 21 80 22
REMARK SMILES IDX 13 23 14 24 15 25 16 26 17 27 18 28 70 29 19 30 69 31 20 32
REMARK SMILES IDX 21 33 22 34 63 35 23 36 68 37 62 38 64 39 24 40 67 41 61 42
REMARK SMILES IDX 60 43 25 45 51 46 34 47 50 48 35 49 38 50 49 51 65 52 36 53
REMARK SMILES IDX 37 54 48 56 66 57 39 58 26 59 27 60 32 61 28 62 29 63 31 64
REMARK SMILES IDX 33 65 30 66 52 67 53 68 58 69 54 70 55 71 57 72 59 73 56 74
REMARK SMILES IDX 40 75 41 76 46 77 42 78 43 79 45 80 47 81 44 82
REMARK H PARENT 64 44 38 55
REMARK Flexibility Score: inf
ROOT
ATOM      1  C   UNL A   1      40.828  21.223  27.163  1.00  0.00     0.274 C 
ENDROOT
BRANCH   1   2
ATOM      2  O   UNL A   1      39.912  20.887  26.099  1.00  0.00    -0.461 OA
BRANCH   2   3
ATOM      3  C   UNL A   1      38.841  21.692  25.888  1.00  0.00     0.316 C 
ATOM      4  O   UNL A   1      38.791  22.874  26.216  1.00  0.00    -0.251 OA
BRANCH   3   5
ATOM      5  C   UNL A   1      37.728  21.021  25.118  1.00  0.00     0.200 C 
BRANCH   5   6
ATOM      6  S   UNL A   1      36.370  22.038  24.625  1.00  0.00    -0.076 SA
BRANCH   6   7
ATOM      7  C   UNL A   1      34.887  21.186  25.046  1.00  0.00     0.169 A 
ATOM      8  N   UNL A   1      33.554  21.413  24.637  1.00  0.00    -0.315 N 
ATOM      9  C   UNL A   1      33.178  20.188  24.076  1.00  0.00     0.072 A 
ATOM     10  N   UNL A   1      35.059  19.911  25.329  1.00  0.00    -0.221 NA
ATOM     11  C   UNL A   1      34.139  19.284  24.544  1.00  0.00     0.108 A 
ATOM     12  C   UNL A   1      32.185  19.754  23.197  1.00  0.00     0.049 A 
ATOM     13  C   UNL A   1      34.122  17.953  24.113  1.00  0.00     0.141 A 
ATOM     14  C   UNL A   1      32.262  18.419  22.805  1.00  0.00     0.113 A 
ATOM     15  N   UNL A   1      33.181  17.528  23.235  1.00  0.00    -0.262 NA
BRANCH   8  16
ATOM     16  C   UNL A   1      32.971  22.755  24.291  1.00  0.00     0.102 C 
ATOM     17  C   UNL A   1      30.252  25.005  23.404  1.00  0.00     0.014 C 
ATOM     18  C   UNL A   1      31.501  23.657  24.623  1.00  0.00    -0.007 C 
ATOM     19  C   UNL A   1      30.758  22.504  25.822  1.00  0.00     0.014 C 
ATOM     20  C   UNL A   1      33.045  23.875  25.354  1.00  0.00    -0.007 C 
ATOM     21  C   UNL A   1      34.082  24.985  25.246  1.00  0.00     0.014 C 
ATOM     22  C   UNL A   1      33.191  23.514  26.870  1.00  0.00     0.014 C 
ENDBRANCH   8  16
ENDBRANCH   6   7
ENDBRANCH   5   6
ENDBRANCH   3   5
ENDBRANCH   2   3
ENDBRANCH   1   2
BRANCH   1  23
ATOM     23  C   UNL A   1      42.267  21.185  26.599  1.00  0.00     0.275 C 
BRANCH  23  24
ATOM     24  O   UNL A   1      42.296  21.878  25.326  1.00  0.00    -0.458 OA
BRANCH  24  25
ATOM     25  C   UNL A   1      43.270  22.783  25.034  1.00  0.00     0.338 C 
ATOM     26  O   UNL A   1      43.973  22.832  24.047  1.00  0.00    -0.246 OA
BRANCH  25  27
ATOM     27  C   UNL A   1      43.086  23.881  26.018  1.00  0.00     0.060 A 
ATOM     28  C   UNL A   1      43.901  24.162  27.614  1.00  0.00     0.016 A 
ATOM     29  C   UNL A   1      41.884  25.072  25.430  1.00  0.00     0.016 A 
ATOM     30  C   UNL A   1      43.508  25.713  28.555  1.00  0.00     0.010 A 
ATOM     31  C   UNL A   1      41.492  26.524  26.345  1.00  0.00     0.010 A 
ATOM     32  C   UNL A   1      42.326  26.931  27.839  1.00  0.00    -0.014 A 
BRANCH  32  33
ATOM     33  C   UNL A   1      41.869  28.214  28.454  1.00  0.00     0.031 A 
ATOM     34  C   UNL A   1      42.854  29.252  28.146  1.00  0.00     0.074 A 
ATOM     35  C   UNL A   1      40.775  28.545  29.229  1.00  0.00     0.049 A 
ATOM     36  N   UNL A   1      43.872  29.469  28.907  1.00  0.00    -0.248 NA
ATOM     37  C   UNL A   1      42.931  29.891  26.829  1.00  0.00     0.031 C 
ATOM     38  C   UNL A   1      39.604  27.765  29.677  1.00  0.00     0.029 A 
ATOM     39  N   UNL A   1      40.445  29.772  29.789  1.00  0.00    -0.354 N 
ATOM     40  C   UNL A   1      44.546  30.509  28.313  1.00  0.00     0.074 A 
ATOM     41  C   UNL A   1      44.097  30.538  26.942  1.00  0.00     0.031 C 
ATOM     42  C   UNL A   1      38.603  28.548  30.128  1.00  0.00     0.029 A 
ATOM     43  C   UNL A   1      39.122  29.884  30.268  1.00  0.00     0.049 A 
ATOM     44  H   UNL A   1      41.090  30.514  29.849  1.00  0.00     0.167 HD
ATOM     45  C   UNL A   1      45.129  31.441  29.108  1.00  0.00     0.037 A 
ATOM     46  C   UNL A   1      38.500  30.866  30.983  1.00  0.00     0.037 A 
ATOM     47  C   UNL A   1      45.220  30.981  30.483  1.00  0.00     0.049 A 
ATOM     48  C   UNL A   1      39.554  31.593  31.709  1.00  0.00     0.074 A 
ATOM     49  C   UNL A   1      45.745  29.856  31.097  1.00  0.00     0.029 A 
ATOM     50  N   UNL A   1      44.338  31.516  31.393  1.00  0.00    -0.354 N 
ATOM     51  N   UNL A   1      40.210  31.084  32.711  1.00  0.00    -0.248 NA
ATOM     52  C   UNL A   1      40.217  32.657  30.982  1.00  0.00     0.031 C 
ATOM     53  C   UNL A   1      44.821  29.519  32.131  1.00  0.00     0.029 A 
ATOM     54  C   UNL A   1      43.838  30.504  32.176  1.00  0.00     0.049 A 
ATOM     55  H   UNL A   1      44.105  32.469  31.472  1.00  0.00     0.167 HD
ATOM     56  C   UNL A   1      41.529  31.374  32.415  1.00  0.00     0.074 A 
ATOM     57  C   UNL A   1      41.466  32.408  31.378  1.00  0.00     0.031 C 
ATOM     58  C   UNL A   1      42.538  30.544  32.810  1.00  0.00     0.037 A 
BRANCH  45  59
ATOM     59  C   UNL A   1      45.200  32.889  28.728  1.00  0.00     0.057 A 
ATOM     60  C   UNL A   1      44.077  33.738  28.631  1.00  0.00     0.134 A 
ATOM     61  C   UNL A   1      46.446  33.529  28.716  1.00  0.00     0.134 A 
ATOM     62  F   UNL A   1      42.822  33.291  28.757  1.00  0.00    -0.206 F 
ATOM     63  C   UNL A   1      44.184  35.122  28.513  1.00  0.00     0.040 A 
ATOM     64  C   UNL A   1      46.563  34.922  28.656  1.00  0.00     0.040 A 
ATOM     65  F   UNL A   1      47.579  32.824  28.845  1.00  0.00    -0.206 F 
ATOM     66  C   UNL A   1      45.431  35.721  28.551  1.00  0.00     0.006 A 
ENDBRANCH  45  59
BRANCH  46  67
ATOM     67  C   UNL A   1      37.098  31.372  30.919  1.00  0.00     0.057 A 
ATOM     68  C   UNL A   1      36.590  31.995  29.767  1.00  0.00     0.134 A 
ATOM     69  C   UNL A   1      36.324  31.535  32.085  1.00  0.00     0.134 A 
ATOM     70  F   UNL A   1      37.250  31.932  28.602  1.00  0.00    -0.206 F 
ATOM     71  C   UNL A   1      35.427  32.781  29.787  1.00  0.00     0.040 A 
ATOM     72  C   UNL A   1      35.160  32.319  32.118  1.00  0.00     0.040 A 
ATOM     73  F   UNL A   1      36.719  30.996  33.248  1.00  0.00    -0.206 F 
ATOM     74  C   UNL A   1      34.719  32.964  30.970  1.00  0.00     0.006 A 
ENDBRANCH  46  67
BRANCH  58  75
ATOM     75  C   UNL A   1      42.227  29.485  33.843  1.00  0.00     0.057 A 
ATOM     76  C   UNL A   1      42.465  29.788  35.190  1.00  0.00     0.134 A 
ATOM     77  C   UNL A   1      41.809  28.173  33.565  1.00  0.00     0.134 A 
ATOM     78  F   UNL A   1      42.906  31.007  35.539  1.00  0.00    -0.206 F 
ATOM     79  C   UNL A   1      42.291  28.846  36.210  1.00  0.00     0.040 A 
ATOM     80  C   UNL A   1      41.600  27.228  34.581  1.00  0.00     0.040 A 
ATOM     81  F   UNL A   1      41.636  27.748  32.307  1.00  0.00    -0.206 F 
ATOM     82  C   UNL A   1      41.846  27.564  35.908  1.00  0.00     0.006 A 
ENDBRANCH  58  75
ENDBRANCH  32  33
ENDBRANCH  25  27
ENDBRANCH  24  25
ENDBRANCH  23  24
ENDBRANCH   1  23
TORSDOF 14
ENDMDL
MODEL 2
REMARK VINA RESULT:     -11.1      4.219      8.745
REMARK SMILES CC1(C)C(n2c(SCC(=O)OCCOC(=O)c3ccc(-c4c5nc(c(-c6c(F)cccc6F)c6ccc([nH]6)c(-c6c(F)cccc6F)c6nc(c(-c7c(F)cccc7F)c7ccc4[nH]7)C=C6)C=C5)cc3)nc3cnccc32)C1(C)C
REMARK SMILES IDX 12 1 11 2 9 3 10 4 8 5 7 6 6 7 5 8 77 9 71 10 72 11 76 12
REMARK SMILES IDX 73 13 75 14 74 15 4 16 1 17 2 18 3 19 78 20 79 21 80 22
REMARK SMILES IDX 13 23 14 24 15 25 16 26 17 27 18 28 70 29 19 30 69 31 20 32
REMARK SMILES IDX 21 33 22 34 63 35 23 36 68 37 62 38 64 39 24 40 67 41 61 42
REMARK SMILES IDX 60 43 25 45 51 46 34 47 50 48 35 49 38 50 49 51 65 52 36 53
REMARK SMILES IDX 37 54 48 56 66 57 39 58 26 59 27 60 32 61 28 62 29 63 31 64
REMARK SMILES IDX 33 65 30 66 52 67 53 68 58 69 54 70 55 71 57 72 59 73 56 74
REMARK SMILES IDX 40 75 41 76 46 77 42 78 43 79 45 80 47 81 44 82
REMARK H PARENT 64 44 38 55
REMARK Flexibility Score: inf
ROOT
ATOM      1  C   UNL A   1      33.944  31.380  27.280  1.00  0.00     0.274 C 
ENDROOT
BRANCH   1   2
ATOM      2  O   UNL A   1      33.406  30.182  27.879  1.00  0.00    -0.461 OA
BRANCH   2   3
ATOM      3  C   UNL A   1      32.520  29.442  27.165  1.00  0.00     0.316 C 
ATOM      4  O   UNL A   1      31.879  28.501  27.624  1.00  0.00    -0.251 OA
BRANCH   3   5
ATOM      5  C   UNL A   1      32.320  29.942  25.754  1.00  0.00     0.200 C 
BRANCH   5   6
ATOM      6  S   UNL A   1      33.246  29.137  24.482  1.00  0.00    -0.076 SA
BRANCH   6   7
ATOM      7  C   UNL A   1      32.097  28.321  23.424  1.00  0.00     0.169 A 
ATOM      8  N   UNL A   1      31.144  27.319  23.708  1.00  0.00    -0.315 N 
ATOM      9  C   UNL A   1      29.941  27.892  23.281  1.00  0.00     0.072 A 
ATOM     10  N   UNL A   1      31.694  29.049  22.403  1.00  0.00    -0.221 NA
ATOM     11  C   UNL A   1      30.336  28.958  22.464  1.00  0.00     0.108 A 
ATOM     12  C   UNL A   1      28.585  27.672  23.529  1.00  0.00     0.049 A 
ATOM     13  C   UNL A   1      29.379  29.818  21.917  1.00  0.00     0.141 A 
ATOM     14  C   UNL A   1      27.706  28.593  22.961  1.00  0.00     0.113 A 
ATOM     15  N   UNL A   1      28.062  29.633  22.176  1.00  0.00    -0.262 NA
BRANCH   8  16
ATOM     16  C   UNL A   1      31.287  26.263  24.768  1.00  0.00     0.102 C 
ATOM     17  C   UNL A   1      30.265  23.253  26.540  1.00  0.00     0.014 C 
ATOM     18  C   UNL A   1      31.038  24.531  24.917  1.00  0.00    -0.007 C 
ATOM     19  C   UNL A   1      30.660  24.175  23.171  1.00  0.00     0.014 C 
ATOM     20  C   UNL A   1      32.537  25.355  24.724  1.00  0.00    -0.007 C 
ATOM     21  C   UNL A   1      33.705  25.590  25.671  1.00  0.00     0.014 C 
ATOM     22  C   UNL A   1      33.314  25.149  23.381  1.00  0.00     0.014 C 
ENDBRANCH   8  16
ENDBRANCH   6   7
ENDBRANCH   5   6
ENDBRANCH   3   5
ENDBRANCH   2   3
ENDBRANCH   1   2
BRANCH   1  23
ATOM     23  C   UNL A   1      33.663  32.567  28.229  1.00  0.00     0.275 C 
BRANCH  23  24
ATOM     24  O   UNL A   1      34.904  32.978  28.856  1.00  0.00    -0.458 OA
BRANCH  24  25
ATOM     25  C   UNL A   1      35.166  32.693  30.161  1.00  0.00     0.338 C 
ATOM     26  O   UNL A   1      34.401  32.728  31.102  1.00  0.00    -0.246 OA
BRANCH  25  27
ATOM     27  C   UNL A   1      36.495  32.027  30.153  1.00  0.00     0.060 A 
ATOM     28  C   UNL A   1      38.158  32.750  30.187  1.00  0.00     0.016 A 
ATOM     29  C   UNL A   1      36.317  30.245  30.143  1.00  0.00     0.016 A 
ATOM     30  C   UNL A   1      39.622  31.612  30.277  1.00  0.00     0.010 A 
ATOM     31  C   UNL A   1      37.713  29.174  30.194  1.00  0.00     0.010 A 
ATOM     32  C   UNL A   1      39.351  29.792  30.353  1.00  0.00    -0.014 A 
BRANCH  32  33
ATOM     33  C   UNL A   1      40.397  28.725  30.402  1.00  0.00     0.031 A 
ATOM     34  C   UNL A   1      40.853  28.589  31.786  1.00  0.00     0.074 A 
ATOM     35  C   UNL A   1      40.977  27.935  29.431  1.00  0.00     0.049 A 
ATOM     36  N   UNL A   1      41.823  29.297  32.255  1.00  0.00    -0.248 NA
ATOM     37  C   UNL A   1      40.064  27.888  32.805  1.00  0.00     0.031 C 
ATOM     38  C   UNL A   1      40.723  27.797  27.983  1.00  0.00     0.029 A 
ATOM     39  N   UNL A   1      41.976  26.980  29.568  1.00  0.00    -0.354 N 
ATOM     40  C   UNL A   1      41.971  28.884  33.557  1.00  0.00     0.074 A 
ATOM     41  C   UNL A   1      40.728  28.246  33.912  1.00  0.00     0.031 C 
ATOM     42  C   UNL A   1      41.270  26.677  27.466  1.00  0.00     0.029 A 
ATOM     43  C   UNL A   1      42.149  26.120  28.462  1.00  0.00     0.049 A 
ATOM     44  H   UNL A   1      42.526  26.907  30.381  1.00  0.00     0.167 HD
ATOM     45  C   UNL A   1      43.224  28.806  34.073  1.00  0.00     0.037 A 
ATOM     46  C   UNL A   1      43.097  25.177  28.190  1.00  0.00     0.037 A 
ATOM     47  C   UNL A   1      44.184  29.507  33.239  1.00  0.00     0.049 A 
ATOM     48  C   UNL A   1      44.294  25.543  28.966  1.00  0.00     0.074 A 
ATOM     49  C   UNL A   1      44.271  30.792  32.730  1.00  0.00     0.029 A 
ATOM     50  N   UNL A   1      45.024  28.748  32.458  1.00  0.00    -0.354 N 
ATOM     51  N   UNL A   1      45.037  26.574  28.684  1.00  0.00    -0.248 NA
ATOM     52  C   UNL A   1      44.339  25.076  30.337  1.00  0.00     0.031 C 
ATOM     53  C   UNL A   1      44.783  30.646  31.407  1.00  0.00     0.029 A 
ATOM     54  C   UNL A   1      45.087  29.302  31.203  1.00  0.00     0.049 A 
ATOM     55  H   UNL A   1      45.502  27.940  32.751  1.00  0.00     0.167 HD
ATOM     56  C   UNL A   1      45.213  27.191  29.909  1.00  0.00     0.074 A 
ATOM     57  C   UNL A   1      44.823  26.183  30.900  1.00  0.00     0.031 C 
ATOM     58  C   UNL A   1      45.361  28.544  30.001  1.00  0.00     0.037 A 
BRANCH  45  59
ATOM     59  C   UNL A   1      43.620  27.750  35.059  1.00  0.00     0.057 A 
ATOM     60  C   UNL A   1      43.644  26.368  34.772  1.00  0.00     0.134 A 
ATOM     61  C   UNL A   1      44.255  28.132  36.248  1.00  0.00     0.134 A 
ATOM     62  F   UNL A   1      43.195  25.863  33.617  1.00  0.00    -0.206 F 
ATOM     63  C   UNL A   1      44.238  25.431  35.616  1.00  0.00     0.040 A 
ATOM     64  C   UNL A   1      44.904  27.207  37.072  1.00  0.00     0.040 A 
ATOM     65  F   UNL A   1      44.329  29.424  36.599  1.00  0.00    -0.206 F 
ATOM     66  C   UNL A   1      44.895  25.853  36.758  1.00  0.00     0.006 A 
ENDBRANCH  45  59
BRANCH  46  67
ATOM     67  C   UNL A   1      42.985  23.862  27.494  1.00  0.00     0.057 A 
ATOM     68  C   UNL A   1      43.103  23.752  26.099  1.00  0.00     0.134 A 
ATOM     69  C   UNL A   1      42.455  22.732  28.146  1.00  0.00     0.134 A 
ATOM     70  F   UNL A   1      43.571  24.772  25.365  1.00  0.00    -0.206 F 
ATOM     71  C   UNL A   1      42.663  22.622  25.393  1.00  0.00     0.040 A 
ATOM     72  C   UNL A   1      42.011  21.595  27.451  1.00  0.00     0.040 A 
ATOM     73  F   UNL A   1      42.284  22.728  29.477  1.00  0.00    -0.206 F 
ATOM     74  C   UNL A   1      42.093  21.547  26.066  1.00  0.00     0.006 A 
ENDBRANCH  46  67
BRANCH  58  75
ATOM     75  C   UNL A   1      45.655  29.317  28.735  1.00  0.00     0.057 A 
ATOM     76  C   UNL A   1      46.996  29.556  28.404  1.00  0.00     0.134 A 
ATOM     77  C   UNL A   1      44.693  29.910  27.901  1.00  0.00     0.134 A 
ATOM     78  F   UNL A   1      47.978  29.060  29.172  1.00  0.00    -0.206 F 
ATOM     79  C   UNL A   1      47.365  30.334  27.302  1.00  0.00     0.040 A 
ATOM     80  C   UNL A   1      45.050  30.665  26.774  1.00  0.00     0.040 A 
ATOM     81  F   UNL A   1      43.385  29.820  28.172  1.00  0.00    -0.206 F 
ATOM     82  C   UNL A   1      46.391  30.883  26.475  1.00  0.00     0.006 A 
ENDBRANCH  58  75
ENDBRANCH  32  33
ENDBRANCH  25  27
ENDBRANCH  24  25
ENDBRANCH  23  24
ENDBRANCH   1  23
TORSDOF 14
ENDMDL
MODEL 3
REMARK VINA RESULT:     -11.0      6.742     12.285
REMARK SMILES CC1(C)C(n2c(SCC(=O)OCCOC(=O)c3ccc(-c4c5nc(c(-c6c(F)cccc6F)c6ccc([nH]6)c(-c6c(F)cccc6F)c6nc(c(-c7c(F)cccc7F)c7ccc4[nH]7)C=C6)C=C5)cc3)nc3cnccc32)C1(C)C
REMARK SMILES IDX 12 1 11 2 9 3 10 4 8 5 7 6 6 7 5 8 77 9 71 10 72 11 76 12
REMARK SMILES IDX 73 13 75 14 74 15 4 16 1 17 2 18 3 19 78 20 79 21 80 22
REMARK SMILES IDX 13 23 14 24 15 25 16 26 17 27 18 28 70 29 19 30 69 31 20 32
REMARK SMILES IDX 21 33 22 34 63 35 23 36 68 37 62 38 64 39 24 40 67 41 61 42
REMARK SMILES IDX 60 43 25 45 51 46 34 47 50 48 35 49 38 50 49 51 65 52 36 53
REMARK SMILES IDX 37 54 48 56 66 57 39 58 26 59 27 60 32 61 28 62 29 63 31 64
REMARK SMILES IDX 33 65 30 66 52 67 53 68 58 69 54 70 55 71 57 72 59 73 56 74
REMARK SMILES IDX 40 75 41 76 46 77 42 78 43 79 45 80 47 81 44 82
REMARK H PARENT 64 44 38 55
REMARK Flexibility Score: inf
ROOT
ATOM      1  C   UNL A   1      44.435  24.527  37.573  1.00  0.00     0.274 C 
ENDROOT
BRANCH   1   2
ATOM      2  O   UNL A   1      43.679  24.661  36.350  1.00  0.00    -0.461 OA
BRANCH   2   3
ATOM      3  C   UNL A   1      43.965  23.828  35.317  1.00  0.00     0.316 C 
ATOM      4  O   UNL A   1      43.602  24.015  34.159  1.00  0.00    -0.251 OA
BRANCH   3   5
ATOM      5  C   UNL A   1      44.861  22.676  35.706  1.00  0.00     0.200 C 
BRANCH   5   6
ATOM      6  S   UNL A   1      45.650  21.799  34.390  1.00  0.00    -0.076 SA
BRANCH   6   7
ATOM      7  C   UNL A   1      46.436  20.386  35.089  1.00  0.00     0.169 A 
ATOM      8  N   UNL A   1      47.452  20.293  36.065  1.00  0.00    -0.315 N 
ATOM      9  C   UNL A   1      46.871  19.494  37.056  1.00  0.00     0.072 A 
ATOM     10  N   UNL A   1      45.675  19.311  35.127  1.00  0.00    -0.221 NA
ATOM     11  C   UNL A   1      45.776  18.896  36.421  1.00  0.00     0.108 A 
ATOM     12  C   UNL A   1      47.107  19.252  38.410  1.00  0.00     0.049 A 
ATOM     13  C   UNL A   1      44.903  18.078  37.146  1.00  0.00     0.141 A 
ATOM     14  C   UNL A   1      46.172  18.444  39.055  1.00  0.00     0.113 A 
ATOM     15  N   UNL A   1      45.104  17.861  38.468  1.00  0.00    -0.262 NA
BRANCH   8  16
ATOM     16  C   UNL A   1      48.543  21.304  36.279  1.00  0.00     0.102 C 
ATOM     17  C   UNL A   1      51.387  22.716  38.056  1.00  0.00     0.014 C 
ATOM     18  C   UNL A   1      50.214  21.317  36.819  1.00  0.00    -0.007 C 
ATOM     19  C   UNL A   1      50.460  19.516  36.935  1.00  0.00     0.014 C 
ATOM     20  C   UNL A   1      49.643  21.425  35.198  1.00  0.00    -0.007 C 
ATOM     21  C   UNL A   1      49.625  22.568  34.193  1.00  0.00     0.014 C 
ATOM     22  C   UNL A   1      49.940  20.225  34.239  1.00  0.00     0.014 C 
ENDBRANCH   8  16
ENDBRANCH   6   7
ENDBRANCH   5   6
ENDBRANCH   3   5
ENDBRANCH   2   3
ENDBRANCH   1   2
BRANCH   1  23
ATOM     23  C   UNL A   1      44.742  25.943  38.112  1.00  0.00     0.275 C 
BRANCH  23  24
ATOM     24  O   UNL A   1      44.647  26.897  37.025  1.00  0.00    -0.458 OA
BRANCH  24  25
ATOM     25  C   UNL A   1      45.748  27.544  36.552  1.00  0.00     0.338 C 
ATOM     26  O   UNL A   1      46.507  28.267  37.160  1.00  0.00    -0.246 OA
BRANCH  25  27
ATOM     27  C   UNL A   1      46.012  26.936  35.222  1.00  0.00     0.060 A 
ATOM     28  C   UNL A   1      47.158  25.608  34.757  1.00  0.00     0.016 A 
ATOM     29  C   UNL A   1      44.971  27.671  33.964  1.00  0.00     0.016 A 
ATOM     30  C   UNL A   1      47.161  25.010  33.000  1.00  0.00     0.010 A 
ATOM     31  C   UNL A   1      45.005  27.119  32.293  1.00  0.00     0.010 A 
ATOM     32  C   UNL A   1      45.995  25.757  31.786  1.00  0.00    -0.014 A 
BRANCH  32  33
ATOM     33  C   UNL A   1      45.870  25.428  30.334  1.00  0.00     0.031 A 
ATOM     34  C   UNL A   1      46.962  26.085  29.615  1.00  0.00     0.074 A 
ATOM     35  C   UNL A   1      44.949  24.692  29.615  1.00  0.00     0.049 A 
ATOM     36  N   UNL A   1      46.849  27.286  29.159  1.00  0.00    -0.248 NA
ATOM     37  C   UNL A   1      48.333  25.567  29.632  1.00  0.00     0.031 C 
ATOM     38  C   UNL A   1      43.781  23.889  30.029  1.00  0.00     0.029 A 
ATOM     39  N   UNL A   1      44.895  24.465  28.246  1.00  0.00    -0.354 N 
ATOM     40  C   UNL A   1      48.048  27.548  28.541  1.00  0.00     0.074 A 
ATOM     41  C   UNL A   1      48.989  26.601  29.088  1.00  0.00     0.031 C 
ATOM     42  C   UNL A   1      43.354  23.059  29.055  1.00  0.00     0.029 A 
ATOM     43  C   UNL A   1      44.027  23.429  27.837  1.00  0.00     0.049 A 
ATOM     44  H   UNL A   1      45.426  24.989  27.604  1.00  0.00     0.167 HD
ATOM     45  C   UNL A   1      48.042  28.281  27.399  1.00  0.00     0.037 A 
ATOM     46  C   UNL A   1      43.624  23.025  26.598  1.00  0.00     0.037 A 
ATOM     47  C   UNL A   1      46.769  28.954  27.210  1.00  0.00     0.049 A 
ATOM     48  C   UNL A   1      43.774  24.185  25.704  1.00  0.00     0.074 A 
ATOM     49  C   UNL A   1      45.997  29.805  27.983  1.00  0.00     0.029 A 
ATOM     50  N   UNL A   1      45.912  28.441  26.264  1.00  0.00    -0.354 N 
ATOM     51  N   UNL A   1      43.007  25.235  25.765  1.00  0.00    -0.248 NA
ATOM     52  C   UNL A   1      45.087  24.382  25.123  1.00  0.00     0.031 C 
ATOM     53  C   UNL A   1      44.646  29.404  27.760  1.00  0.00     0.029 A 
ATOM     54  C   UNL A   1      44.642  28.409  26.786  1.00  0.00     0.049 A 
ATOM     55  H   UNL A   1      46.167  28.146  25.361  1.00  0.00     0.167 HD
ATOM     56  C   UNL A   1      43.900  26.291  25.733  1.00  0.00     0.074 A 
ATOM     57  C   UNL A   1      45.159  25.707  25.262  1.00  0.00     0.031 C 
ATOM     58  C   UNL A   1      43.626  27.463  26.375  1.00  0.00     0.037 A 
BRANCH  45  59
ATOM     59  C   UNL A   1      49.004  28.028  26.279  1.00  0.00     0.057 A 
ATOM     60  C   UNL A   1      50.117  28.847  25.990  1.00  0.00     0.134 A 
ATOM     61  C   UNL A   1      48.982  26.786  25.630  1.00  0.00     0.134 A 
ATOM     62  F   UNL A   1      50.346  30.003  26.625  1.00  0.00    -0.206 F 
ATOM     63  C   UNL A   1      51.125  28.468  25.106  1.00  0.00     0.040 A 
ATOM     64  C   UNL A   1      50.018  26.372  24.786  1.00  0.00     0.040 A 
ATOM     65  F   UNL A   1      47.994  25.911  25.864  1.00  0.00    -0.206 F 
ATOM     66  C   UNL A   1      51.091  27.215  24.520  1.00  0.00     0.006 A 
ENDBRANCH  45  59
BRANCH  46  67
ATOM     67  C   UNL A   1      43.333  21.660  26.070  1.00  0.00     0.057 A 
ATOM     68  C   UNL A   1      42.108  21.019  26.313  1.00  0.00     0.134 A 
ATOM     69  C   UNL A   1      44.362  20.830  25.581  1.00  0.00     0.134 A 
ATOM     70  F   UNL A   1      41.061  21.698  26.804  1.00  0.00    -0.206 F 
ATOM     71  C   UNL A   1      41.934  19.637  26.143  1.00  0.00     0.040 A 
ATOM     72  C   UNL A   1      44.201  19.447  25.407  1.00  0.00     0.040 A 
ATOM     73  F   UNL A   1      45.580  21.330  25.326  1.00  0.00    -0.206 F 
ATOM     74  C   UNL A   1      42.989  18.841  25.711  1.00  0.00     0.006 A 
ENDBRANCH  46  67
BRANCH  58  75
ATOM     75  C   UNL A   1      42.209  27.706  26.842  1.00  0.00     0.057 A 
ATOM     76  C   UNL A   1      41.415  28.596  26.106  1.00  0.00     0.134 A 
ATOM     77  C   UNL A   1      41.639  27.192  28.019  1.00  0.00     0.134 A 
ATOM     78  F   UNL A   1      41.899  29.165  24.991  1.00  0.00    -0.206 F 
ATOM     79  C   UNL A   1      40.124  28.952  26.507  1.00  0.00     0.040 A 
ATOM     80  C   UNL A   1      40.333  27.515  28.415  1.00  0.00     0.040 A 
ATOM     81  F   UNL A   1      42.337  26.402  28.844  1.00  0.00    -0.206 F 
ATOM     82  C   UNL A   1      39.573  28.402  27.659  1.00  0.00     0.006 A 
ENDBRANCH  58  75
ENDBRANCH  32  33
ENDBRANCH  25  27
ENDBRANCH  24  25
ENDBRANCH  23  24
ENDBRANCH   1  23
TORSDOF 14
ENDMDL
