MODEL 1
REMARK VINA RESULT:     -11.0      0.000      0.000
REMARK SMILES O=C(OCCOC(=O)c1ccccc1Nc1cccc(S(F)(F)(F)(F)F)c1)c1ccc(-c2c3nc(c(-c4c(F)cccc4F)c4ccc([nH]4)c(-c4c(F)cccc4F)c4nc(c(-c5c(F)cccc5F)c5ccc2[nH]5)C=C4)C=C3)cc1
REMARK SMILES IDX 5 1 4 2 3 3 2 4 1 5 28 6 29 7 81 8 30 9 80 10 31 11 32 12
REMARK SMILES IDX 33 13 74 14 34 15 79 16 73 17 75 18 35 19 78 20 72 21 71 22
REMARK SMILES IDX 36 24 62 25 45 26 61 27 46 28 49 29 60 30 76 31 47 32 48 33
REMARK SMILES IDX 59 35 77 36 50 37 37 38 38 39 43 40 39 41 40 42 42 43 44 44
REMARK SMILES IDX 41 45 63 46 64 47 69 48 65 49 66 50 68 51 70 52 67 53 51 54
REMARK SMILES IDX 52 55 57 56 53 57 54 58 56 59 58 60 55 61 6 62 7 63 8 64
REMARK SMILES IDX 9 65 10 66 14 67 11 68 13 69 12 70 15 71 16 73 17 74 27 75
REMARK SMILES IDX 18 76 20 77 19 78 21 79 22 80 23 81 24 82 25 83 26 84
REMARK H PARENT 75 23 49 34 15 72
REMARK Flexibility Score: inf
ROOT
ATOM      1  C   UNL A   1      33.141  33.785  27.896  1.00  0.00     0.275 C 
ENDROOT
BRANCH   1   2
ATOM      2  C   UNL A   1      33.173  32.265  27.903  1.00  0.00     0.275 C 
BRANCH   2   3
ATOM      3  O   UNL A   1      34.407  31.819  28.445  1.00  0.00    -0.458 OA
BRANCH   3   4
ATOM      4  C   UNL A   1      34.858  30.497  28.191  1.00  0.00     0.338 C 
ATOM      5  O   UNL A   1      34.055  29.630  27.723  1.00  0.00    -0.246 OA
BRANCH   4   6
ATOM      6  C   UNL A   1      36.302  30.118  28.479  1.00  0.00     0.060 A 
ATOM      7  C   UNL A   1      37.239  30.353  27.486  1.00  0.00     0.016 A 
ATOM      8  C   UNL A   1      36.627  29.479  29.597  1.00  0.00     0.016 A 
ATOM      9  C   UNL A   1      38.437  29.615  27.643  1.00  0.00     0.010 A 
ATOM     10  C   UNL A   1      37.864  28.897  29.735  1.00  0.00     0.010 A 
ATOM     11  C   UNL A   1      38.820  29.039  28.767  1.00  0.00    -0.014 A 
BRANCH  11  12
ATOM     12  C   UNL A   1      40.247  28.559  28.976  1.00  0.00     0.031 A 
ATOM     13  C   UNL A   1      40.634  27.288  28.547  1.00  0.00     0.074 A 
ATOM     14  C   UNL A   1      41.118  29.493  29.510  1.00  0.00     0.049 A 
ATOM     15  N   UNL A   1      41.863  26.770  28.540  1.00  0.00    -0.248 NA
ATOM     16  C   UNL A   1      39.705  26.281  28.012  1.00  0.00     0.031 C 
ATOM     17  C   UNL A   1      40.738  30.782  29.937  1.00  0.00     0.029 A 
ATOM     18  N   UNL A   1      42.472  29.362  29.724  1.00  0.00    -0.354 N 
ATOM     19  C   UNL A   1      41.840  25.534  28.039  1.00  0.00     0.074 A 
ATOM     20  C   UNL A   1      40.450  25.199  27.697  1.00  0.00     0.031 C 
ATOM     21  C   UNL A   1      41.844  31.412  30.412  1.00  0.00     0.029 A 
ATOM     22  C   UNL A   1      42.934  30.530  30.289  1.00  0.00     0.049 A 
ATOM     23  H   UNL A   1      43.015  28.570  29.510  1.00  0.00     0.167 HD
ATOM     24  C   UNL A   1      42.922  24.673  27.851  1.00  0.00     0.037 A 
ATOM     25  C   UNL A   1      44.229  30.827  30.685  1.00  0.00     0.037 A 
ATOM     26  C   UNL A   1      44.225  24.988  28.206  1.00  0.00     0.049 A 
ATOM     27  C   UNL A   1      45.302  29.943  30.551  1.00  0.00     0.074 A 
ATOM     28  C   UNL A   1      45.329  24.135  28.017  1.00  0.00     0.029 A 
ATOM     29  N   UNL A   1      44.682  26.146  28.795  1.00  0.00    -0.354 N 
ATOM     30  N   UNL A   1      45.286  28.723  30.014  1.00  0.00    -0.248 NA
ATOM     31  C   UNL A   1      46.671  30.236  30.996  1.00  0.00     0.031 C 
ATOM     32  C   UNL A   1      46.435  24.765  28.492  1.00  0.00     0.029 A 
ATOM     33  C   UNL A   1      46.040  26.022  28.988  1.00  0.00     0.049 A 
ATOM     34  H   UNL A   1      44.133  26.927  29.035  1.00  0.00     0.167 HD
ATOM     35  C   UNL A   1      46.508  28.190  30.044  1.00  0.00     0.074 A 
ATOM     36  C   UNL A   1      47.417  29.153  30.683  1.00  0.00     0.031 C 
ATOM     37  C   UNL A   1      46.905  26.941  29.562  1.00  0.00     0.037 A 
BRANCH  24  38
ATOM     38  C   UNL A   1      42.658  23.315  27.222  1.00  0.00     0.057 A 
ATOM     39  C   UNL A   1      42.271  22.313  28.095  1.00  0.00     0.134 A 
ATOM     40  C   UNL A   1      42.719  23.103  25.912  1.00  0.00     0.134 A 
ATOM     41  F   UNL A   1      41.953  22.541  29.366  1.00  0.00    -0.206 F 
ATOM     42  C   UNL A   1      42.245  21.024  27.513  1.00  0.00     0.040 A 
ATOM     43  C   UNL A   1      42.548  21.839  25.400  1.00  0.00     0.040 A 
ATOM     44  F   UNL A   1      42.947  24.122  25.089  1.00  0.00    -0.206 F 
ATOM     45  C   UNL A   1      42.223  20.788  26.213  1.00  0.00     0.006 A 
ENDBRANCH  24  38
BRANCH  25  46
ATOM     46  C   UNL A   1      44.495  32.192  31.299  1.00  0.00     0.057 A 
ATOM     47  C   UNL A   1      44.378  32.407  32.663  1.00  0.00     0.134 A 
ATOM     48  C   UNL A   1      44.755  33.191  30.464  1.00  0.00     0.134 A 
ATOM     49  F   UNL A   1      44.371  31.420  33.555  1.00  0.00    -0.206 F 
ATOM     50  C   UNL A   1      44.265  33.771  33.020  1.00  0.00     0.040 A 
ATOM     51  C   UNL A   1      44.762  34.491  30.909  1.00  0.00     0.040 A 
ATOM     52  F   UNL A   1      45.009  32.931  29.186  1.00  0.00    -0.206 F 
ATOM     53  C   UNL A   1      44.594  34.781  32.235  1.00  0.00     0.006 A 
ENDBRANCH  25  46
BRANCH  37  54
ATOM     54  C   UNL A   1      48.373  26.566  29.674  1.00  0.00     0.057 A 
ATOM     55  C   UNL A   1      48.808  25.981  30.852  1.00  0.00     0.134 A 
ATOM     56  C   UNL A   1      49.223  26.862  28.698  1.00  0.00     0.134 A 
ATOM     57  F   UNL A   1      47.980  25.441  31.742  1.00  0.00    -0.206 F 
ATOM     58  C   UNL A   1      50.212  26.012  31.023  1.00  0.00     0.040 A 
ATOM     59  C   UNL A   1      50.579  26.739  28.888  1.00  0.00     0.040 A 
ATOM     60  F   UNL A   1      48.759  27.283  27.525  1.00  0.00    -0.206 F 
ATOM     61  C   UNL A   1      51.081  26.224  30.051  1.00  0.00     0.006 A 
ENDBRANCH  37  54
ENDBRANCH  11  12
ENDBRANCH   4   6
ENDBRANCH   3   4
ENDBRANCH   2   3
ENDBRANCH   1   2
BRANCH   1  62
ATOM     62  O   UNL A   1      32.926  34.259  29.217  1.00  0.00    -0.458 OA
BRANCH  62  63
ATOM     63  C   UNL A   1      33.343  35.568  29.578  1.00  0.00     0.340 C 
ATOM     64  O   UNL A   1      33.665  36.403  28.675  1.00  0.00    -0.246 OA
BRANCH  63  65
ATOM     65  C   UNL A   1      33.401  35.971  31.042  1.00  0.00     0.083 A 
ATOM     66  C   UNL A   1      33.116  37.271  31.425  1.00  0.00     0.018 A 
ATOM     67  C   UNL A   1      33.879  35.087  31.909  1.00  0.00     0.053 A 
ATOM     68  C   UNL A   1      33.645  37.625  32.689  1.00  0.00     0.001 A 
ATOM     69  C   UNL A   1      34.250  35.476  33.173  1.00  0.00     0.027 A 
ATOM     70  C   UNL A   1      34.052  36.760  33.600  1.00  0.00     0.002 A 
BRANCH  67  71
ATOM     71  N   UNL A   1      34.013  33.677  31.512  1.00  0.00    -0.355 N 
ATOM     72  H   UNL A   1      33.217  33.164  31.244  1.00  0.00     0.167 HD
BRANCH  71  73
ATOM     73  C   UNL A   1      35.335  33.035  31.518  1.00  0.00     0.040 A 
ATOM     74  C   UNL A   1      35.558  31.930  32.322  1.00  0.00     0.026 A 
ATOM     75  C   UNL A   1      36.308  33.556  30.779  1.00  0.00     0.050 A 
ATOM     76  C   UNL A   1      36.926  31.618  32.502  1.00  0.00     0.004 A 
ATOM     77  C   UNL A   1      37.601  33.110  30.908  1.00  0.00     0.109 A 
ATOM     78  C   UNL A   1      37.903  32.060  31.731  1.00  0.00     0.024 A 
BRANCH  77  79
ATOM     79  S   UNL A   1      38.923  33.922  29.976  1.00  0.00     0.310 S 
ATOM     80  F   UNL A   1      37.780  34.857  29.395  1.00  0.00    -0.094 F 
ATOM     81  F   UNL A   1      38.705  32.994  28.722  1.00  0.00    -0.094 F 
ATOM     82  F   UNL A   1      39.946  34.790  29.191  1.00  0.00    -0.094 F 
ATOM     83  F   UNL A   1      39.020  34.922  31.194  1.00  0.00    -0.094 F 
ATOM     84  F   UNL A   1      37.801  33.117  30.745  1.00  0.00    -0.094 F 
ENDBRANCH  77  79
ENDBRANCH  71  73
ENDBRANCH  67  71
ENDBRANCH  63  65
ENDBRANCH  62  63
ENDBRANCH   1  62
TORSDOF 14
ENDMDL
MODEL 2
REMARK VINA RESULT:     -10.9      6.221     12.049
REMARK SMILES O=C(OCCOC(=O)c1ccccc1Nc1cccc(S(F)(F)(F)(F)F)c1)c1ccc(-c2c3nc(c(-c4c(F)cccc4F)c4ccc([nH]4)c(-c4c(F)cccc4F)c4nc(c(-c5c(F)cccc5F)c5ccc2[nH]5)C=C4)C=C3)cc1
REMARK SMILES IDX 5 1 4 2 3 3 2 4 1 5 28 6 29 7 81 8 30 9 80 10 31 11 32 12
REMARK SMILES IDX 33 13 74 14 34 15 79 16 73 17 75 18 35 19 78 20 72 21 71 22
REMARK SMILES IDX 36 24 62 25 45 26 61 27 46 28 49 29 60 30 76 31 47 32 48 33
REMARK SMILES IDX 59 35 77 36 50 37 37 38 38 39 43 40 39 41 40 42 42 43 44 44
REMARK SMILES IDX 41 45 63 46 64 47 69 48 65 49 66 50 68 51 70 52 67 53 51 54
REMARK SMILES IDX 52 55 57 56 53 57 54 58 56 59 58 60 55 61 6 62 7 63 8 64
REMARK SMILES IDX 9 65 10 66 14 67 11 68 13 69 12 70 15 71 16 73 17 74 27 75
REMARK SMILES IDX 18 76 20 77 19 78 21 79 22 80 23 81 24 82 25 83 26 84
REMARK H PARENT 75 23 49 34 15 72
REMARK Flexibility Score: inf
ROOT
ATOM      1  C   UNL A   1      38.470  21.454  25.476  1.00  0.00     0.275 C 
ENDROOT
BRANCH   1   2
ATOM      2  C   UNL A   1      39.538  22.077  26.361  1.00  0.00     0.275 C 
BRANCH   2   3
ATOM      3  O   UNL A   1      39.379  23.487  26.374  1.00  0.00    -0.458 OA
BRANCH   3   4
ATOM      4  C   UNL A   1      40.484  24.324  26.679  1.00  0.00     0.338 C 
ATOM      5  O   UNL A   1      41.631  24.063  26.198  1.00  0.00    -0.246 OA
BRANCH   4   6
ATOM      6  C   UNL A   1      40.296  25.533  27.581  1.00  0.00     0.060 A 
ATOM      7  C   UNL A   1      41.229  26.554  27.493  1.00  0.00     0.016 A 
ATOM      8  C   UNL A   1      39.339  25.552  28.502  1.00  0.00     0.016 A 
ATOM      9  C   UNL A   1      41.241  27.418  28.614  1.00  0.00     0.010 A 
ATOM     10  C   UNL A   1      39.337  26.508  29.489  1.00  0.00     0.010 A 
ATOM     11  C   UNL A   1      40.264  27.513  29.497  1.00  0.00    -0.014 A 
BRANCH  11  12
ATOM     12  C   UNL A   1      40.175  28.677  30.470  1.00  0.00     0.031 A 
ATOM     13  C   UNL A   1      39.241  29.694  30.269  1.00  0.00     0.074 A 
ATOM     14  C   UNL A   1      40.995  28.588  31.583  1.00  0.00     0.049 A 
ATOM     15  N   UNL A   1      38.950  30.706  31.087  1.00  0.00    -0.248 NA
ATOM     16  C   UNL A   1      38.394  29.810  29.072  1.00  0.00     0.031 C 
ATOM     17  C   UNL A   1      41.934  27.560  31.798  1.00  0.00     0.029 A 
ATOM     18  N   UNL A   1      41.057  29.447  32.657  1.00  0.00    -0.354 N 
ATOM     19  C   UNL A   1      37.988  31.465  30.559  1.00  0.00     0.074 A 
ATOM     20  C   UNL A   1      37.620  30.903  29.253  1.00  0.00     0.031 C 
ATOM     21  C   UNL A   1      42.561  27.803  32.978  1.00  0.00     0.029 A 
ATOM     22  C   UNL A   1      42.024  28.985  33.522  1.00  0.00     0.049 A 
ATOM     23  H   UNL A   1      40.506  30.252  32.785  1.00  0.00     0.167 HD
ATOM     24  C   UNL A   1      37.401  32.602  31.117  1.00  0.00     0.037 A 
ATOM     25  C   UNL A   1      42.433  29.550  34.720  1.00  0.00     0.037 A 
ATOM     26  C   UNL A   1      37.779  33.142  32.337  1.00  0.00     0.049 A 
ATOM     27  C   UNL A   1      41.886  30.721  35.250  1.00  0.00     0.074 A 
ATOM     28  C   UNL A   1      37.192  34.283  32.916  1.00  0.00     0.029 A 
ATOM     29  N   UNL A   1      38.763  32.694  33.189  1.00  0.00    -0.354 N 
ATOM     30  N   UNL A   1      40.896  31.457  34.741  1.00  0.00    -0.248 NA
ATOM     31  C   UNL A   1      42.331  31.346  36.502  1.00  0.00     0.031 C 
ATOM     32  C   UNL A   1      37.820  34.527  34.097  1.00  0.00     0.029 A 
ATOM     33  C   UNL A   1      38.810  33.541  34.274  1.00  0.00     0.049 A 
ATOM     34  H   UNL A   1      39.335  31.906  33.047  1.00  0.00     0.167 HD
ATOM     35  C   UNL A   1      40.635  32.492  35.541  1.00  0.00     0.074 A 
ATOM     36  C   UNL A   1      41.559  32.441  36.683  1.00  0.00     0.031 C 
ATOM     37  C   UNL A   1      39.660  33.477  35.368  1.00  0.00     0.037 A 
BRANCH  24  38
ATOM     38  C   UNL A   1      36.286  33.286  30.344  1.00  0.00     0.057 A 
ATOM     39  C   UNL A   1      34.998  32.971  30.742  1.00  0.00     0.134 A 
ATOM     40  C   UNL A   1      36.512  34.185  29.393  1.00  0.00     0.134 A 
ATOM     41  F   UNL A   1      34.728  32.278  31.845  1.00  0.00    -0.206 F 
ATOM     42  C   UNL A   1      33.994  33.452  29.869  1.00  0.00     0.040 A 
ATOM     43  C   UNL A   1      35.471  34.716  28.670  1.00  0.00     0.040 A 
ATOM     44  F   UNL A   1      37.758  34.576  29.138  1.00  0.00    -0.206 F 
ATOM     45  C   UNL A   1      34.174  34.402  28.970  1.00  0.00     0.006 A 
ENDBRANCH  24  38
BRANCH  25  46
ATOM     46  C   UNL A   1      43.536  28.856  35.500  1.00  0.00     0.057 A 
ATOM     47  C   UNL A   1      44.871  29.163  35.295  1.00  0.00     0.134 A 
ATOM     48  C   UNL A   1      43.173  27.878  36.323  1.00  0.00     0.134 A 
ATOM     49  F   UNL A   1      45.274  30.278  34.690  1.00  0.00    -0.206 F 
ATOM     50  C   UNL A   1      45.767  28.183  35.784  1.00  0.00     0.040 A 
ATOM     51  C   UNL A   1      44.115  27.042  36.874  1.00  0.00     0.040 A 
ATOM     52  F   UNL A   1      41.888  27.707  36.615  1.00  0.00    -0.206 F 
ATOM     53  C   UNL A   1      45.449  27.251  36.664  1.00  0.00     0.006 A 
ENDBRANCH  25  46
BRANCH  37  54
ATOM     54  C   UNL A   1      39.523  34.543  36.441  1.00  0.00     0.057 A 
ATOM     55  C   UNL A   1      40.201  35.738  36.263  1.00  0.00     0.134 A 
ATOM     56  C   UNL A   1      38.834  34.301  37.550  1.00  0.00     0.134 A 
ATOM     57  F   UNL A   1      40.687  36.128  35.088  1.00  0.00    -0.206 F 
ATOM     58  C   UNL A   1      40.331  36.505  37.445  1.00  0.00     0.040 A 
ATOM     59  C   UNL A   1      38.900  35.164  38.618  1.00  0.00     0.040 A 
ATOM     60  F   UNL A   1      38.074  33.212  37.630  1.00  0.00    -0.206 F 
ATOM     61  C   UNL A   1      39.601  36.335  38.532  1.00  0.00     0.006 A 
ENDBRANCH  37  54
ENDBRANCH  11  12
ENDBRANCH   4   6
ENDBRANCH   3   4
ENDBRANCH   2   3
ENDBRANCH   1   2
BRANCH   1  62
ATOM     62  O   UNL A   1      37.214  22.053  25.758  1.00  0.00    -0.458 OA
BRANCH  62  63
ATOM     63  C   UNL A   1      36.476  22.677  24.718  1.00  0.00     0.340 C 
ATOM     64  O   UNL A   1      36.906  22.639  23.522  1.00  0.00    -0.246 OA
BRANCH  63  65
ATOM     65  C   UNL A   1      35.171  23.390  25.033  1.00  0.00     0.083 A 
ATOM     66  C   UNL A   1      35.023  24.739  24.761  1.00  0.00     0.018 A 
ATOM     67  C   UNL A   1      34.248  22.719  25.712  1.00  0.00     0.053 A 
ATOM     68  C   UNL A   1      33.993  25.364  25.503  1.00  0.00     0.001 A 
ATOM     69  C   UNL A   1      33.193  23.377  26.296  1.00  0.00     0.027 A 
ATOM     70  C   UNL A   1      33.017  24.721  26.119  1.00  0.00     0.002 A 
BRANCH  67  71
ATOM     71  N   UNL A   1      34.356  21.258  25.840  1.00  0.00    -0.355 N 
ATOM     72  H   UNL A   1      34.841  20.866  26.601  1.00  0.00     0.167 HD
BRANCH  71  73
ATOM     73  C   UNL A   1      33.741  20.384  24.830  1.00  0.00     0.040 A 
ATOM     74  C   UNL A   1      32.991  20.940  23.807  1.00  0.00     0.026 A 
ATOM     75  C   UNL A   1      33.881  19.069  24.946  1.00  0.00     0.050 A 
ATOM     76  C   UNL A   1      32.184  20.006  23.116  1.00  0.00     0.004 A 
ATOM     77  C   UNL A   1      33.162  18.216  24.144  1.00  0.00     0.109 A 
ATOM     78  C   UNL A   1      32.355  18.697  23.150  1.00  0.00     0.024 A 
BRANCH  77  79
ATOM     79  S   UNL A   1      33.284  16.429  24.407  1.00  0.00     0.310 S 
ATOM     80  F   UNL A   1      34.645  16.750  25.156  1.00  0.00    -0.094 F 
ATOM     81  F   UNL A   1      34.134  16.223  23.096  1.00  0.00    -0.094 F 
ATOM     82  F   UNL A   1      33.487  14.940  24.805  1.00  0.00    -0.094 F 
ATOM     83  F   UNL A   1      32.551  16.689  25.781  1.00  0.00    -0.094 F 
ATOM     84  F   UNL A   1      33.168  17.969  24.070  1.00  0.00    -0.094 F 
ENDBRANCH  77  79
ENDBRANCH  71  73
ENDBRANCH  67  71
ENDBRANCH  63  65
ENDBRANCH  62  63
ENDBRANCH   1  62
TORSDOF 14
ENDMDL
MODEL 3
REMARK VINA RESULT:     -10.9      3.683     11.469
REMARK SMILES O=C(OCCOC(=O)c1ccccc1Nc1cccc(S(F)(F)(F)(F)F)c1)c1ccc(-c2c3nc(c(-c4c(F)cccc4F)c4ccc([nH]4)c(-c4c(F)cccc4F)c4nc(c(-c5c(F)cccc5F)c5ccc2[nH]5)C=C4)C=C3)cc1
REMARK SMILES IDX 5 1 4 2 3 3 2 4 1 5 28 6 29 7 81 8 30 9 80 10 31 11 32 12
REMARK SMILES IDX 33 13 74 14 34 15 79 16 73 17 75 18 35 19 78 20 72 21 71 22
REMARK SMILES IDX 36 24 62 25 45 26 61 27 46 28 49 29 60 30 76 31 47 32 48 33
REMARK SMILES IDX 59 35 77 36 50 37 37 38 38 39 43 40 39 41 40 42 42 43 44 44
REMARK SMILES IDX 41 45 63 46 64 47 69 48 65 49 66 50 68 51 70 52 67 53 51 54
REMARK SMILES IDX 52 55 57 56 53 57 54 58 56 59 58 60 55 61 6 62 7 63 8 64
REMARK SMILES IDX 9 65 10 66 14 67 11 68 13 69 12 70 15 71 16 73 17 74 27 75
REMARK SMILES IDX 18 76 20 77 19 78 21 79 22 80 23 81 24 82 25 83 26 84
REMARK H PARENT 75 23 49 34 15 72
REMARK Flexibility Score: inf
ROOT
ATOM      1  C   UNL A   1      40.818  20.348  27.423  1.00  0.00     0.275 C 
ENDROOT
BRANCH   1   2
ATOM      2  C   UNL A   1      39.949  20.933  26.321  1.00  0.00     0.275 C 
BRANCH   2   3
ATOM      3  O   UNL A   1      40.339  22.276  26.073  1.00  0.00    -0.458 OA
BRANCH   3   4
ATOM      4  C   UNL A   1      39.419  23.334  26.293  1.00  0.00     0.338 C 
ATOM      5  O   UNL A   1      38.224  23.236  25.871  1.00  0.00    -0.246 OA
BRANCH   4   6
ATOM      6  C   UNL A   1      39.862  24.585  27.035  1.00  0.00     0.060 A 
ATOM      7  C   UNL A   1      39.550  24.680  28.381  1.00  0.00     0.016 A 
ATOM      8  C   UNL A   1      40.423  25.598  26.384  1.00  0.00     0.016 A 
ATOM      9  C   UNL A   1      39.608  25.999  28.891  1.00  0.00     0.010 A 
ATOM     10  C   UNL A   1      40.571  26.822  26.990  1.00  0.00     0.010 A 
ATOM     11  C   UNL A   1      40.230  27.004  28.302  1.00  0.00    -0.014 A 
BRANCH  11  12
ATOM     12  C   UNL A   1      40.549  28.292  29.041  1.00  0.00     0.031 A 
ATOM     13  C   UNL A   1      39.577  29.285  29.181  1.00  0.00     0.074 A 
ATOM     14  C   UNL A   1      41.802  28.348  29.629  1.00  0.00     0.049 A 
ATOM     15  N   UNL A   1      39.655  30.405  29.902  1.00  0.00    -0.248 NA
ATOM     16  C   UNL A   1      38.259  29.245  28.531  1.00  0.00     0.031 C 
ATOM     17  C   UNL A   1      42.785  27.347  29.499  1.00  0.00     0.029 A 
ATOM     18  N   UNL A   1      42.320  29.347  30.422  1.00  0.00    -0.354 N 
ATOM     19  C   UNL A   1      38.518  31.095  29.805  1.00  0.00     0.074 A 
ATOM     20  C   UNL A   1      37.605  30.362  28.917  1.00  0.00     0.031 C 
ATOM     21  C   UNL A   1      43.883  27.743  30.195  1.00  0.00     0.029 A 
ATOM     22  C   UNL A   1      43.605  28.996  30.772  1.00  0.00     0.049 A 
ATOM     23  H   UNL A   1      41.852  30.169  30.693  1.00  0.00     0.167 HD
ATOM     24  C   UNL A   1      38.205  32.307  30.423  1.00  0.00     0.037 A 
ATOM     25  C   UNL A   1      44.501  29.717  31.546  1.00  0.00     0.037 A 
ATOM     26  C   UNL A   1      39.086  33.006  31.234  1.00  0.00     0.049 A 
ATOM     27  C   UNL A   1      44.208  30.957  32.117  1.00  0.00     0.074 A 
ATOM     28  C   UNL A   1      38.783  34.224  31.871  1.00  0.00     0.029 A 
ATOM     29  N   UNL A   1      40.380  32.667  31.563  1.00  0.00    -0.354 N 
ATOM     30  N   UNL A   1      43.057  31.629  32.053  1.00  0.00    -0.248 NA
ATOM     31  C   UNL A   1      45.159  31.744  32.913  1.00  0.00     0.031 C 
ATOM     32  C   UNL A   1      39.882  34.621  32.567  1.00  0.00     0.029 A 
ATOM     33  C   UNL A   1      40.889  33.655  32.375  1.00  0.00     0.049 A 
ATOM     34  H   UNL A   1      40.857  31.859  31.268  1.00  0.00     0.167 HD
ATOM     35  C   UNL A   1      43.151  32.768  32.740  1.00  0.00     0.074 A 
ATOM     36  C   UNL A   1      44.507  32.863  33.298  1.00  0.00     0.031 C 
ATOM     37  C   UNL A   1      42.159  33.733  32.928  1.00  0.00     0.037 A 
BRANCH  24  38
ATOM     38  C   UNL A   1      36.821  32.892  30.196  1.00  0.00     0.057 A 
ATOM     39  C   UNL A   1      35.858  32.536  31.125  1.00  0.00     0.134 A 
ATOM     40  C   UNL A   1      36.551  33.748  29.217  1.00  0.00     0.134 A 
ATOM     41  F   UNL A   1      36.141  31.893  32.254  1.00  0.00    -0.206 F 
ATOM     42  C   UNL A   1      34.545  32.919  30.765  1.00  0.00     0.040 A 
ATOM     43  C   UNL A   1      35.266  34.186  29.006  1.00  0.00     0.040 A 
ATOM     44  F   UNL A   1      37.533  34.184  28.433  1.00  0.00    -0.206 F 
ATOM     45  C   UNL A   1      34.252  33.827  29.850  1.00  0.00     0.006 A 
ENDBRANCH  24  38
BRANCH  25  46
ATOM     46  C   UNL A   1      45.879  29.123  31.787  1.00  0.00     0.057 A 
ATOM     47  C   UNL A   1      46.938  29.380  30.932  1.00  0.00     0.134 A 
ATOM     48  C   UNL A   1      46.003  28.274  32.801  1.00  0.00     0.134 A 
ATOM     49  F   UNL A   1      46.944  30.394  30.070  1.00  0.00    -0.206 F 
ATOM     50  C   UNL A   1      48.010  28.466  31.055  1.00  0.00     0.040 A 
ATOM     51  C   UNL A   1      47.137  27.509  32.938  1.00  0.00     0.040 A 
ATOM     52  F   UNL A   1      45.022  28.162  33.690  1.00  0.00    -0.206 F 
ATOM     53  C   UNL A   1      48.199  27.669  32.092  1.00  0.00     0.006 A 
ENDBRANCH  25  46
BRANCH  37  54
ATOM     54  C   UNL A   1      42.489  34.939  33.790  1.00  0.00     0.057 A 
ATOM     55  C   UNL A   1      42.230  34.860  35.148  1.00  0.00     0.134 A 
ATOM     56  C   UNL A   1      42.942  36.059  33.240  1.00  0.00     0.134 A 
ATOM     57  F   UNL A   1      42.021  33.709  35.781  1.00  0.00    -0.206 F 
ATOM     58  C   UNL A   1      42.206  36.115  35.801  1.00  0.00     0.040 A 
ATOM     59  C   UNL A   1      43.021  37.219  33.974  1.00  0.00     0.040 A 
ATOM     60  F   UNL A   1      43.323  36.061  31.965  1.00  0.00    -0.206 F 
ATOM     61  C   UNL A   1      42.722  37.226  35.308  1.00  0.00     0.006 A 
ENDBRANCH  37  54
ENDBRANCH  11  12
ENDBRANCH   4   6
ENDBRANCH   3   4
ENDBRANCH   2   3
ENDBRANCH   1   2
BRANCH   1  62
ATOM     62  O   UNL A   1      42.177  20.361  27.011  1.00  0.00    -0.458 OA
BRANCH  62  63
ATOM     63  C   UNL A   1      42.636  19.424  26.047  1.00  0.00     0.340 C 
ATOM     64  O   UNL A   1      41.910  18.429  25.733  1.00  0.00    -0.246 OA
BRANCH  63  65
ATOM     65  C   UNL A   1      43.993  19.612  25.390  1.00  0.00     0.083 A 
ATOM     66  C   UNL A   1      44.899  18.566  25.336  1.00  0.00     0.018 A 
ATOM     67  C   UNL A   1      44.335  20.839  25.016  1.00  0.00     0.053 A 
ATOM     68  C   UNL A   1      46.239  18.977  25.141  1.00  0.00     0.001 A 
ATOM     69  C   UNL A   1      45.640  21.139  24.709  1.00  0.00     0.027 A 
ATOM     70  C   UNL A   1      46.601  20.165  24.693  1.00  0.00     0.002 A 
BRANCH  67  71
ATOM     71  N   UNL A   1      43.308  21.887  24.930  1.00  0.00    -0.355 N 
ATOM     72  H   UNL A   1      42.491  21.733  24.403  1.00  0.00     0.167 HD
BRANCH  71  73
ATOM     73  C   UNL A   1      43.502  23.166  25.628  1.00  0.00     0.040 A 
ATOM     74  C   UNL A   1      43.615  24.337  24.897  1.00  0.00     0.026 A 
ATOM     75  C   UNL A   1      43.609  23.167  26.952  1.00  0.00     0.050 A 
ATOM     76  C   UNL A   1      44.132  25.426  25.636  1.00  0.00     0.004 A 
ATOM     77  C   UNL A   1      43.988  24.306  27.622  1.00  0.00     0.109 A 
ATOM     78  C   UNL A   1      44.174  25.485  26.955  1.00  0.00     0.024 A 
BRANCH  77  79
ATOM     79  S   UNL A   1      44.243  24.244  29.413  1.00  0.00     0.310 S 
ATOM     80  F   UNL A   1      44.292  22.668  29.234  1.00  0.00    -0.094 F 
ATOM     81  F   UNL A   1      42.700  24.093  29.698  1.00  0.00    -0.094 F 
ATOM     82  F   UNL A   1      44.570  24.021  30.916  1.00  0.00    -0.094 F 
ATOM     83  F   UNL A   1      45.787  24.256  29.085  1.00  0.00    -0.094 F 
ATOM     84  F   UNL A   1      43.929  24.356  27.868  1.00  0.00    -0.094 F 
ENDBRANCH  77  79
ENDBRANCH  71  73
ENDBRANCH  67  71
ENDBRANCH  63  65
ENDBRANCH  62  63
ENDBRANCH   1  62
TORSDOF 14
ENDMDL
