MODEL 1
REMARK VINA RESULT:     -11.5      0.000      0.000
REMARK SMILES C[C@@H](C(=O)OCCOC(=O)c1ccc(-c2c3nc(c(-c4c(F)cccc4F)c4ccc([nH]4)c(-c4c(F)cccc4F)c4nc(c(-c5c(F)cccc5F)c5ccc2[nH]5)C=C4)C=C3)cc1)c1ccc(OC2CCCC2)cc1F
REMARK SMILES IDX 6 1 5 2 3 3 4 4 2 5 1 6 65 7 66 8 76 9 67 10 75 11 77 12
REMARK SMILES IDX 68 13 69 14 70 15 71 16 74 17 72 18 73 19 7 20 8 21 9 22
REMARK SMILES IDX 10 23 11 24 12 25 64 26 13 27 63 28 14 29 15 30 16 31 57 32
REMARK SMILES IDX 17 33 62 34 56 35 58 36 18 37 61 38 55 39 54 40 19 42 45 43
REMARK SMILES IDX 28 44 44 45 29 46 32 47 43 48 59 49 30 50 31 51 42 53 60 54
REMARK SMILES IDX 33 55 20 56 21 57 26 58 22 59 23 60 25 61 27 62 24 63 46 64
REMARK SMILES IDX 47 65 52 66 48 67 49 68 51 69 53 70 50 71 34 72 35 73 40 74
REMARK SMILES IDX 36 75 37 76 39 77 41 78 38 79
REMARK H PARENT 58 41 32 52
REMARK Flexibility Score: inf
ROOT
ATOM      1  C   UNL A   1      34.567  22.108  24.046  1.00  0.00     0.274 C 
ENDROOT
BRANCH   1   2
ATOM      2  O   UNL A   1      33.978  23.344  24.501  1.00  0.00    -0.462 OA
BRANCH   2   3
ATOM      3  C   UNL A   1      33.996  24.389  23.626  1.00  0.00     0.313 C 
ATOM      4  O   UNL A   1      34.054  24.259  22.408  1.00  0.00    -0.252 OA
BRANCH   3   5
ATOM      5  C   UNL A   1      33.975  25.749  24.340  1.00  0.00     0.129 C 
ATOM      6  C   UNL A   1      33.932  25.630  25.868  1.00  0.00     0.025 C 
BRANCH   5   7
ATOM      7  C   UNL A   1      32.866  26.638  23.785  1.00  0.00     0.002 A 
ATOM      8  C   UNL A   1      31.518  26.265  23.798  1.00  0.00     0.011 A 
ATOM      9  C   UNL A   1      33.197  27.850  23.164  1.00  0.00     0.130 A 
ATOM     10  C   UNL A   1      30.556  27.076  23.186  1.00  0.00     0.047 A 
ATOM     11  C   UNL A   1      32.238  28.659  22.547  1.00  0.00     0.086 A 
ATOM     12  F   UNL A   1      34.477  28.249  23.134  1.00  0.00    -0.207 F 
ATOM     13  C   UNL A   1      30.907  28.265  22.539  1.00  0.00     0.122 A 
BRANCH  13  14
ATOM     14  O   UNL A   1      29.871  28.865  21.897  1.00  0.00    -0.490 OA
BRANCH  14  15
ATOM     15  C   UNL A   1      29.439  30.193  22.153  1.00  0.00     0.173 C 
ATOM     16  C   UNL A   1      28.469  30.789  21.136  1.00  0.00     0.045 C 
ATOM     17  C   UNL A   1      28.868  30.499  23.542  1.00  0.00     0.045 C 
ATOM     18  C   UNL A   1      27.933  32.007  21.868  1.00  0.00     0.004 C 
ATOM     19  C   UNL A   1      27.746  31.515  23.300  1.00  0.00     0.004 C 
ENDBRANCH  14  15
ENDBRANCH  13  14
ENDBRANCH   5   7
ENDBRANCH   3   5
ENDBRANCH   2   3
ENDBRANCH   1   2
BRANCH   1  20
ATOM     20  C   UNL A   1      35.593  21.610  25.062  1.00  0.00     0.275 C 
BRANCH  20  21
ATOM     21  O   UNL A   1      36.914  21.931  24.594  1.00  0.00    -0.458 OA
BRANCH  21  22
ATOM     22  C   UNL A   1      37.944  21.426  25.306  1.00  0.00     0.338 C 
ATOM     23  O   UNL A   1      38.301  20.255  25.365  1.00  0.00    -0.246 OA
BRANCH  22  24
ATOM     24  C   UNL A   1      38.628  22.508  26.038  1.00  0.00     0.060 A 
ATOM     25  C   UNL A   1      38.100  23.796  26.047  1.00  0.00     0.016 A 
ATOM     26  C   UNL A   1      39.871  22.263  26.625  1.00  0.00     0.016 A 
ATOM     27  C   UNL A   1      38.861  24.853  26.547  1.00  0.00     0.010 A 
ATOM     28  C   UNL A   1      40.590  23.316  27.205  1.00  0.00     0.010 A 
ATOM     29  C   UNL A   1      40.121  24.638  27.128  1.00  0.00    -0.014 A 
BRANCH  29  30
ATOM     30  C   UNL A   1      40.968  25.789  27.571  1.00  0.00     0.031 A 
ATOM     31  C   UNL A   1      40.420  26.814  28.537  1.00  0.00     0.074 A 
ATOM     32  C   UNL A   1      42.244  25.922  27.156  1.00  0.00     0.049 A 
ATOM     33  N   UNL A   1      40.895  27.995  28.852  1.00  0.00    -0.248 NA
ATOM     34  C   UNL A   1      39.160  26.480  29.220  1.00  0.00     0.031 C 
ATOM     35  C   UNL A   1      42.955  25.000  26.271  1.00  0.00     0.029 A 
ATOM     36  N   UNL A   1      43.181  26.887  27.445  1.00  0.00    -0.354 N 
ATOM     37  C   UNL A   1      39.954  28.574  29.695  1.00  0.00     0.074 A 
ATOM     38  C   UNL A   1      38.889  27.608  29.862  1.00  0.00     0.031 C 
ATOM     39  C   UNL A   1      44.230  25.402  26.147  1.00  0.00     0.029 A 
ATOM     40  C   UNL A   1      44.401  26.665  26.856  1.00  0.00     0.049 A 
ATOM     41  H   UNL A   1      42.994  27.664  28.020  1.00  0.00     0.167 HD
ATOM     42  C   UNL A   1      39.970  29.800  30.271  1.00  0.00     0.037 A 
ATOM     43  C   UNL A   1      45.523  27.408  26.843  1.00  0.00     0.037 A 
ATOM     44  C   UNL A   1      41.071  30.726  30.192  1.00  0.00     0.049 A 
ATOM     45  C   UNL A   1      45.535  28.751  27.511  1.00  0.00     0.074 A 
ATOM     46  C   UNL A   1      41.174  31.995  30.738  1.00  0.00     0.029 A 
ATOM     47  N   UNL A   1      42.277  30.464  29.562  1.00  0.00    -0.354 N 
ATOM     48  N   UNL A   1      44.584  29.345  28.187  1.00  0.00    -0.248 NA
ATOM     49  C   UNL A   1      46.766  29.545  27.379  1.00  0.00     0.031 C 
ATOM     50  C   UNL A   1      42.440  32.505  30.431  1.00  0.00     0.029 A 
ATOM     51  C   UNL A   1      43.132  31.542  29.715  1.00  0.00     0.049 A 
ATOM     52  H   UNL A   1      42.492  29.634  29.078  1.00  0.00     0.167 HD
ATOM     53  C   UNL A   1      45.091  30.587  28.543  1.00  0.00     0.074 A 
ATOM     54  C   UNL A   1      46.449  30.647  28.043  1.00  0.00     0.031 C 
ATOM     55  C   UNL A   1      44.476  31.595  29.206  1.00  0.00     0.037 A 
BRANCH  42  56
ATOM     56  C   UNL A   1      38.745  30.237  31.016  1.00  0.00     0.057 A 
ATOM     57  C   UNL A   1      37.688  30.907  30.391  1.00  0.00     0.134 A 
ATOM     58  C   UNL A   1      38.601  29.926  32.376  1.00  0.00     0.134 A 
ATOM     59  F   UNL A   1      37.769  31.244  29.095  1.00  0.00    -0.206 F 
ATOM     60  C   UNL A   1      36.536  31.265  31.094  1.00  0.00     0.040 A 
ATOM     61  C   UNL A   1      37.446  30.259  33.085  1.00  0.00     0.040 A 
ATOM     62  F   UNL A   1      39.575  29.277  33.032  1.00  0.00    -0.206 F 
ATOM     63  C   UNL A   1      36.410  30.934  32.443  1.00  0.00     0.006 A 
ENDBRANCH  42  56
BRANCH  43  64
ATOM     64  C   UNL A   1      46.721  26.913  26.124  1.00  0.00     0.057 A 
ATOM     65  C   UNL A   1      47.686  26.141  26.780  1.00  0.00     0.134 A 
ATOM     66  C   UNL A   1      46.922  27.187  24.765  1.00  0.00     0.134 A 
ATOM     67  F   UNL A   1      47.557  25.867  28.086  1.00  0.00    -0.206 F 
ATOM     68  C   UNL A   1      48.809  25.656  26.109  1.00  0.00     0.040 A 
ATOM     69  C   UNL A   1      48.028  26.688  24.077  1.00  0.00     0.040 A 
ATOM     70  F   UNL A   1      46.032  27.923  24.084  1.00  0.00    -0.206 F 
ATOM     71  C   UNL A   1      48.977  25.922  24.751  1.00  0.00     0.006 A 
ENDBRANCH  43  64
BRANCH  55  72
ATOM     72  C   UNL A   1      45.268  32.847  29.426  1.00  0.00     0.057 A 
ATOM     73  C   UNL A   1      45.216  33.910  28.517  1.00  0.00     0.134 A 
ATOM     74  C   UNL A   1      46.070  33.000  30.563  1.00  0.00     0.134 A 
ATOM     75  F   UNL A   1      44.476  33.816  27.402  1.00  0.00    -0.206 F 
ATOM     76  C   UNL A   1      45.949  35.080  28.723  1.00  0.00     0.040 A 
ATOM     77  C   UNL A   1      46.795  34.171  30.787  1.00  0.00     0.040 A 
ATOM     78  F   UNL A   1      46.158  32.018  31.472  1.00  0.00    -0.206 F 
ATOM     79  C   UNL A   1      46.739  35.213  29.864  1.00  0.00     0.006 A 
ENDBRANCH  55  72
ENDBRANCH  29  30
ENDBRANCH  22  24
ENDBRANCH  21  22
ENDBRANCH  20  21
ENDBRANCH   1  20
TORSDOF 14
ENDMDL
MODEL 2
REMARK VINA RESULT:     -11.5      1.916      2.761
REMARK SMILES C[C@@H](C(=O)OCCOC(=O)c1ccc(-c2c3nc(c(-c4c(F)cccc4F)c4ccc([nH]4)c(-c4c(F)cccc4F)c4nc(c(-c5c(F)cccc5F)c5ccc2[nH]5)C=C4)C=C3)cc1)c1ccc(OC2CCCC2)cc1F
REMARK SMILES IDX 6 1 5 2 3 3 4 4 2 5 1 6 65 7 66 8 76 9 67 10 75 11 77 12
REMARK SMILES IDX 68 13 69 14 70 15 71 16 74 17 72 18 73 19 7 20 8 21 9 22
REMARK SMILES IDX 10 23 11 24 12 25 64 26 13 27 63 28 14 29 15 30 16 31 57 32
REMARK SMILES IDX 17 33 62 34 56 35 58 36 18 37 61 38 55 39 54 40 19 42 45 43
REMARK SMILES IDX 28 44 44 45 29 46 32 47 43 48 59 49 30 50 31 51 42 53 60 54
REMARK SMILES IDX 33 55 20 56 21 57 26 58 22 59 23 60 25 61 27 62 24 63 46 64
REMARK SMILES IDX 47 65 52 66 48 67 49 68 51 69 53 70 50 71 34 72 35 73 40 74
REMARK SMILES IDX 36 75 37 76 39 77 41 78 38 79
REMARK H PARENT 58 41 32 52
REMARK Flexibility Score: inf
ROOT
ATOM      1  C   UNL A   1      34.756  21.090  25.290  1.00  0.00     0.274 C 
ENDROOT
BRANCH   1   2
ATOM      2  O   UNL A   1      33.791  20.878  24.238  1.00  0.00    -0.462 OA
BRANCH   2   3
ATOM      3  C   UNL A   1      32.538  21.372  24.449  1.00  0.00     0.313 C 
ATOM      4  O   UNL A   1      31.746  20.900  25.258  1.00  0.00    -0.252 OA
BRANCH   3   5
ATOM      5  C   UNL A   1      32.216  22.561  23.532  1.00  0.00     0.129 C 
ATOM      6  C   UNL A   1      33.269  22.786  22.441  1.00  0.00     0.025 C 
BRANCH   5   7
ATOM      7  C   UNL A   1      31.934  23.818  24.349  1.00  0.00     0.002 A 
ATOM      8  C   UNL A   1      32.791  24.277  25.354  1.00  0.00     0.011 A 
ATOM      9  C   UNL A   1      30.733  24.515  24.154  1.00  0.00     0.130 A 
ATOM     10  C   UNL A   1      32.433  25.379  26.138  1.00  0.00     0.047 A 
ATOM     11  C   UNL A   1      30.370  25.612  24.940  1.00  0.00     0.086 A 
ATOM     12  F   UNL A   1      29.884  24.111  23.197  1.00  0.00    -0.207 F 
ATOM     13  C   UNL A   1      31.215  26.041  25.953  1.00  0.00     0.122 A 
BRANCH  13  14
ATOM     14  O   UNL A   1      30.974  27.010  26.875  1.00  0.00    -0.490 OA
BRANCH  14  15
ATOM     15  C   UNL A   1      31.570  28.298  26.851  1.00  0.00     0.173 C 
ATOM     16  C   UNL A   1      32.955  28.407  27.481  1.00  0.00     0.045 C 
ATOM     17  C   UNL A   1      31.638  29.023  25.502  1.00  0.00     0.045 C 
ATOM     18  C   UNL A   1      33.443  29.753  26.972  1.00  0.00     0.004 C 
ATOM     19  C   UNL A   1      32.970  29.783  25.522  1.00  0.00     0.004 C 
ENDBRANCH  14  15
ENDBRANCH  13  14
ENDBRANCH   5   7
ENDBRANCH   3   5
ENDBRANCH   2   3
ENDBRANCH   1   2
BRANCH   1  20
ATOM     20  C   UNL A   1      36.048  20.340  24.976  1.00  0.00     0.275 C 
BRANCH  20  21
ATOM     21  O   UNL A   1      37.131  21.282  24.887  1.00  0.00    -0.458 OA
BRANCH  21  22
ATOM     22  C   UNL A   1      38.294  20.919  25.468  1.00  0.00     0.338 C 
ATOM     23  O   UNL A   1      38.807  19.806  25.469  1.00  0.00    -0.246 OA
BRANCH  22  24
ATOM     24  C   UNL A   1      38.909  22.083  26.132  1.00  0.00     0.060 A 
ATOM     25  C   UNL A   1      38.359  23.353  25.981  1.00  0.00     0.016 A 
ATOM     26  C   UNL A   1      40.116  21.926  26.817  1.00  0.00     0.016 A 
ATOM     27  C   UNL A   1      39.067  24.472  26.422  1.00  0.00     0.010 A 
ATOM     28  C   UNL A   1      40.777  23.047  27.335  1.00  0.00     0.010 A 
ATOM     29  C   UNL A   1      40.290  24.345  27.099  1.00  0.00    -0.014 A 
BRANCH  29  30
ATOM     30  C   UNL A   1      41.085  25.553  27.479  1.00  0.00     0.031 A 
ATOM     31  C   UNL A   1      40.503  26.588  28.414  1.00  0.00     0.074 A 
ATOM     32  C   UNL A   1      42.345  25.732  27.034  1.00  0.00     0.049 A 
ATOM     33  N   UNL A   1      40.924  27.802  28.673  1.00  0.00    -0.248 NA
ATOM     34  C   UNL A   1      39.275  26.219  29.135  1.00  0.00     0.031 C 
ATOM     35  C   UNL A   1      43.087  24.812  26.172  1.00  0.00     0.029 A 
ATOM     36  N   UNL A   1      43.237  26.754  27.266  1.00  0.00    -0.354 N 
ATOM     37  C   UNL A   1      39.970  28.367  29.511  1.00  0.00     0.074 A 
ATOM     38  C   UNL A   1      38.958  27.357  29.738  1.00  0.00     0.031 C 
ATOM     39  C   UNL A   1      44.337  25.271  26.007  1.00  0.00     0.029 A 
ATOM     40  C   UNL A   1      44.456  26.569  26.662  1.00  0.00     0.049 A 
ATOM     41  H   UNL A   1      43.022  27.543  27.814  1.00  0.00     0.167 HD
ATOM     42  C   UNL A   1      39.935  29.615  30.038  1.00  0.00     0.037 A 
ATOM     43  C   UNL A   1      45.539  27.366  26.598  1.00  0.00     0.037 A 
ATOM     44  C   UNL A   1      40.985  30.591  29.901  1.00  0.00     0.049 A 
ATOM     45  C   UNL A   1      45.495  28.734  27.211  1.00  0.00     0.074 A 
ATOM     46  C   UNL A   1      41.034  31.884  30.395  1.00  0.00     0.029 A 
ATOM     47  N   UNL A   1      42.191  30.364  29.258  1.00  0.00    -0.354 N 
ATOM     48  N   UNL A   1      44.528  29.306  27.883  1.00  0.00    -0.248 NA
ATOM     49  C   UNL A   1      46.682  29.582  27.024  1.00  0.00     0.031 C 
ATOM     50  C   UNL A   1      42.267  32.444  30.042  1.00  0.00     0.029 A 
ATOM     51  C   UNL A   1      42.994  31.488  29.351  1.00  0.00     0.049 A 
ATOM     52  H   UNL A   1      42.440  29.527  28.803  1.00  0.00     0.167 HD
ATOM     53  C   UNL A   1      44.978  30.586  28.179  1.00  0.00     0.074 A 
ATOM     54  C   UNL A   1      46.321  30.693  27.650  1.00  0.00     0.031 C 
ATOM     55  C   UNL A   1      44.324  31.588  28.814  1.00  0.00     0.037 A 
BRANCH  42  56
ATOM     56  C   UNL A   1      38.702  30.020  30.790  1.00  0.00     0.057 A 
ATOM     57  C   UNL A   1      37.606  30.619  30.162  1.00  0.00     0.134 A 
ATOM     58  C   UNL A   1      38.595  29.750  32.161  1.00  0.00     0.134 A 
ATOM     59  F   UNL A   1      37.650  30.915  28.854  1.00  0.00    -0.206 F 
ATOM     60  C   UNL A   1      36.449  30.947  30.872  1.00  0.00     0.040 A 
ATOM     61  C   UNL A   1      37.438  30.053  32.879  1.00  0.00     0.040 A 
ATOM     62  F   UNL A   1      39.609  29.169  32.822  1.00  0.00    -0.206 F 
ATOM     63  C   UNL A   1      36.361  30.657  32.233  1.00  0.00     0.006 A 
ENDBRANCH  42  56
BRANCH  43  64
ATOM     64  C   UNL A   1      46.748  26.903  25.874  1.00  0.00     0.057 A 
ATOM     65  C   UNL A   1      46.984  27.288  24.551  1.00  0.00     0.134 A 
ATOM     66  C   UNL A   1      47.697  26.079  26.491  1.00  0.00     0.134 A 
ATOM     67  F   UNL A   1      46.097  28.056  23.902  1.00  0.00    -0.206 F 
ATOM     68  C   UNL A   1      48.126  26.871  23.865  1.00  0.00     0.040 A 
ATOM     69  C   UNL A   1      48.855  25.676  25.825  1.00  0.00     0.040 A 
ATOM     70  F   UNL A   1      47.524  25.677  27.759  1.00  0.00    -0.206 F 
ATOM     71  C   UNL A   1      49.069  26.070  24.506  1.00  0.00     0.006 A 
ENDBRANCH  43  64
BRANCH  55  72
ATOM     72  C   UNL A   1      45.056  32.886  28.969  1.00  0.00     0.057 A 
ATOM     73  C   UNL A   1      45.903  33.119  30.059  1.00  0.00     0.134 A 
ATOM     74  C   UNL A   1      44.932  33.899  28.011  1.00  0.00     0.134 A 
ATOM     75  F   UNL A   1      46.052  32.189  31.015  1.00  0.00    -0.206 F 
ATOM     76  C   UNL A   1      46.589  34.325  30.202  1.00  0.00     0.040 A 
ATOM     77  C   UNL A   1      45.626  35.104  28.135  1.00  0.00     0.040 A 
ATOM     78  F   UNL A   1      44.138  33.733  26.944  1.00  0.00    -0.206 F 
ATOM     79  C   UNL A   1      46.454  35.320  29.235  1.00  0.00     0.006 A 
ENDBRANCH  55  72
ENDBRANCH  29  30
ENDBRANCH  22  24
ENDBRANCH  21  22
ENDBRANCH  20  21
ENDBRANCH   1  20
TORSDOF 14
ENDMDL
MODEL 3
REMARK VINA RESULT:     -11.4      3.692      9.066
REMARK SMILES C[C@@H](C(=O)OCCOC(=O)c1ccc(-c2c3nc(c(-c4c(F)cccc4F)c4ccc([nH]4)c(-c4c(F)cccc4F)c4nc(c(-c5c(F)cccc5F)c5ccc2[nH]5)C=C4)C=C3)cc1)c1ccc(OC2CCCC2)cc1F
REMARK SMILES IDX 6 1 5 2 3 3 4 4 2 5 1 6 65 7 66 8 76 9 67 10 75 11 77 12
REMARK SMILES IDX 68 13 69 14 70 15 71 16 74 17 72 18 73 19 7 20 8 21 9 22
REMARK SMILES IDX 10 23 11 24 12 25 64 26 13 27 63 28 14 29 15 30 16 31 57 32
REMARK SMILES IDX 17 33 62 34 56 35 58 36 18 37 61 38 55 39 54 40 19 42 45 43
REMARK SMILES IDX 28 44 44 45 29 46 32 47 43 48 59 49 30 50 31 51 42 53 60 54
REMARK SMILES IDX 33 55 20 56 21 57 26 58 22 59 23 60 25 61 27 62 24 63 46 64
REMARK SMILES IDX 47 65 52 66 48 67 49 68 51 69 53 70 50 71 34 72 35 73 40 74
REMARK SMILES IDX 36 75 37 76 39 77 41 78 38 79
REMARK H PARENT 58 41 32 52
REMARK Flexibility Score: inf
ROOT
ATOM      1  C   UNL A   1      32.001  28.626  24.943  1.00  0.00     0.274 C 
ENDROOT
BRANCH   1   2
ATOM      2  O   UNL A   1      31.791  27.715  26.042  1.00  0.00    -0.462 OA
BRANCH   2   3
ATOM      3  C   UNL A   1      31.028  26.614  25.787  1.00  0.00     0.313 C 
ATOM      4  O   UNL A   1      30.299  26.082  26.618  1.00  0.00    -0.252 OA
BRANCH   3   5
ATOM      5  C   UNL A   1      31.213  26.094  24.354  1.00  0.00     0.129 C 
ATOM      6  C   UNL A   1      29.900  25.656  23.694  1.00  0.00     0.025 C 
BRANCH   5   7
ATOM      7  C   UNL A   1      32.289  25.014  24.302  1.00  0.00     0.002 A 
ATOM      8  C   UNL A   1      32.317  23.928  25.183  1.00  0.00     0.011 A 
ATOM      9  C   UNL A   1      33.348  25.136  23.392  1.00  0.00     0.130 A 
ATOM     10  C   UNL A   1      33.382  23.022  25.154  1.00  0.00     0.047 A 
ATOM     11  C   UNL A   1      34.418  24.235  23.365  1.00  0.00     0.086 A 
ATOM     12  F   UNL A   1      33.359  26.160  22.525  1.00  0.00    -0.207 F 
ATOM     13  C   UNL A   1      34.449  23.178  24.263  1.00  0.00     0.122 A 
BRANCH  13  14
ATOM     14  O   UNL A   1      35.453  22.282  24.450  1.00  0.00    -0.490 OA
BRANCH  14  15
ATOM     15  C   UNL A   1      36.798  22.640  24.729  1.00  0.00     0.173 C 
ATOM     16  C   UNL A   1      36.999  23.691  25.817  1.00  0.00     0.045 C 
ATOM     17  C   UNL A   1      37.789  21.507  25.019  1.00  0.00     0.045 C 
ATOM     18  C   UNL A   1      38.482  23.570  26.121  1.00  0.00     0.004 C 
ATOM     19  C   UNL A   1      38.735  22.066  26.088  1.00  0.00     0.004 C 
ENDBRANCH  14  15
ENDBRANCH  13  14
ENDBRANCH   5   7
ENDBRANCH   3   5
ENDBRANCH   2   3
ENDBRANCH   1   2
BRANCH   1  20
ATOM     20  C   UNL A   1      31.630  30.047  25.360  1.00  0.00     0.275 C 
BRANCH  20  21
ATOM     21  O   UNL A   1      31.997  30.246  26.736  1.00  0.00    -0.458 OA
BRANCH  21  22
ATOM     22  C   UNL A   1      32.619  31.407  27.032  1.00  0.00     0.338 C 
ATOM     23  O   UNL A   1      32.163  32.540  26.926  1.00  0.00    -0.246 OA
BRANCH  22  24
ATOM     24  C   UNL A   1      33.980  31.137  27.529  1.00  0.00     0.060 A 
ATOM     25  C   UNL A   1      34.445  29.828  27.633  1.00  0.00     0.016 A 
ATOM     26  C   UNL A   1      34.760  32.191  28.007  1.00  0.00     0.016 A 
ATOM     27  C   UNL A   1      35.639  29.569  28.309  1.00  0.00     0.010 A 
ATOM     28  C   UNL A   1      36.000  31.929  28.605  1.00  0.00     0.010 A 
ATOM     29  C   UNL A   1      36.435  30.609  28.814  1.00  0.00    -0.014 A 
BRANCH  29  30
ATOM     30  C   UNL A   1      37.660  30.314  29.621  1.00  0.00     0.031 A 
ATOM     31  C   UNL A   1      38.803  29.533  29.016  1.00  0.00     0.074 A 
ATOM     32  C   UNL A   1      37.794  30.766  30.884  1.00  0.00     0.049 A 
ATOM     33  N   UNL A   1      39.831  28.973  29.607  1.00  0.00    -0.248 NA
ATOM     34  C   UNL A   1      38.777  29.333  27.558  1.00  0.00     0.031 C 
ATOM     35  C   UNL A   1      36.820  31.581  31.608  1.00  0.00     0.029 A 
ATOM     36  N   UNL A   1      38.825  30.615  31.781  1.00  0.00    -0.354 N 
ATOM     37  C   UNL A   1      40.518  28.287  28.613  1.00  0.00     0.074 A 
ATOM     38  C   UNL A   1      39.805  28.517  27.374  1.00  0.00     0.031 C 
ATOM     39  C   UNL A   1      37.326  31.917  32.804  1.00  0.00     0.029 A 
ATOM     40  C   UNL A   1      38.615  31.256  32.977  1.00  0.00     0.049 A 
ATOM     41  H   UNL A   1      39.639  30.096  31.584  1.00  0.00     0.167 HD
ATOM     42  C   UNL A   1      41.636  27.528  28.722  1.00  0.00     0.037 A 
ATOM     43  C   UNL A   1      39.347  31.281  34.106  1.00  0.00     0.037 A 
ATOM     44  C   UNL A   1      42.407  27.377  29.929  1.00  0.00     0.049 A 
ATOM     45  C   UNL A   1      40.597  30.458  34.202  1.00  0.00     0.074 A 
ATOM     46  C   UNL A   1      43.550  26.622  30.136  1.00  0.00     0.029 A 
ATOM     47  N   UNL A   1      42.138  28.029  31.122  1.00  0.00    -0.354 N 
ATOM     48  N   UNL A   1      41.159  29.701  33.292  1.00  0.00    -0.248 NA
ATOM     49  C   UNL A   1      41.295  30.463  35.496  1.00  0.00     0.031 C 
ATOM     50  C   UNL A   1      43.968  26.810  31.458  1.00  0.00     0.029 A 
ATOM     51  C   UNL A   1      43.098  27.702  32.065  1.00  0.00     0.049 A 
ATOM     52  H   UNL A   1      41.377  28.634  31.276  1.00  0.00     0.167 HD
ATOM     53  C   UNL A   1      42.260  29.124  33.908  1.00  0.00     0.074 A 
ATOM     54  C   UNL A   1      42.313  29.649  35.257  1.00  0.00     0.031 C 
ATOM     55  C   UNL A   1      43.137  28.222  33.405  1.00  0.00     0.037 A 
BRANCH  42  56
ATOM     56  C   UNL A   1      42.082  26.767  27.510  1.00  0.00     0.057 A 
ATOM     57  C   UNL A   1      42.982  27.300  26.582  1.00  0.00     0.134 A 
ATOM     58  C   UNL A   1      41.641  25.453  27.304  1.00  0.00     0.134 A 
ATOM     59  F   UNL A   1      43.433  28.557  26.716  1.00  0.00    -0.206 F 
ATOM     60  C   UNL A   1      43.421  26.557  25.483  1.00  0.00     0.040 A 
ATOM     61  C   UNL A   1      42.086  24.692  26.222  1.00  0.00     0.040 A 
ATOM     62  F   UNL A   1      40.782  24.880  28.163  1.00  0.00    -0.206 F 
ATOM     63  C   UNL A   1      42.977  25.246  25.306  1.00  0.00     0.006 A 
ENDBRANCH  42  56
BRANCH  43  64
ATOM     64  C   UNL A   1      38.880  32.080  35.264  1.00  0.00     0.057 A 
ATOM     65  C   UNL A   1      38.165  31.483  36.308  1.00  0.00     0.134 A 
ATOM     66  C   UNL A   1      39.148  33.451  35.361  1.00  0.00     0.134 A 
ATOM     67  F   UNL A   1      37.859  30.178  36.257  1.00  0.00    -0.206 F 
ATOM     68  C   UNL A   1      37.734  32.222  37.411  1.00  0.00     0.040 A 
ATOM     69  C   UNL A   1      38.744  34.196  36.470  1.00  0.00     0.040 A 
ATOM     70  F   UNL A   1      39.828  34.078  34.391  1.00  0.00    -0.206 F 
ATOM     71  C   UNL A   1      38.032  33.580  37.498  1.00  0.00     0.006 A 
ENDBRANCH  43  64
BRANCH  55  72
ATOM     72  C   UNL A   1      44.224  27.747  34.319  1.00  0.00     0.057 A 
ATOM     73  C   UNL A   1      44.038  26.644  35.160  1.00  0.00     0.134 A 
ATOM     74  C   UNL A   1      45.471  28.382  34.342  1.00  0.00     0.134 A 
ATOM     75  F   UNL A   1      42.860  26.003  35.190  1.00  0.00    -0.206 F 
ATOM     76  C   UNL A   1      45.052  26.197  36.008  1.00  0.00     0.040 A 
ATOM     77  C   UNL A   1      46.498  27.934  35.175  1.00  0.00     0.040 A 
ATOM     78  F   UNL A   1      45.711  29.442  33.557  1.00  0.00    -0.206 F 
ATOM     79  C   UNL A   1      46.288  26.841  36.014  1.00  0.00     0.006 A 
ENDBRANCH  55  72
ENDBRANCH  29  30
ENDBRANCH  22  24
ENDBRANCH  21  22
ENDBRANCH  20  21
ENDBRANCH   1  20
TORSDOF 14
ENDMDL
