MODEL 1
REMARK VINA RESULT:      -9.3      0.000      0.000
REMARK SMILES O=C(CCc1nnc(CSc2ccccc2)o1)OCCOC(=O)c1ccc(-c2c3nc(c(-c4c(F)cccc4F)c4ccc([nH]4)c(-c4c(F)cccc4F)c4nc(c(-c5c(F)cccc5F)c5ccc2[nH]5)C=C4)C=C3)cc1
REMARK SMILES IDX 18 1 2 2 1 3 3 4 4 5 5 6 6 7 17 8 7 9 8 10 9 11 10 12 11 13
REMARK SMILES IDX 12 14 16 15 13 16 15 17 14 18 19 19 20 20 21 21 22 22 23 23
REMARK SMILES IDX 24 24 25 25 77 26 26 27 76 28 27 29 28 30 29 31 70 32 30 33
REMARK SMILES IDX 75 34 69 35 71 36 31 37 74 38 68 39 67 40 32 42 58 43 41 44
REMARK SMILES IDX 57 45 42 46 45 47 56 48 72 49 43 50 44 51 55 53 73 54 46 55
REMARK SMILES IDX 33 56 34 57 39 58 35 59 36 60 38 61 40 62 37 63 59 64 60 65
REMARK SMILES IDX 65 66 61 67 62 68 64 69 66 70 63 71 47 72 48 73 53 74 49 75
REMARK SMILES IDX 50 76 52 77 54 78 51 79
REMARK H PARENT 71 41 45 52
REMARK Flexibility Score: inf
ROOT
ATOM      1  O   UNL A   1      45.295  18.841  24.465  1.00  0.00    -0.462 OA
ENDROOT
BRANCH   1   2
ATOM      2  C   UNL A   1      46.171  19.831  24.764  1.00  0.00     0.306 C 
ATOM      3  O   UNL A   1      47.381  19.652  24.643  1.00  0.00    -0.252 OA
BRANCH   2   4
ATOM      4  C   UNL A   1      45.645  21.101  25.393  1.00  0.00     0.132 C 
BRANCH   4   5
ATOM      5  C   UNL A   1      45.688  22.290  24.436  1.00  0.00     0.111 C 
BRANCH   5   6
ATOM      6  C   UNL A   1      46.221  23.503  25.100  1.00  0.00     0.217 A 
ATOM      7  N   UNL A   1      47.262  23.641  25.889  1.00  0.00    -0.113 NA
ATOM      8  O   UNL A   1      45.661  24.703  24.748  1.00  0.00    -0.424 OA
ATOM      9  N   UNL A   1      47.455  24.998  26.049  1.00  0.00    -0.112 NA
ATOM     10  C   UNL A   1      46.512  25.596  25.351  1.00  0.00     0.226 A 
BRANCH  10  11
ATOM     11  C   UNL A   1      46.385  27.019  24.951  1.00  0.00     0.174 C 
BRANCH  11  12
ATOM     12  S   UNL A   1      45.915  28.128  26.306  1.00  0.00    -0.116 SA
BRANCH  12  13
ATOM     13  C   UNL A   1      44.151  28.184  26.064  1.00  0.00     0.008 A 
ATOM     14  C   UNL A   1      43.459  27.136  25.449  1.00  0.00     0.015 A 
ATOM     15  C   UNL A   1      43.452  29.317  26.486  1.00  0.00     0.015 A 
ATOM     16  C   UNL A   1      42.076  27.214  25.278  1.00  0.00     0.001 A 
ATOM     17  C   UNL A   1      42.070  29.396  26.313  1.00  0.00     0.001 A 
ATOM     18  C   UNL A   1      41.382  28.343  25.713  1.00  0.00     0.000 A 
ENDBRANCH  12  13
ENDBRANCH  11  12
ENDBRANCH  10  11
ENDBRANCH   5   6
ENDBRANCH   4   5
ENDBRANCH   2   4
ENDBRANCH   1   2
BRANCH   1  19
ATOM     19  C   UNL A   1      43.873  18.961  24.660  1.00  0.00     0.274 C 
BRANCH  19  20
ATOM     20  C   UNL A   1      43.331  18.048  25.759  1.00  0.00     0.275 C 
BRANCH  20  21
ATOM     21  O   UNL A   1      42.614  18.806  26.742  1.00  0.00    -0.458 OA
BRANCH  21  22
ATOM     22  C   UNL A   1      41.645  19.600  26.221  1.00  0.00     0.338 C 
ATOM     23  O   UNL A   1      40.729  19.259  25.492  1.00  0.00    -0.246 OA
BRANCH  22  24
ATOM     24  C   UNL A   1      41.753  20.948  26.808  1.00  0.00     0.060 A 
ATOM     25  C   UNL A   1      42.122  22.000  25.961  1.00  0.00     0.016 A 
ATOM     26  C   UNL A   1      41.521  21.177  28.167  1.00  0.00     0.016 A 
ATOM     27  C   UNL A   1      42.305  23.280  26.479  1.00  0.00     0.010 A 
ATOM     28  C   UNL A   1      41.708  22.458  28.686  1.00  0.00     0.010 A 
ATOM     29  C   UNL A   1      42.132  23.506  27.851  1.00  0.00    -0.014 A 
BRANCH  29  30
ATOM     30  C   UNL A   1      42.544  24.794  28.453  1.00  0.00     0.031 A 
ATOM     31  C   UNL A   1      41.513  25.873  28.617  1.00  0.00     0.074 A 
ATOM     32  C   UNL A   1      43.819  25.014  28.812  1.00  0.00     0.049 A 
ATOM     33  N   UNL A   1      41.660  27.106  29.027  1.00  0.00    -0.248 NA
ATOM     34  C   UNL A   1      40.132  25.516  28.255  1.00  0.00     0.031 C 
ATOM     35  C   UNL A   1      44.905  24.041  28.719  1.00  0.00     0.029 A 
ATOM     36  N   UNL A   1      44.418  26.146  29.306  1.00  0.00    -0.354 N 
ATOM     37  C   UNL A   1      40.395  27.674  28.965  1.00  0.00     0.074 A 
ATOM     38  C   UNL A   1      39.498  26.662  28.451  1.00  0.00     0.031 C 
ATOM     39  C   UNL A   1      46.048  24.629  29.111  1.00  0.00     0.029 A 
ATOM     40  C   UNL A   1      45.777  26.023  29.458  1.00  0.00     0.049 A 
ATOM     41  H   UNL A   1      43.922  26.966  29.529  1.00  0.00     0.167 HD
ATOM     42  C   UNL A   1      40.015  28.927  29.309  1.00  0.00     0.037 A 
ATOM     43  C   UNL A   1      46.697  26.942  29.809  1.00  0.00     0.037 A 
ATOM     44  C   UNL A   1      40.906  29.932  29.820  1.00  0.00     0.049 A 
ATOM     45  C   UNL A   1      46.262  28.344  30.139  1.00  0.00     0.074 A 
ATOM     46  C   UNL A   1      40.608  31.216  30.240  1.00  0.00     0.029 A 
ATOM     47  N   UNL A   1      42.274  29.770  29.964  1.00  0.00    -0.354 N 
ATOM     48  N   UNL A   1      45.056  28.859  30.128  1.00  0.00    -0.248 NA
ATOM     49  C   UNL A   1      47.314  29.293  30.532  1.00  0.00     0.031 C 
ATOM     50  C   UNL A   1      41.804  31.848  30.593  1.00  0.00     0.029 A 
ATOM     51  C   UNL A   1      42.842  30.941  30.437  1.00  0.00     0.049 A 
ATOM     52  H   UNL A   1      42.770  28.944  29.761  1.00  0.00     0.167 HD
ATOM     53  C   UNL A   1      45.200  30.180  30.536  1.00  0.00     0.074 A 
ATOM     54  C   UNL A   1      46.610  30.388  30.790  1.00  0.00     0.031 C 
ATOM     55  C   UNL A   1      44.246  31.132  30.691  1.00  0.00     0.037 A 
BRANCH  42  56
ATOM     56  C   UNL A   1      38.571  29.280  29.112  1.00  0.00     0.057 A 
ATOM     57  C   UNL A   1      38.063  29.650  27.860  1.00  0.00     0.134 A 
ATOM     58  C   UNL A   1      37.678  29.247  30.191  1.00  0.00     0.134 A 
ATOM     59  F   UNL A   1      38.870  29.716  26.792  1.00  0.00    -0.206 F 
ATOM     60  C   UNL A   1      36.722  30.004  27.694  1.00  0.00     0.040 A 
ATOM     61  C   UNL A   1      36.331  29.576  30.031  1.00  0.00     0.040 A 
ATOM     62  F   UNL A   1      38.101  28.899  31.416  1.00  0.00    -0.206 F 
ATOM     63  C   UNL A   1      35.852  29.963  28.782  1.00  0.00     0.006 A 
ENDBRANCH  42  56
BRANCH  43  64
ATOM     64  C   UNL A   1      48.130  26.563  29.845  1.00  0.00     0.057 A 
ATOM     65  C   UNL A   1      48.674  25.879  30.938  1.00  0.00     0.134 A 
ATOM     66  C   UNL A   1      48.989  26.874  28.784  1.00  0.00     0.134 A 
ATOM     67  F   UNL A   1      47.904  25.574  31.992  1.00  0.00    -0.206 F 
ATOM     68  C   UNL A   1      50.022  25.523  30.978  1.00  0.00     0.040 A 
ATOM     69  C   UNL A   1      50.336  26.506  28.802  1.00  0.00     0.040 A 
ATOM     70  F   UNL A   1      48.527  27.527  27.708  1.00  0.00    -0.206 F 
ATOM     71  C   UNL A   1      50.856  25.832  29.904  1.00  0.00     0.006 A 
ENDBRANCH  43  64
BRANCH  55  72
ATOM     72  C   UNL A   1      44.683  32.479  31.186  1.00  0.00     0.057 A 
ATOM     73  C   UNL A   1      44.819  32.755  32.552  1.00  0.00     0.134 A 
ATOM     74  C   UNL A   1      45.045  33.485  30.282  1.00  0.00     0.134 A 
ATOM     75  F   UNL A   1      44.477  31.837  33.468  1.00  0.00    -0.206 F 
ATOM     76  C   UNL A   1      45.295  33.988  33.001  1.00  0.00     0.040 A 
ATOM     77  C   UNL A   1      45.543  34.714  30.718  1.00  0.00     0.040 A 
ATOM     78  F   UNL A   1      44.945  33.280  28.960  1.00  0.00    -0.206 F 
ATOM     79  C   UNL A   1      45.668  34.968  32.082  1.00  0.00     0.006 A 
ENDBRANCH  55  72
ENDBRANCH  29  30
ENDBRANCH  22  24
ENDBRANCH  21  22
ENDBRANCH  20  21
ENDBRANCH  19  20
ENDBRANCH   1  19
TORSDOF 16
ENDMDL
MODEL 2
REMARK VINA RESULT:      -9.1      4.684      9.007
REMARK SMILES O=C(CCc1nnc(CSc2ccccc2)o1)OCCOC(=O)c1ccc(-c2c3nc(c(-c4c(F)cccc4F)c4ccc([nH]4)c(-c4c(F)cccc4F)c4nc(c(-c5c(F)cccc5F)c5ccc2[nH]5)C=C4)C=C3)cc1
REMARK SMILES IDX 18 1 2 2 1 3 3 4 4 5 5 6 6 7 17 8 7 9 8 10 9 11 10 12 11 13
REMARK SMILES IDX 12 14 16 15 13 16 15 17 14 18 19 19 20 20 21 21 22 22 23 23
REMARK SMILES IDX 24 24 25 25 77 26 26 27 76 28 27 29 28 30 29 31 70 32 30 33
REMARK SMILES IDX 75 34 69 35 71 36 31 37 74 38 68 39 67 40 32 42 58 43 41 44
REMARK SMILES IDX 57 45 42 46 45 47 56 48 72 49 43 50 44 51 55 53 73 54 46 55
REMARK SMILES IDX 33 56 34 57 39 58 35 59 36 60 38 61 40 62 37 63 59 64 60 65
REMARK SMILES IDX 65 66 61 67 62 68 64 69 66 70 63 71 47 72 48 73 53 74 49 75
REMARK SMILES IDX 50 76 52 77 54 78 51 79
REMARK H PARENT 71 41 45 52
REMARK Flexibility Score: inf
ROOT
ATOM      1  O   UNL A   1      42.798  20.389  25.236  1.00  0.00    -0.462 OA
ENDROOT
BRANCH   1   2
ATOM      2  C   UNL A   1      41.993  19.463  25.814  1.00  0.00     0.306 C 
ATOM      3  O   UNL A   1      42.308  18.276  25.816  1.00  0.00    -0.252 OA
BRANCH   2   4
ATOM      4  C   UNL A   1      40.636  19.896  26.321  1.00  0.00     0.132 C 
BRANCH   4   5
ATOM      5  C   UNL A   1      40.595  21.374  26.698  1.00  0.00     0.111 C 
BRANCH   5   6
ATOM      6  C   UNL A   1      39.286  21.984  26.366  1.00  0.00     0.217 A 
ATOM      7  N   UNL A   1      38.927  23.248  26.353  1.00  0.00    -0.113 NA
ATOM      8  O   UNL A   1      38.324  21.155  25.851  1.00  0.00    -0.424 OA
ATOM      9  N   UNL A   1      37.681  23.294  25.758  1.00  0.00    -0.112 NA
ATOM     10  C   UNL A   1      37.363  22.052  25.457  1.00  0.00     0.226 A 
BRANCH  10  11
ATOM     11  C   UNL A   1      36.279  21.536  24.586  1.00  0.00     0.174 C 
BRANCH  11  12
ATOM     12  S   UNL A   1      34.693  21.311  25.436  1.00  0.00    -0.116 SA
BRANCH  12  13
ATOM     13  C   UNL A   1      34.141  19.801  24.669  1.00  0.00     0.008 A 
ATOM     14  C   UNL A   1      32.868  19.686  24.102  1.00  0.00     0.015 A 
ATOM     15  C   UNL A   1      35.004  18.702  24.655  1.00  0.00     0.015 A 
ATOM     16  C   UNL A   1      32.472  18.486  23.508  1.00  0.00     0.001 A 
ATOM     17  C   UNL A   1      34.606  17.503  24.063  1.00  0.00     0.001 A 
ATOM     18  C   UNL A   1      33.342  17.397  23.486  1.00  0.00     0.000 A 
ENDBRANCH  12  13
ENDBRANCH  11  12
ENDBRANCH  10  11
ENDBRANCH   5   6
ENDBRANCH   4   5
ENDBRANCH   2   4
ENDBRANCH   1   2
BRANCH   1  19
ATOM     19  C   UNL A   1      44.234  20.348  25.321  1.00  0.00     0.274 C 
BRANCH  19  20
ATOM     20  C   UNL A   1      44.868  21.718  25.563  1.00  0.00     0.275 C 
BRANCH  20  21
ATOM     21  O   UNL A   1      43.875  22.673  25.962  1.00  0.00    -0.458 OA
BRANCH  21  22
ATOM     22  C   UNL A   1      44.119  23.933  25.523  1.00  0.00     0.338 C 
ATOM     23  O   UNL A   1      44.678  24.255  24.488  1.00  0.00    -0.246 OA
BRANCH  22  24
ATOM     24  C   UNL A   1      43.448  24.896  26.414  1.00  0.00     0.060 A 
ATOM     25  C   UNL A   1      43.900  26.221  26.401  1.00  0.00     0.016 A 
ATOM     26  C   UNL A   1      42.409  24.508  27.265  1.00  0.00     0.016 A 
ATOM     27  C   UNL A   1      43.344  27.155  27.273  1.00  0.00     0.010 A 
ATOM     28  C   UNL A   1      41.856  25.443  28.140  1.00  0.00     0.010 A 
ATOM     29  C   UNL A   1      42.345  26.761  28.171  1.00  0.00    -0.014 A 
BRANCH  29  30
ATOM     30  C   UNL A   1      41.910  27.671  29.253  1.00  0.00     0.031 A 
ATOM     31  C   UNL A   1      42.616  27.603  30.577  1.00  0.00     0.074 A 
ATOM     32  C   UNL A   1      40.881  28.516  29.077  1.00  0.00     0.049 A 
ATOM     33  N   UNL A   1      42.350  28.229  31.693  1.00  0.00    -0.248 NA
ATOM     34  C   UNL A   1      43.771  26.694  30.653  1.00  0.00     0.031 C 
ATOM     35  C   UNL A   1      40.129  28.685  27.836  1.00  0.00     0.029 A 
ATOM     36  N   UNL A   1      40.276  29.373  29.962  1.00  0.00    -0.354 N 
ATOM     37  C   UNL A   1      43.296  27.785  32.607  1.00  0.00     0.074 A 
ATOM     38  C   UNL A   1      44.125  26.816  31.924  1.00  0.00     0.031 C 
ATOM     39  C   UNL A   1      39.138  29.569  28.048  1.00  0.00     0.029 A 
ATOM     40  C   UNL A   1      39.174  30.005  29.443  1.00  0.00     0.049 A 
ATOM     41  H   UNL A   1      40.600  29.519  30.879  1.00  0.00     0.167 HD
ATOM     42  C   UNL A   1      43.461  28.155  33.898  1.00  0.00     0.037 A 
ATOM     43  C   UNL A   1      38.281  30.819  30.037  1.00  0.00     0.037 A 
ATOM     44  C   UNL A   1      42.637  29.118  34.577  1.00  0.00     0.049 A 
ATOM     45  C   UNL A   1      38.451  31.179  31.488  1.00  0.00     0.074 A 
ATOM     46  C   UNL A   1      42.753  29.593  35.871  1.00  0.00     0.029 A 
ATOM     47  N   UNL A   1      41.533  29.741  34.017  1.00  0.00    -0.354 N 
ATOM     48  N   UNL A   1      39.379  30.796  32.331  1.00  0.00    -0.248 NA
ATOM     49  C   UNL A   1      37.451  32.087  32.071  1.00  0.00     0.031 C 
ATOM     50  C   UNL A   1      41.688  30.468  36.110  1.00  0.00     0.029 A 
ATOM     51  C   UNL A   1      40.937  30.573  34.950  1.00  0.00     0.049 A 
ATOM     52  H   UNL A   1      41.218  29.611  33.093  1.00  0.00     0.167 HD
ATOM     53  C   UNL A   1      39.093  31.432  33.532  1.00  0.00     0.074 A 
ATOM     54  C   UNL A   1      37.905  32.230  33.310  1.00  0.00     0.031 C 
ATOM     55  C   UNL A   1      39.759  31.366  34.712  1.00  0.00     0.037 A 
BRANCH  42  56
ATOM     56  C   UNL A   1      44.563  27.486  34.664  1.00  0.00     0.057 A 
ATOM     57  C   UNL A   1      44.376  26.256  35.309  1.00  0.00     0.134 A 
ATOM     58  C   UNL A   1      45.827  28.081  34.756  1.00  0.00     0.134 A 
ATOM     59  F   UNL A   1      43.184  25.644  35.272  1.00  0.00    -0.206 F 
ATOM     60  C   UNL A   1      45.401  25.656  36.043  1.00  0.00     0.040 A 
ATOM     61  C   UNL A   1      46.866  27.479  35.467  1.00  0.00     0.040 A 
ATOM     62  F   UNL A   1      46.071  29.258  34.160  1.00  0.00    -0.206 F 
ATOM     63  C   UNL A   1      46.652  26.266  36.119  1.00  0.00     0.006 A 
ENDBRANCH  42  56
BRANCH  43  64
ATOM     64  C   UNL A   1      37.129  31.334  29.257  1.00  0.00     0.057 A 
ATOM     65  C   UNL A   1      37.131  32.627  28.725  1.00  0.00     0.134 A 
ATOM     66  C   UNL A   1      36.000  30.539  29.023  1.00  0.00     0.134 A 
ATOM     67  F   UNL A   1      38.176  33.441  28.936  1.00  0.00    -0.206 F 
ATOM     68  C   UNL A   1      36.049  33.117  27.993  1.00  0.00     0.040 A 
ATOM     69  C   UNL A   1      34.918  31.009  28.275  1.00  0.00     0.040 A 
ATOM     70  F   UNL A   1      35.938  29.290  29.505  1.00  0.00    -0.206 F 
ATOM     71  C   UNL A   1      34.940  32.304  27.761  1.00  0.00     0.006 A 
ENDBRANCH  43  64
BRANCH  55  72
ATOM     72  C   UNL A   1      39.244  32.197  35.849  1.00  0.00     0.057 A 
ATOM     73  C   UNL A   1      39.634  33.530  36.027  1.00  0.00     0.134 A 
ATOM     74  C   UNL A   1      38.287  31.679  36.732  1.00  0.00     0.134 A 
ATOM     75  F   UNL A   1      40.556  34.080  35.222  1.00  0.00    -0.206 F 
ATOM     76  C   UNL A   1      39.095  34.317  37.045  1.00  0.00     0.040 A 
ATOM     77  C   UNL A   1      37.723  32.463  37.739  1.00  0.00     0.040 A 
ATOM     78  F   UNL A   1      37.864  30.412  36.610  1.00  0.00    -0.206 F 
ATOM     79  C   UNL A   1      38.129  33.787  37.899  1.00  0.00     0.006 A 
ENDBRANCH  55  72
ENDBRANCH  29  30
ENDBRANCH  22  24
ENDBRANCH  21  22
ENDBRANCH  20  21
ENDBRANCH  19  20
ENDBRANCH   1  19
TORSDOF 16
ENDMDL
MODEL 3
REMARK VINA RESULT:      -8.9      4.431      8.515
REMARK SMILES O=C(CCc1nnc(CSc2ccccc2)o1)OCCOC(=O)c1ccc(-c2c3nc(c(-c4c(F)cccc4F)c4ccc([nH]4)c(-c4c(F)cccc4F)c4nc(c(-c5c(F)cccc5F)c5ccc2[nH]5)C=C4)C=C3)cc1
REMARK SMILES IDX 18 1 2 2 1 3 3 4 4 5 5 6 6 7 17 8 7 9 8 10 9 11 10 12 11 13
REMARK SMILES IDX 12 14 16 15 13 16 15 17 14 18 19 19 20 20 21 21 22 22 23 23
REMARK SMILES IDX 24 24 25 25 77 26 26 27 76 28 27 29 28 30 29 31 70 32 30 33
REMARK SMILES IDX 75 34 69 35 71 36 31 37 74 38 68 39 67 40 32 42 58 43 41 44
REMARK SMILES IDX 57 45 42 46 45 47 56 48 72 49 43 50 44 51 55 53 73 54 46 55
REMARK SMILES IDX 33 56 34 57 39 58 35 59 36 60 38 61 40 62 37 63 59 64 60 65
REMARK SMILES IDX 65 66 61 67 62 68 64 69 66 70 63 71 47 72 48 73 53 74 49 75
REMARK SMILES IDX 50 76 52 77 54 78 51 79
REMARK H PARENT 71 41 45 52
REMARK Flexibility Score: inf
ROOT
ATOM      1  O   UNL A   1      43.003  20.273  25.212  1.00  0.00    -0.462 OA
ENDROOT
BRANCH   1   2
ATOM      2  C   UNL A   1      42.215  19.362  25.833  1.00  0.00     0.306 C 
ATOM      3  O   UNL A   1      42.463  18.161  25.751  1.00  0.00    -0.252 OA
BRANCH   2   4
ATOM      4  C   UNL A   1      40.944  19.836  26.501  1.00  0.00     0.132 C 
BRANCH   4   5
ATOM      5  C   UNL A   1      40.955  21.336  26.783  1.00  0.00     0.111 C 
BRANCH   5   6
ATOM      6  C   UNL A   1      39.641  21.954  26.488  1.00  0.00     0.217 A 
ATOM      7  N   UNL A   1      39.166  23.128  26.838  1.00  0.00    -0.113 NA
ATOM      8  O   UNL A   1      38.828  21.298  25.600  1.00  0.00    -0.424 OA
ATOM      9  N   UNL A   1      37.999  23.308  26.122  1.00  0.00    -0.112 NA
ATOM     10  C   UNL A   1      37.838  22.226  25.391  1.00  0.00     0.226 A 
BRANCH  10  11
ATOM     11  C   UNL A   1      36.916  21.978  24.256  1.00  0.00     0.174 C 
BRANCH  11  12
ATOM     12  S   UNL A   1      35.182  21.767  24.744  1.00  0.00    -0.116 SA
BRANCH  12  13
ATOM     13  C   UNL A   1      34.565  23.405  24.413  1.00  0.00     0.008 A 
ATOM     14  C   UNL A   1      34.131  23.784  23.139  1.00  0.00     0.015 A 
ATOM     15  C   UNL A   1      34.535  24.333  25.456  1.00  0.00     0.015 A 
ATOM     16  C   UNL A   1      33.651  25.077  22.918  1.00  0.00     0.001 A 
ATOM     17  C   UNL A   1      34.058  25.626  25.234  1.00  0.00     0.001 A 
ATOM     18  C   UNL A   1      33.613  25.996  23.966  1.00  0.00     0.000 A 
ENDBRANCH  12  13
ENDBRANCH  11  12
ENDBRANCH  10  11
ENDBRANCH   5   6
ENDBRANCH   4   5
ENDBRANCH   2   4
ENDBRANCH   1   2
BRANCH   1  19
ATOM     19  C   UNL A   1      44.434  20.315  25.368  1.00  0.00     0.274 C 
BRANCH  19  20
ATOM     20  C   UNL A   1      44.997  21.735  25.421  1.00  0.00     0.275 C 
BRANCH  20  21
ATOM     21  O   UNL A   1      44.031  22.645  25.966  1.00  0.00    -0.458 OA
BRANCH  21  22
ATOM     22  C   UNL A   1      44.101  23.895  25.444  1.00  0.00     0.338 C 
ATOM     23  O   UNL A   1      44.519  24.209  24.343  1.00  0.00    -0.246 OA
BRANCH  22  24
ATOM     24  C   UNL A   1      43.426  24.839  26.353  1.00  0.00     0.060 A 
ATOM     25  C   UNL A   1      43.808  26.184  26.296  1.00  0.00     0.016 A 
ATOM     26  C   UNL A   1      42.452  24.413  27.261  1.00  0.00     0.016 A 
ATOM     27  C   UNL A   1      43.249  27.105  27.181  1.00  0.00     0.010 A 
ATOM     28  C   UNL A   1      41.896  25.335  28.149  1.00  0.00     0.010 A 
ATOM     29  C   UNL A   1      42.317  26.676  28.134  1.00  0.00    -0.014 A 
BRANCH  29  30
ATOM     30  C   UNL A   1      41.891  27.583  29.223  1.00  0.00     0.031 A 
ATOM     31  C   UNL A   1      42.596  27.500  30.546  1.00  0.00     0.074 A 
ATOM     32  C   UNL A   1      40.868  28.437  29.053  1.00  0.00     0.049 A 
ATOM     33  N   UNL A   1      42.335  28.120  31.667  1.00  0.00    -0.248 NA
ATOM     34  C   UNL A   1      43.744  26.581  30.616  1.00  0.00     0.031 C 
ATOM     35  C   UNL A   1      40.117  28.621  27.814  1.00  0.00     0.029 A 
ATOM     36  N   UNL A   1      40.271  29.293  29.944  1.00  0.00    -0.354 N 
ATOM     37  C   UNL A   1      43.278  27.663  32.577  1.00  0.00     0.074 A 
ATOM     38  C   UNL A   1      44.099  26.691  31.887  1.00  0.00     0.031 C 
ATOM     39  C   UNL A   1      39.134  29.511  28.032  1.00  0.00     0.029 A 
ATOM     40  C   UNL A   1      39.173  29.938  29.430  1.00  0.00     0.049 A 
ATOM     41  H   UNL A   1      40.596  29.430  30.862  1.00  0.00     0.167 HD
ATOM     42  C   UNL A   1      43.447  28.022  33.870  1.00  0.00     0.037 A 
ATOM     43  C   UNL A   1      38.287  30.755  30.030  1.00  0.00     0.037 A 
ATOM     44  C   UNL A   1      42.631  28.987  34.556  1.00  0.00     0.049 A 
ATOM     45  C   UNL A   1      38.461  31.103  31.484  1.00  0.00     0.074 A 
ATOM     46  C   UNL A   1      42.752  29.452  35.853  1.00  0.00     0.029 A 
ATOM     47  N   UNL A   1      41.532  29.622  34.001  1.00  0.00    -0.354 N 
ATOM     48  N   UNL A   1      39.387  30.707  32.324  1.00  0.00    -0.248 NA
ATOM     49  C   UNL A   1      37.469  32.015  32.074  1.00  0.00     0.031 C 
ATOM     50  C   UNL A   1      41.695  30.334  36.099  1.00  0.00     0.029 A 
ATOM     51  C   UNL A   1      40.944  30.454  34.940  1.00  0.00     0.049 A 
ATOM     52  H   UNL A   1      41.216  29.502  33.077  1.00  0.00     0.167 HD
ATOM     53  C   UNL A   1      39.106  31.338  33.529  1.00  0.00     0.074 A 
ATOM     54  C   UNL A   1      37.924  32.147  33.313  1.00  0.00     0.031 C 
ATOM     55  C   UNL A   1      39.772  31.258  34.708  1.00  0.00     0.037 A 
BRANCH  42  56
ATOM     56  C   UNL A   1      44.544  27.338  34.631  1.00  0.00     0.057 A 
ATOM     57  C   UNL A   1      45.841  27.862  34.693  1.00  0.00     0.134 A 
ATOM     58  C   UNL A   1      44.295  26.141  35.313  1.00  0.00     0.134 A 
ATOM     59  F   UNL A   1      46.147  28.998  34.048  1.00  0.00    -0.206 F 
ATOM     60  C   UNL A   1      46.861  27.203  35.381  1.00  0.00     0.040 A 
ATOM     61  C   UNL A   1      45.301  25.485  36.024  1.00  0.00     0.040 A 
ATOM     62  F   UNL A   1      43.073  25.587  35.295  1.00  0.00    -0.206 F 
ATOM     63  C   UNL A   1      46.590  26.012  36.053  1.00  0.00     0.006 A 
ENDBRANCH  42  56
BRANCH  43  64
ATOM     64  C   UNL A   1      37.139  31.284  29.255  1.00  0.00     0.057 A 
ATOM     65  C   UNL A   1      37.153  32.581  28.730  1.00  0.00     0.134 A 
ATOM     66  C   UNL A   1      36.003  30.501  29.016  1.00  0.00     0.134 A 
ATOM     67  F   UNL A   1      38.205  33.384  28.945  1.00  0.00    -0.206 F 
ATOM     68  C   UNL A   1      36.074  33.084  28.002  1.00  0.00     0.040 A 
ATOM     69  C   UNL A   1      34.925  30.985  28.272  1.00  0.00     0.040 A 
ATOM     70  F   UNL A   1      35.931  29.249  29.491  1.00  0.00    -0.206 F 
ATOM     71  C   UNL A   1      34.958  32.283  27.767  1.00  0.00     0.006 A 
ENDBRANCH  43  64
BRANCH  55  72
ATOM     72  C   UNL A   1      39.264  32.085  35.852  1.00  0.00     0.057 A 
ATOM     73  C   UNL A   1      39.701  33.398  36.064  1.00  0.00     0.134 A 
ATOM     74  C   UNL A   1      38.270  31.587  36.703  1.00  0.00     0.134 A 
ATOM     75  F   UNL A   1      40.659  33.929  35.290  1.00  0.00    -0.206 F 
ATOM     76  C   UNL A   1      39.170  34.185  37.087  1.00  0.00     0.040 A 
ATOM     77  C   UNL A   1      37.715  32.371  37.715  1.00  0.00     0.040 A 
ATOM     78  F   UNL A   1      37.803  30.339  36.547  1.00  0.00    -0.206 F 
ATOM     79  C   UNL A   1      38.166  33.675  37.910  1.00  0.00     0.006 A 
ENDBRANCH  55  72
ENDBRANCH  29  30
ENDBRANCH  22  24
ENDBRANCH  21  22
ENDBRANCH  20  21
ENDBRANCH  19  20
ENDBRANCH   1  19
TORSDOF 16
ENDMDL
