MODEL 1
REMARK VINA RESULT:     -13.2      0.000      0.000
REMARK SMILES COc1cccc([C@H]2CC(c3ccc(S(C)(=O)=O)cc3)=NN2c2ccc(C(=O)OCCOC(=O)c3ccc(-c4c5nc(c(-c6c(F)cccc6F)c6ccc([nH]6)c(-c6c(F)cccc6F)c6nc(c(-c7c(F)cccc7F)c7ccc4[nH]7)C=C6)C=C5)cc3)cc2)c1
REMARK SMILES IDX 30 1 29 2 27 3 28 4 26 5 23 6 24 7 90 8 25 9 89 10 22 11
REMARK SMILES IDX 8 12 9 13 10 14 21 15 7 16 3 17 4 18 91 19 5 20 6 21 2 22
REMARK SMILES IDX 1 23 11 24 12 25 20 26 13 27 19 28 14 29 15 30 16 31 17 32
REMARK SMILES IDX 18 33 31 34 32 35 33 36 34 37 35 38 36 39 88 40 37 41 87 42
REMARK SMILES IDX 38 43 39 44 40 45 81 46 41 47 86 48 80 49 82 50 42 51 85 52
REMARK SMILES IDX 79 53 78 54 43 56 69 57 52 58 68 59 53 60 56 61 67 62 83 63
REMARK SMILES IDX 54 64 55 65 66 67 84 68 57 69 44 70 45 71 50 72 46 73 47 74
REMARK SMILES IDX 49 75 51 76 48 77 70 78 71 79 76 80 72 81 73 82 75 83 77 84
REMARK SMILES IDX 74 85 58 86 59 87 64 88 60 89 61 90 63 91 65 92 62 93
REMARK H PARENT 82 55 56 66
REMARK Flexibility Score: inf
ROOT
ATOM      1  C   UNL A   1      34.042  33.242  28.676  1.00  0.00     0.275 C 
ENDROOT
BRANCH   1   2
ATOM      2  O   UNL A   1      33.602  31.877  28.507  1.00  0.00    -0.458 OA
BRANCH   2   3
ATOM      3  C   UNL A   1      34.338  31.137  27.643  1.00  0.00     0.338 C 
ATOM      4  O   UNL A   1      35.452  31.404  27.220  1.00  0.00    -0.246 OA
BRANCH   3   5
ATOM      5  C   UNL A   1      33.649  29.875  27.302  1.00  0.00     0.060 A 
ATOM      6  C   UNL A   1      32.390  27.535  26.361  1.00  0.00     0.060 A 
ATOM      7  C   UNL A   1      33.777  27.675  26.297  1.00  0.00     0.029 A 
ATOM      8  C   UNL A   1      31.647  28.571  26.950  1.00  0.00     0.029 A 
ATOM      9  C   UNL A   1      34.393  28.846  26.719  1.00  0.00     0.018 A 
ATOM     10  C   UNL A   1      32.270  29.729  27.443  1.00  0.00     0.018 A 
BRANCH   6  11
ATOM     11  N   UNL A   1      31.795  26.411  25.810  1.00  0.00    -0.257 N 
ATOM     12  C   UNL A   1      30.525  26.430  25.082  1.00  0.00     0.144 C 
ATOM     13  C   UNL A   1      30.436  25.003  24.524  1.00  0.00     0.091 C 
ATOM     14  C   UNL A   1      31.752  24.449  24.994  1.00  0.00     0.071 C 
ATOM     15  N   UNL A   1      32.495  25.252  25.685  1.00  0.00    -0.176 NA
BRANCH  12  16
ATOM     16  C   UNL A   1      30.476  27.502  23.998  1.00  0.00    -0.019 A 
ATOM     17  C   UNL A   1      29.278  29.142  22.643  1.00  0.00     0.119 A 
ATOM     18  C   UNL A   1      30.463  29.444  21.971  1.00  0.00     0.046 A 
ATOM     19  C   UNL A   1      29.282  28.159  23.638  1.00  0.00     0.052 A 
ATOM     20  C   UNL A   1      31.649  28.793  22.301  1.00  0.00     0.004 A 
ATOM     21  C   UNL A   1      31.656  27.830  23.309  1.00  0.00     0.006 A 
BRANCH  17  22
ATOM     22  O   UNL A   1      28.185  29.844  22.214  1.00  0.00    -0.497 OA
ATOM     23  C   UNL A   1      27.619  30.758  23.144  1.00  0.00     0.278 C 
ENDBRANCH  17  22
ENDBRANCH  12  16
BRANCH  14  24
ATOM     24  C   UNL A   1      32.109  23.047  24.751  1.00  0.00    -0.002 A 
ATOM     25  C   UNL A   1      32.465  22.259  25.851  1.00  0.00     0.011 A 
ATOM     26  C   UNL A   1      32.047  22.501  23.468  1.00  0.00     0.011 A 
ATOM     27  C   UNL A   1      32.718  20.900  25.677  1.00  0.00     0.021 A 
ATOM     28  C   UNL A   1      32.328  21.144  23.286  1.00  0.00     0.021 A 
ATOM     29  C   UNL A   1      32.651  20.350  24.393  1.00  0.00     0.067 A 
BRANCH  29  30
ATOM     30  S   UNL A   1      32.908  18.601  24.188  1.00  0.00     0.175 S 
ATOM     31  C   UNL A   1      32.381  18.264  22.529  1.00  0.00     0.163 C 
ATOM     32  O   UNL A   1      34.339  18.382  24.268  1.00  0.00    -0.224 OA
ATOM     33  O   UNL A   1      31.996  17.918  25.087  1.00  0.00    -0.224 OA
ENDBRANCH  29  30
ENDBRANCH  14  24
ENDBRANCH   6  11
ENDBRANCH   3   5
ENDBRANCH   2   3
ENDBRANCH   1   2
BRANCH   1  34
ATOM     34  C   UNL A   1      34.433  33.536  30.124  1.00  0.00     0.275 C 
BRANCH  34  35
ATOM     35  O   UNL A   1      34.472  32.319  30.892  1.00  0.00    -0.458 OA
BRANCH  35  36
ATOM     36  C   UNL A   1      35.508  32.209  31.754  1.00  0.00     0.338 C 
ATOM     37  O   UNL A   1      35.578  32.636  32.893  1.00  0.00    -0.246 OA
BRANCH  36  38
ATOM     38  C   UNL A   1      36.601  31.438  31.140  1.00  0.00     0.060 A 
ATOM     39  C   UNL A   1      37.349  30.580  31.937  1.00  0.00     0.016 A 
ATOM     40  C   UNL A   1      37.009  31.704  29.836  1.00  0.00     0.016 A 
ATOM     41  C   UNL A   1      38.589  30.122  31.501  1.00  0.00     0.010 A 
ATOM     42  C   UNL A   1      38.181  31.112  29.345  1.00  0.00     0.010 A 
ATOM     43  C   UNL A   1      39.016  30.354  30.187  1.00  0.00    -0.014 A 
BRANCH  43  44
ATOM     44  C   UNL A   1      40.327  29.822  29.704  1.00  0.00     0.031 A 
ATOM     45  C   UNL A   1      41.538  30.721  29.629  1.00  0.00     0.074 A 
ATOM     46  C   UNL A   1      40.446  28.531  29.330  1.00  0.00     0.049 A 
ATOM     47  N   UNL A   1      42.692  30.510  29.043  1.00  0.00    -0.248 NA
ATOM     48  C   UNL A   1      41.434  32.034  30.283  1.00  0.00     0.031 C 
ATOM     49  C   UNL A   1      39.382  27.525  29.388  1.00  0.00     0.029 A 
ATOM     50  N   UNL A   1      41.520  27.838  28.825  1.00  0.00    -0.354 N 
ATOM     51  C   UNL A   1      43.421  31.684  29.201  1.00  0.00     0.074 A 
ATOM     52  C   UNL A   1      42.580  32.604  29.936  1.00  0.00     0.031 C 
ATOM     53  C   UNL A   1      39.866  26.343  28.985  1.00  0.00     0.029 A 
ATOM     54  C   UNL A   1      41.237  26.526  28.528  1.00  0.00     0.049 A 
ATOM     55  H   UNL A   1      42.407  28.243  28.689  1.00  0.00     0.167 HD
ATOM     56  C   UNL A   1      44.675  31.968  28.770  1.00  0.00     0.037 A 
ATOM     57  C   UNL A   1      41.968  25.583  27.906  1.00  0.00     0.037 A 
ATOM     58  C   UNL A   1      45.533  31.028  28.093  1.00  0.00     0.049 A 
ATOM     59  C   UNL A   1      43.336  25.932  27.399  1.00  0.00     0.074 A 
ATOM     60  C   UNL A   1      46.829  31.213  27.641  1.00  0.00     0.029 A 
ATOM     61  N   UNL A   1      45.186  29.721  27.784  1.00  0.00    -0.354 N 
ATOM     62  N   UNL A   1      43.990  27.062  27.503  1.00  0.00    -0.248 NA
ATOM     63  C   UNL A   1      44.055  24.883  26.662  1.00  0.00     0.031 C 
ATOM     64  C   UNL A   1      47.251  30.031  27.023  1.00  0.00     0.029 A 
ATOM     65  C   UNL A   1      46.236  29.095  27.131  1.00  0.00     0.049 A 
ATOM     66  H   UNL A   1      44.321  29.301  27.997  1.00  0.00     0.167 HD
ATOM     67  C   UNL A   1      45.202  26.859  26.857  1.00  0.00     0.074 A 
ATOM     68  C   UNL A   1      45.200  25.490  26.384  1.00  0.00     0.031 C 
ATOM     69  C   UNL A   1      46.220  27.732  26.667  1.00  0.00     0.037 A 
BRANCH  56  70
ATOM     70  C   UNL A   1      45.190  33.364  28.984  1.00  0.00     0.057 A 
ATOM     71  C   UNL A   1      45.892  33.737  30.137  1.00  0.00     0.134 A 
ATOM     72  C   UNL A   1      45.013  34.340  27.993  1.00  0.00     0.134 A 
ATOM     73  F   UNL A   1      46.090  32.856  31.128  1.00  0.00    -0.206 F 
ATOM     74  C   UNL A   1      46.379  35.036  30.307  1.00  0.00     0.040 A 
ATOM     75  C   UNL A   1      45.518  35.633  28.140  1.00  0.00     0.040 A 
ATOM     76  F   UNL A   1      44.358  34.049  26.859  1.00  0.00    -0.206 F 
ATOM     77  C   UNL A   1      46.199  35.986  29.303  1.00  0.00     0.006 A 
ENDBRANCH  56  70
BRANCH  57  78
ATOM     78  C   UNL A   1      41.391  24.233  27.674  1.00  0.00     0.057 A 
ATOM     79  C   UNL A   1      40.425  24.017  26.686  1.00  0.00     0.134 A 
ATOM     80  C   UNL A   1      41.801  23.125  28.429  1.00  0.00     0.134 A 
ATOM     81  F   UNL A   1      39.974  25.043  25.949  1.00  0.00    -0.206 F 
ATOM     82  C   UNL A   1      39.882  22.752  26.459  1.00  0.00     0.040 A 
ATOM     83  C   UNL A   1      41.290  21.848  28.192  1.00  0.00     0.040 A 
ATOM     84  F   UNL A   1      42.724  23.264  29.391  1.00  0.00    -0.206 F 
ATOM     85  C   UNL A   1      40.322  21.661  27.207  1.00  0.00     0.006 A 
ENDBRANCH  57  78
BRANCH  69  86
ATOM     86  C   UNL A   1      47.428  27.218  25.941  1.00  0.00     0.057 A 
ATOM     87  C   UNL A   1      47.557  27.334  24.551  1.00  0.00     0.134 A 
ATOM     88  C   UNL A   1      48.482  26.620  26.643  1.00  0.00     0.134 A 
ATOM     89  F   UNL A   1      46.576  27.881  23.820  1.00  0.00    -0.206 F 
ATOM     90  C   UNL A   1      48.683  26.851  23.882  1.00  0.00     0.040 A 
ATOM     91  C   UNL A   1      49.623  26.156  25.988  1.00  0.00     0.040 A 
ATOM     92  F   UNL A   1      48.421  26.484  27.976  1.00  0.00    -0.206 F 
ATOM     93  C   UNL A   1      49.723  26.265  24.603  1.00  0.00     0.006 A 
ENDBRANCH  69  86
ENDBRANCH  43  44
ENDBRANCH  36  38
ENDBRANCH  35  36
ENDBRANCH  34  35
ENDBRANCH   1  34
TORSDOF 16
ENDMDL
MODEL 2
REMARK VINA RESULT:     -12.7      4.900     10.198
REMARK SMILES COc1cccc([C@H]2CC(c3ccc(S(C)(=O)=O)cc3)=NN2c2ccc(C(=O)OCCOC(=O)c3ccc(-c4c5nc(c(-c6c(F)cccc6F)c6ccc([nH]6)c(-c6c(F)cccc6F)c6nc(c(-c7c(F)cccc7F)c7ccc4[nH]7)C=C6)C=C5)cc3)cc2)c1
REMARK SMILES IDX 30 1 29 2 27 3 28 4 26 5 23 6 24 7 90 8 25 9 89 10 22 11
REMARK SMILES IDX 8 12 9 13 10 14 21 15 7 16 3 17 4 18 91 19 5 20 6 21 2 22
REMARK SMILES IDX 1 23 11 24 12 25 20 26 13 27 19 28 14 29 15 30 16 31 17 32
REMARK SMILES IDX 18 33 31 34 32 35 33 36 34 37 35 38 36 39 88 40 37 41 87 42
REMARK SMILES IDX 38 43 39 44 40 45 81 46 41 47 86 48 80 49 82 50 42 51 85 52
REMARK SMILES IDX 79 53 78 54 43 56 69 57 52 58 68 59 53 60 56 61 67 62 83 63
REMARK SMILES IDX 54 64 55 65 66 67 84 68 57 69 44 70 45 71 50 72 46 73 47 74
REMARK SMILES IDX 49 75 51 76 48 77 70 78 71 79 76 80 72 81 73 82 75 83 77 84
REMARK SMILES IDX 74 85 58 86 59 87 64 88 60 89 61 90 63 91 65 92 62 93
REMARK H PARENT 82 55 56 66
REMARK Flexibility Score: inf
ROOT
ATOM      1  C   UNL A   1      40.876  22.835  27.372  1.00  0.00     0.275 C 
ENDROOT
BRANCH   1   2
ATOM      2  O   UNL A   1      39.526  23.045  26.905  1.00  0.00    -0.458 OA
BRANCH   2   3
ATOM      3  C   UNL A   1      39.024  22.054  26.130  1.00  0.00     0.338 C 
ATOM      4  O   UNL A   1      39.405  20.894  26.091  1.00  0.00    -0.246 OA
BRANCH   3   5
ATOM      5  C   UNL A   1      37.862  22.526  25.347  1.00  0.00     0.060 A 
ATOM      6  C   UNL A   1      35.474  23.329  24.085  1.00  0.00     0.060 A 
ATOM      7  C   UNL A   1      35.962  24.019  25.195  1.00  0.00     0.029 A 
ATOM      8  C   UNL A   1      36.229  22.255  23.589  1.00  0.00     0.029 A 
ATOM      9  C   UNL A   1      37.115  23.596  25.844  1.00  0.00     0.018 A 
ATOM     10  C   UNL A   1      37.433  21.864  24.198  1.00  0.00     0.018 A 
BRANCH   6  11
ATOM     11  N   UNL A   1      34.252  23.694  23.542  1.00  0.00    -0.257 N 
ATOM     12  C   UNL A   1      33.314  22.754  22.927  1.00  0.00     0.144 C 
ATOM     13  C   UNL A   1      32.073  23.623  22.690  1.00  0.00     0.091 C 
ATOM     14  C   UNL A   1      32.529  24.916  23.304  1.00  0.00     0.071 C 
ATOM     15  N   UNL A   1      33.730  24.926  23.788  1.00  0.00    -0.176 NA
BRANCH  12  16
ATOM     16  C   UNL A   1      33.035  21.535  23.799  1.00  0.00    -0.019 A 
ATOM     17  C   UNL A   1      32.568  19.156  24.092  1.00  0.00     0.119 A 
ATOM     18  C   UNL A   1      32.498  19.344  25.472  1.00  0.00     0.046 A 
ATOM     19  C   UNL A   1      32.815  20.251  23.258  1.00  0.00     0.052 A 
ATOM     20  C   UNL A   1      32.695  20.608  26.024  1.00  0.00     0.004 A 
ATOM     21  C   UNL A   1      32.964  21.695  25.194  1.00  0.00     0.006 A 
BRANCH  17  22
ATOM     22  O   UNL A   1      32.343  17.871  23.680  1.00  0.00    -0.497 OA
ATOM     23  C   UNL A   1      33.495  17.098  23.369  1.00  0.00     0.278 C 
ENDBRANCH  17  22
ENDBRANCH  12  16
BRANCH  14  24
ATOM     24  C   UNL A   1      31.680  26.112  23.262  1.00  0.00    -0.002 A 
ATOM     25  C   UNL A   1      32.256  27.313  22.833  1.00  0.00     0.011 A 
ATOM     26  C   UNL A   1      30.325  26.044  23.592  1.00  0.00     0.011 A 
ATOM     27  C   UNL A   1      31.462  28.449  22.688  1.00  0.00     0.021 A 
ATOM     28  C   UNL A   1      29.532  27.189  23.475  1.00  0.00     0.021 A 
ATOM     29  C   UNL A   1      30.103  28.381  23.012  1.00  0.00     0.067 A 
BRANCH  29  30
ATOM     30  S   UNL A   1      29.082  29.816  22.758  1.00  0.00     0.175 S 
ATOM     31  C   UNL A   1      27.429  29.244  23.049  1.00  0.00     0.163 C 
ATOM     32  O   UNL A   1      29.431  30.760  23.802  1.00  0.00    -0.224 OA
ATOM     33  O   UNL A   1      29.182  30.181  21.358  1.00  0.00    -0.224 OA
ENDBRANCH  29  30
ENDBRANCH  14  24
ENDBRANCH   6  11
ENDBRANCH   3   5
ENDBRANCH   2   3
ENDBRANCH   1   2
BRANCH   1  34
ATOM     34  C   UNL A   1      41.908  23.284  26.337  1.00  0.00     0.275 C 
BRANCH  34  35
ATOM     35  O   UNL A   1      42.490  24.544  26.720  1.00  0.00    -0.458 OA
BRANCH  35  36
ATOM     36  C   UNL A   1      41.964  25.633  26.117  1.00  0.00     0.338 C 
ATOM     37  O   UNL A   1      41.897  25.864  24.921  1.00  0.00    -0.246 OA
BRANCH  36  38
ATOM     38  C   UNL A   1      41.412  26.556  27.122  1.00  0.00     0.060 A 
ATOM     39  C   UNL A   1      41.983  27.814  27.263  1.00  0.00     0.016 A 
ATOM     40  C   UNL A   1      40.471  26.113  28.047  1.00  0.00     0.016 A 
ATOM     41  C   UNL A   1      41.748  28.564  28.413  1.00  0.00     0.010 A 
ATOM     42  C   UNL A   1      40.117  26.941  29.121  1.00  0.00     0.010 A 
ATOM     43  C   UNL A   1      40.789  28.156  29.350  1.00  0.00    -0.014 A 
BRANCH  43  44
ATOM     44  C   UNL A   1      40.503  28.985  30.561  1.00  0.00     0.031 A 
ATOM     45  C   UNL A   1      39.373  29.986  30.555  1.00  0.00     0.074 A 
ATOM     46  C   UNL A   1      41.251  28.848  31.676  1.00  0.00     0.049 A 
ATOM     47  N   UNL A   1      39.104  30.938  31.415  1.00  0.00    -0.248 NA
ATOM     48  C   UNL A   1      38.430  29.919  29.428  1.00  0.00     0.031 C 
ATOM     49  C   UNL A   1      42.347  27.893  31.856  1.00  0.00     0.029 A 
ATOM     50  N   UNL A   1      41.202  29.516  32.877  1.00  0.00    -0.354 N 
ATOM     51  C   UNL A   1      38.008  31.621  30.899  1.00  0.00     0.074 A 
ATOM     52  C   UNL A   1      37.661  30.976  29.651  1.00  0.00     0.031 C 
ATOM     53  C   UNL A   1      42.832  28.003  33.100  1.00  0.00     0.029 A 
ATOM     54  C   UNL A   1      42.166  29.111  33.770  1.00  0.00     0.049 A 
ATOM     55  H   UNL A   1      40.541  30.217  33.077  1.00  0.00     0.167 HD
ATOM     56  C   UNL A   1      37.353  32.689  31.419  1.00  0.00     0.037 A 
ATOM     57  C   UNL A   1      42.522  29.605  34.969  1.00  0.00     0.037 A 
ATOM     58  C   UNL A   1      37.662  33.290  32.692  1.00  0.00     0.049 A 
ATOM     59  C   UNL A   1      41.814  30.814  35.504  1.00  0.00     0.074 A 
ATOM     60  C   UNL A   1      37.039  34.358  33.316  1.00  0.00     0.029 A 
ATOM     61  N   UNL A   1      38.672  32.866  33.543  1.00  0.00    -0.354 N 
ATOM     62  N   UNL A   1      40.818  31.485  34.980  1.00  0.00    -0.248 NA
ATOM     63  C   UNL A   1      42.297  31.350  36.784  1.00  0.00     0.031 C 
ATOM     64  C   UNL A   1      37.697  34.605  34.526  1.00  0.00     0.029 A 
ATOM     65  C   UNL A   1      38.701  33.662  34.677  1.00  0.00     0.049 A 
ATOM     66  H   UNL A   1      39.278  32.110  33.367  1.00  0.00     0.167 HD
ATOM     67  C   UNL A   1      40.548  32.516  35.869  1.00  0.00     0.074 A 
ATOM     68  C   UNL A   1      41.469  32.367  36.977  1.00  0.00     0.031 C 
ATOM     69  C   UNL A   1      39.623  33.501  35.771  1.00  0.00     0.037 A 
BRANCH  56  70
ATOM     70  C   UNL A   1      36.256  33.306  30.596  1.00  0.00     0.057 A 
ATOM     71  C   UNL A   1      34.902  33.154  30.917  1.00  0.00     0.134 A 
ATOM     72  C   UNL A   1      36.570  34.102  29.486  1.00  0.00     0.134 A 
ATOM     73  F   UNL A   1      34.530  32.399  31.961  1.00  0.00    -0.206 F 
ATOM     74  C   UNL A   1      33.898  33.753  30.150  1.00  0.00     0.040 A 
ATOM     75  C   UNL A   1      35.578  34.727  28.728  1.00  0.00     0.040 A 
ATOM     76  F   UNL A   1      37.848  34.298  29.127  1.00  0.00    -0.206 F 
ATOM     77  C   UNL A   1      34.236  34.548  29.056  1.00  0.00     0.006 A 
ENDBRANCH  56  70
BRANCH  57  78
ATOM     78  C   UNL A   1      43.649  28.988  35.718  1.00  0.00     0.057 A 
ATOM     79  C   UNL A   1      44.952  29.483  35.603  1.00  0.00     0.134 A 
ATOM     80  C   UNL A   1      43.446  27.898  36.575  1.00  0.00     0.134 A 
ATOM     81  F   UNL A   1      45.214  30.508  34.779  1.00  0.00    -0.206 F 
ATOM     82  C   UNL A   1      46.014  28.912  36.306  1.00  0.00     0.040 A 
ATOM     83  C   UNL A   1      44.493  27.338  37.308  1.00  0.00     0.040 A 
ATOM     84  F   UNL A   1      42.220  27.377  36.731  1.00  0.00    -0.206 F 
ATOM     85  C   UNL A   1      45.784  27.843  37.170  1.00  0.00     0.006 A 
ENDBRANCH  57  78
BRANCH  69  86
ATOM     86  C   UNL A   1      39.546  34.476  36.909  1.00  0.00     0.057 A 
ATOM     87  C   UNL A   1      40.182  35.722  36.856  1.00  0.00     0.134 A 
ATOM     88  C   UNL A   1      38.811  34.171  38.061  1.00  0.00     0.134 A 
ATOM     89  F   UNL A   1      40.916  36.067  35.788  1.00  0.00    -0.206 F 
ATOM     90  C   UNL A   1      40.108  36.623  37.920  1.00  0.00     0.040 A 
ATOM     91  C   UNL A   1      38.709  35.073  39.121  1.00  0.00     0.040 A 
ATOM     92  F   UNL A   1      38.174  32.995  38.172  1.00  0.00    -0.206 F 
ATOM     93  C   UNL A   1      39.364  36.301  39.055  1.00  0.00     0.006 A 
ENDBRANCH  69  86
ENDBRANCH  43  44
ENDBRANCH  36  38
ENDBRANCH  35  36
ENDBRANCH  34  35
ENDBRANCH   1  34
TORSDOF 16
ENDMDL
MODEL 3
REMARK VINA RESULT:     -12.7      1.318      6.149
REMARK SMILES COc1cccc([C@H]2CC(c3ccc(S(C)(=O)=O)cc3)=NN2c2ccc(C(=O)OCCOC(=O)c3ccc(-c4c5nc(c(-c6c(F)cccc6F)c6ccc([nH]6)c(-c6c(F)cccc6F)c6nc(c(-c7c(F)cccc7F)c7ccc4[nH]7)C=C6)C=C5)cc3)cc2)c1
REMARK SMILES IDX 30 1 29 2 27 3 28 4 26 5 23 6 24 7 90 8 25 9 89 10 22 11
REMARK SMILES IDX 8 12 9 13 10 14 21 15 7 16 3 17 4 18 91 19 5 20 6 21 2 22
REMARK SMILES IDX 1 23 11 24 12 25 20 26 13 27 19 28 14 29 15 30 16 31 17 32
REMARK SMILES IDX 18 33 31 34 32 35 33 36 34 37 35 38 36 39 88 40 37 41 87 42
REMARK SMILES IDX 38 43 39 44 40 45 81 46 41 47 86 48 80 49 82 50 42 51 85 52
REMARK SMILES IDX 79 53 78 54 43 56 69 57 52 58 68 59 53 60 56 61 67 62 83 63
REMARK SMILES IDX 54 64 55 65 66 67 84 68 57 69 44 70 45 71 50 72 46 73 47 74
REMARK SMILES IDX 49 75 51 76 48 77 70 78 71 79 76 80 72 81 73 82 75 83 77 84
REMARK SMILES IDX 74 85 58 86 59 87 64 88 60 89 61 90 63 91 65 92 62 93
REMARK H PARENT 82 55 56 66
REMARK Flexibility Score: inf
ROOT
ATOM      1  C   UNL A   1      34.609  32.945  29.381  1.00  0.00     0.275 C 
ENDROOT
BRANCH   1   2
ATOM      2  O   UNL A   1      33.845  31.940  28.682  1.00  0.00    -0.458 OA
BRANCH   2   3
ATOM      3  C   UNL A   1      34.532  31.240  27.747  1.00  0.00     0.338 C 
ATOM      4  O   UNL A   1      35.618  31.533  27.270  1.00  0.00    -0.246 OA
BRANCH   3   5
ATOM      5  C   UNL A   1      33.833  29.986  27.399  1.00  0.00     0.060 A 
ATOM      6  C   UNL A   1      32.566  27.656  26.446  1.00  0.00     0.060 A 
ATOM      7  C   UNL A   1      33.956  27.769  26.432  1.00  0.00     0.029 A 
ATOM      8  C   UNL A   1      31.821  28.714  26.990  1.00  0.00     0.029 A 
ATOM      9  C   UNL A   1      34.578  28.935  26.861  1.00  0.00     0.018 A 
ATOM     10  C   UNL A   1      32.447  29.868  27.490  1.00  0.00     0.018 A 
BRANCH   6  11
ATOM     11  N   UNL A   1      31.970  26.535  25.889  1.00  0.00    -0.257 N 
ATOM     12  C   UNL A   1      30.727  26.565  25.117  1.00  0.00     0.144 C 
ATOM     13  C   UNL A   1      30.633  25.132  24.575  1.00  0.00     0.091 C 
ATOM     14  C   UNL A   1      31.922  24.562  25.098  1.00  0.00     0.071 C 
ATOM     15  N   UNL A   1      32.655  25.362  25.804  1.00  0.00    -0.176 NA
BRANCH  12  16
ATOM     16  C   UNL A   1      30.735  27.622  24.018  1.00  0.00    -0.019 A 
ATOM     17  C   UNL A   1      29.705  29.471  22.801  1.00  0.00     0.119 A 
ATOM     18  C   UNL A   1      30.812  29.523  21.953  1.00  0.00     0.046 A 
ATOM     19  C   UNL A   1      29.658  28.510  23.815  1.00  0.00     0.052 A 
ATOM     20  C   UNL A   1      31.877  28.643  22.127  1.00  0.00     0.004 A 
ATOM     21  C   UNL A   1      31.840  27.701  23.153  1.00  0.00     0.006 A 
BRANCH  17  22
ATOM     22  O   UNL A   1      28.724  30.381  22.514  1.00  0.00    -0.497 OA
ATOM     23  C   UNL A   1      27.401  30.019  22.886  1.00  0.00     0.278 C 
ENDBRANCH  17  22
ENDBRANCH  12  16
BRANCH  14  24
ATOM     24  C   UNL A   1      32.262  23.151  24.886  1.00  0.00    -0.002 A 
ATOM     25  C   UNL A   1      32.476  22.350  26.013  1.00  0.00     0.011 A 
ATOM     26  C   UNL A   1      32.322  22.611  23.600  1.00  0.00     0.011 A 
ATOM     27  C   UNL A   1      32.707  20.984  25.859  1.00  0.00     0.021 A 
ATOM     28  C   UNL A   1      32.583  21.247  23.441  1.00  0.00     0.021 A 
ATOM     29  C   UNL A   1      32.762  20.440  24.571  1.00  0.00     0.067 A 
BRANCH  29  30
ATOM     30  S   UNL A   1      32.989  18.686  24.384  1.00  0.00     0.175 S 
ATOM     31  C   UNL A   1      32.355  18.324  22.769  1.00  0.00     0.163 C 
ATOM     32  O   UNL A   1      34.420  18.453  24.378  1.00  0.00    -0.224 OA
ATOM     33  O   UNL A   1      32.130  18.029  25.352  1.00  0.00    -0.224 OA
ENDBRANCH  29  30
ENDBRANCH  14  24
ENDBRANCH   6  11
ENDBRANCH   3   5
ENDBRANCH   2   3
ENDBRANCH   1   2
BRANCH   1  34
ATOM     34  C   UNL A   1      35.141  32.425  30.717  1.00  0.00     0.275 C 
BRANCH  34  35
ATOM     35  O   UNL A   1      36.468  31.889  30.555  1.00  0.00    -0.458 OA
BRANCH  35  36
ATOM     36  C   UNL A   1      36.674  30.674  31.110  1.00  0.00     0.338 C 
ATOM     37  O   UNL A   1      36.025  30.137  31.992  1.00  0.00    -0.246 OA
BRANCH  36  38
ATOM     38  C   UNL A   1      37.820  30.010  30.470  1.00  0.00     0.060 A 
ATOM     39  C   UNL A   1      38.780  29.405  31.271  1.00  0.00     0.016 A 
ATOM     40  C   UNL A   1      38.047  30.151  29.103  1.00  0.00     0.016 A 
ATOM     41  C   UNL A   1      40.034  29.095  30.749  1.00  0.00     0.010 A 
ATOM     42  C   UNL A   1      39.250  29.691  28.552  1.00  0.00     0.010 A 
ATOM     43  C   UNL A   1      40.283  29.205  29.374  1.00  0.00    -0.014 A 
BRANCH  43  44
ATOM     44  C   UNL A   1      41.614  28.828  28.807  1.00  0.00     0.031 A 
ATOM     45  C   UNL A   1      41.864  27.425  28.306  1.00  0.00     0.074 A 
ATOM     46  C   UNL A   1      42.610  29.736  28.734  1.00  0.00     0.049 A 
ATOM     47  N   UNL A   1      42.997  26.850  27.984  1.00  0.00    -0.248 NA
ATOM     48  C   UNL A   1      40.691  26.550  28.163  1.00  0.00     0.031 C 
ATOM     49  C   UNL A   1      42.512  31.142  29.133  1.00  0.00     0.029 A 
ATOM     50  N   UNL A   1      43.907  29.613  28.296  1.00  0.00    -0.354 N 
ATOM     51  C   UNL A   1      42.680  25.533  27.667  1.00  0.00     0.074 A 
ATOM     52  C   UNL A   1      41.250  25.393  27.837  1.00  0.00     0.031 C 
ATOM     53  C   UNL A   1      43.674  31.758  28.879  1.00  0.00     0.029 A 
ATOM     54  C   UNL A   1      44.637  30.772  28.410  1.00  0.00     0.049 A 
ATOM     55  H   UNL A   1      44.277  28.775  27.935  1.00  0.00     0.167 HD
ATOM     56  C   UNL A   1      43.507  24.533  27.274  1.00  0.00     0.037 A 
ATOM     57  C   UNL A   1      45.947  31.013  28.219  1.00  0.00     0.037 A 
ATOM     58  C   UNL A   1      44.922  24.691  27.046  1.00  0.00     0.049 A 
ATOM     59  C   UNL A   1      46.851  29.882  27.827  1.00  0.00     0.074 A 
ATOM     60  C   UNL A   1      45.839  23.745  26.621  1.00  0.00     0.029 A 
ATOM     61  N   UNL A   1      45.621  25.878  27.211  1.00  0.00    -0.354 N 
ATOM     62  N   UNL A   1      46.549  28.630  27.587  1.00  0.00    -0.248 NA
ATOM     63  C   UNL A   1      48.283  30.192  27.707  1.00  0.00     0.031 C 
ATOM     64  C   UNL A   1      47.100  24.349  26.567  1.00  0.00     0.029 A 
ATOM     65  C   UNL A   1      46.961  25.682  26.914  1.00  0.00     0.049 A 
ATOM     66  H   UNL A   1      45.224  26.732  27.497  1.00  0.00     0.167 HD
ATOM     67  C   UNL A   1      47.749  28.004  27.277  1.00  0.00     0.074 A 
ATOM     68  C   UNL A   1      48.779  29.021  27.337  1.00  0.00     0.031 C 
ATOM     69  C   UNL A   1      47.975  26.703  26.977  1.00  0.00     0.037 A 
BRANCH  56  70
ATOM     70  C   UNL A   1      42.915  23.163  27.096  1.00  0.00     0.057 A 
ATOM     71  C   UNL A   1      42.642  22.621  25.835  1.00  0.00     0.134 A 
ATOM     72  C   UNL A   1      42.653  22.357  28.214  1.00  0.00     0.134 A 
ATOM     73  F   UNL A   1      42.860  23.339  24.723  1.00  0.00    -0.206 F 
ATOM     74  C   UNL A   1      42.109  21.336  25.691  1.00  0.00     0.040 A 
ATOM     75  C   UNL A   1      42.146  21.063  28.082  1.00  0.00     0.040 A 
ATOM     76  F   UNL A   1      42.900  22.809  29.453  1.00  0.00    -0.206 F 
ATOM     77  C   UNL A   1      41.866  20.552  26.817  1.00  0.00     0.006 A 
ENDBRANCH  56  70
BRANCH  57  78
ATOM     78  C   UNL A   1      46.491  32.376  28.459  1.00  0.00     0.057 A 
ATOM     79  C   UNL A   1      46.973  32.753  29.717  1.00  0.00     0.134 A 
ATOM     80  C   UNL A   1      46.552  33.328  27.433  1.00  0.00     0.134 A 
ATOM     81  F   UNL A   1      46.917  31.894  30.745  1.00  0.00    -0.206 F 
ATOM     82  C   UNL A   1      47.489  34.029  29.949  1.00  0.00     0.040 A 
ATOM     83  C   UNL A   1      47.095  34.597  27.642  1.00  0.00     0.040 A 
ATOM     84  F   UNL A   1      46.108  33.029  26.203  1.00  0.00    -0.206 F 
ATOM     85  C   UNL A   1      47.560  34.951  28.906  1.00  0.00     0.006 A 
ENDBRANCH  57  78
BRANCH  69  86
ATOM     86  C   UNL A   1      49.389  26.315  26.661  1.00  0.00     0.057 A 
ATOM     87  C   UNL A   1      50.260  25.838  27.648  1.00  0.00     0.134 A 
ATOM     88  C   UNL A   1      49.877  26.401  25.351  1.00  0.00     0.134 A 
ATOM     89  F   UNL A   1      49.859  25.748  28.925  1.00  0.00    -0.206 F 
ATOM     90  C   UNL A   1      51.576  25.481  27.347  1.00  0.00     0.040 A 
ATOM     91  C   UNL A   1      51.182  26.024  25.033  1.00  0.00     0.040 A 
ATOM     92  F   UNL A   1      49.091  26.845  24.359  1.00  0.00    -0.206 F 
ATOM     93  C   UNL A   1      52.038  25.568  26.034  1.00  0.00     0.006 A 
ENDBRANCH  69  86
ENDBRANCH  43  44
ENDBRANCH  36  38
ENDBRANCH  35  36
ENDBRANCH  34  35
ENDBRANCH   1  34
TORSDOF 16
ENDMDL
