MODEL 1
REMARK VINA RESULT:     -10.9      0.000      0.000
REMARK SMILES CC[NH2+][C@@]1(C(=O)OCCOC(=O)c2ccc(-c3c4nc(c(-c5c(F)cccc5F)c5ccc([nH]5)c(-c5c(F)cccc5F)c5nc(c(-c6c(F)cccc6F)c6ccc3[nH]6)C=C5)C=C4)cc2)CC[C@H](Sc2nccc(=O)[nH]2)C1
REMARK SMILES IDX 8 1 7 2 5 3 6 4 4 5 67 6 78 7 68 8 69 9 3 10 2 13 1 14 70 15
REMARK SMILES IDX 71 16 72 17 77 18 73 19 75 20 74 22 76 23 9 24 10 25 11 26
REMARK SMILES IDX 12 27 13 28 14 29 66 30 15 31 65 32 16 33 17 34 18 35 59 36
REMARK SMILES IDX 19 37 64 38 58 39 60 40 20 41 63 42 57 43 56 44 21 46 47 47
REMARK SMILES IDX 30 48 46 49 31 50 34 51 45 52 61 53 32 54 33 55 44 57 62 58
REMARK SMILES IDX 35 59 22 60 23 61 28 62 24 63 25 64 27 65 29 66 26 67 48 68
REMARK SMILES IDX 49 69 54 70 50 71 51 72 53 73 55 74 52 75 36 76 37 77 42 78
REMARK SMILES IDX 38 79 39 80 41 81 43 82 40 83
REMARK H PARENT 3 11 3 12 77 21 60 45 34 56
REMARK Flexibility Score: inf
ROOT
ATOM      1  C   UNL A   1      36.601  22.788  23.681  1.00  0.00     0.274 C 
ENDROOT
BRANCH   1   2
ATOM      2  O   UNL A   1      35.495  23.328  24.430  1.00  0.00    -0.457 OA
BRANCH   2   3
ATOM      3  C   UNL A   1      34.242  23.074  23.966  1.00  0.00     0.368 C 
ATOM      4  O   UNL A   1      33.959  22.998  22.774  1.00  0.00    -0.245 OA
BRANCH   3   5
ATOM      5  C   UNL A   1      33.185  22.942  25.120  1.00  0.00     0.195 C 
ATOM      6  C   UNL A   1      33.878  22.201  26.272  1.00  0.00     0.082 C 
ATOM      7  C   UNL A   1      31.998  22.011  24.798  1.00  0.00     0.096 C 
ATOM      8  C   UNL A   1      33.831  20.743  25.824  1.00  0.00     0.022 C 
ATOM      9  C   UNL A   1      32.444  20.584  25.187  1.00  0.00     0.062 C 
BRANCH   5  10
ATOM     10  N   UNL A   1      32.686  24.311  25.375  1.00  0.00    -0.332 N 
ATOM     11  H   UNL A   1      33.449  24.836  25.802  1.00  0.00     0.347 HD
ATOM     12  H   UNL A   1      32.373  24.640  24.463  1.00  0.00     0.347 HD
BRANCH  10  13
ATOM     13  C   UNL A   1      31.524  24.467  26.232  1.00  0.00     0.257 C 
ATOM     14  C   UNL A   1      30.737  25.694  25.788  1.00  0.00     0.071 C 
ENDBRANCH  10  13
ENDBRANCH   5  10
BRANCH   9  15
ATOM     15  S   UNL A   1      32.389  19.481  23.739  1.00  0.00    -0.084 SA
BRANCH  15  16
ATOM     16  C   UNL A   1      33.166  18.051  24.328  1.00  0.00     0.168 A 
ATOM     17  N   UNL A   1      34.430  17.820  24.220  1.00  0.00    -0.233 NA
ATOM     18  N   UNL A   1      32.275  17.203  24.908  1.00  0.00    -0.301 N 
ATOM     19  C   UNL A   1      34.869  16.619  24.715  1.00  0.00     0.120 A 
ATOM     20  C   UNL A   1      32.656  16.001  25.416  1.00  0.00     0.251 A 
ATOM     21  H   UNL A   1      31.329  17.467  24.962  1.00  0.00     0.172 HD
ATOM     22  C   UNL A   1      34.090  15.700  25.294  1.00  0.00     0.091 A 
ATOM     23  O   UNL A   1      31.876  15.212  25.934  1.00  0.00    -0.269 OA
ENDBRANCH  15  16
ENDBRANCH   9  15
ENDBRANCH   3   5
ENDBRANCH   2   3
ENDBRANCH   1   2
BRANCH   1  24
ATOM     24  C   UNL A   1      37.036  21.447  24.266  1.00  0.00     0.275 C 
BRANCH  24  25
ATOM     25  O   UNL A   1      37.385  21.602  25.652  1.00  0.00    -0.458 OA
BRANCH  25  26
ATOM     26  C   UNL A   1      38.673  21.326  25.953  1.00  0.00     0.338 C 
ATOM     27  O   UNL A   1      39.299  20.305  25.729  1.00  0.00    -0.246 OA
BRANCH  26  28
ATOM     28  C   UNL A   1      39.283  22.511  26.565  1.00  0.00     0.060 A 
ATOM     29  C   UNL A   1      38.797  23.765  26.204  1.00  0.00     0.016 A 
ATOM     30  C   UNL A   1      40.406  22.388  27.382  1.00  0.00     0.016 A 
ATOM     31  C   UNL A   1      39.480  24.912  26.593  1.00  0.00     0.010 A 
ATOM     32  C   UNL A   1      41.051  23.544  27.829  1.00  0.00     0.010 A 
ATOM     33  C   UNL A   1      40.613  24.815  27.409  1.00  0.00    -0.014 A 
BRANCH  33  34
ATOM     34  C   UNL A   1      41.376  26.033  27.779  1.00  0.00     0.031 A 
ATOM     35  C   UNL A   1      40.731  27.081  28.643  1.00  0.00     0.074 A 
ATOM     36  C   UNL A   1      42.645  26.200  27.361  1.00  0.00     0.049 A 
ATOM     37  N   UNL A   1      41.135  28.295  28.912  1.00  0.00    -0.248 NA
ATOM     38  C   UNL A   1      39.457  26.713  29.282  1.00  0.00     0.031 C 
ATOM     39  C   UNL A   1      43.415  25.233  26.577  1.00  0.00     0.029 A 
ATOM     40  N   UNL A   1      43.511  27.249  27.541  1.00  0.00    -0.354 N 
ATOM     41  C   UNL A   1      40.140  28.857  29.701  1.00  0.00     0.074 A 
ATOM     42  C   UNL A   1      39.119  27.847  29.880  1.00  0.00     0.031 C 
ATOM     43  C   UNL A   1      44.645  25.725  26.362  1.00  0.00     0.029 A 
ATOM     44  C   UNL A   1      44.725  27.069  26.926  1.00  0.00     0.049 A 
ATOM     45  H   UNL A   1      43.283  28.054  28.060  1.00  0.00     0.167 HD
ATOM     46  C   UNL A   1      40.082  30.107  30.218  1.00  0.00     0.037 A 
ATOM     47  C   UNL A   1      45.770  27.907  26.797  1.00  0.00     0.037 A 
ATOM     48  C   UNL A   1      41.121  31.092  30.080  1.00  0.00     0.049 A 
ATOM     49  C   UNL A   1      45.677  29.292  27.365  1.00  0.00     0.074 A 
ATOM     50  C   UNL A   1      41.149  32.393  30.550  1.00  0.00     0.029 A 
ATOM     51  N   UNL A   1      42.331  30.871  29.440  1.00  0.00    -0.354 N 
ATOM     52  N   UNL A   1      44.693  29.848  28.029  1.00  0.00    -0.248 NA
ATOM     53  C   UNL A   1      46.829  30.178  27.143  1.00  0.00     0.031 C 
ATOM     54  C   UNL A   1      42.372  32.966  30.182  1.00  0.00     0.029 A 
ATOM     55  C   UNL A   1      43.113  32.011  29.504  1.00  0.00     0.049 A 
ATOM     56  H   UNL A   1      42.594  30.028  29.003  1.00  0.00     0.167 HD
ATOM     57  C   UNL A   1      45.106  31.143  28.308  1.00  0.00     0.074 A 
ATOM     58  C   UNL A   1      46.438  31.287  27.757  1.00  0.00     0.031 C 
ATOM     59  C   UNL A   1      44.438  32.128  28.955  1.00  0.00     0.037 A 
BRANCH  46  60
ATOM     60  C   UNL A   1      38.831  30.490  30.948  1.00  0.00     0.057 A 
ATOM     61  C   UNL A   1      38.687  30.294  32.327  1.00  0.00     0.134 A 
ATOM     62  C   UNL A   1      37.765  31.081  30.261  1.00  0.00     0.134 A 
ATOM     63  F   UNL A   1      39.665  29.715  33.038  1.00  0.00    -0.206 F 
ATOM     64  C   UNL A   1      37.516  30.662  32.994  1.00  0.00     0.040 A 
ATOM     65  C   UNL A   1      36.597  31.469  30.919  1.00  0.00     0.040 A 
ATOM     66  F   UNL A   1      37.843  31.295  28.939  1.00  0.00    -0.206 F 
ATOM     67  C   UNL A   1      36.470  31.256  32.291  1.00  0.00     0.006 A 
ENDBRANCH  46  60
BRANCH  47  68
ATOM     68  C   UNL A   1      46.978  27.467  26.058  1.00  0.00     0.057 A 
ATOM     69  C   UNL A   1      48.058  26.883  26.727  1.00  0.00     0.134 A 
ATOM     70  C   UNL A   1      47.075  27.611  24.669  1.00  0.00     0.134 A 
ATOM     71  F   UNL A   1      48.030  26.741  28.060  1.00  0.00    -0.206 F 
ATOM     72  C   UNL A   1      49.196  26.458  26.040  1.00  0.00     0.040 A 
ATOM     73  C   UNL A   1      48.197  27.171  23.967  1.00  0.00     0.040 A 
ATOM     74  F   UNL A   1      46.071  28.163  23.973  1.00  0.00    -0.206 F 
ATOM     75  C   UNL A   1      49.265  26.596  24.654  1.00  0.00     0.006 A 
ENDBRANCH  47  68
BRANCH  59  76
ATOM     76  C   UNL A   1      45.147  33.435  29.118  1.00  0.00     0.057 A 
ATOM     77  C   UNL A   1      45.987  33.680  30.211  1.00  0.00     0.134 A 
ATOM     78  C   UNL A   1      45.016  34.444  28.157  1.00  0.00     0.134 A 
ATOM     79  F   UNL A   1      46.142  32.755  31.170  1.00  0.00    -0.206 F 
ATOM     80  C   UNL A   1      46.666  34.892  30.348  1.00  0.00     0.040 A 
ATOM     81  C   UNL A   1      45.700  35.654  28.275  1.00  0.00     0.040 A 
ATOM     82  F   UNL A   1      44.226  34.265  27.087  1.00  0.00    -0.206 F 
ATOM     83  C   UNL A   1      46.526  35.881  29.375  1.00  0.00     0.006 A 
ENDBRANCH  59  76
ENDBRANCH  33  34
ENDBRANCH  26  28
ENDBRANCH  25  26
ENDBRANCH  24  25
ENDBRANCH   1  24
TORSDOF 15
ENDMDL
MODEL 2
REMARK VINA RESULT:     -10.8      4.965      9.847
REMARK SMILES CC[NH2+][C@@]1(C(=O)OCCOC(=O)c2ccc(-c3c4nc(c(-c5c(F)cccc5F)c5ccc([nH]5)c(-c5c(F)cccc5F)c5nc(c(-c6c(F)cccc6F)c6ccc3[nH]6)C=C5)C=C4)cc2)CC[C@H](Sc2nccc(=O)[nH]2)C1
REMARK SMILES IDX 8 1 7 2 5 3 6 4 4 5 67 6 78 7 68 8 69 9 3 10 2 13 1 14 70 15
REMARK SMILES IDX 71 16 72 17 77 18 73 19 75 20 74 22 76 23 9 24 10 25 11 26
REMARK SMILES IDX 12 27 13 28 14 29 66 30 15 31 65 32 16 33 17 34 18 35 59 36
REMARK SMILES IDX 19 37 64 38 58 39 60 40 20 41 63 42 57 43 56 44 21 46 47 47
REMARK SMILES IDX 30 48 46 49 31 50 34 51 45 52 61 53 32 54 33 55 44 57 62 58
REMARK SMILES IDX 35 59 22 60 23 61 28 62 24 63 25 64 27 65 29 66 26 67 48 68
REMARK SMILES IDX 49 69 54 70 50 71 51 72 53 73 55 74 52 75 36 76 37 77 42 78
REMARK SMILES IDX 38 79 39 80 41 81 43 82 40 83
REMARK H PARENT 3 11 3 12 77 21 60 45 34 56
REMARK Flexibility Score: inf
ROOT
ATOM      1  C   UNL A   1      33.654  28.517  25.126  1.00  0.00     0.274 C 
ENDROOT
BRANCH   1   2
ATOM      2  O   UNL A   1      32.766  27.390  25.254  1.00  0.00    -0.457 OA
BRANCH   2   3
ATOM      3  C   UNL A   1      32.849  26.417  24.307  1.00  0.00     0.368 C 
ATOM      4  O   UNL A   1      33.905  26.036  23.811  1.00  0.00    -0.245 OA
BRANCH   3   5
ATOM      5  C   UNL A   1      31.441  25.871  23.877  1.00  0.00     0.195 C 
ATOM      6  C   UNL A   1      31.387  25.946  22.344  1.00  0.00     0.082 C 
ATOM      7  C   UNL A   1      30.253  26.765  24.291  1.00  0.00     0.096 C 
ATOM      8  C   UNL A   1      31.091  27.420  22.080  1.00  0.00     0.022 C 
ATOM      9  C   UNL A   1      30.075  27.806  23.165  1.00  0.00     0.062 C 
BRANCH   5  10
ATOM     10  N   UNL A   1      31.305  24.543  24.512  1.00  0.00    -0.332 N 
ATOM     11  H   UNL A   1      30.780  23.952  23.868  1.00  0.00     0.347 HD
ATOM     12  H   UNL A   1      32.265  24.253  24.700  1.00  0.00     0.347 HD
BRANCH  10  13
ATOM     13  C   UNL A   1      30.646  24.464  25.803  1.00  0.00     0.257 C 
ATOM     14  C   UNL A   1      31.461  23.568  26.727  1.00  0.00     0.071 C 
ENDBRANCH  10  13
ENDBRANCH   5  10
BRANCH   9  15
ATOM     15  S   UNL A   1      30.262  29.495  23.820  1.00  0.00    -0.084 SA
BRANCH  15  16
ATOM     16  C   UNL A   1      29.307  30.431  22.722  1.00  0.00     0.168 A 
ATOM     17  N   UNL A   1      28.779  29.960  21.644  1.00  0.00    -0.233 NA
ATOM     18  N   UNL A   1      29.194  31.721  23.135  1.00  0.00    -0.301 N 
ATOM     19  C   UNL A   1      28.081  30.854  20.874  1.00  0.00     0.120 A 
ATOM     20  C   UNL A   1      28.513  32.648  22.411  1.00  0.00     0.251 A 
ATOM     21  H   UNL A   1      29.618  31.991  23.981  1.00  0.00     0.172 HD
ATOM     22  C   UNL A   1      27.911  32.147  21.166  1.00  0.00     0.091 A 
ATOM     23  O   UNL A   1      28.403  33.819  22.751  1.00  0.00    -0.269 OA
ENDBRANCH  15  16
ENDBRANCH   9  15
ENDBRANCH   3   5
ENDBRANCH   2   3
ENDBRANCH   1   2
BRANCH   1  24
ATOM     24  C   UNL A   1      32.907  29.817  25.411  1.00  0.00     0.275 C 
BRANCH  24  25
ATOM     25  O   UNL A   1      32.834  30.046  26.828  1.00  0.00    -0.458 OA
BRANCH  25  26
ATOM     26  C   UNL A   1      33.389  31.202  27.253  1.00  0.00     0.338 C 
ATOM     27  O   UNL A   1      32.901  32.319  27.251  1.00  0.00    -0.246 OA
BRANCH  26  28
ATOM     28  C   UNL A   1      34.713  30.917  27.813  1.00  0.00     0.060 A 
ATOM     29  C   UNL A   1      34.973  29.628  28.272  1.00  0.00     0.016 A 
ATOM     30  C   UNL A   1      35.639  31.942  28.001  1.00  0.00     0.016 A 
ATOM     31  C   UNL A   1      36.130  29.370  28.998  1.00  0.00     0.010 A 
ATOM     32  C   UNL A   1      36.833  31.664  28.672  1.00  0.00     0.010 A 
ATOM     33  C   UNL A   1      37.072  30.384  29.206  1.00  0.00    -0.014 A 
BRANCH  33  34
ATOM     34  C   UNL A   1      38.281  30.126  30.029  1.00  0.00     0.031 A 
ATOM     35  C   UNL A   1      39.385  29.267  29.479  1.00  0.00     0.074 A 
ATOM     36  C   UNL A   1      38.402  30.667  31.255  1.00  0.00     0.049 A 
ATOM     37  N   UNL A   1      40.418  28.753  30.094  1.00  0.00    -0.248 NA
ATOM     38  C   UNL A   1      39.311  28.937  28.046  1.00  0.00     0.031 C 
ATOM     39  C   UNL A   1      37.441  31.573  31.883  1.00  0.00     0.029 A 
ATOM     40  N   UNL A   1      39.394  30.530  32.194  1.00  0.00    -0.354 N 
ATOM     41  C   UNL A   1      41.084  27.992  29.141  1.00  0.00     0.074 A 
ATOM     42  C   UNL A   1      40.347  28.123  27.903  1.00  0.00     0.031 C 
ATOM     43  C   UNL A   1      37.899  31.928  33.094  1.00  0.00     0.029 A 
ATOM     44  C   UNL A   1      39.146  31.217  33.356  1.00  0.00     0.049 A 
ATOM     45  H   UNL A   1      40.205  29.990  32.048  1.00  0.00     0.167 HD
ATOM     46  C   UNL A   1      42.203  27.245  29.293  1.00  0.00     0.037 A 
ATOM     47  C   UNL A   1      39.825  31.239  34.518  1.00  0.00     0.037 A 
ATOM     48  C   UNL A   1      42.961  27.158  30.513  1.00  0.00     0.049 A 
ATOM     49  C   UNL A   1      41.054  30.391  34.668  1.00  0.00     0.074 A 
ATOM     50  C   UNL A   1      44.098  26.413  30.773  1.00  0.00     0.029 A 
ATOM     51  N   UNL A   1      42.668  27.862  31.670  1.00  0.00    -0.354 N 
ATOM     52  N   UNL A   1      41.624  29.601  33.792  1.00  0.00    -0.248 NA
ATOM     53  C   UNL A   1      41.721  30.417  35.979  1.00  0.00     0.031 C 
ATOM     54  C   UNL A   1      44.486  26.655  32.096  1.00  0.00     0.029 A 
ATOM     55  C   UNL A   1      43.604  27.570  32.648  1.00  0.00     0.049 A 
ATOM     56  H   UNL A   1      41.907  28.477  31.780  1.00  0.00     0.167 HD
ATOM     57  C   UNL A   1      42.715  29.039  34.440  1.00  0.00     0.074 A 
ATOM     58  C   UNL A   1      42.740  29.592  35.778  1.00  0.00     0.031 C 
ATOM     59  C   UNL A   1      43.612  28.138  33.970  1.00  0.00     0.037 A 
BRANCH  46  60
ATOM     60  C   UNL A   1      42.649  26.431  28.117  1.00  0.00     0.057 A 
ATOM     61  C   UNL A   1      42.176  25.134  27.889  1.00  0.00     0.134 A 
ATOM     62  C   UNL A   1      43.551  26.966  27.190  1.00  0.00     0.134 A 
ATOM     63  F   UNL A   1      41.324  24.560  28.751  1.00  0.00    -0.206 F 
ATOM     64  C   UNL A   1      42.597  24.391  26.785  1.00  0.00     0.040 A 
ATOM     65  C   UNL A   1      43.966  26.240  26.073  1.00  0.00     0.040 A 
ATOM     66  F   UNL A   1      44.041  28.204  27.353  1.00  0.00    -0.206 F 
ATOM     67  C   UNL A   1      43.490  24.946  25.871  1.00  0.00     0.006 A 
ENDBRANCH  46  60
BRANCH  47  68
ATOM     68  C   UNL A   1      39.328  32.064  35.645  1.00  0.00     0.057 A 
ATOM     69  C   UNL A   1      38.380  31.563  36.542  1.00  0.00     0.134 A 
ATOM     70  C   UNL A   1      39.795  33.367  35.856  1.00  0.00     0.134 A 
ATOM     71  F   UNL A   1      37.879  30.329  36.376  1.00  0.00    -0.206 F 
ATOM     72  C   UNL A   1      37.912  32.329  37.611  1.00  0.00     0.040 A 
ATOM     73  C   UNL A   1      39.352  34.135  36.931  1.00  0.00     0.040 A 
ATOM     74  F   UNL A   1      40.705  33.902  35.028  1.00  0.00    -0.206 F 
ATOM     75  C   UNL A   1      38.404  33.618  37.811  1.00  0.00     0.006 A 
ENDBRANCH  47  68
BRANCH  59  76
ATOM     76  C   UNL A   1      44.702  27.716  34.904  1.00  0.00     0.057 A 
ATOM     77  C   UNL A   1      44.565  26.590  35.725  1.00  0.00     0.134 A 
ATOM     78  C   UNL A   1      45.910  28.420  34.957  1.00  0.00     0.134 A 
ATOM     79  F   UNL A   1      43.425  25.883  35.726  1.00  0.00    -0.206 F 
ATOM     80  C   UNL A   1      45.593  26.185  36.578  1.00  0.00     0.040 A 
ATOM     81  C   UNL A   1      46.949  28.017  35.796  1.00  0.00     0.040 A 
ATOM     82  F   UNL A   1      46.099  29.505  34.192  1.00  0.00    -0.206 F 
ATOM     83  C   UNL A   1      46.791  26.898  36.611  1.00  0.00     0.006 A 
ENDBRANCH  59  76
ENDBRANCH  33  34
ENDBRANCH  26  28
ENDBRANCH  25  26
ENDBRANCH  24  25
ENDBRANCH   1  24
TORSDOF 15
ENDMDL
MODEL 3
REMARK VINA RESULT:     -10.7      1.485      3.612
REMARK SMILES CC[NH2+][C@@]1(C(=O)OCCOC(=O)c2ccc(-c3c4nc(c(-c5c(F)cccc5F)c5ccc([nH]5)c(-c5c(F)cccc5F)c5nc(c(-c6c(F)cccc6F)c6ccc3[nH]6)C=C5)C=C4)cc2)CC[C@H](Sc2nccc(=O)[nH]2)C1
REMARK SMILES IDX 8 1 7 2 5 3 6 4 4 5 67 6 78 7 68 8 69 9 3 10 2 13 1 14 70 15
REMARK SMILES IDX 71 16 72 17 77 18 73 19 75 20 74 22 76 23 9 24 10 25 11 26
REMARK SMILES IDX 12 27 13 28 14 29 66 30 15 31 65 32 16 33 17 34 18 35 59 36
REMARK SMILES IDX 19 37 64 38 58 39 60 40 20 41 63 42 57 43 56 44 21 46 47 47
REMARK SMILES IDX 30 48 46 49 31 50 34 51 45 52 61 53 32 54 33 55 44 57 62 58
REMARK SMILES IDX 35 59 22 60 23 61 28 62 24 63 25 64 27 65 29 66 26 67 48 68
REMARK SMILES IDX 49 69 54 70 50 71 51 72 53 73 55 74 52 75 36 76 37 77 42 78
REMARK SMILES IDX 38 79 39 80 41 81 43 82 40 83
REMARK H PARENT 3 11 3 12 77 21 60 45 34 56
REMARK Flexibility Score: inf
ROOT
ATOM      1  C   UNL A   1      36.113  22.657  23.691  1.00  0.00     0.274 C 
ENDROOT
BRANCH   1   2
ATOM      2  O   UNL A   1      34.988  22.983  24.529  1.00  0.00    -0.457 OA
BRANCH   2   3
ATOM      3  C   UNL A   1      33.809  22.358  24.265  1.00  0.00     0.368 C 
ATOM      4  O   UNL A   1      33.336  22.243  23.138  1.00  0.00    -0.245 OA
BRANCH   3   5
ATOM      5  C   UNL A   1      33.093  21.844  25.564  1.00  0.00     0.195 C 
ATOM      6  C   UNL A   1      31.595  21.754  25.237  1.00  0.00     0.082 C 
ATOM      7  C   UNL A   1      33.112  22.839  26.743  1.00  0.00     0.096 C 
ATOM      8  C   UNL A   1      31.131  23.204  25.343  1.00  0.00     0.022 C 
ATOM      9  C   UNL A   1      31.886  23.760  26.559  1.00  0.00     0.062 C 
BRANCH   5  10
ATOM     10  N   UNL A   1      33.793  20.601  25.954  1.00  0.00    -0.332 N 
ATOM     11  H   UNL A   1      34.764  20.849  26.147  1.00  0.00     0.347 HD
ATOM     12  H   UNL A   1      33.258  20.246  26.745  1.00  0.00     0.347 HD
BRANCH  10  13
ATOM     13  C   UNL A   1      33.812  19.500  25.008  1.00  0.00     0.257 C 
ATOM     14  C   UNL A   1      32.864  18.409  25.492  1.00  0.00     0.071 C 
ENDBRANCH  10  13
ENDBRANCH   5  10
BRANCH   9  15
ATOM     15  S   UNL A   1      32.410  25.497  26.405  1.00  0.00    -0.084 SA
BRANCH  15  16
ATOM     16  C   UNL A   1      32.063  25.847  24.746  1.00  0.00     0.168 A 
ATOM     17  N   UNL A   1      30.945  26.336  24.330  1.00  0.00    -0.233 NA
ATOM     18  N   UNL A   1      33.113  25.533  23.941  1.00  0.00    -0.301 N 
ATOM     19  C   UNL A   1      30.832  26.519  22.976  1.00  0.00     0.120 A 
ATOM     20  C   UNL A   1      33.056  25.696  22.592  1.00  0.00     0.251 A 
ATOM     21  H   UNL A   1      33.937  25.179  24.345  1.00  0.00     0.172 HD
ATOM     22  C   UNL A   1      31.786  26.237  22.084  1.00  0.00     0.091 A 
ATOM     23  O   UNL A   1      33.980  25.412  21.841  1.00  0.00    -0.269 OA
ENDBRANCH  15  16
ENDBRANCH   9  15
ENDBRANCH   3   5
ENDBRANCH   2   3
ENDBRANCH   1   2
BRANCH   1  24
ATOM     24  C   UNL A   1      36.844  21.432  24.234  1.00  0.00     0.275 C 
BRANCH  24  25
ATOM     25  O   UNL A   1      37.230  21.651  25.602  1.00  0.00    -0.458 OA
BRANCH  25  26
ATOM     26  C   UNL A   1      38.511  21.335  25.893  1.00  0.00     0.338 C 
ATOM     27  O   UNL A   1      39.105  20.298  25.658  1.00  0.00    -0.246 OA
BRANCH  26  28
ATOM     28  C   UNL A   1      39.160  22.497  26.509  1.00  0.00     0.060 A 
ATOM     29  C   UNL A   1      38.693  23.767  26.178  1.00  0.00     0.016 A 
ATOM     30  C   UNL A   1      40.296  22.338  27.300  1.00  0.00     0.016 A 
ATOM     31  C   UNL A   1      39.408  24.893  26.569  1.00  0.00     0.010 A 
ATOM     32  C   UNL A   1      40.975  23.474  27.750  1.00  0.00     0.010 A 
ATOM     33  C   UNL A   1      40.556  24.759  27.359  1.00  0.00    -0.014 A 
BRANCH  33  34
ATOM     34  C   UNL A   1      41.353  25.955  27.731  1.00  0.00     0.031 A 
ATOM     35  C   UNL A   1      40.741  27.015  28.604  1.00  0.00     0.074 A 
ATOM     36  C   UNL A   1      42.623  26.091  27.305  1.00  0.00     0.049 A 
ATOM     37  N   UNL A   1      41.178  28.217  28.877  1.00  0.00    -0.248 NA
ATOM     38  C   UNL A   1      39.462  26.677  29.250  1.00  0.00     0.031 C 
ATOM     39  C   UNL A   1      43.363  25.110  26.512  1.00  0.00     0.029 A 
ATOM     40  N   UNL A   1      43.516  27.117  27.485  1.00  0.00    -0.354 N 
ATOM     41  C   UNL A   1      40.202  28.800  29.676  1.00  0.00     0.074 A 
ATOM     42  C   UNL A   1      39.157  27.815  29.856  1.00  0.00     0.031 C 
ATOM     43  C   UNL A   1      44.603  25.571  26.291  1.00  0.00     0.029 A 
ATOM     44  C   UNL A   1      44.722  26.908  26.862  1.00  0.00     0.049 A 
ATOM     45  H   UNL A   1      43.313  27.925  28.010  1.00  0.00     0.167 HD
ATOM     46  C   UNL A   1      40.180  30.048  30.200  1.00  0.00     0.037 A 
ATOM     47  C   UNL A   1      45.787  27.720  26.730  1.00  0.00     0.037 A 
ATOM     48  C   UNL A   1      41.244  31.006  30.060  1.00  0.00     0.049 A 
ATOM     49  C   UNL A   1      45.734  29.105  27.307  1.00  0.00     0.074 A 
ATOM     50  C   UNL A   1      41.308  32.304  30.538  1.00  0.00     0.029 A 
ATOM     51  N   UNL A   1      42.443  30.757  29.411  1.00  0.00    -0.354 N 
ATOM     52  N   UNL A   1      44.769  29.682  27.980  1.00  0.00    -0.248 NA
ATOM     53  C   UNL A   1      46.908  29.961  27.083  1.00  0.00     0.031 C 
ATOM     54  C   UNL A   1      42.543  32.846  30.164  1.00  0.00     0.029 A 
ATOM     55  C   UNL A   1      43.255  31.877  29.477  1.00  0.00     0.049 A 
ATOM     56  H   UNL A   1      42.681  29.910  28.969  1.00  0.00     0.167 HD
ATOM     57  C   UNL A   1      45.217  30.964  28.263  1.00  0.00     0.074 A 
ATOM     58  C   UNL A   1      46.549  31.077  27.704  1.00  0.00     0.031 C 
ATOM     59  C   UNL A   1      44.579  31.962  28.920  1.00  0.00     0.037 A 
BRANCH  46  60
ATOM     60  C   UNL A   1      38.944  30.458  30.941  1.00  0.00     0.057 A 
ATOM     61  C   UNL A   1      37.859  31.063  30.297  1.00  0.00     0.134 A 
ATOM     62  C   UNL A   1      38.835  30.225  32.317  1.00  0.00     0.134 A 
ATOM     63  F   UNL A   1      37.910  31.330  28.983  1.00  0.00    -0.206 F 
ATOM     64  C   UNL A   1      36.711  31.435  31.001  1.00  0.00     0.040 A 
ATOM     65  C   UNL A   1      37.687  30.575  33.028  1.00  0.00     0.040 A 
ATOM     66  F   UNL A   1      39.842  29.648  32.991  1.00  0.00    -0.206 F 
ATOM     67  C   UNL A   1      36.622  31.186  32.369  1.00  0.00     0.006 A 
ENDBRANCH  46  60
BRANCH  47  68
ATOM     68  C   UNL A   1      46.979  27.253  25.982  1.00  0.00     0.057 A 
ATOM     69  C   UNL A   1      47.105  27.487  24.609  1.00  0.00     0.134 A 
ATOM     70  C   UNL A   1      48.021  26.573  26.623  1.00  0.00     0.134 A 
ATOM     71  F   UNL A   1      46.127  28.113  23.938  1.00  0.00    -0.206 F 
ATOM     72  C   UNL A   1      48.227  27.058  23.898  1.00  0.00     0.040 A 
ATOM     73  C   UNL A   1      49.157  26.158  25.929  1.00  0.00     0.040 A 
ATOM     74  F   UNL A   1      47.957  26.320  27.938  1.00  0.00    -0.206 F 
ATOM     75  C   UNL A   1      49.261  26.398  24.560  1.00  0.00     0.006 A 
ENDBRANCH  47  68
BRANCH  59  76
ATOM     76  C   UNL A   1      45.323  33.250  29.086  1.00  0.00     0.057 A 
ATOM     77  C   UNL A   1      46.175  33.467  30.175  1.00  0.00     0.134 A 
ATOM     78  C   UNL A   1      45.212  34.267  28.130  1.00  0.00     0.134 A 
ATOM     79  F   UNL A   1      46.312  32.533  31.128  1.00  0.00    -0.206 F 
ATOM     80  C   UNL A   1      46.886  34.660  30.314  1.00  0.00     0.040 A 
ATOM     81  C   UNL A   1      45.928  35.458  28.251  1.00  0.00     0.040 A 
ATOM     82  F   UNL A   1      44.413  34.114  27.064  1.00  0.00    -0.206 F 
ATOM     83  C   UNL A   1      46.766  35.658  29.347  1.00  0.00     0.006 A 
ENDBRANCH  59  76
ENDBRANCH  33  34
ENDBRANCH  26  28
ENDBRANCH  25  26
ENDBRANCH  24  25
ENDBRANCH   1  24
TORSDOF 15
ENDMDL
