MODEL 1
REMARK VINA RESULT:     -11.0      0.000      0.000
REMARK SMILES CCn1cc(CNC(=O)[C@H]2CC=CC[C@H]2C(=O)OCCOC(=O)c2ccc(-c3c4nc(c(-c5c(F)cccc5F)c5ccc([nH]5)c(-c5c(F)cccc5F)c5nc(c(-c6c(F)cccc6F)c6ccc3[nH]6)C=C5)C=C4)cc2)cn1
REMARK SMILES IDX 19 1 18 2 16 3 17 4 15 5 10 6 11 7 12 8 14 9 13 10 8 11 7 12
REMARK SMILES IDX 9 14 6 15 5 16 3 17 4 18 79 19 78 20 2 21 1 22 20 23 21 24
REMARK SMILES IDX 22 25 23 26 24 27 25 28 77 29 26 30 76 31 27 32 28 33 29 34
REMARK SMILES IDX 70 35 30 36 75 37 69 38 71 39 31 40 74 41 68 42 67 43 32 45
REMARK SMILES IDX 58 46 41 47 57 48 42 49 45 50 56 51 72 52 43 53 44 54 55 56
REMARK SMILES IDX 73 57 46 58 33 59 34 60 39 61 35 62 36 63 38 64 40 65 37 66
REMARK SMILES IDX 59 67 60 68 65 69 61 70 62 71 64 72 66 73 63 74 47 75 48 76
REMARK SMILES IDX 53 77 49 78 50 79 52 80 54 81 51 82
REMARK H PARENT 7 13 71 44 45 55
REMARK Flexibility Score: inf
ROOT
ATOM      1  C   UNL A   1      32.071  28.915  27.260  1.00  0.00     0.274 C 
ENDROOT
BRANCH   1   2
ATOM      2  O   UNL A   1      31.545  28.191  26.130  1.00  0.00    -0.462 OA
BRANCH   2   3
ATOM      3  C   UNL A   1      32.397  27.327  25.537  1.00  0.00     0.310 C 
ATOM      4  O   UNL A   1      33.145  27.627  24.608  1.00  0.00    -0.252 OA
BRANCH   3   5
ATOM      5  C   UNL A   1      32.299  25.905  26.050  1.00  0.00     0.115 C 
ATOM      6  C   UNL A   1      31.030  25.061  25.798  1.00  0.00     0.096 C 
ATOM      7  C   UNL A   1      31.078  23.806  26.690  1.00  0.00     0.041 C 
ATOM      8  C   UNL A   1      32.458  23.226  26.886  1.00  0.00    -0.030 C 
ATOM      9  C   UNL A   1      33.572  25.132  25.719  1.00  0.00     0.043 C 
ATOM     10  C   UNL A   1      33.575  23.798  26.412  1.00  0.00    -0.030 C 
BRANCH   6  11
ATOM     11  C   UNL A   1      30.620  24.892  24.323  1.00  0.00     0.224 C 
ATOM     12  N   UNL A   1      29.608  25.520  23.692  1.00  0.00    -0.352 N 
ATOM     13  H   UNL A   1      29.431  25.146  22.799  1.00  0.00     0.163 HD
ATOM     14  O   UNL A   1      31.229  24.101  23.590  1.00  0.00    -0.275 OA
BRANCH  12  15
ATOM     15  C   UNL A   1      28.726  26.610  24.017  1.00  0.00     0.155 C 
BRANCH  15  16
ATOM     16  C   UNL A   1      29.101  27.821  23.238  1.00  0.00     0.009 A 
ATOM     17  N   UNL A   1      29.115  29.832  22.333  1.00  0.00    -0.273 N 
ATOM     18  C   UNL A   1      28.386  29.000  23.134  1.00  0.00     0.114 A 
ATOM     19  N   UNL A   1      30.272  29.288  21.918  1.00  0.00    -0.181 NA
ATOM     20  C   UNL A   1      30.257  28.066  22.455  1.00  0.00     0.140 A 
BRANCH  17  21
ATOM     21  C   UNL A   1      28.768  31.183  21.938  1.00  0.00     0.141 C 
ATOM     22  C   UNL A   1      28.009  31.222  20.622  1.00  0.00     0.029 C 
ENDBRANCH  17  21
ENDBRANCH  15  16
ENDBRANCH  12  15
ENDBRANCH   6  11
ENDBRANCH   3   5
ENDBRANCH   2   3
ENDBRANCH   1   2
BRANCH   1  23
ATOM     23  C   UNL A   1      32.520  30.331  26.897  1.00  0.00     0.275 C 
BRANCH  23  24
ATOM     24  O   UNL A   1      33.941  30.458  26.747  1.00  0.00    -0.458 OA
BRANCH  24  25
ATOM     25  C   UNL A   1      34.503  31.335  27.604  1.00  0.00     0.338 C 
ATOM     26  O   UNL A   1      34.200  32.503  27.759  1.00  0.00    -0.246 OA
BRANCH  25  27
ATOM     27  C   UNL A   1      35.704  30.803  28.242  1.00  0.00     0.060 A 
ATOM     28  C   UNL A   1      36.653  31.739  28.678  1.00  0.00     0.016 A 
ATOM     29  C   UNL A   1      35.991  29.438  28.178  1.00  0.00     0.016 A 
ATOM     30  C   UNL A   1      37.936  31.316  28.954  1.00  0.00     0.010 A 
ATOM     31  C   UNL A   1      37.277  29.016  28.452  1.00  0.00     0.010 A 
ATOM     32  C   UNL A   1      38.247  29.964  28.792  1.00  0.00    -0.014 A 
BRANCH  32  33
ATOM     33  C   UNL A   1      39.600  29.544  29.113  1.00  0.00     0.031 A 
ATOM     34  C   UNL A   1      39.937  29.617  30.555  1.00  0.00     0.074 A 
ATOM     35  C   UNL A   1      40.417  28.972  28.208  1.00  0.00     0.049 A 
ATOM     36  N   UNL A   1      40.929  30.224  31.116  1.00  0.00    -0.248 NA
ATOM     37  C   UNL A   1      38.997  28.991  31.500  1.00  0.00     0.031 C 
ATOM     38  C   UNL A   1      40.066  28.571  26.844  1.00  0.00     0.029 A 
ATOM     39  N   UNL A   1      41.691  28.507  28.362  1.00  0.00    -0.354 N 
ATOM     40  C   UNL A   1      40.851  29.890  32.464  1.00  0.00     0.074 A 
ATOM     41  C   UNL A   1      39.577  29.254  32.669  1.00  0.00     0.031 C 
ATOM     42  C   UNL A   1      41.016  27.731  26.378  1.00  0.00     0.029 A 
ATOM     43  C   UNL A   1      42.085  27.635  27.359  1.00  0.00     0.049 A 
ATOM     44  H   UNL A   1      42.273  28.767  29.111  1.00  0.00     0.167 HD
ATOM     45  C   UNL A   1      41.954  29.904  33.254  1.00  0.00     0.037 A 
ATOM     46  C   UNL A   1      43.174  26.832  27.359  1.00  0.00     0.037 A 
ATOM     47  C   UNL A   1      43.002  30.718  32.704  1.00  0.00     0.049 A 
ATOM     48  C   UNL A   1      44.141  27.352  28.351  1.00  0.00     0.074 A 
ATOM     49  C   UNL A   1      43.187  32.059  32.442  1.00  0.00     0.029 A 
ATOM     50  N   UNL A   1      43.983  30.042  32.031  1.00  0.00    -0.354 N 
ATOM     51  N   UNL A   1      44.816  28.457  28.216  1.00  0.00    -0.248 NA
ATOM     52  C   UNL A   1      44.186  26.757  29.683  1.00  0.00     0.031 C 
ATOM     53  C   UNL A   1      44.118  32.121  31.362  1.00  0.00     0.029 A 
ATOM     54  C   UNL A   1      44.464  30.817  31.010  1.00  0.00     0.049 A 
ATOM     55  H   UNL A   1      44.297  29.134  32.249  1.00  0.00     0.167 HD
ATOM     56  C   UNL A   1      44.996  28.913  29.509  1.00  0.00     0.074 A 
ATOM     57  C   UNL A   1      44.778  27.749  30.353  1.00  0.00     0.031 C 
ATOM     58  C   UNL A   1      44.982  30.249  29.784  1.00  0.00     0.037 A 
BRANCH  45  59
ATOM     59  C   UNL A   1      42.243  28.820  34.266  1.00  0.00     0.057 A 
ATOM     60  C   UNL A   1      42.416  27.497  33.824  1.00  0.00     0.134 A 
ATOM     61  C   UNL A   1      42.038  28.970  35.654  1.00  0.00     0.134 A 
ATOM     62  F   UNL A   1      42.580  27.225  32.521  1.00  0.00    -0.206 F 
ATOM     63  C   UNL A   1      42.333  26.402  34.693  1.00  0.00     0.040 A 
ATOM     64  C   UNL A   1      42.009  27.887  36.537  1.00  0.00     0.040 A 
ATOM     65  F   UNL A   1      41.748  30.152  36.212  1.00  0.00    -0.206 F 
ATOM     66  C   UNL A   1      42.126  26.595  36.054  1.00  0.00     0.006 A 
ENDBRANCH  45  59
BRANCH  46  67
ATOM     67  C   UNL A   1      43.366  25.527  26.689  1.00  0.00     0.057 A 
ATOM     68  C   UNL A   1      42.635  24.399  27.085  1.00  0.00     0.134 A 
ATOM     69  C   UNL A   1      44.083  25.407  25.486  1.00  0.00     0.134 A 
ATOM     70  F   UNL A   1      41.886  24.425  28.196  1.00  0.00    -0.206 F 
ATOM     71  C   UNL A   1      42.598  23.228  26.317  1.00  0.00     0.040 A 
ATOM     72  C   UNL A   1      44.069  24.239  24.719  1.00  0.00     0.040 A 
ATOM     73  F   UNL A   1      44.753  26.446  24.968  1.00  0.00    -0.206 F 
ATOM     74  C   UNL A   1      43.311  23.149  25.126  1.00  0.00     0.006 A 
ENDBRANCH  46  67
BRANCH  58  75
ATOM     75  C   UNL A   1      45.310  31.183  28.657  1.00  0.00     0.057 A 
ATOM     76  C   UNL A   1      44.387  31.632  27.702  1.00  0.00     0.134 A 
ATOM     77  C   UNL A   1      46.611  31.693  28.572  1.00  0.00     0.134 A 
ATOM     78  F   UNL A   1      43.096  31.276  27.761  1.00  0.00    -0.206 F 
ATOM     79  C   UNL A   1      44.762  32.496  26.669  1.00  0.00     0.040 A 
ATOM     80  C   UNL A   1      46.989  32.587  27.569  1.00  0.00     0.040 A 
ATOM     81  F   UNL A   1      47.535  31.349  29.484  1.00  0.00    -0.206 F 
ATOM     82  C   UNL A   1      46.067  32.977  26.601  1.00  0.00     0.006 A 
ENDBRANCH  58  75
ENDBRANCH  32  33
ENDBRANCH  25  27
ENDBRANCH  24  25
ENDBRANCH  23  24
ENDBRANCH   1  23
TORSDOF 15
ENDMDL
MODEL 2
REMARK VINA RESULT:     -10.8      3.515      8.222
REMARK SMILES CCn1cc(CNC(=O)[C@H]2CC=CC[C@H]2C(=O)OCCOC(=O)c2ccc(-c3c4nc(c(-c5c(F)cccc5F)c5ccc([nH]5)c(-c5c(F)cccc5F)c5nc(c(-c6c(F)cccc6F)c6ccc3[nH]6)C=C5)C=C4)cc2)cn1
REMARK SMILES IDX 19 1 18 2 16 3 17 4 15 5 10 6 11 7 12 8 14 9 13 10 8 11 7 12
REMARK SMILES IDX 9 14 6 15 5 16 3 17 4 18 79 19 78 20 2 21 1 22 20 23 21 24
REMARK SMILES IDX 22 25 23 26 24 27 25 28 77 29 26 30 76 31 27 32 28 33 29 34
REMARK SMILES IDX 70 35 30 36 75 37 69 38 71 39 31 40 74 41 68 42 67 43 32 45
REMARK SMILES IDX 58 46 41 47 57 48 42 49 45 50 56 51 72 52 43 53 44 54 55 56
REMARK SMILES IDX 73 57 46 58 33 59 34 60 39 61 35 62 36 63 38 64 40 65 37 66
REMARK SMILES IDX 59 67 60 68 65 69 61 70 62 71 64 72 66 73 63 74 47 75 48 76
REMARK SMILES IDX 53 77 49 78 50 79 52 80 54 81 51 82
REMARK H PARENT 7 13 71 44 45 55
REMARK Flexibility Score: inf
ROOT
ATOM      1  C   UNL A   1      36.916  22.163  23.884  1.00  0.00     0.274 C 
ENDROOT
BRANCH   1   2
ATOM      2  O   UNL A   1      36.019  23.169  24.391  1.00  0.00    -0.462 OA
BRANCH   2   3
ATOM      3  C   UNL A   1      34.946  23.446  23.618  1.00  0.00     0.310 C 
ATOM      4  O   UNL A   1      34.885  23.204  22.413  1.00  0.00    -0.252 OA
BRANCH   3   5
ATOM      5  C   UNL A   1      33.830  24.174  24.338  1.00  0.00     0.115 C 
ATOM      6  C   UNL A   1      32.507  23.455  24.679  1.00  0.00     0.096 C 
ATOM      7  C   UNL A   1      31.461  24.502  25.105  1.00  0.00     0.041 C 
ATOM      8  C   UNL A   1      32.020  25.665  25.889  1.00  0.00    -0.030 C 
ATOM      9  C   UNL A   1      34.384  24.943  25.534  1.00  0.00     0.043 C 
ATOM     10  C   UNL A   1      33.330  25.841  26.120  1.00  0.00    -0.030 C 
BRANCH   6  11
ATOM     11  C   UNL A   1      32.640  22.172  25.522  1.00  0.00     0.224 C 
ATOM     12  N   UNL A   1      32.426  20.909  25.104  1.00  0.00    -0.352 N 
ATOM     13  H   UNL A   1      32.418  20.262  25.846  1.00  0.00     0.163 HD
ATOM     14  O   UNL A   1      32.956  22.238  26.717  1.00  0.00    -0.275 OA
BRANCH  12  15
ATOM     15  C   UNL A   1      32.207  20.282  23.826  1.00  0.00     0.155 C 
BRANCH  15  16
ATOM     16  C   UNL A   1      32.711  18.881  23.851  1.00  0.00     0.009 A 
ATOM     17  N   UNL A   1      33.495  16.929  24.509  1.00  0.00    -0.273 N 
ATOM     18  C   UNL A   1      33.141  18.170  24.955  1.00  0.00     0.114 A 
ATOM     19  N   UNL A   1      33.309  16.768  23.188  1.00  0.00    -0.181 NA
ATOM     20  C   UNL A   1      32.846  17.954  22.787  1.00  0.00     0.140 A 
BRANCH  17  21
ATOM     21  C   UNL A   1      34.006  15.831  25.306  1.00  0.00     0.141 C 
ATOM     22  C   UNL A   1      35.524  15.827  25.377  1.00  0.00     0.029 C 
ENDBRANCH  17  21
ENDBRANCH  15  16
ENDBRANCH  12  15
ENDBRANCH   6  11
ENDBRANCH   3   5
ENDBRANCH   2   3
ENDBRANCH   1   2
BRANCH   1  23
ATOM     23  C   UNL A   1      37.605  21.372  24.997  1.00  0.00     0.275 C 
BRANCH  23  24
ATOM     24  O   UNL A   1      37.955  22.173  26.134  1.00  0.00    -0.458 OA
BRANCH  24  25
ATOM     25  C   UNL A   1      39.264  22.116  26.457  1.00  0.00     0.338 C 
ATOM     26  O   UNL A   1      39.933  21.115  26.630  1.00  0.00    -0.246 OA
BRANCH  25  27
ATOM     27  C   UNL A   1      39.813  23.427  26.793  1.00  0.00     0.060 A 
ATOM     28  C   UNL A   1      40.970  23.441  27.586  1.00  0.00     0.016 A 
ATOM     29  C   UNL A   1      39.074  24.586  26.548  1.00  0.00     0.016 A 
ATOM     30  C   UNL A   1      41.332  24.607  28.226  1.00  0.00     0.010 A 
ATOM     31  C   UNL A   1      39.436  25.752  27.192  1.00  0.00     0.010 A 
ATOM     32  C   UNL A   1      40.532  25.741  28.060  1.00  0.00    -0.014 A 
BRANCH  32  33
ATOM     33  C   UNL A   1      40.951  26.960  28.728  1.00  0.00     0.031 A 
ATOM     34  C   UNL A   1      42.162  27.589  28.150  1.00  0.00     0.074 A 
ATOM     35  C   UNL A   1      40.206  27.562  29.674  1.00  0.00     0.049 A 
ATOM     36  N   UNL A   1      43.255  27.923  28.750  1.00  0.00    -0.248 NA
ATOM     37  C   UNL A   1      42.182  27.802  26.692  1.00  0.00     0.031 C 
ATOM     38  C   UNL A   1      38.850  27.192  30.088  1.00  0.00     0.029 A 
ATOM     39  N   UNL A   1      40.450  28.713  30.368  1.00  0.00    -0.354 N 
ATOM     40  C   UNL A   1      44.022  28.572  27.787  1.00  0.00     0.074 A 
ATOM     41  C   UNL A   1      43.384  28.345  26.517  1.00  0.00     0.031 C 
ATOM     42  C   UNL A   1      38.311  28.215  30.784  1.00  0.00     0.029 A 
ATOM     43  C   UNL A   1      39.317  29.250  30.961  1.00  0.00     0.049 A 
ATOM     44  H   UNL A   1      41.342  29.120  30.440  1.00  0.00     0.167 HD
ATOM     45  C   UNL A   1      44.965  29.482  28.137  1.00  0.00     0.037 A 
ATOM     46  C   UNL A   1      39.187  30.486  31.497  1.00  0.00     0.037 A 
ATOM     47  C   UNL A   1      45.382  29.328  29.504  1.00  0.00     0.049 A 
ATOM     48  C   UNL A   1      40.537  31.013  31.796  1.00  0.00     0.074 A 
ATOM     49  C   UNL A   1      46.050  28.372  30.238  1.00  0.00     0.029 A 
ATOM     50  N   UNL A   1      44.798  30.182  30.399  1.00  0.00    -0.354 N 
ATOM     51  N   UNL A   1      41.314  30.563  32.738  1.00  0.00    -0.248 NA
ATOM     52  C   UNL A   1      41.175  31.919  30.847  1.00  0.00     0.031 C 
ATOM     53  C   UNL A   1      45.592  28.520  31.581  1.00  0.00     0.029 A 
ATOM     54  C   UNL A   1      44.665  29.562  31.612  1.00  0.00     0.049 A 
ATOM     55  H   UNL A   1      44.517  31.105  30.201  1.00  0.00     0.167 HD
ATOM     56  C   UNL A   1      42.594  30.768  32.259  1.00  0.00     0.074 A 
ATOM     57  C   UNL A   1      42.450  31.771  31.216  1.00  0.00     0.031 C 
ATOM     58  C   UNL A   1      43.590  29.876  32.529  1.00  0.00     0.037 A 
BRANCH  45  59
ATOM     59  C   UNL A   1      45.154  30.784  27.395  1.00  0.00     0.057 A 
ATOM     60  C   UNL A   1      46.421  31.102  26.879  1.00  0.00     0.134 A 
ATOM     61  C   UNL A   1      44.239  31.857  27.452  1.00  0.00     0.134 A 
ATOM     62  F   UNL A   1      47.387  30.174  26.811  1.00  0.00    -0.206 F 
ATOM     63  C   UNL A   1      46.770  32.406  26.502  1.00  0.00     0.040 A 
ATOM     64  C   UNL A   1      44.560  33.149  27.027  1.00  0.00     0.040 A 
ATOM     65  F   UNL A   1      43.032  31.741  28.019  1.00  0.00    -0.206 F 
ATOM     66  C   UNL A   1      45.838  33.435  26.578  1.00  0.00     0.006 A 
ENDBRANCH  45  59
BRANCH  46  67
ATOM     67  C   UNL A   1      37.976  31.330  31.602  1.00  0.00     0.057 A 
ATOM     68  C   UNL A   1      37.388  31.891  30.460  1.00  0.00     0.134 A 
ATOM     69  C   UNL A   1      37.222  31.404  32.786  1.00  0.00     0.134 A 
ATOM     70  F   UNL A   1      38.009  31.836  29.274  1.00  0.00    -0.206 F 
ATOM     71  C   UNL A   1      36.113  32.470  30.488  1.00  0.00     0.040 A 
ATOM     72  C   UNL A   1      35.956  31.995  32.831  1.00  0.00     0.040 A 
ATOM     73  F   UNL A   1      37.648  30.831  33.920  1.00  0.00    -0.206 F 
ATOM     74  C   UNL A   1      35.391  32.516  31.675  1.00  0.00     0.006 A 
ENDBRANCH  46  67
BRANCH  58  75
ATOM     75  C   UNL A   1      43.424  29.013  33.744  1.00  0.00     0.057 A 
ATOM     76  C   UNL A   1      43.838  29.368  35.036  1.00  0.00     0.134 A 
ATOM     77  C   UNL A   1      42.763  27.787  33.605  1.00  0.00     0.134 A 
ATOM     78  F   UNL A   1      44.391  30.563  35.284  1.00  0.00    -0.206 F 
ATOM     79  C   UNL A   1      43.662  28.510  36.125  1.00  0.00     0.040 A 
ATOM     80  C   UNL A   1      42.544  26.938  34.691  1.00  0.00     0.040 A 
ATOM     81  F   UNL A   1      42.290  27.404  32.407  1.00  0.00    -0.206 F 
ATOM     82  C   UNL A   1      43.012  27.290  35.954  1.00  0.00     0.006 A 
ENDBRANCH  58  75
ENDBRANCH  32  33
ENDBRANCH  25  27
ENDBRANCH  24  25
ENDBRANCH  23  24
ENDBRANCH   1  23
TORSDOF 15
ENDMDL
MODEL 3
REMARK VINA RESULT:     -10.8      2.030      6.221
REMARK SMILES CCn1cc(CNC(=O)[C@H]2CC=CC[C@H]2C(=O)OCCOC(=O)c2ccc(-c3c4nc(c(-c5c(F)cccc5F)c5ccc([nH]5)c(-c5c(F)cccc5F)c5nc(c(-c6c(F)cccc6F)c6ccc3[nH]6)C=C5)C=C4)cc2)cn1
REMARK SMILES IDX 19 1 18 2 16 3 17 4 15 5 10 6 11 7 12 8 14 9 13 10 8 11 7 12
REMARK SMILES IDX 9 14 6 15 5 16 3 17 4 18 79 19 78 20 2 21 1 22 20 23 21 24
REMARK SMILES IDX 22 25 23 26 24 27 25 28 77 29 26 30 76 31 27 32 28 33 29 34
REMARK SMILES IDX 70 35 30 36 75 37 69 38 71 39 31 40 74 41 68 42 67 43 32 45
REMARK SMILES IDX 58 46 41 47 57 48 42 49 45 50 56 51 72 52 43 53 44 54 55 56
REMARK SMILES IDX 73 57 46 58 33 59 34 60 39 61 35 62 36 63 38 64 40 65 37 66
REMARK SMILES IDX 59 67 60 68 65 69 61 70 62 71 64 72 66 73 63 74 47 75 48 76
REMARK SMILES IDX 53 77 49 78 50 79 52 80 54 81 51 82
REMARK H PARENT 7 13 71 44 45 55
REMARK Flexibility Score: inf
ROOT
ATOM      1  C   UNL A   1      33.335  27.657  26.661  1.00  0.00     0.274 C 
ENDROOT
BRANCH   1   2
ATOM      2  O   UNL A   1      32.787  27.646  25.328  1.00  0.00    -0.462 OA
BRANCH   2   3
ATOM      3  C   UNL A   1      33.368  26.791  24.459  1.00  0.00     0.310 C 
ATOM      4  O   UNL A   1      33.775  27.113  23.344  1.00  0.00    -0.252 OA
BRANCH   3   5
ATOM      5  C   UNL A   1      33.404  25.352  24.931  1.00  0.00     0.115 C 
ATOM      6  C   UNL A   1      32.096  24.563  25.160  1.00  0.00     0.096 C 
ATOM      7  C   UNL A   1      32.419  23.269  25.931  1.00  0.00     0.041 C 
ATOM      8  C   UNL A   1      33.740  22.634  25.568  1.00  0.00    -0.030 C 
ATOM      9  C   UNL A   1      34.416  24.551  24.117  1.00  0.00     0.043 C 
ATOM     10  C   UNL A   1      34.619  23.189  24.719  1.00  0.00    -0.030 C 
BRANCH   6  11
ATOM     11  C   UNL A   1      31.147  24.473  23.950  1.00  0.00     0.224 C 
ATOM     12  N   UNL A   1      30.029  25.198  23.749  1.00  0.00    -0.352 N 
ATOM     13  H   UNL A   1      29.497  24.867  22.989  1.00  0.00     0.163 HD
ATOM     14  O   UNL A   1      31.366  23.661  23.041  1.00  0.00    -0.275 OA
BRANCH  12  15
ATOM     15  C   UNL A   1      29.429  26.342  24.384  1.00  0.00     0.155 C 
BRANCH  15  16
ATOM     16  C   UNL A   1      29.384  27.488  23.435  1.00  0.00     0.009 A 
ATOM     17  N   UNL A   1      28.724  29.224  22.247  1.00  0.00    -0.273 N 
ATOM     18  C   UNL A   1      28.302  28.304  23.163  1.00  0.00     0.114 A 
ATOM     19  N   UNL A   1      30.017  29.084  21.913  1.00  0.00    -0.181 NA
ATOM     20  C   UNL A   1      30.414  28.025  22.622  1.00  0.00     0.140 A 
BRANCH  17  21
ATOM     21  C   UNL A   1      27.937  30.291  21.660  1.00  0.00     0.141 C 
ATOM     22  C   UNL A   1      28.680  31.616  21.647  1.00  0.00     0.029 C 
ENDBRANCH  17  21
ENDBRANCH  15  16
ENDBRANCH  12  15
ENDBRANCH   6  11
ENDBRANCH   3   5
ENDBRANCH   2   3
ENDBRANCH   1   2
BRANCH   1  23
ATOM     23  C   UNL A   1      33.979  28.996  27.022  1.00  0.00     0.275 C 
BRANCH  23  24
ATOM     24  O   UNL A   1      35.400  28.918  27.199  1.00  0.00    -0.458 OA
BRANCH  24  25
ATOM     25  C   UNL A   1      35.868  29.698  28.195  1.00  0.00     0.338 C 
ATOM     26  O   UNL A   1      35.280  30.604  28.754  1.00  0.00    -0.246 OA
BRANCH  25  27
ATOM     27  C   UNL A   1      37.292  29.491  28.445  1.00  0.00     0.060 A 
ATOM     28  C   UNL A   1      38.167  29.789  27.390  1.00  0.00     0.016 A 
ATOM     29  C   UNL A   1      37.716  28.794  29.578  1.00  0.00     0.016 A 
ATOM     30  C   UNL A   1      39.453  29.293  27.423  1.00  0.00     0.010 A 
ATOM     31  C   UNL A   1      39.003  28.296  29.609  1.00  0.00     0.010 A 
ATOM     32  C   UNL A   1      39.844  28.510  28.512  1.00  0.00    -0.014 A 
BRANCH  32  33
ATOM     33  C   UNL A   1      41.211  28.021  28.529  1.00  0.00     0.031 A 
ATOM     34  C   UNL A   1      41.397  26.701  27.881  1.00  0.00     0.074 A 
ATOM     35  C   UNL A   1      42.247  28.777  28.939  1.00  0.00     0.049 A 
ATOM     36  N   UNL A   1      41.935  25.636  28.373  1.00  0.00    -0.248 NA
ATOM     37  C   UNL A   1      40.835  26.527  26.530  1.00  0.00     0.031 C 
ATOM     38  C   UNL A   1      42.207  30.196  29.298  1.00  0.00     0.029 A 
ATOM     39  N   UNL A   1      43.577  28.470  28.989  1.00  0.00    -0.354 N 
ATOM     40  C   UNL A   1      41.963  24.719  27.326  1.00  0.00     0.074 A 
ATOM     41  C   UNL A   1      41.153  25.262  26.269  1.00  0.00     0.031 C 
ATOM     42  C   UNL A   1      43.468  30.680  29.310  1.00  0.00     0.029 A 
ATOM     43  C   UNL A   1      44.397  29.586  29.078  1.00  0.00     0.049 A 
ATOM     44  H   UNL A   1      43.919  27.549  28.966  1.00  0.00     0.167 HD
ATOM     45  C   UNL A   1      42.876  23.717  27.297  1.00  0.00     0.037 A 
ATOM     46  C   UNL A   1      45.738  29.626  28.901  1.00  0.00     0.037 A 
ATOM     47  C   UNL A   1      43.420  23.443  28.598  1.00  0.00     0.049 A 
ATOM     48  C   UNL A   1      46.276  28.259  29.072  1.00  0.00     0.074 A 
ATOM     49  C   UNL A   1      42.940  22.953  29.794  1.00  0.00     0.029 A 
ATOM     50  N   UNL A   1      44.639  24.007  28.860  1.00  0.00    -0.354 N 
ATOM     51  N   UNL A   1      46.331  27.623  30.208  1.00  0.00    -0.248 NA
ATOM     52  C   UNL A   1      46.539  27.442  27.892  1.00  0.00     0.031 C 
ATOM     53  C   UNL A   1      43.774  23.510  30.808  1.00  0.00     0.029 A 
ATOM     54  C   UNL A   1      44.731  24.316  30.190  1.00  0.00     0.049 A 
ATOM     55  H   UNL A   1      45.344  24.166  28.191  1.00  0.00     0.167 HD
ATOM     56  C   UNL A   1      46.200  26.291  29.865  1.00  0.00     0.074 A 
ATOM     57  C   UNL A   1      46.536  26.230  28.451  1.00  0.00     0.031 C 
ATOM     58  C   UNL A   1      45.522  25.427  30.675  1.00  0.00     0.037 A 
BRANCH  45  59
ATOM     59  C   UNL A   1      43.607  23.320  26.035  1.00  0.00     0.057 A 
ATOM     60  C   UNL A   1      43.643  21.966  25.660  1.00  0.00     0.134 A 
ATOM     61  C   UNL A   1      44.530  24.155  25.370  1.00  0.00     0.134 A 
ATOM     62  F   UNL A   1      42.840  21.069  26.250  1.00  0.00    -0.206 F 
ATOM     63  C   UNL A   1      44.569  21.472  24.732  1.00  0.00     0.040 A 
ATOM     64  C   UNL A   1      45.420  23.680  24.403  1.00  0.00     0.040 A 
ATOM     65  F   UNL A   1      44.695  25.443  25.695  1.00  0.00    -0.206 F 
ATOM     66  C   UNL A   1      45.463  22.330  24.102  1.00  0.00     0.006 A 
ENDBRANCH  45  59
BRANCH  46  67
ATOM     67  C   UNL A   1      46.576  30.741  28.407  1.00  0.00     0.057 A 
ATOM     68  C   UNL A   1      46.429  31.231  27.103  1.00  0.00     0.134 A 
ATOM     69  C   UNL A   1      47.365  31.517  29.274  1.00  0.00     0.134 A 
ATOM     70  F   UNL A   1      45.663  30.584  26.212  1.00  0.00    -0.206 F 
ATOM     71  C   UNL A   1      47.011  32.435  26.689  1.00  0.00     0.040 A 
ATOM     72  C   UNL A   1      47.966  32.713  28.869  1.00  0.00     0.040 A 
ATOM     73  F   UNL A   1      47.510  31.190  30.565  1.00  0.00    -0.206 F 
ATOM     74  C   UNL A   1      47.777  33.184  27.577  1.00  0.00     0.006 A 
ENDBRANCH  46  67
BRANCH  58  75
ATOM     75  C   UNL A   1      45.408  25.795  32.124  1.00  0.00     0.057 A 
ATOM     76  C   UNL A   1      46.389  25.534  33.091  1.00  0.00     0.134 A 
ATOM     77  C   UNL A   1      44.272  26.498  32.545  1.00  0.00     0.134 A 
ATOM     78  F   UNL A   1      47.552  24.955  32.763  1.00  0.00    -0.206 F 
ATOM     79  C   UNL A   1      46.213  25.895  34.430  1.00  0.00     0.040 A 
ATOM     80  C   UNL A   1      44.102  26.900  33.871  1.00  0.00     0.040 A 
ATOM     81  F   UNL A   1      43.315  26.830  31.663  1.00  0.00    -0.206 F 
ATOM     82  C   UNL A   1      45.067  26.582  34.823  1.00  0.00     0.006 A 
ENDBRANCH  58  75
ENDBRANCH  32  33
ENDBRANCH  25  27
ENDBRANCH  24  25
ENDBRANCH  23  24
ENDBRANCH   1  23
TORSDOF 15
ENDMDL
