MODEL 1
REMARK VINA RESULT:     -12.4      0.000      0.000
REMARK SMILES CC1=C(CC(=O)OCCOC(=O)c2ccc(-c3c4nc(c(-c5c(F)cccc5F)c5ccc([nH]5)c(-c5c(F)cccc5F)c5nc(c(-c6c(F)cccc6F)c6ccc3[nH]6)C=C5)C=C4)cc2)c2cc(F)ccc2/C1=C\c1cccc(OCc2ccccc2)c1
REMARK SMILES IDX 7 1 5 2 6 3 4 4 3 5 1 6 2 7 74 8 67 9 73 10 75 11 68 12
REMARK SMILES IDX 72 13 69 14 71 15 70 16 76 17 77 18 89 19 78 20 80 21 79 22
REMARK SMILES IDX 81 23 82 24 83 25 84 26 88 27 85 28 87 29 86 30 8 31 9 32
REMARK SMILES IDX 10 33 11 34 12 35 13 36 14 37 66 38 15 39 65 40 16 41 17 42
REMARK SMILES IDX 18 43 59 44 19 45 64 46 58 47 60 48 20 49 63 50 57 51 56 52
REMARK SMILES IDX 21 54 47 55 30 56 46 57 31 58 34 59 45 60 61 61 32 62 33 63
REMARK SMILES IDX 44 65 62 66 35 67 22 68 23 69 28 70 24 71 25 72 27 73 29 74
REMARK SMILES IDX 26 75 48 76 49 77 54 78 50 79 51 80 53 81 55 82 52 83 36 84
REMARK SMILES IDX 37 85 42 86 38 87 39 88 41 89 43 90 40 91
REMARK H PARENT 60 53 34 64
REMARK Flexibility Score: inf
ROOT
ATOM      1  O   UNL A   1      43.363  22.289  25.782  1.00  0.00    -0.462 OA
ENDROOT
BRANCH   1   2
ATOM      2  C   UNL A   1      43.335  22.149  27.133  1.00  0.00     0.310 C 
ATOM      3  O   UNL A   1      44.183  22.601  27.898  1.00  0.00    -0.252 OA
BRANCH   2   4
ATOM      4  C   UNL A   1      42.126  21.387  27.661  1.00  0.00     0.159 C 
BRANCH   4   5
ATOM      5  C   UNL A   1      40.828  21.621  26.966  1.00  0.00    -0.025 C 
ATOM      6  C   UNL A   1      40.521  19.389  25.768  1.00  0.00     0.045 C 
ATOM      7  C   UNL A   1      40.143  20.777  26.161  1.00  0.00    -0.039 C 
ATOM      8  C   UNL A   1      38.897  21.424  25.724  1.00  0.00    -0.014 C 
ATOM      9  C   UNL A   1      40.018  22.842  27.130  1.00  0.00    -0.011 A 
ATOM     10  C   UNL A   1      38.850  22.754  26.355  1.00  0.00    -0.010 A 
ATOM     11  C   UNL A   1      37.988  20.846  24.921  1.00  0.00     0.017 C 
ATOM     12  C   UNL A   1      40.241  23.952  27.929  1.00  0.00     0.048 A 
ATOM     13  C   UNL A   1      37.930  23.798  26.336  1.00  0.00     0.012 A 
ATOM     14  C   UNL A   1      39.319  24.995  27.902  1.00  0.00     0.123 A 
ATOM     15  C   UNL A   1      38.177  24.933  27.108  1.00  0.00     0.040 A 
ATOM     16  F   UNL A   1      39.523  26.071  28.674  1.00  0.00    -0.207 F 
BRANCH  11  17
ATOM     17  C   UNL A   1      36.717  21.442  24.521  1.00  0.00    -0.021 A 
ATOM     18  C   UNL A   1      36.679  22.484  23.590  1.00  0.00     0.008 A 
ATOM     19  C   UNL A   1      35.534  20.976  25.106  1.00  0.00     0.054 A 
ATOM     20  C   UNL A   1      35.462  23.084  23.273  1.00  0.00     0.004 A 
ATOM     21  C   UNL A   1      34.310  21.532  24.739  1.00  0.00     0.120 A 
ATOM     22  C   UNL A   1      34.284  22.609  23.850  1.00  0.00     0.046 A 
BRANCH  21  23
ATOM     23  O   UNL A   1      33.077  21.065  25.108  1.00  0.00    -0.489 OA
BRANCH  23  24
ATOM     24  C   UNL A   1      32.395  20.156  24.234  1.00  0.00     0.265 C 
BRANCH  24  25
ATOM     25  C   UNL A   1      32.776  18.687  24.331  1.00  0.00    -0.011 A 
ATOM     26  C   UNL A   1      32.738  18.062  25.589  1.00  0.00     0.007 A 
ATOM     27  C   UNL A   1      33.191  17.927  23.226  1.00  0.00     0.007 A 
ATOM     28  C   UNL A   1      33.147  16.735  25.741  1.00  0.00     0.000 A 
ATOM     29  C   UNL A   1      33.627  16.612  23.383  1.00  0.00     0.000 A 
ATOM     30  C   UNL A   1      33.609  16.016  24.640  1.00  0.00     0.000 A 
ENDBRANCH  24  25
ENDBRANCH  23  24
ENDBRANCH  21  23
ENDBRANCH  11  17
ENDBRANCH   4   5
ENDBRANCH   2   4
ENDBRANCH   1   2
BRANCH   1  31
ATOM     31  C   UNL A   1      44.655  22.140  25.158  1.00  0.00     0.274 C 
BRANCH  31  32
ATOM     32  C   UNL A   1      44.981  23.363  24.305  1.00  0.00     0.275 C 
BRANCH  32  33
ATOM     33  O   UNL A   1      44.219  24.487  24.774  1.00  0.00    -0.458 OA
BRANCH  33  34
ATOM     34  C   UNL A   1      44.942  25.575  25.124  1.00  0.00     0.338 C 
ATOM     35  O   UNL A   1      45.955  25.996  24.596  1.00  0.00    -0.246 OA
BRANCH  34  36
ATOM     36  C   UNL A   1      44.327  26.210  26.304  1.00  0.00     0.060 A 
ATOM     37  C   UNL A   1      44.562  27.565  26.532  1.00  0.00     0.016 A 
ATOM     38  C   UNL A   1      43.444  25.502  27.124  1.00  0.00     0.016 A 
ATOM     39  C   UNL A   1      43.944  28.198  27.611  1.00  0.00     0.010 A 
ATOM     40  C   UNL A   1      42.747  26.161  28.134  1.00  0.00     0.010 A 
ATOM     41  C   UNL A   1      43.021  27.506  28.414  1.00  0.00    -0.014 A 
BRANCH  41  42
ATOM     42  C   UNL A   1      42.382  28.177  29.575  1.00  0.00     0.031 A 
ATOM     43  C   UNL A   1      43.030  28.117  30.932  1.00  0.00     0.074 A 
ATOM     44  C   UNL A   1      41.222  28.841  29.411  1.00  0.00     0.049 A 
ATOM     45  N   UNL A   1      42.664  28.693  32.049  1.00  0.00    -0.248 NA
ATOM     46  C   UNL A   1      44.238  27.284  31.058  1.00  0.00     0.031 C 
ATOM     47  C   UNL A   1      40.458  28.920  28.165  1.00  0.00     0.029 A 
ATOM     48  N   UNL A   1      40.486  29.582  30.300  1.00  0.00    -0.354 N 
ATOM     49  C   UNL A   1      43.590  28.291  33.003  1.00  0.00     0.074 A 
ATOM     50  C   UNL A   1      44.495  27.370  32.354  1.00  0.00     0.031 C 
ATOM     51  C   UNL A   1      39.382  29.699  28.359  1.00  0.00     0.029 A 
ATOM     52  C   UNL A   1      39.368  30.154  29.746  1.00  0.00     0.049 A 
ATOM     53  H   UNL A   1      40.735  29.694  31.246  1.00  0.00     0.167 HD
ATOM     54  C   UNL A   1      43.702  28.680  34.295  1.00  0.00     0.037 A 
ATOM     55  C   UNL A   1      38.440  30.963  30.293  1.00  0.00     0.037 A 
ATOM     56  C   UNL A   1      42.818  29.615  34.937  1.00  0.00     0.049 A 
ATOM     57  C   UNL A   1      38.578  31.372  31.733  1.00  0.00     0.074 A 
ATOM     58  C   UNL A   1      42.897  30.141  36.214  1.00  0.00     0.029 A 
ATOM     59  N   UNL A   1      41.688  30.158  34.346  1.00  0.00    -0.354 N 
ATOM     60  N   UNL A   1      39.518  31.067  32.594  1.00  0.00    -0.248 NA
ATOM     61  C   UNL A   1      37.524  32.242  32.277  1.00  0.00     0.031 C 
ATOM     62  C   UNL A   1      41.788  30.971  36.411  1.00  0.00     0.029 A 
ATOM     63  C   UNL A   1      41.038  30.988  35.245  1.00  0.00     0.049 A 
ATOM     64  H   UNL A   1      41.390  29.980  33.425  1.00  0.00     0.167 HD
ATOM     65  C   UNL A   1      39.178  31.713  33.775  1.00  0.00     0.074 A 
ATOM     66  C   UNL A   1      37.956  32.445  33.514  1.00  0.00     0.031 C 
ATOM     67  C   UNL A   1      39.816  31.697  34.970  1.00  0.00     0.037 A 
BRANCH  54  68
ATOM     68  C   UNL A   1      44.833  28.097  35.090  1.00  0.00     0.057 A 
ATOM     69  C   UNL A   1      46.086  28.719  35.118  1.00  0.00     0.134 A 
ATOM     70  C   UNL A   1      44.681  26.912  35.824  1.00  0.00     0.134 A 
ATOM     71  F   UNL A   1      46.301  29.853  34.434  1.00  0.00    -0.206 F 
ATOM     72  C   UNL A   1      47.147  28.188  35.855  1.00  0.00     0.040 A 
ATOM     73  C   UNL A   1      45.727  26.385  36.584  1.00  0.00     0.040 A 
ATOM     74  F   UNL A   1      43.501  26.275  35.850  1.00  0.00    -0.206 F 
ATOM     75  C   UNL A   1      46.966  27.023  36.597  1.00  0.00     0.006 A 
ENDBRANCH  54  68
BRANCH  55  76
ATOM     76  C   UNL A   1      37.308  31.459  29.473  1.00  0.00     0.057 A 
ATOM     77  C   UNL A   1      36.167  30.678  29.258  1.00  0.00     0.134 A 
ATOM     78  C   UNL A   1      37.338  32.733  28.895  1.00  0.00     0.134 A 
ATOM     79  F   UNL A   1      36.079  29.448  29.785  1.00  0.00    -0.206 F 
ATOM     80  C   UNL A   1      35.096  31.144  28.493  1.00  0.00     0.040 A 
ATOM     81  C   UNL A   1      36.266  33.220  28.145  1.00  0.00     0.040 A 
ATOM     82  F   UNL A   1      38.397  33.534  29.083  1.00  0.00    -0.206 F 
ATOM     83  C   UNL A   1      35.143  32.422  27.939  1.00  0.00     0.006 A 
ENDBRANCH  55  76
BRANCH  67  84
ATOM     84  C   UNL A   1      39.200  32.491  36.082  1.00  0.00     0.057 A 
ATOM     85  C   UNL A   1      39.579  33.819  36.312  1.00  0.00     0.134 A 
ATOM     86  C   UNL A   1      38.256  31.925  36.946  1.00  0.00     0.134 A 
ATOM     87  F   UNL A   1      40.484  34.417  35.523  1.00  0.00    -0.206 F 
ATOM     88  C   UNL A   1      39.042  34.555  37.369  1.00  0.00     0.040 A 
ATOM     89  C   UNL A   1      37.695  32.658  37.993  1.00  0.00     0.040 A 
ATOM     90  F   UNL A   1      37.842  30.661  36.768  1.00  0.00    -0.206 F 
ATOM     91  C   UNL A   1      38.093  33.976  38.210  1.00  0.00     0.006 A 
ENDBRANCH  67  84
ENDBRANCH  41  42
ENDBRANCH  34  36
ENDBRANCH  33  34
ENDBRANCH  32  33
ENDBRANCH  31  32
ENDBRANCH   1  31
TORSDOF 16
ENDMDL
MODEL 2
REMARK VINA RESULT:     -12.3      0.721      5.974
REMARK SMILES CC1=C(CC(=O)OCCOC(=O)c2ccc(-c3c4nc(c(-c5c(F)cccc5F)c5ccc([nH]5)c(-c5c(F)cccc5F)c5nc(c(-c6c(F)cccc6F)c6ccc3[nH]6)C=C5)C=C4)cc2)c2cc(F)ccc2/C1=C\c1cccc(OCc2ccccc2)c1
REMARK SMILES IDX 7 1 5 2 6 3 4 4 3 5 1 6 2 7 74 8 67 9 73 10 75 11 68 12
REMARK SMILES IDX 72 13 69 14 71 15 70 16 76 17 77 18 89 19 78 20 80 21 79 22
REMARK SMILES IDX 81 23 82 24 83 25 84 26 88 27 85 28 87 29 86 30 8 31 9 32
REMARK SMILES IDX 10 33 11 34 12 35 13 36 14 37 66 38 15 39 65 40 16 41 17 42
REMARK SMILES IDX 18 43 59 44 19 45 64 46 58 47 60 48 20 49 63 50 57 51 56 52
REMARK SMILES IDX 21 54 47 55 30 56 46 57 31 58 34 59 45 60 61 61 32 62 33 63
REMARK SMILES IDX 44 65 62 66 35 67 22 68 23 69 28 70 24 71 25 72 27 73 29 74
REMARK SMILES IDX 26 75 48 76 49 77 54 78 50 79 51 80 53 81 55 82 52 83 36 84
REMARK SMILES IDX 37 85 42 86 38 87 39 88 41 89 43 90 40 91
REMARK H PARENT 60 53 34 64
REMARK Flexibility Score: inf
ROOT
ATOM      1  O   UNL A   1      43.796  21.780  25.906  1.00  0.00    -0.462 OA
ENDROOT
BRANCH   1   2
ATOM      2  C   UNL A   1      43.460  22.107  27.182  1.00  0.00     0.310 C 
ATOM      3  O   UNL A   1      44.047  22.941  27.865  1.00  0.00    -0.252 OA
BRANCH   2   4
ATOM      4  C   UNL A   1      42.247  21.360  27.722  1.00  0.00     0.159 C 
BRANCH   4   5
ATOM      5  C   UNL A   1      40.941  21.625  27.053  1.00  0.00    -0.025 C 
ATOM      6  C   UNL A   1      40.496  19.361  25.964  1.00  0.00     0.045 C 
ATOM      7  C   UNL A   1      40.194  20.782  26.306  1.00  0.00    -0.039 C 
ATOM      8  C   UNL A   1      38.967  21.468  25.875  1.00  0.00    -0.014 C 
ATOM      9  C   UNL A   1      40.194  22.889  27.186  1.00  0.00    -0.011 A 
ATOM     10  C   UNL A   1      39.001  22.824  26.448  1.00  0.00    -0.010 A 
ATOM     11  C   UNL A   1      38.009  20.899  25.124  1.00  0.00     0.017 C 
ATOM     12  C   UNL A   1      40.492  24.021  27.929  1.00  0.00     0.048 A 
ATOM     13  C   UNL A   1      38.130  23.909  26.408  1.00  0.00     0.012 A 
ATOM     14  C   UNL A   1      39.619  25.105  27.881  1.00  0.00     0.123 A 
ATOM     15  C   UNL A   1      38.452  25.063  27.123  1.00  0.00     0.040 A 
ATOM     16  F   UNL A   1      39.896  26.201  28.599  1.00  0.00    -0.207 F 
BRANCH  11  17
ATOM     17  C   UNL A   1      36.756  21.538  24.733  1.00  0.00    -0.021 A 
ATOM     18  C   UNL A   1      36.717  22.442  23.668  1.00  0.00     0.008 A 
ATOM     19  C   UNL A   1      35.594  21.256  25.461  1.00  0.00     0.054 A 
ATOM     20  C   UNL A   1      35.524  23.090  23.354  1.00  0.00     0.004 A 
ATOM     21  C   UNL A   1      34.387  21.855  25.106  1.00  0.00     0.120 A 
ATOM     22  C   UNL A   1      34.366  22.798  24.075  1.00  0.00     0.046 A 
BRANCH  21  23
ATOM     23  O   UNL A   1      33.158  21.547  25.624  1.00  0.00    -0.489 OA
BRANCH  23  24
ATOM     24  C   UNL A   1      32.218  20.846  24.800  1.00  0.00     0.265 C 
BRANCH  24  25
ATOM     25  C   UNL A   1      32.536  19.395  24.472  1.00  0.00    -0.011 A 
ATOM     26  C   UNL A   1      32.854  18.520  25.523  1.00  0.00     0.007 A 
ATOM     27  C   UNL A   1      32.552  18.891  23.162  1.00  0.00     0.007 A 
ATOM     28  C   UNL A   1      33.222  17.197  25.266  1.00  0.00     0.000 A 
ATOM     29  C   UNL A   1      32.947  17.579  22.903  1.00  0.00     0.000 A 
ATOM     30  C   UNL A   1      33.286  16.732  23.954  1.00  0.00     0.000 A 
ENDBRANCH  24  25
ENDBRANCH  23  24
ENDBRANCH  21  23
ENDBRANCH  11  17
ENDBRANCH   4   5
ENDBRANCH   2   4
ENDBRANCH   1   2
BRANCH   1  31
ATOM     31  C   UNL A   1      43.378  22.710  24.886  1.00  0.00     0.274 C 
BRANCH  31  32
ATOM     32  C   UNL A   1      44.479  23.730  24.607  1.00  0.00     0.275 C 
BRANCH  32  33
ATOM     33  O   UNL A   1      43.943  25.057  24.742  1.00  0.00    -0.458 OA
BRANCH  33  34
ATOM     34  C   UNL A   1      44.813  25.994  25.180  1.00  0.00     0.338 C 
ATOM     35  O   UNL A   1      45.937  26.218  24.766  1.00  0.00    -0.246 OA
BRANCH  34  36
ATOM     36  C   UNL A   1      44.205  26.740  26.298  1.00  0.00     0.060 A 
ATOM     37  C   UNL A   1      43.601  26.022  27.330  1.00  0.00     0.016 A 
ATOM     38  C   UNL A   1      44.317  28.131  26.380  1.00  0.00     0.016 A 
ATOM     39  C   UNL A   1      43.071  26.707  28.423  1.00  0.00     0.010 A 
ATOM     40  C   UNL A   1      43.882  28.800  27.521  1.00  0.00     0.010 A 
ATOM     41  C   UNL A   1      43.216  28.100  28.536  1.00  0.00    -0.014 A 
BRANCH  41  42
ATOM     42  C   UNL A   1      42.630  28.827  29.690  1.00  0.00     0.031 A 
ATOM     43  C   UNL A   1      41.259  29.438  29.580  1.00  0.00     0.074 A 
ATOM     44  C   UNL A   1      43.326  28.938  30.838  1.00  0.00     0.049 A 
ATOM     45  N   UNL A   1      40.551  30.052  30.495  1.00  0.00    -0.248 NA
ATOM     46  C   UNL A   1      40.603  29.372  28.263  1.00  0.00     0.031 C 
ATOM     47  C   UNL A   1      44.689  28.448  31.053  1.00  0.00     0.029 A 
ATOM     48  N   UNL A   1      42.978  29.494  32.042  1.00  0.00    -0.354 N 
ATOM     49  C   UNL A   1      39.376  30.442  29.865  1.00  0.00     0.074 A 
ATOM     50  C   UNL A   1      39.492  30.059  28.477  1.00  0.00     0.031 C 
ATOM     51  C   UNL A   1      45.046  28.692  32.324  1.00  0.00     0.029 A 
ATOM     52  C   UNL A   1      43.949  29.374  33.005  1.00  0.00     0.049 A 
ATOM     53  H   UNL A   1      42.113  29.938  32.201  1.00  0.00     0.167 HD
ATOM     54  C   UNL A   1      38.282  31.033  30.400  1.00  0.00     0.037 A 
ATOM     55  C   UNL A   1      43.950  29.762  34.294  1.00  0.00     0.037 A 
ATOM     56  C   UNL A   1      38.154  31.392  31.786  1.00  0.00     0.049 A 
ATOM     57  C   UNL A   1      42.729  30.428  34.864  1.00  0.00     0.074 A 
ATOM     58  C   UNL A   1      37.056  31.915  32.445  1.00  0.00     0.029 A 
ATOM     59  N   UNL A   1      39.166  31.270  32.725  1.00  0.00    -0.354 N 
ATOM     60  N   UNL A   1      41.585  30.695  34.282  1.00  0.00    -0.248 NA
ATOM     61  C   UNL A   1      42.798  30.843  36.273  1.00  0.00     0.031 C 
ATOM     62  C   UNL A   1      37.418  32.150  33.777  1.00  0.00     0.029 A 
ATOM     63  C   UNL A   1      38.731  31.741  33.952  1.00  0.00     0.049 A 
ATOM     64  H   UNL A   1      40.062  30.904  32.546  1.00  0.00     0.167 HD
ATOM     65  C   UNL A   1      40.796  31.300  35.252  1.00  0.00     0.074 A 
ATOM     66  C   UNL A   1      41.584  31.339  36.467  1.00  0.00     0.031 C 
ATOM     67  C   UNL A   1      39.535  31.784  35.146  1.00  0.00     0.037 A 
BRANCH  54  68
ATOM     68  C   UNL A   1      37.135  31.314  29.475  1.00  0.00     0.057 A 
ATOM     69  C   UNL A   1      36.168  30.336  29.214  1.00  0.00     0.134 A 
ATOM     70  C   UNL A   1      36.991  32.553  28.836  1.00  0.00     0.134 A 
ATOM     71  F   UNL A   1      36.248  29.127  29.788  1.00  0.00    -0.206 F 
ATOM     72  C   UNL A   1      35.093  30.584  28.356  1.00  0.00     0.040 A 
ATOM     73  C   UNL A   1      35.909  32.822  27.997  1.00  0.00     0.040 A 
ATOM     74  F   UNL A   1      37.876  33.537  29.056  1.00  0.00    -0.206 F 
ATOM     75  C   UNL A   1      34.958  31.833  27.752  1.00  0.00     0.006 A 
ENDBRANCH  54  68
BRANCH  55  76
ATOM     76  C   UNL A   1      45.140  29.513  35.145  1.00  0.00     0.057 A 
ATOM     77  C   UNL A   1      45.265  28.338  35.896  1.00  0.00     0.134 A 
ATOM     78  C   UNL A   1      46.185  30.441  35.216  1.00  0.00     0.134 A 
ATOM     79  F   UNL A   1      44.297  27.411  35.870  1.00  0.00    -0.206 F 
ATOM     80  C   UNL A   1      46.387  28.096  36.690  1.00  0.00     0.040 A 
ATOM     81  C   UNL A   1      47.321  30.202  35.991  1.00  0.00     0.040 A 
ATOM     82  F   UNL A   1      46.129  31.575  34.503  1.00  0.00    -0.206 F 
ATOM     83  C   UNL A   1      47.422  29.028  36.734  1.00  0.00     0.006 A 
ENDBRANCH  55  76
BRANCH  67  84
ATOM     84  C   UNL A   1      38.936  32.400  36.374  1.00  0.00     0.057 A 
ATOM     85  C   UNL A   1      38.060  31.672  37.188  1.00  0.00     0.134 A 
ATOM     86  C   UNL A   1      39.202  33.727  36.728  1.00  0.00     0.134 A 
ATOM     87  F   UNL A   1      37.759  30.397  36.899  1.00  0.00    -0.206 F 
ATOM     88  C   UNL A   1      37.465  32.247  38.312  1.00  0.00     0.040 A 
ATOM     89  C   UNL A   1      38.630  34.306  37.863  1.00  0.00     0.040 A 
ATOM     90  F   UNL A   1      40.045  34.471  35.996  1.00  0.00    -0.206 F 
ATOM     91  C   UNL A   1      37.754  33.567  38.654  1.00  0.00     0.006 A 
ENDBRANCH  67  84
ENDBRANCH  41  42
ENDBRANCH  34  36
ENDBRANCH  33  34
ENDBRANCH  32  33
ENDBRANCH  31  32
ENDBRANCH   1  31
TORSDOF 16
ENDMDL
MODEL 3
REMARK VINA RESULT:     -12.1      5.065     10.289
REMARK SMILES CC1=C(CC(=O)OCCOC(=O)c2ccc(-c3c4nc(c(-c5c(F)cccc5F)c5ccc([nH]5)c(-c5c(F)cccc5F)c5nc(c(-c6c(F)cccc6F)c6ccc3[nH]6)C=C5)C=C4)cc2)c2cc(F)ccc2/C1=C\c1cccc(OCc2ccccc2)c1
REMARK SMILES IDX 7 1 5 2 6 3 4 4 3 5 1 6 2 7 74 8 67 9 73 10 75 11 68 12
REMARK SMILES IDX 72 13 69 14 71 15 70 16 76 17 77 18 89 19 78 20 80 21 79 22
REMARK SMILES IDX 81 23 82 24 83 25 84 26 88 27 85 28 87 29 86 30 8 31 9 32
REMARK SMILES IDX 10 33 11 34 12 35 13 36 14 37 66 38 15 39 65 40 16 41 17 42
REMARK SMILES IDX 18 43 59 44 19 45 64 46 58 47 60 48 20 49 63 50 57 51 56 52
REMARK SMILES IDX 21 54 47 55 30 56 46 57 31 58 34 59 45 60 61 61 32 62 33 63
REMARK SMILES IDX 44 65 62 66 35 67 22 68 23 69 28 70 24 71 25 72 27 73 29 74
REMARK SMILES IDX 26 75 48 76 49 77 54 78 50 79 51 80 53 81 55 82 52 83 36 84
REMARK SMILES IDX 37 85 42 86 38 87 39 88 41 89 43 90 40 91
REMARK H PARENT 60 53 34 64
REMARK Flexibility Score: inf
ROOT
ATOM      1  O   UNL A   1      33.687  34.144  30.209  1.00  0.00    -0.462 OA
ENDROOT
BRANCH   1   2
ATOM      2  C   UNL A   1      33.560  34.486  28.900  1.00  0.00     0.310 C 
ATOM      3  O   UNL A   1      32.513  34.857  28.375  1.00  0.00    -0.252 OA
BRANCH   2   4
ATOM      4  C   UNL A   1      34.853  34.400  28.100  1.00  0.00     0.159 C 
BRANCH   4   5
ATOM      5  C   UNL A   1      35.644  33.143  28.233  1.00  0.00    -0.025 C 
ATOM      6  C   UNL A   1      37.767  34.031  29.334  1.00  0.00     0.045 C 
ATOM      7  C   UNL A   1      36.880  32.980  28.755  1.00  0.00    -0.039 C 
ATOM      8  C   UNL A   1      37.248  31.557  28.704  1.00  0.00    -0.014 C 
ATOM      9  C   UNL A   1      35.130  31.809  27.870  1.00  0.00    -0.011 A 
ATOM     10  C   UNL A   1      36.107  30.832  28.121  1.00  0.00    -0.010 A 
ATOM     11  C   UNL A   1      38.414  31.063  29.154  1.00  0.00     0.017 C 
ATOM     12  C   UNL A   1      33.883  31.440  27.391  1.00  0.00     0.048 A 
ATOM     13  C   UNL A   1      35.858  29.491  27.844  1.00  0.00     0.012 A 
ATOM     14  C   UNL A   1      33.642  30.097  27.111  1.00  0.00     0.123 A 
ATOM     15  C   UNL A   1      34.616  29.126  27.322  1.00  0.00     0.040 A 
ATOM     16  F   UNL A   1      32.438  29.730  26.652  1.00  0.00    -0.207 F 
BRANCH  11  17
ATOM     17  C   UNL A   1      38.779  29.650  29.171  1.00  0.00    -0.021 A 
ATOM     18  C   UNL A   1      38.455  28.842  30.264  1.00  0.00     0.008 A 
ATOM     19  C   UNL A   1      39.488  29.118  28.087  1.00  0.00     0.054 A 
ATOM     20  C   UNL A   1      38.871  27.513  30.289  1.00  0.00     0.004 A 
ATOM     21  C   UNL A   1      39.846  27.772  28.083  1.00  0.00     0.120 A 
ATOM     22  C   UNL A   1      39.567  26.984  29.203  1.00  0.00     0.046 A 
BRANCH  21  23
ATOM     23  O   UNL A   1      40.392  27.093  27.027  1.00  0.00    -0.489 OA
BRANCH  23  24
ATOM     24  C   UNL A   1      41.402  26.110  27.287  1.00  0.00     0.265 C 
BRANCH  24  25
ATOM     25  C   UNL A   1      42.781  26.366  26.700  1.00  0.00    -0.011 A 
ATOM     26  C   UNL A   1      43.334  27.652  26.812  1.00  0.00     0.007 A 
ATOM     27  C   UNL A   1      43.523  25.382  26.027  1.00  0.00     0.007 A 
ATOM     28  C   UNL A   1      44.566  27.955  26.226  1.00  0.00     0.000 A 
ATOM     29  C   UNL A   1      44.739  25.691  25.418  1.00  0.00     0.000 A 
ATOM     30  C   UNL A   1      45.260  26.978  25.514  1.00  0.00     0.000 A 
ENDBRANCH  24  25
ENDBRANCH  23  24
ENDBRANCH  21  23
ENDBRANCH  11  17
ENDBRANCH   4   5
ENDBRANCH   2   4
ENDBRANCH   1   2
BRANCH   1  31
ATOM     31  C   UNL A   1      33.729  35.240  31.146  1.00  0.00     0.274 C 
BRANCH  31  32
ATOM     32  C   UNL A   1      33.665  34.720  32.580  1.00  0.00     0.275 C 
BRANCH  32  33
ATOM     33  O   UNL A   1      34.791  33.861  32.825  1.00  0.00    -0.458 OA
BRANCH  33  34
ATOM     34  C   UNL A   1      35.776  34.396  33.582  1.00  0.00     0.338 C 
ATOM     35  O   UNL A   1      35.689  35.318  34.372  1.00  0.00    -0.246 OA
BRANCH  34  36
ATOM     36  C   UNL A   1      37.043  33.696  33.300  1.00  0.00     0.060 A 
ATOM     37  C   UNL A   1      36.993  32.453  32.670  1.00  0.00     0.016 A 
ATOM     38  C   UNL A   1      38.274  34.302  33.562  1.00  0.00     0.016 A 
ATOM     39  C   UNL A   1      38.182  31.800  32.344  1.00  0.00     0.010 A 
ATOM     40  C   UNL A   1      39.456  33.698  33.139  1.00  0.00     0.010 A 
ATOM     41  C   UNL A   1      39.424  32.421  32.563  1.00  0.00    -0.014 A 
BRANCH  41  42
ATOM     42  C   UNL A   1      40.688  31.714  32.235  1.00  0.00     0.031 A 
ATOM     43  C   UNL A   1      41.138  30.546  33.071  1.00  0.00     0.074 A 
ATOM     44  C   UNL A   1      41.431  32.118  31.187  1.00  0.00     0.049 A 
ATOM     45  N   UNL A   1      42.173  29.760  32.905  1.00  0.00    -0.248 NA
ATOM     46  C   UNL A   1      40.335  30.230  34.264  1.00  0.00     0.031 C 
ATOM     47  C   UNL A   1      41.140  33.274  30.337  1.00  0.00     0.029 A 
ATOM     48  N   UNL A   1      42.580  31.593  30.654  1.00  0.00    -0.354 N 
ATOM     49  C   UNL A   1      42.142  28.865  33.967  1.00  0.00     0.074 A 
ATOM     50  C   UNL A   1      41.030  29.244  34.809  1.00  0.00     0.031 C 
ATOM     51  C   UNL A   1      42.066  33.349  29.367  1.00  0.00     0.029 A 
ATOM     52  C   UNL A   1      43.025  32.262  29.540  1.00  0.00     0.049 A 
ATOM     53  H   UNL A   1      43.044  30.812  31.034  1.00  0.00     0.167 HD
ATOM     54  C   UNL A   1      42.944  27.800  34.203  1.00  0.00     0.037 A 
ATOM     55  C   UNL A   1      44.083  32.019  28.743  1.00  0.00     0.037 A 
ATOM     56  C   UNL A   1      44.035  27.406  33.353  1.00  0.00     0.049 A 
ATOM     57  C   UNL A   1      44.967  30.838  29.032  1.00  0.00     0.074 A 
ATOM     58  C   UNL A   1      44.852  26.295  33.457  1.00  0.00     0.029 A 
ATOM     59  N   UNL A   1      44.464  28.120  32.246  1.00  0.00    -0.354 N 
ATOM     60  N   UNL A   1      44.863  29.939  29.979  1.00  0.00    -0.248 NA
ATOM     61  C   UNL A   1      46.116  30.637  28.135  1.00  0.00     0.031 C 
ATOM     62  C   UNL A   1      45.805  26.358  32.434  1.00  0.00     0.029 A 
ATOM     63  C   UNL A   1      45.558  27.491  31.674  1.00  0.00     0.049 A 
ATOM     64  H   UNL A   1      44.052  28.950  31.913  1.00  0.00     0.167 HD
ATOM     65  C   UNL A   1      45.923  29.061  29.791  1.00  0.00     0.074 A 
ATOM     66  C   UNL A   1      46.644  29.523  28.622  1.00  0.00     0.031 C 
ATOM     67  C   UNL A   1      46.270  27.974  30.520  1.00  0.00     0.037 A 
BRANCH  54  68
ATOM     68  C   UNL A   1      42.654  26.984  35.427  1.00  0.00     0.057 A 
ATOM     69  C   UNL A   1      43.461  27.086  36.566  1.00  0.00     0.134 A 
ATOM     70  C   UNL A   1      41.575  26.090  35.476  1.00  0.00     0.134 A 
ATOM     71  F   UNL A   1      44.512  27.919  36.585  1.00  0.00    -0.206 F 
ATOM     72  C   UNL A   1      43.201  26.334  37.714  1.00  0.00     0.040 A 
ATOM     73  C   UNL A   1      41.290  25.351  36.626  1.00  0.00     0.040 A 
ATOM     74  F   UNL A   1      40.754  25.956  34.424  1.00  0.00    -0.206 F 
ATOM     75  C   UNL A   1      42.108  25.470  37.748  1.00  0.00     0.006 A 
ENDBRANCH  54  68
BRANCH  55  76
ATOM     76  C   UNL A   1      44.356  32.900  27.580  1.00  0.00     0.057 A 
ATOM     77  C   UNL A   1      44.990  34.137  27.736  1.00  0.00     0.134 A 
ATOM     78  C   UNL A   1      43.998  32.516  26.283  1.00  0.00     0.134 A 
ATOM     79  F   UNL A   1      45.357  34.561  28.955  1.00  0.00    -0.206 F 
ATOM     80  C   UNL A   1      45.256  34.965  26.644  1.00  0.00     0.040 A 
ATOM     81  C   UNL A   1      44.275  33.324  25.180  1.00  0.00     0.040 A 
ATOM     82  F   UNL A   1      43.405  31.332  26.069  1.00  0.00    -0.206 F 
ATOM     83  C   UNL A   1      44.903  34.555  25.360  1.00  0.00     0.006 A 
ENDBRANCH  55  76
BRANCH  67  84
ATOM     84  C   UNL A   1      47.485  27.216  30.078  1.00  0.00     0.057 A 
ATOM     85  C   UNL A   1      48.746  27.506  30.612  1.00  0.00     0.134 A 
ATOM     86  C   UNL A   1      47.407  26.223  29.095  1.00  0.00     0.134 A 
ATOM     87  F   UNL A   1      48.889  28.451  31.552  1.00  0.00    -0.206 F 
ATOM     88  C   UNL A   1      49.891  26.835  30.179  1.00  0.00     0.040 A 
ATOM     89  C   UNL A   1      48.542  25.529  28.669  1.00  0.00     0.040 A 
ATOM     90  F   UNL A   1      46.224  25.891  28.556  1.00  0.00    -0.206 F 
ATOM     91  C   UNL A   1      49.789  25.839  29.208  1.00  0.00     0.006 A 
ENDBRANCH  67  84
ENDBRANCH  41  42
ENDBRANCH  34  36
ENDBRANCH  33  34
ENDBRANCH  32  33
ENDBRANCH  31  32
ENDBRANCH   1  31
TORSDOF 16
ENDMDL
