MODEL 1
REMARK VINA RESULT:      -9.9      0.000      0.000
REMARK SMILES CN1N=C(CC(=O)OCCOC(=O)c2ccc(-c3c4nc(c(-c5c(F)cccc5F)c5ccc([nH]5)c(-c5c(F)cccc5F)c5nc(c(-c6c(F)cccc6F)c6ccc3[nH]6)C=C5)C=C4)cc2)CC1=O
REMARK SMILES IDX 10 1 9 2 8 3 6 4 7 5 5 6 4 7 1 8 2 9 3 10 69 11 68 12 70 13
REMARK SMILES IDX 11 14 12 15 13 16 14 17 15 18 67 19 16 20 66 21 17 22 18 23
REMARK SMILES IDX 19 24 60 25 20 26 65 27 59 28 61 29 21 30 64 31 58 32 57 33
REMARK SMILES IDX 22 35 48 36 31 37 47 38 32 39 35 40 46 41 62 42 33 43 34 44
REMARK SMILES IDX 45 46 63 47 36 48 23 49 24 50 29 51 25 52 26 53 28 54 30 55
REMARK SMILES IDX 27 56 49 57 50 58 55 59 51 60 52 61 54 62 56 63 53 64 37 65
REMARK SMILES IDX 38 66 43 67 39 68 40 69 42 70 44 71 41 72
REMARK H PARENT 61 34 35 45
REMARK Flexibility Score: inf
ROOT
ATOM      1  C   UNL A   1      33.029  36.298  30.026  1.00  0.00     0.275 C 
ENDROOT
BRANCH   1   2
ATOM      2  C   UNL A   1      33.302  36.596  31.499  1.00  0.00     0.274 C 
BRANCH   2   3
ATOM      3  O   UNL A   1      33.289  35.382  32.276  1.00  0.00    -0.462 OA
BRANCH   3   4
ATOM      4  C   UNL A   1      34.461  35.059  32.883  1.00  0.00     0.311 C 
ATOM      5  O   UNL A   1      35.469  35.757  32.887  1.00  0.00    -0.252 OA
BRANCH   4   6
ATOM      6  C   UNL A   1      34.444  33.688  33.483  1.00  0.00     0.176 C 
BRANCH   6   7
ATOM      7  C   UNL A   1      35.644  33.294  34.270  1.00  0.00     0.059 C 
ATOM      8  C   UNL A   1      37.791  33.477  37.038  1.00  0.00     0.177 C 
ATOM      9  N   UNL A   1      37.163  33.205  35.769  1.00  0.00    -0.237 N 
ATOM     10  N   UNL A   1      35.970  33.800  35.421  1.00  0.00    -0.179 NA
ATOM     11  C   UNL A   1      37.650  32.295  34.834  1.00  0.00     0.248 C 
ATOM     12  C   UNL A   1      36.639  32.312  33.731  1.00  0.00     0.156 C 
ATOM     13  O   UNL A   1      38.663  31.619  34.872  1.00  0.00    -0.273 OA
ENDBRANCH   6   7
ENDBRANCH   4   6
ENDBRANCH   3   4
ENDBRANCH   2   3
ENDBRANCH   1   2
BRANCH   1  14
ATOM     14  O   UNL A   1      32.619  34.929  29.880  1.00  0.00    -0.458 OA
BRANCH  14  15
ATOM     15  C   UNL A   1      33.045  34.300  28.761  1.00  0.00     0.338 C 
ATOM     16  O   UNL A   1      32.462  34.182  27.699  1.00  0.00    -0.246 OA
BRANCH  15  17
ATOM     17  C   UNL A   1      34.340  33.667  29.047  1.00  0.00     0.060 A 
ATOM     18  C   UNL A   1      34.440  32.637  29.986  1.00  0.00     0.016 A 
ATOM     19  C   UNL A   1      35.480  34.165  28.414  1.00  0.00     0.016 A 
ATOM     20  C   UNL A   1      35.695  32.121  30.317  1.00  0.00     0.010 A 
ATOM     21  C   UNL A   1      36.728  33.622  28.719  1.00  0.00     0.010 A 
ATOM     22  C   UNL A   1      36.849  32.613  29.690  1.00  0.00    -0.014 A 
BRANCH  22  23
ATOM     23  C   UNL A   1      38.199  32.127  30.075  1.00  0.00     0.031 A 
ATOM     24  C   UNL A   1      38.704  30.821  29.527  1.00  0.00     0.074 A 
ATOM     25  C   UNL A   1      38.954  32.832  30.936  1.00  0.00     0.049 A 
ATOM     26  N   UNL A   1      39.785  30.153  29.842  1.00  0.00    -0.248 NA
ATOM     27  C   UNL A   1      37.876  30.177  28.495  1.00  0.00     0.031 C 
ATOM     28  C   UNL A   1      38.591  34.123  31.520  1.00  0.00     0.029 A 
ATOM     29  N   UNL A   1      40.181  32.548  31.484  1.00  0.00    -0.354 N 
ATOM     30  C   UNL A   1      39.755  29.000  29.067  1.00  0.00     0.074 A 
ATOM     31  C   UNL A   1      38.540  29.050  28.281  1.00  0.00     0.031 C 
ATOM     32  C   UNL A   1      39.572  34.521  32.345  1.00  0.00     0.029 A 
ATOM     33  C   UNL A   1      40.608  33.491  32.386  1.00  0.00     0.049 A 
ATOM     34  H   UNL A   1      40.702  31.747  31.252  1.00  0.00     0.167 HD
ATOM     35  C   UNL A   1      40.661  27.993  29.012  1.00  0.00     0.037 A 
ATOM     36  C   UNL A   1      41.697  33.509  33.179  1.00  0.00     0.037 A 
ATOM     37  C   UNL A   1      41.879  27.953  29.779  1.00  0.00     0.049 A 
ATOM     38  C   UNL A   1      42.662  32.357  33.137  1.00  0.00     0.074 A 
ATOM     39  C   UNL A   1      42.872  26.989  29.771  1.00  0.00     0.029 A 
ATOM     40  N   UNL A   1      42.268  28.921  30.692  1.00  0.00    -0.354 N 
ATOM     41  N   UNL A   1      42.626  31.274  32.399  1.00  0.00    -0.248 NA
ATOM     42  C   UNL A   1      43.814  32.425  34.047  1.00  0.00     0.031 C 
ATOM     43  C   UNL A   1      43.845  27.356  30.707  1.00  0.00     0.029 A 
ATOM     44  C   UNL A   1      43.478  28.569  31.267  1.00  0.00     0.049 A 
ATOM     45  H   UNL A   1      41.760  29.738  30.900  1.00  0.00     0.167 HD
ATOM     46  C   UNL A   1      43.759  30.546  32.736  1.00  0.00     0.074 A 
ATOM     47  C   UNL A   1      44.469  31.314  33.737  1.00  0.00     0.031 C 
ATOM     48  C   UNL A   1      44.175  29.348  32.259  1.00  0.00     0.037 A 
BRANCH  35  49
ATOM     49  C   UNL A   1      40.356  26.839  28.105  1.00  0.00     0.057 A 
ATOM     50  C   UNL A   1      40.912  26.736  26.823  1.00  0.00     0.134 A 
ATOM     51  C   UNL A   1      39.519  25.800  28.531  1.00  0.00     0.134 A 
ATOM     52  F   UNL A   1      41.712  27.704  26.350  1.00  0.00    -0.206 F 
ATOM     53  C   UNL A   1      40.630  25.651  25.990  1.00  0.00     0.040 A 
ATOM     54  C   UNL A   1      39.248  24.699  27.717  1.00  0.00     0.040 A 
ATOM     55  F   UNL A   1      38.957  25.833  29.749  1.00  0.00    -0.206 F 
ATOM     56  C   UNL A   1      39.800  24.626  26.440  1.00  0.00     0.006 A 
ENDBRANCH  35  49
BRANCH  36  57
ATOM     57  C   UNL A   1      41.926  34.653  34.094  1.00  0.00     0.057 A 
ATOM     58  C   UNL A   1      42.560  35.818  33.647  1.00  0.00     0.134 A 
ATOM     59  C   UNL A   1      41.528  34.609  35.435  1.00  0.00     0.134 A 
ATOM     60  F   UNL A   1      42.987  35.909  32.379  1.00  0.00    -0.206 F 
ATOM     61  C   UNL A   1      42.799  36.894  34.503  1.00  0.00     0.040 A 
ATOM     62  C   UNL A   1      41.739  35.687  36.296  1.00  0.00     0.040 A 
ATOM     63  F   UNL A   1      40.916  33.520  35.924  1.00  0.00    -0.206 F 
ATOM     64  C   UNL A   1      42.382  36.832  35.831  1.00  0.00     0.006 A 
ENDBRANCH  36  57
BRANCH  48  65
ATOM     65  C   UNL A   1      45.472  28.813  32.788  1.00  0.00     0.057 A 
ATOM     66  C   UNL A   1      45.523  27.964  33.900  1.00  0.00     0.134 A 
ATOM     67  C   UNL A   1      46.683  29.126  32.155  1.00  0.00     0.134 A 
ATOM     68  F   UNL A   1      44.400  27.639  34.558  1.00  0.00    -0.206 F 
ATOM     69  C   UNL A   1      46.734  27.461  34.378  1.00  0.00     0.040 A 
ATOM     70  C   UNL A   1      47.897  28.611  32.611  1.00  0.00     0.040 A 
ATOM     71  F   UNL A   1      46.702  29.928  31.081  1.00  0.00    -0.206 F 
ATOM     72  C   UNL A   1      47.925  27.779  33.728  1.00  0.00     0.006 A 
ENDBRANCH  48  65
ENDBRANCH  22  23
ENDBRANCH  15  17
ENDBRANCH  14  15
ENDBRANCH   1  14
TORSDOF 12
ENDMDL
MODEL 2
REMARK VINA RESULT:      -9.5      5.202     11.089
REMARK SMILES CN1N=C(CC(=O)OCCOC(=O)c2ccc(-c3c4nc(c(-c5c(F)cccc5F)c5ccc([nH]5)c(-c5c(F)cccc5F)c5nc(c(-c6c(F)cccc6F)c6ccc3[nH]6)C=C5)C=C4)cc2)CC1=O
REMARK SMILES IDX 10 1 9 2 8 3 6 4 7 5 5 6 4 7 1 8 2 9 3 10 69 11 68 12 70 13
REMARK SMILES IDX 11 14 12 15 13 16 14 17 15 18 67 19 16 20 66 21 17 22 18 23
REMARK SMILES IDX 19 24 60 25 20 26 65 27 59 28 61 29 21 30 64 31 58 32 57 33
REMARK SMILES IDX 22 35 48 36 31 37 47 38 32 39 35 40 46 41 62 42 33 43 34 44
REMARK SMILES IDX 45 46 63 47 36 48 23 49 24 50 29 51 25 52 26 53 28 54 30 55
REMARK SMILES IDX 27 56 49 57 50 58 55 59 51 60 52 61 54 62 56 63 53 64 37 65
REMARK SMILES IDX 38 66 43 67 39 68 40 69 42 70 44 71 41 72
REMARK H PARENT 61 34 35 45
REMARK Flexibility Score: inf
ROOT
ATOM      1  C   UNL A   1      45.622  23.113  24.479  1.00  0.00     0.275 C 
ENDROOT
BRANCH   1   2
ATOM      2  C   UNL A   1      45.635  22.200  25.703  1.00  0.00     0.274 C 
BRANCH   2   3
ATOM      3  O   UNL A   1      45.962  20.847  25.327  1.00  0.00    -0.462 OA
BRANCH   3   4
ATOM      4  C   UNL A   1      44.979  20.159  24.690  1.00  0.00     0.311 C 
ATOM      5  O   UNL A   1      44.632  20.339  23.528  1.00  0.00    -0.252 OA
BRANCH   4   6
ATOM      6  C   UNL A   1      44.270  19.196  25.590  1.00  0.00     0.176 C 
BRANCH   6   7
ATOM      7  C   UNL A   1      42.883  19.562  25.988  1.00  0.00     0.059 C 
ATOM      8  C   UNL A   1      39.389  19.421  25.712  1.00  0.00     0.177 C 
ATOM      9  N   UNL A   1      40.755  19.738  26.046  1.00  0.00    -0.237 N 
ATOM     10  N   UNL A   1      41.808  19.114  25.414  1.00  0.00    -0.179 NA
ATOM     11  C   UNL A   1      41.129  20.626  27.052  1.00  0.00     0.248 C 
ATOM     12  C   UNL A   1      42.624  20.573  27.063  1.00  0.00     0.156 C 
ATOM     13  O   UNL A   1      40.426  21.307  27.779  1.00  0.00    -0.273 OA
ENDBRANCH   6   7
ENDBRANCH   4   6
ENDBRANCH   3   4
ENDBRANCH   2   3
ENDBRANCH   1   2
BRANCH   1  14
ATOM     14  O   UNL A   1      44.697  24.192  24.692  1.00  0.00    -0.458 OA
BRANCH  14  15
ATOM     15  C   UNL A   1      43.453  23.835  25.083  1.00  0.00     0.338 C 
ATOM     16  O   UNL A   1      42.776  22.908  24.677  1.00  0.00    -0.246 OA
BRANCH  15  17
ATOM     17  C   UNL A   1      42.967  24.827  26.053  1.00  0.00     0.060 A 
ATOM     18  C   UNL A   1      43.464  26.132  26.050  1.00  0.00     0.016 A 
ATOM     19  C   UNL A   1      42.052  24.416  27.024  1.00  0.00     0.016 A 
ATOM     20  C   UNL A   1      43.065  27.028  27.044  1.00  0.00     0.010 A 
ATOM     21  C   UNL A   1      41.626  25.323  27.994  1.00  0.00     0.010 A 
ATOM     22  C   UNL A   1      42.147  26.629  28.028  1.00  0.00    -0.014 A 
BRANCH  22  23
ATOM     23  C   UNL A   1      41.761  27.541  29.133  1.00  0.00     0.031 A 
ATOM     24  C   UNL A   1      42.508  27.490  30.437  1.00  0.00     0.074 A 
ATOM     25  C   UNL A   1      40.725  28.386  28.985  1.00  0.00     0.049 A 
ATOM     26  N   UNL A   1      42.246  28.096  31.567  1.00  0.00    -0.248 NA
ATOM     27  C   UNL A   1      43.705  26.634  30.474  1.00  0.00     0.031 C 
ATOM     28  C   UNL A   1      39.934  28.550  27.767  1.00  0.00     0.029 A 
ATOM     29  N   UNL A   1      40.149  29.255  29.879  1.00  0.00    -0.354 N 
ATOM     30  C   UNL A   1      43.228  27.676  32.457  1.00  0.00     0.074 A 
ATOM     31  C   UNL A   1      44.080  26.750  31.741  1.00  0.00     0.031 C 
ATOM     32  C   UNL A   1      38.974  29.463  27.988  1.00  0.00     0.029 A 
ATOM     33  C   UNL A   1      39.053  29.911  29.376  1.00  0.00     0.049 A 
ATOM     34  H   UNL A   1      40.490  29.394  30.792  1.00  0.00     0.167 HD
ATOM     35  C   UNL A   1      43.405  28.034  33.752  1.00  0.00     0.037 A 
ATOM     36  C   UNL A   1      38.190  30.754  29.976  1.00  0.00     0.037 A 
ATOM     37  C   UNL A   1      42.569  28.970  34.458  1.00  0.00     0.049 A 
ATOM     38  C   UNL A   1      38.378  31.097  31.427  1.00  0.00     0.074 A 
ATOM     39  C   UNL A   1      42.686  29.417  35.763  1.00  0.00     0.029 A 
ATOM     40  N   UNL A   1      41.461  29.601  33.917  1.00  0.00    -0.354 N 
ATOM     41  N   UNL A   1      39.311  30.698  32.257  1.00  0.00    -0.248 NA
ATOM     42  C   UNL A   1      37.387  32.001  32.027  1.00  0.00     0.031 C 
ATOM     43  C   UNL A   1      41.625  30.291  36.022  1.00  0.00     0.029 A 
ATOM     44  C   UNL A   1      40.872  30.421  34.867  1.00  0.00     0.049 A 
ATOM     45  H   UNL A   1      41.139  29.486  32.994  1.00  0.00     0.167 HD
ATOM     46  C   UNL A   1      39.034  31.320  33.468  1.00  0.00     0.074 A 
ATOM     47  C   UNL A   1      37.853  32.131  33.262  1.00  0.00     0.031 C 
ATOM     48  C   UNL A   1      39.699  31.227  34.645  1.00  0.00     0.037 A 
BRANCH  35  49
ATOM     49  C   UNL A   1      44.538  27.393  34.497  1.00  0.00     0.057 A 
ATOM     50  C   UNL A   1      45.805  27.985  34.572  1.00  0.00     0.134 A 
ATOM     51  C   UNL A   1      44.349  26.182  35.174  1.00  0.00     0.134 A 
ATOM     52  F   UNL A   1      46.055  29.139  33.934  1.00  0.00    -0.206 F 
ATOM     53  C   UNL A   1      46.851  27.385  35.277  1.00  0.00     0.040 A 
ATOM     54  C   UNL A   1      45.380  25.583  35.902  1.00  0.00     0.040 A 
ATOM     55  F   UNL A   1      43.158  25.564  35.148  1.00  0.00    -0.206 F 
ATOM     56  C   UNL A   1      46.636  26.183  35.950  1.00  0.00     0.006 A 
ENDBRANCH  35  49
BRANCH  36  57
ATOM     57  C   UNL A   1      37.058  31.323  29.205  1.00  0.00     0.057 A 
ATOM     58  C   UNL A   1      35.920  30.559  28.923  1.00  0.00     0.134 A 
ATOM     59  C   UNL A   1      37.087  32.638  28.725  1.00  0.00     0.134 A 
ATOM     60  F   UNL A   1      35.845  29.284  29.336  1.00  0.00    -0.206 F 
ATOM     61  C   UNL A   1      34.857  31.076  28.183  1.00  0.00     0.040 A 
ATOM     62  C   UNL A   1      36.021  33.177  28.004  1.00  0.00     0.040 A 
ATOM     63  F   UNL A   1      38.150  33.422  28.961  1.00  0.00    -0.206 F 
ATOM     64  C   UNL A   1      34.903  32.392  27.727  1.00  0.00     0.006 A 
ENDBRANCH  36  57
BRANCH  48  65
ATOM     65  C   UNL A   1      39.185  32.049  35.788  1.00  0.00     0.057 A 
ATOM     66  C   UNL A   1      38.294  31.525  36.733  1.00  0.00     0.134 A 
ATOM     67  C   UNL A   1      39.613  33.372  35.964  1.00  0.00     0.134 A 
ATOM     68  F   UNL A   1      37.836  30.270  36.612  1.00  0.00    -0.206 F 
ATOM     69  C   UNL A   1      37.830  32.294  37.801  1.00  0.00     0.040 A 
ATOM     70  C   UNL A   1      39.173  34.142  37.041  1.00  0.00     0.040 A 
ATOM     71  F   UNL A   1      40.471  33.930  35.099  1.00  0.00    -0.206 F 
ATOM     72  C   UNL A   1      38.275  33.605  37.961  1.00  0.00     0.006 A 
ENDBRANCH  48  65
ENDBRANCH  22  23
ENDBRANCH  15  17
ENDBRANCH  14  15
ENDBRANCH   1  14
TORSDOF 12
ENDMDL
MODEL 3
REMARK VINA RESULT:      -9.2      4.492      6.890
REMARK SMILES CN1N=C(CC(=O)OCCOC(=O)c2ccc(-c3c4nc(c(-c5c(F)cccc5F)c5ccc([nH]5)c(-c5c(F)cccc5F)c5nc(c(-c6c(F)cccc6F)c6ccc3[nH]6)C=C5)C=C4)cc2)CC1=O
REMARK SMILES IDX 10 1 9 2 8 3 6 4 7 5 5 6 4 7 1 8 2 9 3 10 69 11 68 12 70 13
REMARK SMILES IDX 11 14 12 15 13 16 14 17 15 18 67 19 16 20 66 21 17 22 18 23
REMARK SMILES IDX 19 24 60 25 20 26 65 27 59 28 61 29 21 30 64 31 58 32 57 33
REMARK SMILES IDX 22 35 48 36 31 37 47 38 32 39 35 40 46 41 62 42 33 43 34 44
REMARK SMILES IDX 45 46 63 47 36 48 23 49 24 50 29 51 25 52 26 53 28 54 30 55
REMARK SMILES IDX 27 56 49 57 50 58 55 59 51 60 52 61 54 62 56 63 53 64 37 65
REMARK SMILES IDX 38 66 43 67 39 68 40 69 42 70 44 71 41 72
REMARK H PARENT 61 34 35 45
REMARK Flexibility Score: inf
ROOT
ATOM      1  C   UNL A   1      31.700  29.855  25.723  1.00  0.00     0.275 C 
ENDROOT
BRANCH   1   2
ATOM      2  C   UNL A   1      31.563  29.280  24.315  1.00  0.00     0.274 C 
BRANCH   2   3
ATOM      3  O   UNL A   1      30.434  28.386  24.237  1.00  0.00    -0.462 OA
BRANCH   3   4
ATOM      4  C   UNL A   1      29.861  28.269  23.011  1.00  0.00     0.311 C 
ATOM      5  O   UNL A   1      30.423  27.845  22.007  1.00  0.00    -0.252 OA
BRANCH   4   6
ATOM      6  C   UNL A   1      28.466  28.811  22.970  1.00  0.00     0.176 C 
BRANCH   6   7
ATOM      7  C   UNL A   1      28.318  30.221  22.515  1.00  0.00     0.059 C 
ATOM      8  C   UNL A   1      27.716  32.707  20.115  1.00  0.00     0.177 C 
ATOM      9  N   UNL A   1      28.054  31.957  21.299  1.00  0.00    -0.237 N 
ATOM     10  N   UNL A   1      28.047  30.579  21.297  1.00  0.00    -0.179 NA
ATOM     11  C   UNL A   1      28.343  32.531  22.534  1.00  0.00     0.248 C 
ATOM     12  C   UNL A   1      28.561  31.368  23.449  1.00  0.00     0.156 C 
ATOM     13  O   UNL A   1      28.411  33.710  22.839  1.00  0.00    -0.273 OA
ENDBRANCH   6   7
ENDBRANCH   4   6
ENDBRANCH   3   4
ENDBRANCH   2   3
ENDBRANCH   1   2
BRANCH   1  14
ATOM     14  O   UNL A   1      33.041  30.331  25.921  1.00  0.00    -0.458 OA
BRANCH  14  15
ATOM     15  C   UNL A   1      33.217  31.196  26.945  1.00  0.00     0.338 C 
ATOM     16  O   UNL A   1      32.513  32.139  27.259  1.00  0.00    -0.246 OA
BRANCH  15  17
ATOM     17  C   UNL A   1      34.490  30.881  27.608  1.00  0.00     0.060 A 
ATOM     18  C   UNL A   1      34.814  29.563  27.944  1.00  0.00     0.016 A 
ATOM     19  C   UNL A   1      35.336  31.933  27.961  1.00  0.00     0.016 A 
ATOM     20  C   UNL A   1      35.980  29.300  28.665  1.00  0.00     0.010 A 
ATOM     21  C   UNL A   1      36.518  31.664  28.650  1.00  0.00     0.010 A 
ATOM     22  C   UNL A   1      36.839  30.348  29.029  1.00  0.00    -0.014 A 
BRANCH  22  23
ATOM     23  C   UNL A   1      38.048  30.100  29.854  1.00  0.00     0.031 A 
ATOM     24  C   UNL A   1      39.138  29.207  29.328  1.00  0.00     0.074 A 
ATOM     25  C   UNL A   1      38.155  30.640  31.081  1.00  0.00     0.049 A 
ATOM     26  N   UNL A   1      40.203  28.752  29.938  1.00  0.00    -0.248 NA
ATOM     27  C   UNL A   1      39.005  28.762  27.932  1.00  0.00     0.031 C 
ATOM     28  C   UNL A   1      37.181  31.540  31.698  1.00  0.00     0.029 A 
ATOM     29  N   UNL A   1      39.130  30.493  32.037  1.00  0.00    -0.354 N 
ATOM     30  C   UNL A   1      40.853  27.946  29.011  1.00  0.00     0.074 A 
ATOM     31  C   UNL A   1      40.054  27.961  27.803  1.00  0.00     0.031 C 
ATOM     32  C   UNL A   1      37.606  31.866  32.929  1.00  0.00     0.029 A 
ATOM     33  C   UNL A   1      38.855  31.159  33.206  1.00  0.00     0.049 A 
ATOM     34  H   UNL A   1      39.946  29.962  31.898  1.00  0.00     0.167 HD
ATOM     35  C   UNL A   1      42.014  27.261  29.152  1.00  0.00     0.037 A 
ATOM     36  C   UNL A   1      39.518  31.174  34.378  1.00  0.00     0.037 A 
ATOM     37  C   UNL A   1      42.818  27.262  30.346  1.00  0.00     0.049 A 
ATOM     38  C   UNL A   1      40.776  30.366  34.527  1.00  0.00     0.074 A 
ATOM     39  C   UNL A   1      44.024  26.621  30.575  1.00  0.00     0.029 A 
ATOM     40  N   UNL A   1      42.497  27.939  31.512  1.00  0.00    -0.354 N 
ATOM     41  N   UNL A   1      41.384  29.611  33.643  1.00  0.00    -0.248 NA
ATOM     42  C   UNL A   1      41.437  30.403  35.839  1.00  0.00     0.031 C 
ATOM     43  C   UNL A   1      44.413  26.881  31.893  1.00  0.00     0.029 A 
ATOM     44  C   UNL A   1      43.472  27.716  32.471  1.00  0.00     0.049 A 
ATOM     45  H   UNL A   1      41.696  28.496  31.640  1.00  0.00     0.167 HD
ATOM     46  C   UNL A   1      42.508  29.105  34.284  1.00  0.00     0.074 A 
ATOM     47  C   UNL A   1      42.504  29.647  35.626  1.00  0.00     0.031 C 
ATOM     48  C   UNL A   1      43.458  28.267  33.802  1.00  0.00     0.037 A 
BRANCH  35  49
ATOM     49  C   UNL A   1      42.472  26.432  27.989  1.00  0.00     0.057 A 
ATOM     50  C   UNL A   1      42.072  25.099  27.826  1.00  0.00     0.134 A 
ATOM     51  C   UNL A   1      43.298  26.984  27.002  1.00  0.00     0.134 A 
ATOM     52  F   UNL A   1      41.292  24.507  28.743  1.00  0.00    -0.206 F 
ATOM     53  C   UNL A   1      42.496  24.339  26.734  1.00  0.00     0.040 A 
ATOM     54  C   UNL A   1      43.709  26.242  25.893  1.00  0.00     0.040 A 
ATOM     55  F   UNL A   1      43.713  28.257  27.093  1.00  0.00    -0.206 F 
ATOM     56  C   UNL A   1      43.312  24.913  25.760  1.00  0.00     0.006 A 
ENDBRANCH  35  49
BRANCH  36  57
ATOM     57  C   UNL A   1      38.995  31.973  35.513  1.00  0.00     0.057 A 
ATOM     58  C   UNL A   1      39.288  33.336  35.631  1.00  0.00     0.134 A 
ATOM     59  C   UNL A   1      38.201  31.395  36.510  1.00  0.00     0.134 A 
ATOM     60  F   UNL A   1      40.065  33.940  34.719  1.00  0.00    -0.206 F 
ATOM     61  C   UNL A   1      38.818  34.094  36.704  1.00  0.00     0.040 A 
ATOM     62  C   UNL A   1      37.704  32.146  37.577  1.00  0.00     0.040 A 
ATOM     63  F   UNL A   1      37.886  30.092  36.454  1.00  0.00    -0.206 F 
ATOM     64  C   UNL A   1      38.018  33.499  37.677  1.00  0.00     0.006 A 
ENDBRANCH  36  57
BRANCH  48  65
ATOM     65  C   UNL A   1      44.589  27.914  34.721  1.00  0.00     0.057 A 
ATOM     66  C   UNL A   1      45.749  28.694  34.798  1.00  0.00     0.134 A 
ATOM     67  C   UNL A   1      44.501  26.798  35.563  1.00  0.00     0.134 A 
ATOM     68  F   UNL A   1      45.900  29.767  34.007  1.00  0.00    -0.206 F 
ATOM     69  C   UNL A   1      46.791  28.364  35.665  1.00  0.00     0.040 A 
ATOM     70  C   UNL A   1      45.527  26.472  36.451  1.00  0.00     0.040 A 
ATOM     71  F   UNL A   1      43.412  26.014  35.543  1.00  0.00    -0.206 F 
ATOM     72  C   UNL A   1      46.679  27.254  36.500  1.00  0.00     0.006 A 
ENDBRANCH  48  65
ENDBRANCH  22  23
ENDBRANCH  15  17
ENDBRANCH  14  15
ENDBRANCH   1  14
TORSDOF 12
ENDMDL
