MODEL 1
REMARK VINA RESULT:     -11.0      0.000      0.000
REMARK SMILES CCCCCCNC(=O)Oc1cccc(-c2ccc([C@@H](C)C(=O)OCCOC(=O)c3ccc(-c4c5nc(c(-c6c(F)cccc6F)c6ccc([nH]6)c(-c6c(F)cccc6F)c6nc(c(-c7c(F)cccc7F)c7ccc4[nH]7)C=C6)C=C5)cc3)cc2N)c1
REMARK SMILES IDX 20 1 21 2 19 3 16 4 17 5 85 6 18 7 84 8 15 9 11 10 12 11
REMARK SMILES IDX 87 12 13 13 14 14 10 15 8 16 7 17 9 19 6 20 5 21 4 22 3 23
REMARK SMILES IDX 2 24 1 25 86 26 22 29 23 30 24 31 25 32 26 33 27 34 28 35
REMARK SMILES IDX 29 36 30 37 31 38 83 39 32 40 82 41 33 42 34 43 35 44 76 45
REMARK SMILES IDX 36 46 81 47 75 48 77 49 37 50 80 51 74 52 73 53 38 55 64 56
REMARK SMILES IDX 47 57 63 58 48 59 51 60 62 61 78 62 49 63 50 64 61 66 79 67
REMARK SMILES IDX 52 68 39 69 40 70 45 71 41 72 42 73 44 74 46 75 43 76 65 77
REMARK SMILES IDX 66 78 71 79 67 80 68 81 70 82 72 83 69 84 53 85 54 86 59 87
REMARK SMILES IDX 55 88 56 89 58 90 60 91 57 92
REMARK H PARENT 7 18 86 27 86 28 77 54 51 65
REMARK Flexibility Score: inf
ROOT
ATOM      1  C   UNL A   1      41.618  22.113  26.844  1.00  0.00     0.126 C 
ATOM      2  C   UNL A   1      41.923  22.091  28.340  1.00  0.00     0.025 C 
ENDROOT
BRANCH   1   3
ATOM      3  C   UNL A   1      40.158  22.424  26.553  1.00  0.00    -0.032 A 
ATOM      4  C   UNL A   1      37.444  22.975  25.890  1.00  0.00     0.005 A 
ATOM      5  C   UNL A   1      38.227  23.888  26.625  1.00  0.00     0.011 A 
ATOM      6  C   UNL A   1      38.031  21.746  25.513  1.00  0.00     0.040 A 
ATOM      7  C   UNL A   1      39.559  23.622  26.946  1.00  0.00     0.005 A 
ATOM      8  C   UNL A   1      39.376  21.501  25.835  1.00  0.00     0.030 A 
BRANCH   4   9
ATOM      9  C   UNL A   1      36.062  23.355  25.530  1.00  0.00    -0.013 A 
ATOM     10  C   UNL A   1      34.430  24.235  23.965  1.00  0.00     0.133 A 
ATOM     11  C   UNL A   1      33.420  24.143  24.922  1.00  0.00     0.047 A 
ATOM     12  C   UNL A   1      35.737  23.840  24.252  1.00  0.00     0.056 A 
ATOM     13  C   UNL A   1      33.720  23.636  26.181  1.00  0.00     0.004 A 
ATOM     14  C   UNL A   1      35.030  23.254  26.483  1.00  0.00     0.009 A 
BRANCH  10  15
ATOM     15  O   UNL A   1      34.094  24.887  22.765  1.00  0.00    -0.410 OA
BRANCH  15  16
ATOM     16  C   UNL A   1      33.153  24.322  21.917  1.00  0.00     0.412 C 
ATOM     17  N   UNL A   1      32.139  25.184  21.598  1.00  0.00    -0.321 N 
ATOM     18  H   UNL A   1      31.439  24.837  20.999  1.00  0.00     0.167 HD
ATOM     19  O   UNL A   1      33.170  23.179  21.479  1.00  0.00    -0.224 OA
BRANCH  17  20
ATOM     20  C   UNL A   1      31.984  26.553  22.049  1.00  0.00     0.119 C 
BRANCH  20  21
ATOM     21  C   UNL A   1      30.929  26.683  23.146  1.00  0.00     0.021 C 
BRANCH  21  22
ATOM     22  C   UNL A   1      31.364  27.502  24.368  1.00  0.00     0.002 C 
BRANCH  22  23
ATOM     23  C   UNL A   1      31.436  26.732  25.691  1.00  0.00    -0.000 C 
BRANCH  23  24
ATOM     24  C   UNL A   1      32.303  27.369  26.779  1.00  0.00    -0.003 C 
ATOM     25  C   UNL A   1      31.621  28.525  27.493  1.00  0.00     0.004 C 
ENDBRANCH  23  24
ENDBRANCH  22  23
ENDBRANCH  21  22
ENDBRANCH  20  21
ENDBRANCH  17  20
ENDBRANCH  15  16
ENDBRANCH  10  15
ENDBRANCH   4   9
BRANCH   6  26
ATOM     26  N   UNL A   1      37.380  20.826  24.688  1.00  0.00    -0.398 N 
ATOM     27  H   UNL A   1      37.282  21.011  23.726  1.00  0.00     0.156 HD
ATOM     28  H   UNL A   1      37.022  19.991  25.069  1.00  0.00     0.156 HD
ENDBRANCH   6  26
ENDBRANCH   1   3
BRANCH   1  29
ATOM     29  C   UNL A   1      42.183  20.864  26.179  1.00  0.00     0.313 C 
ATOM     30  O   UNL A   1      41.872  19.734  26.546  1.00  0.00    -0.252 OA
BRANCH  29  31
ATOM     31  O   UNL A   1      43.008  21.126  25.132  1.00  0.00    -0.462 OA
BRANCH  31  32
ATOM     32  C   UNL A   1      44.223  21.842  25.423  1.00  0.00     0.274 C 
BRANCH  32  33
ATOM     33  C   UNL A   1      44.454  22.976  24.421  1.00  0.00     0.275 C 
BRANCH  33  34
ATOM     34  O   UNL A   1      43.696  24.147  24.776  1.00  0.00    -0.458 OA
BRANCH  34  35
ATOM     35  C   UNL A   1      44.436  25.203  25.185  1.00  0.00     0.338 C 
ATOM     36  O   UNL A   1      45.502  25.584  24.737  1.00  0.00    -0.246 OA
BRANCH  35  37
ATOM     37  C   UNL A   1      43.709  25.940  26.226  1.00  0.00     0.060 A 
ATOM     38  C   UNL A   1      44.129  27.237  26.529  1.00  0.00     0.016 A 
ATOM     39  C   UNL A   1      42.697  25.328  26.967  1.00  0.00     0.016 A 
ATOM     40  C   UNL A   1      43.555  27.926  27.593  1.00  0.00     0.010 A 
ATOM     41  C   UNL A   1      42.115  26.024  28.031  1.00  0.00     0.010 A 
ATOM     42  C   UNL A   1      42.554  27.319  28.360  1.00  0.00    -0.014 A 
BRANCH  42  43
ATOM     43  C   UNL A   1      42.024  28.016  29.555  1.00  0.00     0.031 A 
ATOM     44  C   UNL A   1      40.755  28.813  29.450  1.00  0.00     0.074 A 
ATOM     45  C   UNL A   1      42.662  27.911  30.734  1.00  0.00     0.049 A 
ATOM     46  N   UNL A   1      40.165  29.551  30.353  1.00  0.00    -0.248 NA
ATOM     47  C   UNL A   1      40.060  28.771  28.154  1.00  0.00     0.031 C 
ATOM     48  C   UNL A   1      43.876  27.129  30.972  1.00  0.00     0.029 A 
ATOM     49  N   UNL A   1      42.376  28.467  31.955  1.00  0.00    -0.354 N 
ATOM     50  C   UNL A   1      39.040  30.079  29.732  1.00  0.00     0.074 A 
ATOM     51  C   UNL A   1      39.039  29.587  28.371  1.00  0.00     0.031 C 
ATOM     52  C   UNL A   1      44.231  27.255  32.260  1.00  0.00     0.029 A 
ATOM     53  C   UNL A   1      43.296  28.158  32.926  1.00  0.00     0.049 A 
ATOM     54  H   UNL A   1      41.588  29.034  32.118  1.00  0.00     0.167 HD
ATOM     55  C   UNL A   1      38.096  30.899  30.253  1.00  0.00     0.037 A 
ATOM     56  C   UNL A   1      43.386  28.579  34.202  1.00  0.00     0.037 A 
ATOM     57  C   UNL A   1      38.092  31.374  31.611  1.00  0.00     0.049 A 
ATOM     58  C   UNL A   1      42.353  29.528  34.741  1.00  0.00     0.074 A 
ATOM     59  C   UNL A   1      37.174  32.200  32.234  1.00  0.00     0.029 A 
ATOM     60  N   UNL A   1      39.055  31.060  32.558  1.00  0.00    -0.354 N 
ATOM     61  N   UNL A   1      41.300  30.029  34.143  1.00  0.00    -0.248 NA
ATOM     62  C   UNL A   1      42.525  29.976  36.130  1.00  0.00     0.031 C 
ATOM     63  C   UNL A   1      37.599  32.413  33.550  1.00  0.00     0.029 A 
ATOM     64  C   UNL A   1      38.763  31.690  33.756  1.00  0.00     0.049 A 
ATOM     65  H   UNL A   1      39.833  30.477  32.401  1.00  0.00     0.167 HD
ATOM     66  C   UNL A   1      40.674  30.835  35.084  1.00  0.00     0.074 A 
ATOM     67  C   UNL A   1      41.459  30.746  36.299  1.00  0.00     0.031 C 
ATOM     68  C   UNL A   1      39.552  31.584  34.955  1.00  0.00     0.037 A 
BRANCH  55  69
ATOM     69  C   UNL A   1      37.001  31.354  29.337  1.00  0.00     0.057 A 
ATOM     70  C   UNL A   1      35.921  30.528  29.006  1.00  0.00     0.134 A 
ATOM     71  C   UNL A   1      37.014  32.649  28.803  1.00  0.00     0.134 A 
ATOM     72  F   UNL A   1      35.859  29.271  29.473  1.00  0.00    -0.206 F 
ATOM     73  C   UNL A   1      34.900  30.966  28.161  1.00  0.00     0.040 A 
ATOM     74  C   UNL A   1      35.989  33.106  27.973  1.00  0.00     0.040 A 
ATOM     75  F   UNL A   1      38.019  33.492  29.083  1.00  0.00    -0.206 F 
ATOM     76  C   UNL A   1      34.929  32.261  27.646  1.00  0.00     0.006 A 
ENDBRANCH  55  69
BRANCH  56  77
ATOM     77  C   UNL A   1      44.511  28.122  35.055  1.00  0.00     0.057 A 
ATOM     78  C   UNL A   1      44.494  26.861  35.661  1.00  0.00     0.134 A 
ATOM     79  C   UNL A   1      45.624  28.938  35.288  1.00  0.00     0.134 A 
ATOM     80  F   UNL A   1      43.444  26.045  35.493  1.00  0.00    -0.206 F 
ATOM     81  C   UNL A   1      45.540  26.433  36.481  1.00  0.00     0.040 A 
ATOM     82  C   UNL A   1      46.686  28.513  36.087  1.00  0.00     0.040 A 
ATOM     83  F   UNL A   1      45.699  30.157  34.735  1.00  0.00    -0.206 F 
ATOM     84  C   UNL A   1      46.642  27.259  36.691  1.00  0.00     0.006 A 
ENDBRANCH  56  77
BRANCH  68  85
ATOM     85  C   UNL A   1      39.094  32.342  36.164  1.00  0.00     0.057 A 
ATOM     86  C   UNL A   1      39.509  33.657  36.410  1.00  0.00     0.134 A 
ATOM     87  C   UNL A   1      38.202  31.761  37.074  1.00  0.00     0.134 A 
ATOM     88  F   UNL A   1      40.374  34.262  35.581  1.00  0.00    -0.206 F 
ATOM     89  C   UNL A   1      39.065  34.363  37.528  1.00  0.00     0.040 A 
ATOM     90  C   UNL A   1      37.735  32.465  38.185  1.00  0.00     0.040 A 
ATOM     91  F   UNL A   1      37.763  30.507  36.891  1.00  0.00    -0.206 F 
ATOM     92  C   UNL A   1      38.170  33.768  38.417  1.00  0.00     0.006 A 
ENDBRANCH  68  85
ENDBRANCH  42  43
ENDBRANCH  35  37
ENDBRANCH  34  35
ENDBRANCH  33  34
ENDBRANCH  32  33
ENDBRANCH  31  32
ENDBRANCH  29  31
ENDBRANCH   1  29
TORSDOF 21
ENDMDL
MODEL 2
REMARK VINA RESULT:     -10.9      0.677      6.050
REMARK SMILES CCCCCCNC(=O)Oc1cccc(-c2ccc([C@@H](C)C(=O)OCCOC(=O)c3ccc(-c4c5nc(c(-c6c(F)cccc6F)c6ccc([nH]6)c(-c6c(F)cccc6F)c6nc(c(-c7c(F)cccc7F)c7ccc4[nH]7)C=C6)C=C5)cc3)cc2N)c1
REMARK SMILES IDX 20 1 21 2 19 3 16 4 17 5 85 6 18 7 84 8 15 9 11 10 12 11
REMARK SMILES IDX 87 12 13 13 14 14 10 15 8 16 7 17 9 19 6 20 5 21 4 22 3 23
REMARK SMILES IDX 2 24 1 25 86 26 22 29 23 30 24 31 25 32 26 33 27 34 28 35
REMARK SMILES IDX 29 36 30 37 31 38 83 39 32 40 82 41 33 42 34 43 35 44 76 45
REMARK SMILES IDX 36 46 81 47 75 48 77 49 37 50 80 51 74 52 73 53 38 55 64 56
REMARK SMILES IDX 47 57 63 58 48 59 51 60 62 61 78 62 49 63 50 64 61 66 79 67
REMARK SMILES IDX 52 68 39 69 40 70 45 71 41 72 42 73 44 74 46 75 43 76 65 77
REMARK SMILES IDX 66 78 71 79 67 80 68 81 70 82 72 83 69 84 53 85 54 86 59 87
REMARK SMILES IDX 55 88 56 89 58 90 60 91 57 92
REMARK H PARENT 7 18 86 27 86 28 77 54 51 65
REMARK Flexibility Score: inf
ROOT
ATOM      1  C   UNL A   1      41.453  21.991  26.770  1.00  0.00     0.126 C 
ATOM      2  C   UNL A   1      41.866  22.028  28.239  1.00  0.00     0.025 C 
ENDROOT
BRANCH   1   3
ATOM      3  C   UNL A   1      39.990  22.355  26.567  1.00  0.00    -0.032 A 
ATOM      4  C   UNL A   1      37.263  23.005  26.070  1.00  0.00     0.005 A 
ATOM      5  C   UNL A   1      38.122  23.890  26.751  1.00  0.00     0.011 A 
ATOM      6  C   UNL A   1      37.780  21.754  25.663  1.00  0.00     0.040 A 
ATOM      7  C   UNL A   1      39.461  23.576  26.990  1.00  0.00     0.005 A 
ATOM      8  C   UNL A   1      39.133  21.460  25.903  1.00  0.00     0.030 A 
BRANCH   4   9
ATOM      9  C   UNL A   1      35.876  23.433  25.793  1.00  0.00    -0.013 A 
ATOM     10  C   UNL A   1      34.267  24.865  24.675  1.00  0.00     0.133 A 
ATOM     11  C   UNL A   1      33.213  24.270  25.366  1.00  0.00     0.047 A 
ATOM     12  C   UNL A   1      35.586  24.453  24.872  1.00  0.00     0.056 A 
ATOM     13  C   UNL A   1      33.481  23.238  26.259  1.00  0.00     0.004 A 
ATOM     14  C   UNL A   1      34.800  22.831  26.475  1.00  0.00     0.009 A 
BRANCH  10  15
ATOM     15  O   UNL A   1      33.946  25.993  23.899  1.00  0.00    -0.410 OA
BRANCH  15  16
ATOM     16  C   UNL A   1      33.610  25.834  22.562  1.00  0.00     0.412 C 
ATOM     17  N   UNL A   1      33.192  26.998  21.977  1.00  0.00    -0.321 N 
ATOM     18  H   UNL A   1      32.937  26.947  21.028  1.00  0.00     0.167 HD
ATOM     19  O   UNL A   1      33.653  24.789  21.927  1.00  0.00    -0.224 OA
BRANCH  17  20
ATOM     20  C   UNL A   1      33.080  28.300  22.607  1.00  0.00     0.119 C 
BRANCH  20  21
ATOM     21  C   UNL A   1      31.644  28.820  22.605  1.00  0.00     0.021 C 
BRANCH  21  22
ATOM     22  C   UNL A   1      30.947  28.803  23.971  1.00  0.00     0.002 C 
BRANCH  22  23
ATOM     23  C   UNL A   1      31.735  28.142  25.109  1.00  0.00    -0.000 C 
BRANCH  23  24
ATOM     24  C   UNL A   1      31.870  28.973  26.386  1.00  0.00    -0.003 C 
ATOM     25  C   UNL A   1      31.510  28.203  27.647  1.00  0.00     0.004 C 
ENDBRANCH  23  24
ENDBRANCH  22  23
ENDBRANCH  21  22
ENDBRANCH  20  21
ENDBRANCH  17  20
ENDBRANCH  15  16
ENDBRANCH  10  15
ENDBRANCH   4   9
BRANCH   6  26
ATOM     26  N   UNL A   1      37.046  20.855  24.884  1.00  0.00    -0.398 N 
ATOM     27  H   UNL A   1      36.137  20.596  25.158  1.00  0.00     0.156 HD
ATOM     28  H   UNL A   1      37.439  20.483  24.061  1.00  0.00     0.156 HD
ENDBRANCH   6  26
ENDBRANCH   1   3
BRANCH   1  29
ATOM     29  C   UNL A   1      41.914  20.687  26.131  1.00  0.00     0.313 C 
ATOM     30  O   UNL A   1      41.490  19.596  26.502  1.00  0.00    -0.252 OA
BRANCH  29  31
ATOM     31  O   UNL A   1      42.785  20.858  25.102  1.00  0.00    -0.462 OA
BRANCH  31  32
ATOM     32  C   UNL A   1      43.999  21.577  25.388  1.00  0.00     0.274 C 
BRANCH  32  33
ATOM     33  C   UNL A   1      44.289  22.629  24.314  1.00  0.00     0.275 C 
BRANCH  33  34
ATOM     34  O   UNL A   1      43.612  23.866  24.601  1.00  0.00    -0.458 OA
BRANCH  34  35
ATOM     35  C   UNL A   1      44.413  24.870  25.027  1.00  0.00     0.338 C 
ATOM     36  O   UNL A   1      45.527  25.154  24.627  1.00  0.00    -0.246 OA
BRANCH  35  37
ATOM     37  C   UNL A   1      43.696  25.686  26.014  1.00  0.00     0.060 A 
ATOM     38  C   UNL A   1      44.106  27.009  26.196  1.00  0.00     0.016 A 
ATOM     39  C   UNL A   1      42.706  25.130  26.824  1.00  0.00     0.016 A 
ATOM     40  C   UNL A   1      43.544  27.782  27.207  1.00  0.00     0.010 A 
ATOM     41  C   UNL A   1      42.135  25.910  27.835  1.00  0.00     0.010 A 
ATOM     42  C   UNL A   1      42.565  27.233  28.044  1.00  0.00    -0.014 A 
BRANCH  42  43
ATOM     43  C   UNL A   1      42.048  28.025  29.184  1.00  0.00     0.031 A 
ATOM     44  C   UNL A   1      42.784  28.013  30.493  1.00  0.00     0.074 A 
ATOM     45  C   UNL A   1      40.940  28.773  29.037  1.00  0.00     0.049 A 
ATOM     46  N   UNL A   1      42.463  28.577  31.628  1.00  0.00    -0.248 NA
ATOM     47  C   UNL A   1      44.051  27.267  30.527  1.00  0.00     0.031 C 
ATOM     48  C   UNL A   1      40.166  28.902  27.801  1.00  0.00     0.029 A 
ATOM     49  N   UNL A   1      40.274  29.565  29.935  1.00  0.00    -0.354 N 
ATOM     50  C   UNL A   1      43.474  28.239  32.517  1.00  0.00     0.074 A 
ATOM     51  C   UNL A   1      44.414  27.409  31.793  1.00  0.00     0.031 C 
ATOM     52  C   UNL A   1      39.128  29.725  28.021  1.00  0.00     0.029 A 
ATOM     53  C   UNL A   1      39.142  30.147  29.419  1.00  0.00     0.049 A 
ATOM     54  H   UNL A   1      40.577  29.703  30.862  1.00  0.00     0.167 HD
ATOM     55  C   UNL A   1      43.606  28.590  33.818  1.00  0.00     0.037 A 
ATOM     56  C   UNL A   1      38.210  30.912  30.016  1.00  0.00     0.037 A 
ATOM     57  C   UNL A   1      42.679  29.429  34.531  1.00  0.00     0.049 A 
ATOM     58  C   UNL A   1      38.353  31.247  31.474  1.00  0.00     0.074 A 
ATOM     59  C   UNL A   1      42.731  29.849  35.848  1.00  0.00     0.029 A 
ATOM     60  N   UNL A   1      41.530  29.977  33.981  1.00  0.00    -0.354 N 
ATOM     61  N   UNL A   1      39.308  30.914  32.309  1.00  0.00    -0.248 NA
ATOM     62  C   UNL A   1      37.285  32.058  32.076  1.00  0.00     0.031 C 
ATOM     63  C   UNL A   1      41.596  30.625  36.105  1.00  0.00     0.029 A 
ATOM     64  C   UNL A   1      40.856  30.718  34.937  1.00  0.00     0.049 A 
ATOM     65  H   UNL A   1      41.236  29.857  33.049  1.00  0.00     0.167 HD
ATOM     66  C   UNL A   1      38.968  31.487  33.526  1.00  0.00     0.074 A 
ATOM     67  C   UNL A   1      37.724  32.202  33.319  1.00  0.00     0.031 C 
ATOM     68  C   UNL A   1      39.623  31.427  34.711  1.00  0.00     0.037 A 
BRANCH  55  69
ATOM     69  C   UNL A   1      44.787  28.045  34.562  1.00  0.00     0.057 A 
ATOM     70  C   UNL A   1      44.726  26.835  35.263  1.00  0.00     0.134 A 
ATOM     71  C   UNL A   1      46.010  28.727  34.551  1.00  0.00     0.134 A 
ATOM     72  F   UNL A   1      43.579  26.142  35.325  1.00  0.00    -0.206 F 
ATOM     73  C   UNL A   1      45.836  26.330  35.943  1.00  0.00     0.040 A 
ATOM     74  C   UNL A   1      47.133  28.223  35.210  1.00  0.00     0.040 A 
ATOM     75  F   UNL A   1      46.136  29.891  33.895  1.00  0.00    -0.206 F 
ATOM     76  C   UNL A   1      47.046  27.023  35.912  1.00  0.00     0.006 A 
ENDBRANCH  55  69
BRANCH  56  77
ATOM     77  C   UNL A   1      37.042  31.398  29.240  1.00  0.00     0.057 A 
ATOM     78  C   UNL A   1      37.010  32.695  28.717  1.00  0.00     0.134 A 
ATOM     79  C   UNL A   1      35.931  30.579  29.010  1.00  0.00     0.134 A 
ATOM     80  F   UNL A   1      38.035  33.533  28.926  1.00  0.00    -0.206 F 
ATOM     81  C   UNL A   1      35.906  33.166  28.004  1.00  0.00     0.040 A 
ATOM     82  C   UNL A   1      34.831  31.029  28.279  1.00  0.00     0.040 A 
ATOM     83  F   UNL A   1      35.902  29.325  29.486  1.00  0.00    -0.206 F 
ATOM     84  C   UNL A   1      34.815  32.329  27.779  1.00  0.00     0.006 A 
ENDBRANCH  56  77
BRANCH  68  85
ATOM     85  C   UNL A   1      39.023  32.174  35.863  1.00  0.00     0.057 A 
ATOM     86  C   UNL A   1      38.154  31.554  36.769  1.00  0.00     0.134 A 
ATOM     87  C   UNL A   1      39.345  33.519  36.087  1.00  0.00     0.134 A 
ATOM     88  F   UNL A   1      37.796  30.272  36.600  1.00  0.00    -0.206 F 
ATOM     89  C   UNL A   1      37.612  32.251  37.849  1.00  0.00     0.040 A 
ATOM     90  C   UNL A   1      38.826  34.220  37.176  1.00  0.00     0.040 A 
ATOM     91  F   UNL A   1      40.177  34.167  35.258  1.00  0.00    -0.206 F 
ATOM     92  C   UNL A   1      37.953  33.587  38.058  1.00  0.00     0.006 A 
ENDBRANCH  68  85
ENDBRANCH  42  43
ENDBRANCH  35  37
ENDBRANCH  34  35
ENDBRANCH  33  34
ENDBRANCH  32  33
ENDBRANCH  31  32
ENDBRANCH  29  31
ENDBRANCH   1  29
TORSDOF 21
ENDMDL
MODEL 3
REMARK VINA RESULT:     -10.9      1.393      6.193
REMARK SMILES CCCCCCNC(=O)Oc1cccc(-c2ccc([C@@H](C)C(=O)OCCOC(=O)c3ccc(-c4c5nc(c(-c6c(F)cccc6F)c6ccc([nH]6)c(-c6c(F)cccc6F)c6nc(c(-c7c(F)cccc7F)c7ccc4[nH]7)C=C6)C=C5)cc3)cc2N)c1
REMARK SMILES IDX 20 1 21 2 19 3 16 4 17 5 85 6 18 7 84 8 15 9 11 10 12 11
REMARK SMILES IDX 87 12 13 13 14 14 10 15 8 16 7 17 9 19 6 20 5 21 4 22 3 23
REMARK SMILES IDX 2 24 1 25 86 26 22 29 23 30 24 31 25 32 26 33 27 34 28 35
REMARK SMILES IDX 29 36 30 37 31 38 83 39 32 40 82 41 33 42 34 43 35 44 76 45
REMARK SMILES IDX 36 46 81 47 75 48 77 49 37 50 80 51 74 52 73 53 38 55 64 56
REMARK SMILES IDX 47 57 63 58 48 59 51 60 62 61 78 62 49 63 50 64 61 66 79 67
REMARK SMILES IDX 52 68 39 69 40 70 45 71 41 72 42 73 44 74 46 75 43 76 65 77
REMARK SMILES IDX 66 78 71 79 67 80 68 81 70 82 72 83 69 84 53 85 54 86 59 87
REMARK SMILES IDX 55 88 56 89 58 90 60 91 57 92
REMARK H PARENT 7 18 86 27 86 28 77 54 51 65
REMARK Flexibility Score: inf
ROOT
ATOM      1  C   UNL A   1      42.237  19.872  26.687  1.00  0.00     0.126 C 
ATOM      2  C   UNL A   1      42.226  19.019  27.954  1.00  0.00     0.025 C 
ENDROOT
BRANCH   1   3
ATOM      3  C   UNL A   1      40.864  20.431  26.351  1.00  0.00    -0.032 A 
ATOM      4  C   UNL A   1      38.303  21.431  25.608  1.00  0.00     0.005 A 
ATOM      5  C   UNL A   1      39.267  22.252  26.226  1.00  0.00     0.011 A 
ATOM      6  C   UNL A   1      38.624  20.071  25.393  1.00  0.00     0.040 A 
ATOM      7  C   UNL A   1      40.526  21.765  26.586  1.00  0.00     0.005 A 
ATOM      8  C   UNL A   1      39.899  19.602  25.751  1.00  0.00     0.030 A 
BRANCH   4   9
ATOM      9  C   UNL A   1      37.018  22.032  25.195  1.00  0.00    -0.013 A 
ATOM     10  C   UNL A   1      34.648  22.439  25.524  1.00  0.00     0.133 A 
ATOM     11  C   UNL A   1      34.570  23.130  24.316  1.00  0.00     0.047 A 
ATOM     12  C   UNL A   1      35.855  21.900  25.972  1.00  0.00     0.056 A 
ATOM     13  C   UNL A   1      35.718  23.294  23.550  1.00  0.00     0.004 A 
ATOM     14  C   UNL A   1      36.927  22.744  23.982  1.00  0.00     0.009 A 
BRANCH  10  15
ATOM     15  O   UNL A   1      33.430  22.185  26.178  1.00  0.00    -0.410 OA
BRANCH  15  16
ATOM     16  C   UNL A   1      32.490  21.358  25.581  1.00  0.00     0.412 C 
ATOM     17  N   UNL A   1      31.206  21.802  25.751  1.00  0.00    -0.321 N 
ATOM     18  H   UNL A   1      30.494  21.254  25.350  1.00  0.00     0.167 HD
ATOM     19  O   UNL A   1      32.723  20.325  24.966  1.00  0.00    -0.224 OA
BRANCH  17  20
ATOM     20  C   UNL A   1      30.783  22.994  26.460  1.00  0.00     0.119 C 
BRANCH  20  21
ATOM     21  C   UNL A   1      31.123  24.272  25.695  1.00  0.00     0.021 C 
BRANCH  21  22
ATOM     22  C   UNL A   1      31.898  25.322  26.501  1.00  0.00     0.002 C 
BRANCH  22  23
ATOM     23  C   UNL A   1      32.781  26.269  25.680  1.00  0.00    -0.000 C 
BRANCH  23  24
ATOM     24  C   UNL A   1      32.718  27.743  26.082  1.00  0.00    -0.003 C 
ATOM     25  C   UNL A   1      34.028  28.484  25.865  1.00  0.00     0.004 C 
ENDBRANCH  23  24
ENDBRANCH  22  23
ENDBRANCH  21  22
ENDBRANCH  20  21
ENDBRANCH  17  20
ENDBRANCH  15  16
ENDBRANCH  10  15
ENDBRANCH   4   9
BRANCH   6  26
ATOM     26  N   UNL A   1      37.786  19.204  24.687  1.00  0.00    -0.398 N 
ATOM     27  H   UNL A   1      37.028  18.773  25.143  1.00  0.00     0.156 HD
ATOM     28  H   UNL A   1      37.953  19.026  23.733  1.00  0.00     0.156 HD
ENDBRANCH   6  26
ENDBRANCH   1   3
BRANCH   1  29
ATOM     29  C   UNL A   1      42.952  19.130  25.565  1.00  0.00     0.313 C 
ATOM     30  O   UNL A   1      42.982  17.903  25.513  1.00  0.00    -0.252 OA
BRANCH  29  31
ATOM     31  O   UNL A   1      43.497  19.948  24.627  1.00  0.00    -0.462 OA
BRANCH  31  32
ATOM     32  C   UNL A   1      44.336  21.017  25.103  1.00  0.00     0.274 C 
BRANCH  32  33
ATOM     33  C   UNL A   1      44.177  22.274  24.243  1.00  0.00     0.275 C 
BRANCH  33  34
ATOM     34  O   UNL A   1      43.472  23.306  24.955  1.00  0.00    -0.458 OA
BRANCH  34  35
ATOM     35  C   UNL A   1      44.188  24.431  25.185  1.00  0.00     0.338 C 
ATOM     36  O   UNL A   1      45.207  24.792  24.626  1.00  0.00    -0.246 OA
BRANCH  35  37
ATOM     37  C   UNL A   1      43.492  25.264  26.173  1.00  0.00     0.060 A 
ATOM     38  C   UNL A   1      43.803  26.625  26.223  1.00  0.00     0.016 A 
ATOM     39  C   UNL A   1      42.625  24.697  27.108  1.00  0.00     0.016 A 
ATOM     40  C   UNL A   1      43.265  27.428  27.224  1.00  0.00     0.010 A 
ATOM     41  C   UNL A   1      42.079  25.507  28.109  1.00  0.00     0.010 A 
ATOM     42  C   UNL A   1      42.412  26.871  28.183  1.00  0.00    -0.014 A 
BRANCH  42  43
ATOM     43  C   UNL A   1      41.930  27.707  29.307  1.00  0.00     0.031 A 
ATOM     44  C   UNL A   1      42.652  27.674  30.623  1.00  0.00     0.074 A 
ATOM     45  C   UNL A   1      40.866  28.513  29.139  1.00  0.00     0.049 A 
ATOM     46  N   UNL A   1      42.352  28.271  31.747  1.00  0.00    -0.248 NA
ATOM     47  C   UNL A   1      43.875  26.859  30.680  1.00  0.00     0.031 C 
ATOM     48  C   UNL A   1      40.112  28.667  27.894  1.00  0.00     0.029 A 
ATOM     49  N   UNL A   1      40.237  29.354  30.020  1.00  0.00    -0.354 N 
ATOM     50  C   UNL A   1      43.335  27.890  32.652  1.00  0.00     0.074 A 
ATOM     51  C   UNL A   1      44.233  26.999  31.948  1.00  0.00     0.031 C 
ATOM     52  C   UNL A   1      39.120  29.550  28.092  1.00  0.00     0.029 A 
ATOM     53  C   UNL A   1      39.144  29.990  29.484  1.00  0.00     0.049 A 
ATOM     54  H   UNL A   1      40.539  29.489  30.947  1.00  0.00     0.167 HD
ATOM     55  C   UNL A   1      43.474  28.252  33.949  1.00  0.00     0.037 A 
ATOM     56  C   UNL A   1      38.250  30.815  30.061  1.00  0.00     0.037 A 
ATOM     57  C   UNL A   1      42.588  29.151  34.640  1.00  0.00     0.049 A 
ATOM     58  C   UNL A   1      38.398  31.162  31.516  1.00  0.00     0.074 A 
ATOM     59  C   UNL A   1      42.651  29.587  35.952  1.00  0.00     0.029 A 
ATOM     60  N   UNL A   1      41.477  29.754  34.071  1.00  0.00    -0.354 N 
ATOM     61  N   UNL A   1      39.325  30.789  32.365  1.00  0.00    -0.248 NA
ATOM     62  C   UNL A   1      37.372  32.040  32.096  1.00  0.00     0.031 C 
ATOM     63  C   UNL A   1      41.559  30.429  36.187  1.00  0.00     0.029 A 
ATOM     64  C   UNL A   1      40.836  30.546  35.010  1.00  0.00     0.049 A 
ATOM     65  H   UNL A   1      41.185  29.637  33.138  1.00  0.00     0.167 HD
ATOM     66  C   UNL A   1      39.007  31.398  33.570  1.00  0.00     0.074 A 
ATOM     67  C   UNL A   1      37.807  32.177  33.341  1.00  0.00     0.031 C 
ATOM     68  C   UNL A   1      39.647  31.318  34.762  1.00  0.00     0.037 A 
BRANCH  55  69
ATOM     69  C   UNL A   1      44.616  27.653  34.711  1.00  0.00     0.057 A 
ATOM     70  C   UNL A   1      44.501  26.426  35.374  1.00  0.00     0.134 A 
ATOM     71  C   UNL A   1      45.857  28.301  34.758  1.00  0.00     0.134 A 
ATOM     72  F   UNL A   1      43.334  25.763  35.380  1.00  0.00    -0.206 F 
ATOM     73  C   UNL A   1      45.575  25.871  36.072  1.00  0.00     0.040 A 
ATOM     74  C   UNL A   1      46.944  27.747  35.436  1.00  0.00     0.040 A 
ATOM     75  F   UNL A   1      46.034  29.480  34.142  1.00  0.00    -0.206 F 
ATOM     76  C   UNL A   1      46.803  26.530  36.100  1.00  0.00     0.006 A 
ENDBRANCH  55  69
BRANCH  56  77
ATOM     77  C   UNL A   1      37.119  31.353  29.266  1.00  0.00     0.057 A 
ATOM     78  C   UNL A   1      37.150  32.653  28.751  1.00  0.00     0.134 A 
ATOM     79  C   UNL A   1      35.979  30.583  29.012  1.00  0.00     0.134 A 
ATOM     80  F   UNL A   1      38.206  33.447  28.984  1.00  0.00    -0.206 F 
ATOM     81  C   UNL A   1      36.080  33.174  28.020  1.00  0.00     0.040 A 
ATOM     82  C   UNL A   1      34.912  31.083  28.263  1.00  0.00     0.040 A 
ATOM     83  F   UNL A   1      35.889  29.329  29.479  1.00  0.00    -0.206 F 
ATOM     84  C   UNL A   1      34.960  32.385  27.770  1.00  0.00     0.006 A 
ENDBRANCH  56  77
BRANCH  68  85
ATOM     85  C   UNL A   1      39.079  32.114  35.897  1.00  0.00     0.057 A 
ATOM     86  C   UNL A   1      39.422  33.456  36.100  1.00  0.00     0.134 A 
ATOM     87  C   UNL A   1      38.152  31.540  36.777  1.00  0.00     0.134 A 
ATOM     88  F   UNL A   1      40.315  34.057  35.298  1.00  0.00    -0.206 F 
ATOM     89  C   UNL A   1      38.875  34.196  37.148  1.00  0.00     0.040 A 
ATOM     90  C   UNL A   1      37.583  32.277  37.817  1.00  0.00     0.040 A 
ATOM     91  F   UNL A   1      37.778  30.260  36.633  1.00  0.00    -0.206 F 
ATOM     92  C   UNL A   1      37.948  33.608  38.007  1.00  0.00     0.006 A 
ENDBRANCH  68  85
ENDBRANCH  42  43
ENDBRANCH  35  37
ENDBRANCH  34  35
ENDBRANCH  33  34
ENDBRANCH  32  33
ENDBRANCH  31  32
ENDBRANCH  29  31
ENDBRANCH   1  29
TORSDOF 21
ENDMDL
