MODEL 1
REMARK VINA RESULT:     -12.2      0.000      0.000
REMARK SMILES O=C(OCCOC(=O)[C@@H]1CCCC[C@@H]1C(=O)Nc1cccc(C(F)(F)F)c1)c1ccc(-c2c3nc(c(-c4c(F)cccc4F)c4ccc([nH]4)c(-c4c(F)cccc4F)c4nc(c(-c5c(F)cccc5F)c5ccc2[nH]5)C=C4)C=C3)cc1
REMARK SMILES IDX 5 1 4 2 3 3 2 4 1 5 28 6 29 7 81 8 30 9 80 10 31 11 32 12
REMARK SMILES IDX 33 13 74 14 34 15 79 16 73 17 75 18 35 19 78 20 72 21 71 22
REMARK SMILES IDX 36 24 62 25 45 26 61 27 46 28 49 29 60 30 76 31 47 32 48 33
REMARK SMILES IDX 59 35 77 36 50 37 37 38 38 39 43 40 39 41 40 42 42 43 44 44
REMARK SMILES IDX 41 45 63 46 64 47 69 48 65 49 66 50 68 51 70 52 67 53 51 54
REMARK SMILES IDX 52 55 57 56 53 57 54 58 56 59 58 60 55 61 6 62 7 63 8 64
REMARK SMILES IDX 9 65 10 66 14 67 11 68 13 69 12 70 15 71 16 72 17 73 18 75
REMARK SMILES IDX 19 76 27 77 20 78 22 79 21 80 23 81 24 82 25 83 26 84
REMARK H PARENT 75 23 49 34 17 74
REMARK Flexibility Score: inf
ROOT
ATOM      1  C   UNL A   1      32.283  29.214  25.236  1.00  0.00     0.274 C 
ENDROOT
BRANCH   1   2
ATOM      2  C   UNL A   1      31.351  30.422  25.356  1.00  0.00     0.275 C 
BRANCH   2   3
ATOM      3  O   UNL A   1      31.403  31.095  26.636  1.00  0.00    -0.458 OA
BRANCH   3   4
ATOM      4  C   UNL A   1      32.217  32.071  27.114  1.00  0.00     0.338 C 
ATOM      5  O   UNL A   1      31.789  33.226  27.099  1.00  0.00    -0.246 OA
BRANCH   4   6
ATOM      6  C   UNL A   1      33.628  31.873  27.620  1.00  0.00     0.060 A 
ATOM      7  C   UNL A   1      34.509  32.861  28.047  1.00  0.00     0.016 A 
ATOM      8  C   UNL A   1      34.100  30.547  27.708  1.00  0.00     0.016 A 
ATOM      9  C   UNL A   1      35.684  32.518  28.775  1.00  0.00     0.010 A 
ATOM     10  C   UNL A   1      35.264  30.214  28.449  1.00  0.00     0.010 A 
ATOM     11  C   UNL A   1      35.983  31.190  29.159  1.00  0.00    -0.014 A 
BRANCH  11  12
ATOM     12  C   UNL A   1      37.157  30.842  30.110  1.00  0.00     0.031 A 
ATOM     13  C   UNL A   1      38.152  29.934  29.468  1.00  0.00     0.074 A 
ATOM     14  C   UNL A   1      37.447  31.228  31.405  1.00  0.00     0.049 A 
ATOM     15  N   UNL A   1      39.293  29.506  29.929  1.00  0.00    -0.248 NA
ATOM     16  C   UNL A   1      37.812  29.453  28.118  1.00  0.00     0.031 C 
ATOM     17  C   UNL A   1      36.677  32.088  32.278  1.00  0.00     0.029 A 
ATOM     18  N   UNL A   1      38.504  30.943  32.277  1.00  0.00    -0.354 N 
ATOM     19  C   UNL A   1      39.835  28.768  28.900  1.00  0.00     0.074 A 
ATOM     20  C   UNL A   1      38.871  28.728  27.825  1.00  0.00     0.031 C 
ATOM     21  C   UNL A   1      37.218  32.317  33.468  1.00  0.00     0.029 A 
ATOM     22  C   UNL A   1      38.410  31.540  33.537  1.00  0.00     0.049 A 
ATOM     23  H   UNL A   1      39.258  30.365  32.020  1.00  0.00     0.167 HD
ATOM     24  C   UNL A   1      41.050  28.187  28.839  1.00  0.00     0.037 A 
ATOM     25  C   UNL A   1      39.129  31.505  34.677  1.00  0.00     0.037 A 
ATOM     26  C   UNL A   1      41.962  28.104  29.938  1.00  0.00     0.049 A 
ATOM     27  C   UNL A   1      40.369  30.696  34.645  1.00  0.00     0.074 A 
ATOM     28  C   UNL A   1      43.163  27.427  29.994  1.00  0.00     0.029 A 
ATOM     29  N   UNL A   1      41.753  28.669  31.188  1.00  0.00    -0.354 N 
ATOM     30  N   UNL A   1      40.871  30.049  33.628  1.00  0.00    -0.248 NA
ATOM     31  C   UNL A   1      41.148  30.613  35.882  1.00  0.00     0.031 C 
ATOM     32  C   UNL A   1      43.655  27.530  31.297  1.00  0.00     0.029 A 
ATOM     33  C   UNL A   1      42.794  28.325  32.036  1.00  0.00     0.049 A 
ATOM     34  H   UNL A   1      40.983  29.231  31.436  1.00  0.00     0.167 HD
ATOM     35  C   UNL A   1      42.050  29.507  34.086  1.00  0.00     0.074 A 
ATOM     36  C   UNL A   1      42.198  29.919  35.470  1.00  0.00     0.031 C 
ATOM     37  C   UNL A   1      42.927  28.738  33.407  1.00  0.00     0.037 A 
BRANCH  24  38
ATOM     38  C   UNL A   1      41.362  27.546  27.530  1.00  0.00     0.057 A 
ATOM     39  C   UNL A   1      41.170  26.170  27.333  1.00  0.00     0.134 A 
ATOM     40  C   UNL A   1      42.021  28.270  26.533  1.00  0.00     0.134 A 
ATOM     41  F   UNL A   1      40.610  25.415  28.292  1.00  0.00    -0.206 F 
ATOM     42  C   UNL A   1      41.658  25.530  26.196  1.00  0.00     0.040 A 
ATOM     43  C   UNL A   1      42.488  27.644  25.381  1.00  0.00     0.040 A 
ATOM     44  F   UNL A   1      42.272  29.578  26.694  1.00  0.00    -0.206 F 
ATOM     45  C   UNL A   1      42.318  26.269  25.216  1.00  0.00     0.006 A 
ENDBRANCH  24  38
BRANCH  25  46
ATOM     46  C   UNL A   1      38.715  32.226  35.931  1.00  0.00     0.057 A 
ATOM     47  C   UNL A   1      39.022  33.579  36.138  1.00  0.00     0.134 A 
ATOM     48  C   UNL A   1      38.055  31.570  36.983  1.00  0.00     0.134 A 
ATOM     49  F   UNL A   1      39.658  34.278  35.186  1.00  0.00    -0.206 F 
ATOM     50  C   UNL A   1      38.734  34.234  37.343  1.00  0.00     0.040 A 
ATOM     51  C   UNL A   1      37.733  32.220  38.182  1.00  0.00     0.040 A 
ATOM     52  F   UNL A   1      37.704  30.281  36.863  1.00  0.00    -0.206 F 
ATOM     53  C   UNL A   1      38.089  33.552  38.371  1.00  0.00     0.006 A 
ENDBRANCH  25  46
BRANCH  37  54
ATOM     54  C   UNL A   1      44.147  28.325  34.156  1.00  0.00     0.057 A 
ATOM     55  C   UNL A   1      45.299  29.118  34.188  1.00  0.00     0.134 A 
ATOM     56  C   UNL A   1      44.155  27.118  34.861  1.00  0.00     0.134 A 
ATOM     57  F   UNL A   1      45.355  30.269  33.499  1.00  0.00    -0.206 F 
ATOM     58  C   UNL A   1      46.432  28.712  34.887  1.00  0.00     0.040 A 
ATOM     59  C   UNL A   1      45.269  26.718  35.592  1.00  0.00     0.040 A 
ATOM     60  F   UNL A   1      43.080  26.315  34.853  1.00  0.00    -0.206 F 
ATOM     61  C   UNL A   1      46.414  27.515  35.601  1.00  0.00     0.006 A 
ENDBRANCH  37  54
ENDBRANCH  11  12
ENDBRANCH   4   6
ENDBRANCH   3   4
ENDBRANCH   2   3
ENDBRANCH   1   2
BRANCH   1  62
ATOM     62  O   UNL A   1      31.600  28.041  25.662  1.00  0.00    -0.462 OA
BRANCH  62  63
ATOM     63  C   UNL A   1      31.925  27.446  26.846  1.00  0.00     0.309 C 
ATOM     64  O   UNL A   1      31.565  27.824  27.956  1.00  0.00    -0.252 OA
BRANCH  63  65
ATOM     65  C   UNL A   1      32.722  26.192  26.549  1.00  0.00     0.111 C 
ATOM     66  C   UNL A   1      33.598  26.090  25.293  1.00  0.00     0.016 C 
ATOM     67  C   UNL A   1      31.828  24.969  26.673  1.00  0.00     0.093 C 
ATOM     68  C   UNL A   1      34.461  24.826  25.184  1.00  0.00     0.001 C 
ATOM     69  C   UNL A   1      32.817  23.751  26.739  1.00  0.00     0.014 C 
ATOM     70  C   UNL A   1      33.749  23.547  25.564  1.00  0.00     0.001 C 
BRANCH  67  71
ATOM     71  C   UNL A   1      30.267  24.945  26.202  1.00  0.00     0.228 C 
ATOM     72  O   UNL A   1      29.388  24.549  26.980  1.00  0.00    -0.274 OA
ATOM     73  N   UNL A   1      29.589  25.372  25.132  1.00  0.00    -0.326 N 
ATOM     74  H   UNL A   1      28.620  25.224  25.221  1.00  0.00     0.169 HD
BRANCH  73  75
ATOM     75  C   UNL A   1      29.915  25.963  23.945  1.00  0.00     0.041 A 
ATOM     76  C   UNL A   1      29.258  27.143  23.612  1.00  0.00     0.026 A 
ATOM     77  C   UNL A   1      30.904  25.443  23.151  1.00  0.00     0.039 A 
ATOM     78  C   UNL A   1      29.804  27.949  22.626  1.00  0.00     0.003 A 
ATOM     79  C   UNL A   1      31.498  26.254  22.190  1.00  0.00     0.058 A 
ATOM     80  C   UNL A   1      30.959  27.530  21.960  1.00  0.00     0.013 A 
BRANCH  79  81
ATOM     81  C   UNL A   1      32.778  25.806  21.543  1.00  0.00     0.416 C 
ATOM     82  F   UNL A   1      33.846  26.573  21.880  1.00  0.00    -0.166 F 
ATOM     83  F   UNL A   1      33.107  24.527  21.872  1.00  0.00    -0.166 F 
ATOM     84  F   UNL A   1      32.716  25.828  20.179  1.00  0.00    -0.166 F 
ENDBRANCH  79  81
ENDBRANCH  73  75
ENDBRANCH  67  71
ENDBRANCH  63  65
ENDBRANCH  62  63
ENDBRANCH   1  62
TORSDOF 14
ENDMDL
MODEL 2
REMARK VINA RESULT:     -12.0      1.219      6.198
REMARK SMILES O=C(OCCOC(=O)[C@@H]1CCCC[C@@H]1C(=O)Nc1cccc(C(F)(F)F)c1)c1ccc(-c2c3nc(c(-c4c(F)cccc4F)c4ccc([nH]4)c(-c4c(F)cccc4F)c4nc(c(-c5c(F)cccc5F)c5ccc2[nH]5)C=C4)C=C3)cc1
REMARK SMILES IDX 5 1 4 2 3 3 2 4 1 5 28 6 29 7 81 8 30 9 80 10 31 11 32 12
REMARK SMILES IDX 33 13 74 14 34 15 79 16 73 17 75 18 35 19 78 20 72 21 71 22
REMARK SMILES IDX 36 24 62 25 45 26 61 27 46 28 49 29 60 30 76 31 47 32 48 33
REMARK SMILES IDX 59 35 77 36 50 37 37 38 38 39 43 40 39 41 40 42 42 43 44 44
REMARK SMILES IDX 41 45 63 46 64 47 69 48 65 49 66 50 68 51 70 52 67 53 51 54
REMARK SMILES IDX 52 55 57 56 53 57 54 58 56 59 58 60 55 61 6 62 7 63 8 64
REMARK SMILES IDX 9 65 10 66 14 67 11 68 13 69 12 70 15 71 16 72 17 73 18 75
REMARK SMILES IDX 19 76 27 77 20 78 22 79 21 80 23 81 24 82 25 83 26 84
REMARK H PARENT 75 23 49 34 17 74
REMARK Flexibility Score: inf
ROOT
ATOM      1  C   UNL A   1      32.588  29.317  25.388  1.00  0.00     0.274 C 
ENDROOT
BRANCH   1   2
ATOM      2  C   UNL A   1      31.808  30.482  26.001  1.00  0.00     0.275 C 
BRANCH   2   3
ATOM      3  O   UNL A   1      32.324  30.946  27.271  1.00  0.00    -0.458 OA
BRANCH   3   4
ATOM      4  C   UNL A   1      33.360  31.766  27.584  1.00  0.00     0.338 C 
ATOM      5  O   UNL A   1      33.118  32.969  27.698  1.00  0.00    -0.246 OA
BRANCH   4   6
ATOM      6  C   UNL A   1      34.800  31.341  27.755  1.00  0.00     0.060 A 
ATOM      7  C   UNL A   1      35.899  32.170  27.948  1.00  0.00     0.016 A 
ATOM      8  C   UNL A   1      35.066  29.956  27.760  1.00  0.00     0.016 A 
ATOM      9  C   UNL A   1      37.142  31.635  28.393  1.00  0.00     0.010 A 
ATOM     10  C   UNL A   1      36.302  29.432  28.220  1.00  0.00     0.010 A 
ATOM     11  C   UNL A   1      37.309  30.271  28.725  1.00  0.00    -0.014 A 
BRANCH  11  12
ATOM     12  C   UNL A   1      38.601  29.727  29.389  1.00  0.00     0.031 A 
ATOM     13  C   UNL A   1      38.871  30.373  30.707  1.00  0.00     0.074 A 
ATOM     14  C   UNL A   1      39.511  28.765  28.996  1.00  0.00     0.049 A 
ATOM     15  N   UNL A   1      39.806  30.109  31.576  1.00  0.00    -0.248 NA
ATOM     16  C   UNL A   1      37.952  31.455  31.098  1.00  0.00     0.031 C 
ATOM     17  C   UNL A   1      39.518  27.980  27.780  1.00  0.00     0.029 A 
ATOM     18  N   UNL A   1      40.671  28.246  29.582  1.00  0.00    -0.354 N 
ATOM     19  C   UNL A   1      39.544  30.942  32.641  1.00  0.00     0.074 A 
ATOM     20  C   UNL A   1      38.422  31.780  32.284  1.00  0.00     0.031 C 
ATOM     21  C   UNL A   1      40.503  27.097  27.681  1.00  0.00     0.029 A 
ATOM     22  C   UNL A   1      41.327  27.266  28.831  1.00  0.00     0.049 A 
ATOM     23  H   UNL A   1      41.000  28.548  30.459  1.00  0.00     0.167 HD
ATOM     24  C   UNL A   1      40.167  30.994  33.834  1.00  0.00     0.037 A 
ATOM     25  C   UNL A   1      42.466  26.556  28.956  1.00  0.00     0.037 A 
ATOM     26  C   UNL A   1      41.357  30.268  34.156  1.00  0.00     0.049 A 
ATOM     27  C   UNL A   1      43.241  26.775  30.198  1.00  0.00     0.074 A 
ATOM     28  C   UNL A   1      42.120  30.357  35.302  1.00  0.00     0.029 A 
ATOM     29  N   UNL A   1      41.987  29.362  33.315  1.00  0.00    -0.354 N 
ATOM     30  N   UNL A   1      42.927  27.543  31.207  1.00  0.00    -0.248 NA
ATOM     31  C   UNL A   1      44.501  26.042  30.342  1.00  0.00     0.031 C 
ATOM     32  C   UNL A   1      43.248  29.550  35.132  1.00  0.00     0.029 A 
ATOM     33  C   UNL A   1      43.154  28.908  33.907  1.00  0.00     0.049 A 
ATOM     34  H   UNL A   1      41.655  29.083  32.431  1.00  0.00     0.167 HD
ATOM     35  C   UNL A   1      43.932  27.361  32.130  1.00  0.00     0.074 A 
ATOM     36  C   UNL A   1      44.856  26.394  31.568  1.00  0.00     0.031 C 
ATOM     37  C   UNL A   1      44.064  27.951  33.337  1.00  0.00     0.037 A 
BRANCH  24  38
ATOM     38  C   UNL A   1      39.561  31.948  34.806  1.00  0.00     0.057 A 
ATOM     39  C   UNL A   1      38.532  31.546  35.672  1.00  0.00     0.134 A 
ATOM     40  C   UNL A   1      39.881  33.307  34.748  1.00  0.00     0.134 A 
ATOM     41  F   UNL A   1      38.136  30.263  35.710  1.00  0.00    -0.206 F 
ATOM     42  C   UNL A   1      37.818  32.475  36.424  1.00  0.00     0.040 A 
ATOM     43  C   UNL A   1      39.191  34.240  35.516  1.00  0.00     0.040 A 
ATOM     44  F   UNL A   1      40.823  33.750  33.902  1.00  0.00    -0.206 F 
ATOM     45  C   UNL A   1      38.149  33.827  36.347  1.00  0.00     0.006 A 
ENDBRANCH  24  38
BRANCH  25  46
ATOM     46  C   UNL A   1      42.955  25.596  27.905  1.00  0.00     0.057 A 
ATOM     47  C   UNL A   1      43.713  26.029  26.808  1.00  0.00     0.134 A 
ATOM     48  C   UNL A   1      42.628  24.230  27.937  1.00  0.00     0.134 A 
ATOM     49  F   UNL A   1      44.062  27.319  26.697  1.00  0.00    -0.206 F 
ATOM     50  C   UNL A   1      44.085  25.163  25.770  1.00  0.00     0.040 A 
ATOM     51  C   UNL A   1      43.019  23.346  26.923  1.00  0.00     0.040 A 
ATOM     52  F   UNL A   1      41.925  23.726  28.961  1.00  0.00    -0.206 F 
ATOM     53  C   UNL A   1      43.736  23.816  25.826  1.00  0.00     0.006 A 
ENDBRANCH  25  46
BRANCH  37  54
ATOM     54  C   UNL A   1      45.243  27.527  34.143  1.00  0.00     0.057 A 
ATOM     55  C   UNL A   1      46.470  28.196  34.070  1.00  0.00     0.134 A 
ATOM     56  C   UNL A   1      45.136  26.436  35.011  1.00  0.00     0.134 A 
ATOM     57  F   UNL A   1      46.636  29.227  33.226  1.00  0.00    -0.206 F 
ATOM     58  C   UNL A   1      47.562  27.780  34.826  1.00  0.00     0.040 A 
ATOM     59  C   UNL A   1      46.210  26.033  35.797  1.00  0.00     0.040 A 
ATOM     60  F   UNL A   1      43.985  25.753  35.110  1.00  0.00    -0.206 F 
ATOM     61  C   UNL A   1      47.429  26.703  35.700  1.00  0.00     0.006 A 
ENDBRANCH  37  54
ENDBRANCH  11  12
ENDBRANCH   4   6
ENDBRANCH   3   4
ENDBRANCH   2   3
ENDBRANCH   1   2
BRANCH   1  62
ATOM     62  O   UNL A   1      31.870  28.105  25.588  1.00  0.00    -0.462 OA
BRANCH  62  63
ATOM     63  C   UNL A   1      32.039  27.384  26.733  1.00  0.00     0.309 C 
ATOM     64  O   UNL A   1      31.502  27.621  27.811  1.00  0.00    -0.252 OA
BRANCH  63  65
ATOM     65  C   UNL A   1      32.923  26.193  26.424  1.00  0.00     0.111 C 
ATOM     66  C   UNL A   1      33.762  26.144  25.140  1.00  0.00     0.016 C 
ATOM     67  C   UNL A   1      32.135  24.905  26.594  1.00  0.00     0.093 C 
ATOM     68  C   UNL A   1      34.720  24.950  25.016  1.00  0.00     0.001 C 
ATOM     69  C   UNL A   1      33.221  23.771  26.639  1.00  0.00     0.014 C 
ATOM     70  C   UNL A   1      34.125  23.624  25.436  1.00  0.00     0.001 C 
BRANCH  67  71
ATOM     71  C   UNL A   1      30.566  24.750  26.178  1.00  0.00     0.228 C 
ATOM     72  O   UNL A   1      29.762  24.232  26.965  1.00  0.00    -0.274 OA
ATOM     73  N   UNL A   1      29.808  25.159  25.156  1.00  0.00    -0.326 N 
ATOM     74  H   UNL A   1      28.862  24.912  25.272  1.00  0.00     0.169 HD
BRANCH  73  75
ATOM     75  C   UNL A   1      30.027  25.835  23.990  1.00  0.00     0.041 A 
ATOM     76  C   UNL A   1      29.275  26.982  23.760  1.00  0.00     0.026 A 
ATOM     77  C   UNL A   1      31.003  25.430  23.117  1.00  0.00     0.039 A 
ATOM     78  C   UNL A   1      29.710  27.877  22.796  1.00  0.00     0.003 A 
ATOM     79  C   UNL A   1      31.487  26.332  22.176  1.00  0.00     0.058 A 
ATOM     80  C   UNL A   1      30.852  27.577  22.048  1.00  0.00     0.013 A 
BRANCH  79  81
ATOM     81  C   UNL A   1      32.757  26.010  21.439  1.00  0.00     0.416 C 
ATOM     82  F   UNL A   1      33.433  24.960  21.971  1.00  0.00    -0.166 F 
ATOM     83  F   UNL A   1      32.537  25.701  20.133  1.00  0.00    -0.166 F 
ATOM     84  F   UNL A   1      33.638  27.053  21.424  1.00  0.00    -0.166 F 
ENDBRANCH  79  81
ENDBRANCH  73  75
ENDBRANCH  67  71
ENDBRANCH  63  65
ENDBRANCH  62  63
ENDBRANCH   1  62
TORSDOF 14
ENDMDL
MODEL 3
REMARK VINA RESULT:     -11.9      4.399      8.906
REMARK SMILES O=C(OCCOC(=O)[C@@H]1CCCC[C@@H]1C(=O)Nc1cccc(C(F)(F)F)c1)c1ccc(-c2c3nc(c(-c4c(F)cccc4F)c4ccc([nH]4)c(-c4c(F)cccc4F)c4nc(c(-c5c(F)cccc5F)c5ccc2[nH]5)C=C4)C=C3)cc1
REMARK SMILES IDX 5 1 4 2 3 3 2 4 1 5 28 6 29 7 81 8 30 9 80 10 31 11 32 12
REMARK SMILES IDX 33 13 74 14 34 15 79 16 73 17 75 18 35 19 78 20 72 21 71 22
REMARK SMILES IDX 36 24 62 25 45 26 61 27 46 28 49 29 60 30 76 31 47 32 48 33
REMARK SMILES IDX 59 35 77 36 50 37 37 38 38 39 43 40 39 41 40 42 42 43 44 44
REMARK SMILES IDX 41 45 63 46 64 47 69 48 65 49 66 50 68 51 70 52 67 53 51 54
REMARK SMILES IDX 52 55 57 56 53 57 54 58 56 59 58 60 55 61 6 62 7 63 8 64
REMARK SMILES IDX 9 65 10 66 14 67 11 68 13 69 12 70 15 71 16 72 17 73 18 75
REMARK SMILES IDX 19 76 27 77 20 78 22 79 21 80 23 81 24 82 25 83 26 84
REMARK H PARENT 75 23 49 34 17 74
REMARK Flexibility Score: inf
ROOT
ATOM      1  C   UNL A   1      35.314  22.301  26.261  1.00  0.00     0.274 C 
ENDROOT
BRANCH   1   2
ATOM      2  C   UNL A   1      35.740  21.055  25.483  1.00  0.00     0.275 C 
BRANCH   2   3
ATOM      3  O   UNL A   1      37.072  21.124  24.921  1.00  0.00    -0.458 OA
BRANCH   3   4
ATOM      4  C   UNL A   1      38.301  21.005  25.486  1.00  0.00     0.338 C 
ATOM      5  O   UNL A   1      38.828  19.892  25.469  1.00  0.00    -0.246 OA
BRANCH   4   6
ATOM      6  C   UNL A   1      39.062  22.110  26.181  1.00  0.00     0.060 A 
ATOM      7  C   UNL A   1      40.270  21.994  26.860  1.00  0.00     0.016 A 
ATOM      8  C   UNL A   1      38.519  23.410  26.109  1.00  0.00     0.016 A 
ATOM      9  C   UNL A   1      41.022  23.154  27.205  1.00  0.00     0.010 A 
ATOM     10  C   UNL A   1      39.282  24.560  26.440  1.00  0.00     0.010 A 
ATOM     11  C   UNL A   1      40.629  24.458  26.825  1.00  0.00    -0.014 A 
BRANCH  11  12
ATOM     12  C   UNL A   1      41.539  25.696  27.032  1.00  0.00     0.031 A 
ATOM     13  C   UNL A   1      40.851  26.779  27.795  1.00  0.00     0.074 A 
ATOM     14  C   UNL A   1      42.844  25.960  26.663  1.00  0.00     0.049 A 
ATOM     15  N   UNL A   1      41.328  27.913  28.225  1.00  0.00    -0.248 NA
ATOM     16  C   UNL A   1      39.435  26.540  28.124  1.00  0.00     0.031 C 
ATOM     17  C   UNL A   1      43.754  25.115  25.920  1.00  0.00     0.029 A 
ATOM     18  N   UNL A   1      43.691  27.058  26.853  1.00  0.00    -0.354 N 
ATOM     19  C   UNL A   1      40.294  28.486  28.932  1.00  0.00     0.074 A 
ATOM     20  C   UNL A   1      39.139  27.626  28.806  1.00  0.00     0.031 C 
ATOM     21  C   UNL A   1      44.970  25.615  25.737  1.00  0.00     0.029 A 
ATOM     22  C   UNL A   1      44.966  26.925  26.296  1.00  0.00     0.049 A 
ATOM     23  H   UNL A   1      43.409  27.864  27.342  1.00  0.00     0.167 HD
ATOM     24  C   UNL A   1      40.305  29.624  29.652  1.00  0.00     0.037 A 
ATOM     25  C   UNL A   1      46.053  27.715  26.175  1.00  0.00     0.037 A 
ATOM     26  C   UNL A   1      41.393  30.552  29.681  1.00  0.00     0.049 A 
ATOM     27  C   UNL A   1      45.968  29.048  26.814  1.00  0.00     0.074 A 
ATOM     28  C   UNL A   1      41.437  31.789  30.290  1.00  0.00     0.029 A 
ATOM     29  N   UNL A   1      42.607  30.372  29.033  1.00  0.00    -0.354 N 
ATOM     30  N   UNL A   1      44.981  29.532  27.519  1.00  0.00    -0.248 NA
ATOM     31  C   UNL A   1      47.123  29.936  26.667  1.00  0.00     0.031 C 
ATOM     32  C   UNL A   1      42.656  32.388  29.961  1.00  0.00     0.029 A 
ATOM     33  C   UNL A   1      43.398  31.498  29.202  1.00  0.00     0.049 A 
ATOM     34  H   UNL A   1      42.869  29.567  28.530  1.00  0.00     0.167 HD
ATOM     35  C   UNL A   1      45.404  30.773  27.936  1.00  0.00     0.074 A 
ATOM     36  C   UNL A   1      46.748  30.959  27.420  1.00  0.00     0.031 C 
ATOM     37  C   UNL A   1      44.728  31.671  28.682  1.00  0.00     0.037 A 
BRANCH  24  38
ATOM     38  C   UNL A   1      39.035  29.905  30.381  1.00  0.00     0.057 A 
ATOM     39  C   UNL A   1      38.788  29.348  31.646  1.00  0.00     0.134 A 
ATOM     40  C   UNL A   1      37.992  30.581  29.742  1.00  0.00     0.134 A 
ATOM     41  F   UNL A   1      39.732  28.626  32.269  1.00  0.00    -0.206 F 
ATOM     42  C   UNL A   1      37.528  29.428  32.234  1.00  0.00     0.040 A 
ATOM     43  C   UNL A   1      36.737  30.687  30.334  1.00  0.00     0.040 A 
ATOM     44  F   UNL A   1      38.163  31.088  28.512  1.00  0.00    -0.206 F 
ATOM     45  C   UNL A   1      36.499  30.100  31.577  1.00  0.00     0.006 A 
ENDBRANCH  24  38
BRANCH  25  46
ATOM     46  C   UNL A   1      47.292  27.297  25.431  1.00  0.00     0.057 A 
ATOM     47  C   UNL A   1      48.358  26.653  26.078  1.00  0.00     0.134 A 
ATOM     48  C   UNL A   1      47.472  27.582  24.068  1.00  0.00     0.134 A 
ATOM     49  F   UNL A   1      48.271  26.351  27.381  1.00  0.00    -0.206 F 
ATOM     50  C   UNL A   1      49.558  26.353  25.419  1.00  0.00     0.040 A 
ATOM     51  C   UNL A   1      48.654  27.260  23.388  1.00  0.00     0.040 A 
ATOM     52  F   UNL A   1      46.496  28.177  23.366  1.00  0.00    -0.206 F 
ATOM     53  C   UNL A   1      49.709  26.659  24.069  1.00  0.00     0.006 A 
ENDBRANCH  25  46
BRANCH  37  54
ATOM     54  C   UNL A   1      45.460  32.925  29.014  1.00  0.00     0.057 A 
ATOM     55  C   UNL A   1      45.379  34.066  28.208  1.00  0.00     0.134 A 
ATOM     56  C   UNL A   1      46.249  32.985  30.167  1.00  0.00     0.134 A 
ATOM     57  F   UNL A   1      44.664  34.049  27.072  1.00  0.00    -0.206 F 
ATOM     58  C   UNL A   1      46.076  35.226  28.532  1.00  0.00     0.040 A 
ATOM     59  C   UNL A   1      46.923  34.150  30.519  1.00  0.00     0.040 A 
ATOM     60  F   UNL A   1      46.371  31.915  30.968  1.00  0.00    -0.206 F 
ATOM     61  C   UNL A   1      46.841  35.273  29.696  1.00  0.00     0.006 A 
ENDBRANCH  37  54
ENDBRANCH  11  12
ENDBRANCH   4   6
ENDBRANCH   3   4
ENDBRANCH   2   3
ENDBRANCH   1   2
BRANCH   1  62
ATOM     62  O   UNL A   1      34.461  23.101  25.451  1.00  0.00    -0.462 OA
BRANCH  62  63
ATOM     63  C   UNL A   1      34.984  24.071  24.647  1.00  0.00     0.309 C 
ATOM     64  O   UNL A   1      35.835  23.898  23.782  1.00  0.00    -0.252 OA
BRANCH  63  65
ATOM     65  C   UNL A   1      34.268  25.374  24.941  1.00  0.00     0.111 C 
ATOM     66  C   UNL A   1      33.178  25.452  26.018  1.00  0.00     0.016 C 
ATOM     67  C   UNL A   1      33.780  26.000  23.645  1.00  0.00     0.093 C 
ATOM     68  C   UNL A   1      32.633  26.856  26.315  1.00  0.00     0.001 C 
ATOM     69  C   UNL A   1      33.426  27.483  24.023  1.00  0.00     0.014 C 
ATOM     70  C   UNL A   1      32.371  27.698  25.085  1.00  0.00     0.001 C 
BRANCH  67  71
ATOM     71  C   UNL A   1      33.193  25.135  22.395  1.00  0.00     0.228 C 
ATOM     72  O   UNL A   1      33.418  25.493  21.230  1.00  0.00    -0.274 OA
ATOM     73  N   UNL A   1      32.551  23.970  22.261  1.00  0.00    -0.326 N 
ATOM     74  H   UNL A   1      32.394  23.737  21.318  1.00  0.00     0.169 HD
BRANCH  73  75
ATOM     75  C   UNL A   1      32.060  23.025  23.116  1.00  0.00     0.041 A 
ATOM     76  C   UNL A   1      32.488  21.714  22.941  1.00  0.00     0.026 A 
ATOM     77  C   UNL A   1      31.231  23.378  24.150  1.00  0.00     0.039 A 
ATOM     78  C   UNL A   1      32.312  20.815  23.980  1.00  0.00     0.003 A 
ATOM     79  C   UNL A   1      31.083  22.509  25.225  1.00  0.00     0.058 A 
ATOM     80  C   UNL A   1      31.663  21.233  25.145  1.00  0.00     0.013 A 
BRANCH  79  81
ATOM     81  C   UNL A   1      30.444  23.011  26.490  1.00  0.00     0.416 C 
ATOM     82  F   UNL A   1      29.978  24.282  26.386  1.00  0.00    -0.166 F 
ATOM     83  F   UNL A   1      29.388  22.248  26.878  1.00  0.00    -0.166 F 
ATOM     84  F   UNL A   1      31.303  23.013  27.551  1.00  0.00    -0.166 F 
ENDBRANCH  79  81
ENDBRANCH  73  75
ENDBRANCH  67  71
ENDBRANCH  63  65
ENDBRANCH  62  63
ENDBRANCH   1  62
TORSDOF 14
ENDMDL
