MODEL 1
REMARK VINA RESULT:     -12.2      0.000      0.000
REMARK SMILES Nc1ccc(C(=O)N2Cc3nc[nH]c3C[C@H]2C(=O)OCCOC(=O)c2ccc(-c3c4nc(c(-c5c(F)cccc5F)c5ccc([nH]5)c(-c5c(F)cccc5F)c5nc(c(-c6c(F)cccc6F)c6ccc3[nH]6)C=C5)C=C4)cc2)cc1
REMARK SMILES IDX 20 1 19 2 17 3 18 4 16 5 8 6 9 7 10 8 15 9 11 10 14 11 12 12
REMARK SMILES IDX 13 13 6 15 7 16 5 17 2 18 3 19 80 20 4 21 79 22 1 23 21 26
REMARK SMILES IDX 22 27 23 28 24 29 25 30 26 31 78 32 27 33 77 34 28 35 29 36
REMARK SMILES IDX 30 37 71 38 31 39 76 40 70 41 72 42 32 43 75 44 69 45 68 46
REMARK SMILES IDX 33 48 59 49 42 50 58 51 43 52 46 53 57 54 73 55 44 56 45 57
REMARK SMILES IDX 56 59 74 60 47 61 34 62 35 63 40 64 36 65 37 66 39 67 41 68
REMARK SMILES IDX 38 69 60 70 61 71 66 72 62 73 63 74 65 75 67 76 64 77 48 78
REMARK SMILES IDX 49 79 54 80 50 81 51 82 53 83 55 84 52 85
REMARK H PARENT 13 14 1 24 1 25 72 47 46 58
REMARK Flexibility Score: inf
ROOT
ATOM      1  C   UNL A   1      33.544  30.110  26.903  1.00  0.00     0.274 C 
ENDROOT
BRANCH   1   2
ATOM      2  O   UNL A   1      33.024  29.716  25.615  1.00  0.00    -0.461 OA
BRANCH   2   3
ATOM      3  C   UNL A   1      32.729  28.396  25.451  1.00  0.00     0.329 C 
ATOM      4  O   UNL A   1      32.228  27.694  26.328  1.00  0.00    -0.250 OA
BRANCH   3   5
ATOM      5  C   UNL A   1      33.236  27.797  24.119  1.00  0.00     0.201 C 
ATOM      6  N   UNL A   1      32.647  26.515  23.629  1.00  0.00    -0.318 N 
ATOM      7  C   UNL A   1      31.254  26.493  23.141  1.00  0.00     0.179 C 
ATOM      8  C   UNL A   1      30.853  27.842  22.642  1.00  0.00     0.081 A 
ATOM      9  C   UNL A   1      33.100  28.930  23.061  1.00  0.00     0.093 C 
ATOM     10  N   UNL A   1      29.581  28.201  22.281  1.00  0.00    -0.240 NA
ATOM     11  C   UNL A   1      31.686  28.939  22.610  1.00  0.00     0.042 A 
ATOM     12  C   UNL A   1      29.649  29.493  22.031  1.00  0.00     0.197 A 
ATOM     13  N   UNL A   1      30.915  29.987  22.214  1.00  0.00    -0.348 N 
ATOM     14  H   UNL A   1      31.208  30.918  22.085  1.00  0.00     0.167 HD
BRANCH   6  15
ATOM     15  C   UNL A   1      33.529  25.583  23.088  1.00  0.00     0.254 C 
ATOM     16  O   UNL A   1      34.028  25.718  21.976  1.00  0.00    -0.269 OA
BRANCH  15  17
ATOM     17  C   UNL A   1      33.956  24.471  23.994  1.00  0.00     0.040 A 
ATOM     18  C   UNL A   1      35.008  22.451  25.667  1.00  0.00     0.031 A 
ATOM     19  C   UNL A   1      34.933  22.263  24.286  1.00  0.00     0.026 A 
ATOM     20  C   UNL A   1      34.469  23.618  26.207  1.00  0.00     0.026 A 
ATOM     21  C   UNL A   1      34.421  23.268  23.449  1.00  0.00     0.016 A 
ATOM     22  C   UNL A   1      33.950  24.619  25.380  1.00  0.00     0.016 A 
BRANCH  18  23
ATOM     23  N   UNL A   1      35.508  21.463  26.498  1.00  0.00    -0.399 N 
ATOM     24  H   UNL A   1      35.204  20.533  26.396  1.00  0.00     0.156 HD
ATOM     25  H   UNL A   1      36.170  21.692  27.190  1.00  0.00     0.156 HD
ENDBRANCH  18  23
ENDBRANCH  15  17
ENDBRANCH   6  15
ENDBRANCH   3   5
ENDBRANCH   2   3
ENDBRANCH   1   2
BRANCH   1  26
ATOM     26  C   UNL A   1      34.946  29.561  27.196  1.00  0.00     0.275 C 
BRANCH  26  27
ATOM     27  O   UNL A   1      35.370  29.678  28.565  1.00  0.00    -0.458 OA
BRANCH  27  28
ATOM     28  C   UNL A   1      36.391  30.535  28.705  1.00  0.00     0.338 C 
ATOM     29  O   UNL A   1      36.457  31.673  28.238  1.00  0.00    -0.246 OA
BRANCH  28  30
ATOM     30  C   UNL A   1      37.599  29.961  29.271  1.00  0.00     0.060 A 
ATOM     31  C   UNL A   1      38.793  30.465  28.752  1.00  0.00     0.016 A 
ATOM     32  C   UNL A   1      37.535  28.710  29.893  1.00  0.00     0.016 A 
ATOM     33  C   UNL A   1      39.886  29.632  28.692  1.00  0.00     0.010 A 
ATOM     34  C   UNL A   1      38.652  27.887  29.857  1.00  0.00     0.010 A 
ATOM     35  C   UNL A   1      39.798  28.321  29.185  1.00  0.00    -0.014 A 
BRANCH  35  36
ATOM     36  C   UNL A   1      41.029  27.526  29.141  1.00  0.00     0.031 A 
ATOM     37  C   UNL A   1      41.905  27.805  30.313  1.00  0.00     0.074 A 
ATOM     38  C   UNL A   1      41.306  26.585  28.211  1.00  0.00     0.049 A 
ATOM     39  N   UNL A   1      43.159  28.116  30.310  1.00  0.00    -0.248 NA
ATOM     40  C   UNL A   1      41.262  27.906  31.641  1.00  0.00     0.031 C 
ATOM     41  C   UNL A   1      40.415  26.146  27.134  1.00  0.00     0.029 A 
ATOM     42  N   UNL A   1      42.383  25.740  28.080  1.00  0.00    -0.354 N 
ATOM     43  C   UNL A   1      43.505  28.222  31.655  1.00  0.00     0.074 A 
ATOM     44  C   UNL A   1      42.286  28.272  32.409  1.00  0.00     0.031 C 
ATOM     45  C   UNL A   1      40.869  24.981  26.625  1.00  0.00     0.029 A 
ATOM     46  C   UNL A   1      42.129  24.635  27.265  1.00  0.00     0.049 A 
ATOM     47  H   UNL A   1      43.250  25.899  28.519  1.00  0.00     0.167 HD
ATOM     48  C   UNL A   1      44.754  27.882  32.060  1.00  0.00     0.037 A 
ATOM     49  C   UNL A   1      42.847  23.488  27.153  1.00  0.00     0.037 A 
ATOM     50  C   UNL A   1      45.706  28.005  30.992  1.00  0.00     0.049 A 
ATOM     51  C   UNL A   1      44.201  23.723  27.694  1.00  0.00     0.074 A 
ATOM     52  C   UNL A   1      46.370  29.024  30.348  1.00  0.00     0.029 A 
ATOM     53  N   UNL A   1      45.814  26.891  30.212  1.00  0.00    -0.354 N 
ATOM     54  N   UNL A   1      45.132  24.379  27.066  1.00  0.00    -0.248 NA
ATOM     55  C   UNL A   1      44.478  23.426  29.097  1.00  0.00     0.031 C 
ATOM     56  C   UNL A   1      46.814  28.495  29.101  1.00  0.00     0.029 A 
ATOM     57  C   UNL A   1      46.428  27.161  29.022  1.00  0.00     0.049 A 
ATOM     58  H   UNL A   1      45.488  25.999  30.475  1.00  0.00     0.167 HD
ATOM     59  C   UNL A   1      45.869  24.954  28.078  1.00  0.00     0.074 A 
ATOM     60  C   UNL A   1      45.561  24.184  29.274  1.00  0.00     0.031 C 
ATOM     61  C   UNL A   1      46.355  26.216  27.933  1.00  0.00     0.037 A 
BRANCH  48  62
ATOM     62  C   UNL A   1      44.983  26.914  33.205  1.00  0.00     0.057 A 
ATOM     63  C   UNL A   1      45.810  27.306  34.271  1.00  0.00     0.134 A 
ATOM     64  C   UNL A   1      44.699  25.530  33.149  1.00  0.00     0.134 A 
ATOM     65  F   UNL A   1      46.185  28.585  34.414  1.00  0.00    -0.206 F 
ATOM     66  C   UNL A   1      46.350  26.385  35.179  1.00  0.00     0.040 A 
ATOM     67  C   UNL A   1      45.190  24.612  34.079  1.00  0.00     0.040 A 
ATOM     68  F   UNL A   1      44.025  24.970  32.138  1.00  0.00    -0.206 F 
ATOM     69  C   UNL A   1      46.043  25.033  35.083  1.00  0.00     0.006 A 
ENDBRANCH  48  62
BRANCH  49  70
ATOM     70  C   UNL A   1      42.460  22.123  26.712  1.00  0.00     0.057 A 
ATOM     71  C   UNL A   1      43.221  21.433  25.749  1.00  0.00     0.134 A 
ATOM     72  C   UNL A   1      41.511  21.355  27.403  1.00  0.00     0.134 A 
ATOM     73  F   UNL A   1      44.170  22.061  25.043  1.00  0.00    -0.206 F 
ATOM     74  C   UNL A   1      43.080  20.058  25.526  1.00  0.00     0.040 A 
ATOM     75  C   UNL A   1      41.350  19.982  27.177  1.00  0.00     0.040 A 
ATOM     76  F   UNL A   1      40.768  21.886  28.383  1.00  0.00    -0.206 F 
ATOM     77  C   UNL A   1      42.151  19.324  26.252  1.00  0.00     0.006 A 
ENDBRANCH  49  70
BRANCH  61  78
ATOM     78  C   UNL A   1      46.675  26.671  26.548  1.00  0.00     0.057 A 
ATOM     79  C   UNL A   1      45.808  27.393  25.719  1.00  0.00     0.134 A 
ATOM     80  C   UNL A   1      47.948  26.375  26.045  1.00  0.00     0.134 A 
ATOM     81  F   UNL A   1      44.598  27.784  26.148  1.00  0.00    -0.206 F 
ATOM     82  C   UNL A   1      46.180  27.758  24.422  1.00  0.00     0.040 A 
ATOM     83  C   UNL A   1      48.345  26.769  24.769  1.00  0.00     0.040 A 
ATOM     84  F   UNL A   1      48.839  25.712  26.800  1.00  0.00    -0.206 F 
ATOM     85  C   UNL A   1      47.453  27.451  23.946  1.00  0.00     0.006 A 
ENDBRANCH  61  78
ENDBRANCH  35  36
ENDBRANCH  28  30
ENDBRANCH  27  28
ENDBRANCH  26  27
ENDBRANCH   1  26
TORSDOF 14
ENDMDL
MODEL 2
REMARK VINA RESULT:     -12.1      4.696      9.577
REMARK SMILES Nc1ccc(C(=O)N2Cc3nc[nH]c3C[C@H]2C(=O)OCCOC(=O)c2ccc(-c3c4nc(c(-c5c(F)cccc5F)c5ccc([nH]5)c(-c5c(F)cccc5F)c5nc(c(-c6c(F)cccc6F)c6ccc3[nH]6)C=C5)C=C4)cc2)cc1
REMARK SMILES IDX 20 1 19 2 17 3 18 4 16 5 8 6 9 7 10 8 15 9 11 10 14 11 12 12
REMARK SMILES IDX 13 13 6 15 7 16 5 17 2 18 3 19 80 20 4 21 79 22 1 23 21 26
REMARK SMILES IDX 22 27 23 28 24 29 25 30 26 31 78 32 27 33 77 34 28 35 29 36
REMARK SMILES IDX 30 37 71 38 31 39 76 40 70 41 72 42 32 43 75 44 69 45 68 46
REMARK SMILES IDX 33 48 59 49 42 50 58 51 43 52 46 53 57 54 73 55 44 56 45 57
REMARK SMILES IDX 56 59 74 60 47 61 34 62 35 63 40 64 36 65 37 66 39 67 41 68
REMARK SMILES IDX 38 69 60 70 61 71 66 72 62 73 63 74 65 75 67 76 64 77 48 78
REMARK SMILES IDX 49 79 54 80 50 81 51 82 53 83 55 84 52 85
REMARK H PARENT 13 14 1 24 1 25 72 47 46 58
REMARK Flexibility Score: inf
ROOT
ATOM      1  C   UNL A   1      37.789  22.712  25.765  1.00  0.00     0.274 C 
ENDROOT
BRANCH   1   2
ATOM      2  O   UNL A   1      36.487  22.181  26.089  1.00  0.00    -0.461 OA
BRANCH   2   3
ATOM      3  C   UNL A   1      35.421  22.734  25.444  1.00  0.00     0.329 C 
ATOM      4  O   UNL A   1      35.462  23.144  24.285  1.00  0.00    -0.250 OA
BRANCH   3   5
ATOM      5  C   UNL A   1      34.189  22.968  26.349  1.00  0.00     0.201 C 
ATOM      6  N   UNL A   1      32.911  23.429  25.728  1.00  0.00    -0.318 N 
ATOM      7  C   UNL A   1      32.142  22.504  24.871  1.00  0.00     0.179 C 
ATOM      8  C   UNL A   1      32.427  21.087  25.243  1.00  0.00     0.081 A 
ATOM      9  C   UNL A   1      33.991  21.650  27.152  1.00  0.00     0.093 C 
ATOM     10  N   UNL A   1      32.009  19.989  24.538  1.00  0.00    -0.240 NA
ATOM     11  C   UNL A   1      33.263  20.705  26.269  1.00  0.00     0.042 A 
ATOM     12  C   UNL A   1      32.581  18.963  25.134  1.00  0.00     0.197 A 
ATOM     13  N   UNL A   1      33.353  19.350  26.199  1.00  0.00    -0.348 N 
ATOM     14  H   UNL A   1      33.871  18.762  26.795  1.00  0.00     0.167 HD
BRANCH   6  15
ATOM     15  C   UNL A   1      32.198  24.411  26.411  1.00  0.00     0.254 C 
ATOM     16  O   UNL A   1      31.442  24.148  27.340  1.00  0.00    -0.269 OA
BRANCH  15  17
ATOM     17  C   UNL A   1      32.509  25.829  26.049  1.00  0.00     0.040 A 
ATOM     18  C   UNL A   1      32.945  28.475  25.158  1.00  0.00     0.031 A 
ATOM     19  C   UNL A   1      33.721  27.423  24.669  1.00  0.00     0.026 A 
ATOM     20  C   UNL A   1      32.015  28.203  26.160  1.00  0.00     0.026 A 
ATOM     21  C   UNL A   1      33.502  26.105  25.101  1.00  0.00     0.016 A 
ATOM     22  C   UNL A   1      31.797  26.893  26.601  1.00  0.00     0.016 A 
BRANCH  18  23
ATOM     23  N   UNL A   1      33.158  29.778  24.739  1.00  0.00    -0.399 N 
ATOM     24  H   UNL A   1      32.684  30.519  25.178  1.00  0.00     0.156 HD
ATOM     25  H   UNL A   1      33.787  29.961  24.004  1.00  0.00     0.156 HD
ENDBRANCH  18  23
ENDBRANCH  15  17
ENDBRANCH   6  15
ENDBRANCH   3   5
ENDBRANCH   2   3
ENDBRANCH   1   2
BRANCH   1  26
ATOM     26  C   UNL A   1      38.099  24.047  26.456  1.00  0.00     0.275 C 
BRANCH  26  27
ATOM     27  O   UNL A   1      39.110  23.981  27.477  1.00  0.00    -0.458 OA
BRANCH  27  28
ATOM     28  C   UNL A   1      40.318  24.330  27.013  1.00  0.00     0.338 C 
ATOM     29  O   UNL A   1      41.138  23.582  26.481  1.00  0.00    -0.246 OA
BRANCH  28  30
ATOM     30  C   UNL A   1      40.756  25.663  27.389  1.00  0.00     0.060 A 
ATOM     31  C   UNL A   1      41.036  25.833  28.745  1.00  0.00     0.016 A 
ATOM     32  C   UNL A   1      40.444  26.744  26.558  1.00  0.00     0.016 A 
ATOM     33  C   UNL A   1      40.821  27.068  29.310  1.00  0.00     0.010 A 
ATOM     34  C   UNL A   1      40.260  27.995  27.130  1.00  0.00     0.010 A 
ATOM     35  C   UNL A   1      40.370  28.135  28.516  1.00  0.00    -0.014 A 
BRANCH  35  36
ATOM     36  C   UNL A   1      40.232  29.432  29.187  1.00  0.00     0.031 A 
ATOM     37  C   UNL A   1      41.537  30.142  29.285  1.00  0.00     0.074 A 
ATOM     38  C   UNL A   1      39.058  29.970  29.588  1.00  0.00     0.049 A 
ATOM     39  N   UNL A   1      42.083  30.657  30.336  1.00  0.00    -0.248 NA
ATOM     40  C   UNL A   1      42.412  30.135  28.093  1.00  0.00     0.031 C 
ATOM     41  C   UNL A   1      37.726  29.400  29.370  1.00  0.00     0.029 A 
ATOM     42  N   UNL A   1      38.779  31.182  30.174  1.00  0.00    -0.354 N 
ATOM     43  C   UNL A   1      43.263  31.238  29.878  1.00  0.00     0.074 A 
ATOM     44  C   UNL A   1      43.507  30.733  28.558  1.00  0.00     0.031 C 
ATOM     45  C   UNL A   1      36.791  30.349  29.589  1.00  0.00     0.029 A 
ATOM     46  C   UNL A   1      37.441  31.564  30.054  1.00  0.00     0.049 A 
ATOM     47  H   UNL A   1      39.457  31.728  30.634  1.00  0.00     0.167 HD
ATOM     48  C   UNL A   1      43.736  32.364  30.470  1.00  0.00     0.037 A 
ATOM     49  C   UNL A   1      36.895  32.792  30.255  1.00  0.00     0.037 A 
ATOM     50  C   UNL A   1      43.278  32.478  31.826  1.00  0.00     0.049 A 
ATOM     51  C   UNL A   1      37.838  33.605  31.050  1.00  0.00     0.074 A 
ATOM     52  C   UNL A   1      43.583  31.909  33.042  1.00  0.00     0.029 A 
ATOM     53  N   UNL A   1      42.067  33.093  31.955  1.00  0.00    -0.354 N 
ATOM     54  N   UNL A   1      38.019  33.465  32.330  1.00  0.00    -0.248 NA
ATOM     55  C   UNL A   1      38.806  34.459  30.367  1.00  0.00     0.031 C 
ATOM     56  C   UNL A   1      42.459  32.138  33.889  1.00  0.00     0.029 A 
ATOM     57  C   UNL A   1      41.505  32.858  33.178  1.00  0.00     0.049 A 
ATOM     58  H   UNL A   1      41.649  33.641  31.252  1.00  0.00     0.167 HD
ATOM     59  C   UNL A   1      39.336  33.823  32.516  1.00  0.00     0.074 A 
ATOM     60  C   UNL A   1      39.699  34.606  31.345  1.00  0.00     0.031 C 
ATOM     61  C   UNL A   1      40.108  33.139  33.403  1.00  0.00     0.037 A 
BRANCH  48  62
ATOM     62  C   UNL A   1      44.101  33.594  29.661  1.00  0.00     0.057 A 
ATOM     63  C   UNL A   1      43.103  34.228  28.902  1.00  0.00     0.134 A 
ATOM     64  C   UNL A   1      45.424  33.978  29.347  1.00  0.00     0.134 A 
ATOM     65  F   UNL A   1      41.810  33.923  29.077  1.00  0.00    -0.206 F 
ATOM     66  C   UNL A   1      43.405  35.135  27.877  1.00  0.00     0.040 A 
ATOM     67  C   UNL A   1      45.733  34.920  28.363  1.00  0.00     0.040 A 
ATOM     68  F   UNL A   1      46.497  33.392  29.890  1.00  0.00    -0.206 F 
ATOM     69  C   UNL A   1      44.723  35.482  27.603  1.00  0.00     0.006 A 
ENDBRANCH  48  62
BRANCH  49  70
ATOM     70  C   UNL A   1      35.649  33.412  29.735  1.00  0.00     0.057 A 
ATOM     71  C   UNL A   1      34.716  34.000  30.610  1.00  0.00     0.134 A 
ATOM     72  C   UNL A   1      35.463  33.687  28.372  1.00  0.00     0.134 A 
ATOM     73  F   UNL A   1      34.807  33.822  31.935  1.00  0.00    -0.206 F 
ATOM     74  C   UNL A   1      33.696  34.848  30.160  1.00  0.00     0.040 A 
ATOM     75  C   UNL A   1      34.438  34.521  27.909  1.00  0.00     0.040 A 
ATOM     76  F   UNL A   1      36.321  33.232  27.448  1.00  0.00    -0.206 F 
ATOM     77  C   UNL A   1      33.563  35.122  28.805  1.00  0.00     0.006 A 
ENDBRANCH  49  70
BRANCH  61  78
ATOM     78  C   UNL A   1      39.420  32.529  34.580  1.00  0.00     0.057 A 
ATOM     79  C   UNL A   1      39.121  33.200  35.772  1.00  0.00     0.134 A 
ATOM     80  C   UNL A   1      39.022  31.191  34.477  1.00  0.00     0.134 A 
ATOM     81  F   UNL A   1      39.399  34.503  35.927  1.00  0.00    -0.206 F 
ATOM     82  C   UNL A   1      38.495  32.544  36.836  1.00  0.00     0.040 A 
ATOM     83  C   UNL A   1      38.361  30.538  35.516  1.00  0.00     0.040 A 
ATOM     84  F   UNL A   1      39.252  30.499  33.349  1.00  0.00    -0.206 F 
ATOM     85  C   UNL A   1      38.109  31.212  36.708  1.00  0.00     0.006 A 
ENDBRANCH  61  78
ENDBRANCH  35  36
ENDBRANCH  28  30
ENDBRANCH  27  28
ENDBRANCH  26  27
ENDBRANCH   1  26
TORSDOF 14
ENDMDL
MODEL 3
REMARK VINA RESULT:     -11.6      5.184     11.270
REMARK SMILES Nc1ccc(C(=O)N2Cc3nc[nH]c3C[C@H]2C(=O)OCCOC(=O)c2ccc(-c3c4nc(c(-c5c(F)cccc5F)c5ccc([nH]5)c(-c5c(F)cccc5F)c5nc(c(-c6c(F)cccc6F)c6ccc3[nH]6)C=C5)C=C4)cc2)cc1
REMARK SMILES IDX 20 1 19 2 17 3 18 4 16 5 8 6 9 7 10 8 15 9 11 10 14 11 12 12
REMARK SMILES IDX 13 13 6 15 7 16 5 17 2 18 3 19 80 20 4 21 79 22 1 23 21 26
REMARK SMILES IDX 22 27 23 28 24 29 25 30 26 31 78 32 27 33 77 34 28 35 29 36
REMARK SMILES IDX 30 37 71 38 31 39 76 40 70 41 72 42 32 43 75 44 69 45 68 46
REMARK SMILES IDX 33 48 59 49 42 50 58 51 43 52 46 53 57 54 73 55 44 56 45 57
REMARK SMILES IDX 56 59 74 60 47 61 34 62 35 63 40 64 36 65 37 66 39 67 41 68
REMARK SMILES IDX 38 69 60 70 61 71 66 72 62 73 63 74 65 75 67 76 64 77 48 78
REMARK SMILES IDX 49 79 54 80 50 81 51 82 53 83 55 84 52 85
REMARK H PARENT 13 14 1 24 1 25 72 47 46 58
REMARK Flexibility Score: inf
ROOT
ATOM      1  C   UNL A   1      40.484  21.034  26.834  1.00  0.00     0.274 C 
ENDROOT
BRANCH   1   2
ATOM      2  O   UNL A   1      41.820  21.295  26.356  1.00  0.00    -0.461 OA
BRANCH   2   3
ATOM      3  C   UNL A   1      42.603  22.100  27.129  1.00  0.00     0.329 C 
ATOM      4  O   UNL A   1      42.710  21.979  28.349  1.00  0.00    -0.250 OA
BRANCH   3   5
ATOM      5  C   UNL A   1      43.217  23.299  26.371  1.00  0.00     0.201 C 
ATOM      6  N   UNL A   1      44.524  23.856  26.832  1.00  0.00    -0.318 N 
ATOM      7  C   UNL A   1      45.759  23.068  26.645  1.00  0.00     0.179 C 
ATOM      8  C   UNL A   1      45.610  22.128  25.495  1.00  0.00     0.081 A 
ATOM      9  C   UNL A   1      43.272  22.876  24.874  1.00  0.00     0.093 C 
ATOM     10  N   UNL A   1      46.503  21.143  25.163  1.00  0.00    -0.240 NA
ATOM     11  C   UNL A   1      44.488  22.041  24.701  1.00  0.00     0.042 A 
ATOM     12  C   UNL A   1      45.929  20.478  24.181  1.00  0.00     0.197 A 
ATOM     13  N   UNL A   1      44.698  20.992  23.861  1.00  0.00    -0.348 N 
ATOM     14  H   UNL A   1      44.088  20.665  23.162  1.00  0.00     0.167 HD
BRANCH   6  15
ATOM     15  C   UNL A   1      44.646  25.243  26.849  1.00  0.00     0.254 C 
ATOM     16  O   UNL A   1      44.796  25.902  25.825  1.00  0.00    -0.269 OA
BRANCH  15  17
ATOM     17  C   UNL A   1      44.441  25.911  28.172  1.00  0.00     0.040 A 
ATOM     18  C   UNL A   1      44.033  27.398  30.540  1.00  0.00     0.031 A 
ATOM     19  C   UNL A   1      45.309  27.275  29.988  1.00  0.00     0.026 A 
ATOM     20  C   UNL A   1      42.984  26.696  29.947  1.00  0.00     0.026 A 
ATOM     21  C   UNL A   1      45.515  26.545  28.806  1.00  0.00     0.016 A 
ATOM     22  C   UNL A   1      43.185  25.962  28.774  1.00  0.00     0.016 A 
BRANCH  18  23
ATOM     23  N   UNL A   1      43.822  28.112  31.707  1.00  0.00    -0.399 N 
ATOM     24  H   UNL A   1      44.559  28.237  32.347  1.00  0.00     0.156 HD
ATOM     25  H   UNL A   1      42.936  28.496  31.896  1.00  0.00     0.156 HD
ENDBRANCH  18  23
ENDBRANCH  15  17
ENDBRANCH   6  15
ENDBRANCH   3   5
ENDBRANCH   2   3
ENDBRANCH   1   2
BRANCH   1  26
ATOM     26  C   UNL A   1      39.450  22.067  26.367  1.00  0.00     0.275 C 
BRANCH  26  27
ATOM     27  O   UNL A   1      39.938  23.417  26.281  1.00  0.00    -0.458 OA
BRANCH  27  28
ATOM     28  C   UNL A   1      39.085  24.297  26.825  1.00  0.00     0.338 C 
ATOM     29  O   UNL A   1      37.866  24.332  26.653  1.00  0.00    -0.246 OA
BRANCH  28  30
ATOM     30  C   UNL A   1      39.711  25.427  27.490  1.00  0.00     0.060 A 
ATOM     31  C   UNL A   1      39.377  25.580  28.836  1.00  0.00     0.016 A 
ATOM     32  C   UNL A   1      40.188  26.493  26.721  1.00  0.00     0.016 A 
ATOM     33  C   UNL A   1      39.346  26.849  29.364  1.00  0.00     0.010 A 
ATOM     34  C   UNL A   1      40.184  27.767  27.271  1.00  0.00     0.010 A 
ATOM     35  C   UNL A   1      39.686  27.952  28.563  1.00  0.00    -0.014 A 
BRANCH  35  36
ATOM     36  C   UNL A   1      39.689  29.260  29.226  1.00  0.00     0.031 A 
ATOM     37  C   UNL A   1      41.056  29.849  29.272  1.00  0.00     0.074 A 
ATOM     38  C   UNL A   1      38.585  29.905  29.662  1.00  0.00     0.049 A 
ATOM     39  N   UNL A   1      41.684  30.320  30.298  1.00  0.00    -0.248 NA
ATOM     40  C   UNL A   1      41.884  29.755  28.050  1.00  0.00     0.031 C 
ATOM     41  C   UNL A   1      37.199  29.456  29.496  1.00  0.00     0.029 A 
ATOM     42  N   UNL A   1      38.437  31.141  30.245  1.00  0.00    -0.354 N 
ATOM     43  C   UNL A   1      42.895  30.788  29.794  1.00  0.00     0.074 A 
ATOM     44  C   UNL A   1      43.044  30.254  28.471  1.00  0.00     0.031 C 
ATOM     45  C   UNL A   1      36.363  30.489  29.738  1.00  0.00     0.029 A 
ATOM     46  C   UNL A   1      37.136  31.643  30.169  1.00  0.00     0.049 A 
ATOM     47  H   UNL A   1      39.177  31.626  30.676  1.00  0.00     0.167 HD
ATOM     48  C   UNL A   1      43.488  31.870  30.358  1.00  0.00     0.037 A 
ATOM     49  C   UNL A   1      36.711  32.916  30.377  1.00  0.00     0.037 A 
ATOM     50  C   UNL A   1      43.091  32.034  31.728  1.00  0.00     0.049 A 
ATOM     51  C   UNL A   1      37.751  33.645  31.130  1.00  0.00     0.074 A 
ATOM     52  C   UNL A   1      43.385  31.448  32.938  1.00  0.00     0.029 A 
ATOM     53  N   UNL A   1      41.946  32.758  31.893  1.00  0.00    -0.354 N 
ATOM     54  N   UNL A   1      37.964  33.498  32.405  1.00  0.00    -0.248 NA
ATOM     55  C   UNL A   1      38.767  34.404  30.406  1.00  0.00     0.031 C 
ATOM     56  C   UNL A   1      42.318  31.784  33.822  1.00  0.00     0.029 A 
ATOM     57  C   UNL A   1      41.408  32.583  33.137  1.00  0.00     0.049 A 
ATOM     58  H   UNL A   1      41.554  33.337  31.199  1.00  0.00     0.167 HD
ATOM     59  C   UNL A   1      39.313  33.736  32.542  1.00  0.00     0.074 A 
ATOM     60  C   UNL A   1      39.704  34.476  31.351  1.00  0.00     0.031 C 
ATOM     61  C   UNL A   1      40.051  32.990  33.408  1.00  0.00     0.037 A 
BRANCH  48  62
ATOM     62  C   UNL A   1      43.934  33.057  29.525  1.00  0.00     0.057 A 
ATOM     63  C   UNL A   1      45.290  33.422  29.536  1.00  0.00     0.134 A 
ATOM     64  C   UNL A   1      43.059  34.028  28.986  1.00  0.00     0.134 A 
ATOM     65  F   UNL A   1      46.217  32.604  30.056  1.00  0.00    -0.206 F 
ATOM     66  C   UNL A   1      45.732  34.676  29.091  1.00  0.00     0.040 A 
ATOM     67  C   UNL A   1      43.496  35.259  28.493  1.00  0.00     0.040 A 
ATOM     68  F   UNL A   1      41.728  33.892  29.004  1.00  0.00    -0.206 F 
ATOM     69  C   UNL A   1      44.834  35.599  28.570  1.00  0.00     0.006 A 
ENDBRANCH  48  62
BRANCH  49  70
ATOM     70  C   UNL A   1      35.508  33.643  29.894  1.00  0.00     0.057 A 
ATOM     71  C   UNL A   1      34.625  34.260  30.801  1.00  0.00     0.134 A 
ATOM     72  C   UNL A   1      35.333  33.986  28.545  1.00  0.00     0.134 A 
ATOM     73  F   UNL A   1      34.713  34.021  32.117  1.00  0.00    -0.206 F 
ATOM     74  C   UNL A   1      33.665  35.195  30.396  1.00  0.00     0.040 A 
ATOM     75  C   UNL A   1      34.366  34.909  28.126  1.00  0.00     0.040 A 
ATOM     76  F   UNL A   1      36.150  33.510  27.596  1.00  0.00    -0.206 F 
ATOM     77  C   UNL A   1      33.542  35.533  29.055  1.00  0.00     0.006 A 
ENDBRANCH  49  70
BRANCH  61  78
ATOM     78  C   UNL A   1      39.353  32.453  34.613  1.00  0.00     0.057 A 
ATOM     79  C   UNL A   1      38.792  31.174  34.713  1.00  0.00     0.134 A 
ATOM     80  C   UNL A   1      39.274  33.280  35.741  1.00  0.00     0.134 A 
ATOM     81  F   UNL A   1      38.889  30.290  33.708  1.00  0.00    -0.206 F 
ATOM     82  C   UNL A   1      38.133  30.759  35.874  1.00  0.00     0.040 A 
ATOM     83  C   UNL A   1      38.655  32.863  36.917  1.00  0.00     0.040 A 
ATOM     84  F   UNL A   1      39.819  34.507  35.722  1.00  0.00    -0.206 F 
ATOM     85  C   UNL A   1      38.068  31.602  36.981  1.00  0.00     0.006 A 
ENDBRANCH  61  78
ENDBRANCH  35  36
ENDBRANCH  28  30
ENDBRANCH  27  28
ENDBRANCH  26  27
ENDBRANCH   1  26
TORSDOF 14
ENDMDL
