MODEL 1
REMARK VINA RESULT:     -11.4      0.000      0.000
REMARK SMILES Cc1cc(C(=O)N[C@@H]2CC2(C)C)sc1/C=C/C(=O)OCCOC(=O)c1ccc(-c2c3nc(c(-c4c(F)cccc4F)c4ccc([nH]4)c(-c4c(F)cccc4F)c4nc(c(-c5c(F)cccc5F)c5ccc2[nH]5)C=C4)C=C3)cc1
REMARK SMILES IDX 20 1 19 2 17 3 18 4 16 5 15 6 14 7 1 8 2 9 3 10 4 11 13 12
REMARK SMILES IDX 5 13 6 14 7 15 8 17 9 18 10 19 11 20 12 21 21 22 22 23 23 24
REMARK SMILES IDX 24 25 25 26 26 27 78 28 27 29 77 30 28 31 29 32 30 33 71 34
REMARK SMILES IDX 31 35 76 36 70 37 72 38 32 39 75 40 69 41 68 42 33 44 59 45
REMARK SMILES IDX 42 46 58 47 43 48 46 49 57 50 73 51 44 52 45 53 56 55 74 56
REMARK SMILES IDX 47 57 34 58 35 59 40 60 36 61 37 62 39 63 41 64 38 65 60 66
REMARK SMILES IDX 61 67 66 68 62 69 63 70 65 71 67 72 64 73 48 74 49 75 54 76
REMARK SMILES IDX 50 77 51 78 53 79 55 80 52 81
REMARK H PARENT 7 16 72 43 46 54
REMARK Flexibility Score: inf
ROOT
ATOM      1  C   UNL A   1      43.903  20.998  25.656  1.00  0.00     0.275 C 
ENDROOT
BRANCH   1   2
ATOM      2  O   UNL A   1      42.743  20.191  25.381  1.00  0.00    -0.459 OA
BRANCH   2   3
ATOM      3  C   UNL A   1      41.874  20.056  26.407  1.00  0.00     0.330 C 
ATOM      4  O   UNL A   1      42.089  19.487  27.469  1.00  0.00    -0.247 OA
BRANCH   3   5
ATOM      5  C   UNL A   1      40.592  20.734  26.161  1.00  0.00     0.095 C 
ATOM      6  C   UNL A   1      40.311  22.029  26.386  1.00  0.00     0.027 C 
BRANCH   6   7
ATOM      7  C   UNL A   1      38.994  22.485  26.100  1.00  0.00     0.031 A 
ATOM      8  C   UNL A   1      38.839  24.689  27.413  1.00  0.00     0.046 C 
ATOM      9  C   UNL A   1      38.351  23.665  26.444  1.00  0.00    -0.032 A 
ATOM     10  C   UNL A   1      37.172  23.833  25.639  1.00  0.00     0.029 A 
ATOM     11  C   UNL A   1      36.944  22.783  24.759  1.00  0.00     0.093 A 
ATOM     12  S   UNL A   1      37.899  21.468  25.240  1.00  0.00    -0.130 S 
BRANCH  11  13
ATOM     13  C   UNL A   1      35.913  22.754  23.741  1.00  0.00     0.261 C 
ATOM     14  O   UNL A   1      36.150  23.213  22.614  1.00  0.00    -0.268 OA
ATOM     15  N   UNL A   1      34.666  22.172  23.833  1.00  0.00    -0.348 N 
ATOM     16  H   UNL A   1      34.211  22.269  22.966  1.00  0.00     0.164 HD
BRANCH  15  17
ATOM     17  C   UNL A   1      33.793  21.481  24.729  1.00  0.00     0.088 C 
ATOM     18  C   UNL A   1      34.002  21.058  26.142  1.00  0.00     0.034 C 
ATOM     19  C   UNL A   1      33.795  20.003  25.076  1.00  0.00    -0.013 C 
ATOM     20  C   UNL A   1      32.480  19.261  25.147  1.00  0.00     0.013 C 
ATOM     21  C   UNL A   1      34.934  19.117  24.658  1.00  0.00     0.013 C 
ENDBRANCH  15  17
ENDBRANCH  11  13
ENDBRANCH   6   7
ENDBRANCH   3   5
ENDBRANCH   2   3
ENDBRANCH   1   2
BRANCH   1  22
ATOM     22  C   UNL A   1      44.095  22.072  24.582  1.00  0.00     0.275 C 
BRANCH  22  23
ATOM     23  O   UNL A   1      43.385  23.286  24.898  1.00  0.00    -0.458 OA
BRANCH  23  24
ATOM     24  C   UNL A   1      44.162  24.361  25.162  1.00  0.00     0.338 C 
ATOM     25  O   UNL A   1      45.193  24.686  24.591  1.00  0.00    -0.246 OA
BRANCH  24  26
ATOM     26  C   UNL A   1      43.530  25.190  26.201  1.00  0.00     0.060 A 
ATOM     27  C   UNL A   1      43.882  26.542  26.278  1.00  0.00     0.016 A 
ATOM     28  C   UNL A   1      42.653  24.632  27.135  1.00  0.00     0.016 A 
ATOM     29  C   UNL A   1      43.362  27.339  27.296  1.00  0.00     0.010 A 
ATOM     30  C   UNL A   1      42.135  25.435  28.157  1.00  0.00     0.010 A 
ATOM     31  C   UNL A   1      42.498  26.789  28.253  1.00  0.00    -0.014 A 
BRANCH  31  32
ATOM     32  C   UNL A   1      42.005  27.627  29.373  1.00  0.00     0.031 A 
ATOM     33  C   UNL A   1      42.704  27.593  30.702  1.00  0.00     0.074 A 
ATOM     34  C   UNL A   1      40.938  28.426  29.194  1.00  0.00     0.049 A 
ATOM     35  N   UNL A   1      42.406  28.224  31.810  1.00  0.00    -0.248 NA
ATOM     36  C   UNL A   1      43.896  26.737  30.797  1.00  0.00     0.031 C 
ATOM     37  C   UNL A   1      40.188  28.563  27.946  1.00  0.00     0.029 A 
ATOM     38  N   UNL A   1      40.298  29.270  30.066  1.00  0.00    -0.354 N 
ATOM     39  C   UNL A   1      43.366  27.837  32.736  1.00  0.00     0.074 A 
ATOM     40  C   UNL A   1      44.242  26.897  32.067  1.00  0.00     0.031 C 
ATOM     41  C   UNL A   1      39.184  29.437  28.133  1.00  0.00     0.029 A 
ATOM     42  C   UNL A   1      39.203  29.894  29.520  1.00  0.00     0.049 A 
ATOM     43  H   UNL A   1      40.594  29.414  30.994  1.00  0.00     0.167 HD
ATOM     44  C   UNL A   1      43.510  28.235  34.023  1.00  0.00     0.037 A 
ATOM     45  C   UNL A   1      38.305  30.725  30.081  1.00  0.00     0.037 A 
ATOM     46  C   UNL A   1      42.641  29.172  34.687  1.00  0.00     0.049 A 
ATOM     47  C   UNL A   1      38.454  31.110  31.528  1.00  0.00     0.074 A 
ATOM     48  C   UNL A   1      42.719  29.652  35.984  1.00  0.00     0.029 A 
ATOM     49  N   UNL A   1      41.528  29.765  34.109  1.00  0.00    -0.354 N 
ATOM     50  N   UNL A   1      39.381  30.758  32.385  1.00  0.00    -0.248 NA
ATOM     51  C   UNL A   1      37.432  32.010  32.084  1.00  0.00     0.031 C 
ATOM     52  C   UNL A   1      41.632  30.506  36.201  1.00  0.00     0.029 A 
ATOM     53  C   UNL A   1      40.901  30.591  35.028  1.00  0.00     0.049 A 
ATOM     54  H   UNL A   1      41.230  29.620  33.182  1.00  0.00     0.167 HD
ATOM     55  C   UNL A   1      39.068  31.407  33.573  1.00  0.00     0.074 A 
ATOM     56  C   UNL A   1      37.874  32.187  33.321  1.00  0.00     0.031 C 
ATOM     57  C   UNL A   1      39.715  31.363  34.763  1.00  0.00     0.037 A 
BRANCH  44  58
ATOM     58  C   UNL A   1      44.645  27.643  34.805  1.00  0.00     0.057 A 
ATOM     59  C   UNL A   1      45.871  28.307  34.944  1.00  0.00     0.134 A 
ATOM     60  C   UNL A   1      44.498  26.413  35.457  1.00  0.00     0.134 A 
ATOM     61  F   UNL A   1      46.079  29.484  34.335  1.00  0.00    -0.206 F 
ATOM     62  C   UNL A   1      46.919  27.756  35.684  1.00  0.00     0.040 A 
ATOM     63  C   UNL A   1      45.530  25.863  36.219  1.00  0.00     0.040 A 
ATOM     64  F   UNL A   1      43.348  25.729  35.370  1.00  0.00    -0.206 F 
ATOM     65  C   UNL A   1      46.747  26.533  36.329  1.00  0.00     0.006 A 
ENDBRANCH  44  58
BRANCH  45  66
ATOM     66  C   UNL A   1      37.174  31.245  29.274  1.00  0.00     0.057 A 
ATOM     67  C   UNL A   1      37.191  32.544  28.754  1.00  0.00     0.134 A 
ATOM     68  C   UNL A   1      36.046  30.458  29.012  1.00  0.00     0.134 A 
ATOM     69  F   UNL A   1      38.234  33.352  28.992  1.00  0.00    -0.206 F 
ATOM     70  C   UNL A   1      36.122  33.046  28.011  1.00  0.00     0.040 A 
ATOM     71  C   UNL A   1      34.981  30.939  28.250  1.00  0.00     0.040 A 
ATOM     72  F   UNL A   1      35.971  29.205  29.483  1.00  0.00    -0.206 F 
ATOM     73  C   UNL A   1      35.015  32.240  27.752  1.00  0.00     0.006 A 
ENDBRANCH  45  66
BRANCH  57  74
ATOM     74  C   UNL A   1      39.159  32.202  35.876  1.00  0.00     0.057 A 
ATOM     75  C   UNL A   1      38.263  31.681  36.817  1.00  0.00     0.134 A 
ATOM     76  C   UNL A   1      39.554  33.537  36.027  1.00  0.00     0.134 A 
ATOM     77  F   UNL A   1      37.836  30.412  36.720  1.00  0.00    -0.206 F 
ATOM     78  C   UNL A   1      37.762  32.465  37.859  1.00  0.00     0.040 A 
ATOM     79  C   UNL A   1      39.078  34.325  37.077  1.00  0.00     0.040 A 
ATOM     80  F   UNL A   1      40.414  34.095  35.163  1.00  0.00    -0.206 F 
ATOM     81  C   UNL A   1      38.175  33.789  37.994  1.00  0.00     0.006 A 
ENDBRANCH  57  74
ENDBRANCH  31  32
ENDBRANCH  24  26
ENDBRANCH  23  24
ENDBRANCH  22  23
ENDBRANCH   1  22
TORSDOF 14
ENDMDL
MODEL 2
REMARK VINA RESULT:     -11.1      0.834      6.436
REMARK SMILES Cc1cc(C(=O)N[C@@H]2CC2(C)C)sc1/C=C/C(=O)OCCOC(=O)c1ccc(-c2c3nc(c(-c4c(F)cccc4F)c4ccc([nH]4)c(-c4c(F)cccc4F)c4nc(c(-c5c(F)cccc5F)c5ccc2[nH]5)C=C4)C=C3)cc1
REMARK SMILES IDX 20 1 19 2 17 3 18 4 16 5 15 6 14 7 1 8 2 9 3 10 4 11 13 12
REMARK SMILES IDX 5 13 6 14 7 15 8 17 9 18 10 19 11 20 12 21 21 22 22 23 23 24
REMARK SMILES IDX 24 25 25 26 26 27 78 28 27 29 77 30 28 31 29 32 30 33 71 34
REMARK SMILES IDX 31 35 76 36 70 37 72 38 32 39 75 40 69 41 68 42 33 44 59 45
REMARK SMILES IDX 42 46 58 47 43 48 46 49 57 50 73 51 44 52 45 53 56 55 74 56
REMARK SMILES IDX 47 57 34 58 35 59 40 60 36 61 37 62 39 63 41 64 38 65 60 66
REMARK SMILES IDX 61 67 66 68 62 69 63 70 65 71 67 72 64 73 48 74 49 75 54 76
REMARK SMILES IDX 50 77 51 78 53 79 55 80 52 81
REMARK H PARENT 7 16 72 43 46 54
REMARK Flexibility Score: inf
ROOT
ATOM      1  C   UNL A   1      44.299  21.632  25.126  1.00  0.00     0.275 C 
ENDROOT
BRANCH   1   2
ATOM      2  O   UNL A   1      43.379  21.728  26.228  1.00  0.00    -0.459 OA
BRANCH   2   3
ATOM      3  C   UNL A   1      42.353  20.849  26.206  1.00  0.00     0.330 C 
ATOM      4  O   UNL A   1      42.421  19.648  26.429  1.00  0.00    -0.247 OA
BRANCH   3   5
ATOM      5  C   UNL A   1      41.058  21.494  25.935  1.00  0.00     0.095 C 
ATOM      6  C   UNL A   1      40.120  21.827  26.838  1.00  0.00     0.027 C 
BRANCH   6   7
ATOM      7  C   UNL A   1      38.919  22.425  26.364  1.00  0.00     0.031 A 
ATOM      8  C   UNL A   1      38.932  24.737  27.486  1.00  0.00     0.046 C 
ATOM      9  C   UNL A   1      38.414  23.704  26.543  1.00  0.00    -0.032 A 
ATOM     10  C   UNL A   1      37.365  23.953  25.592  1.00  0.00     0.029 A 
ATOM     11  C   UNL A   1      37.089  22.868  24.769  1.00  0.00     0.093 A 
ATOM     12  S   UNL A   1      37.792  21.487  25.456  1.00  0.00    -0.130 S 
BRANCH  11  13
ATOM     13  C   UNL A   1      36.181  22.885  23.640  1.00  0.00     0.261 C 
ATOM     14  O   UNL A   1      36.633  22.992  22.490  1.00  0.00    -0.268 OA
ATOM     15  N   UNL A   1      34.815  22.698  23.666  1.00  0.00    -0.348 N 
ATOM     16  H   UNL A   1      34.480  22.712  22.740  1.00  0.00     0.164 HD
BRANCH  15  17
ATOM     17  C   UNL A   1      33.708  22.492  24.546  1.00  0.00     0.088 C 
ATOM     18  C   UNL A   1      32.326  23.047  24.500  1.00  0.00     0.034 C 
ATOM     19  C   UNL A   1      33.227  23.399  25.665  1.00  0.00    -0.013 C 
ATOM     20  C   UNL A   1      32.837  22.788  26.991  1.00  0.00     0.013 C 
ATOM     21  C   UNL A   1      33.768  24.793  25.809  1.00  0.00     0.013 C 
ENDBRANCH  15  17
ENDBRANCH  11  13
ENDBRANCH   6   7
ENDBRANCH   3   5
ENDBRANCH   2   3
ENDBRANCH   1   2
BRANCH   1  22
ATOM     22  C   UNL A   1      44.146  22.822  24.175  1.00  0.00     0.275 C 
BRANCH  22  23
ATOM     23  O   UNL A   1      43.442  23.919  24.789  1.00  0.00    -0.458 OA
BRANCH  23  24
ATOM     24  C   UNL A   1      44.211  24.968  25.162  1.00  0.00     0.338 C 
ATOM     25  O   UNL A   1      45.251  25.344  24.641  1.00  0.00    -0.246 OA
BRANCH  24  26
ATOM     26  C   UNL A   1      43.558  25.700  26.259  1.00  0.00     0.060 A 
ATOM     27  C   UNL A   1      43.866  27.054  26.430  1.00  0.00     0.016 A 
ATOM     28  C   UNL A   1      42.706  25.049  27.155  1.00  0.00     0.016 A 
ATOM     29  C   UNL A   1      43.327  27.760  27.504  1.00  0.00     0.010 A 
ATOM     30  C   UNL A   1      42.168  25.760  28.233  1.00  0.00     0.010 A 
ATOM     31  C   UNL A   1      42.487  27.116  28.422  1.00  0.00    -0.014 A 
BRANCH  31  32
ATOM     32  C   UNL A   1      41.974  27.857  29.601  1.00  0.00     0.031 A 
ATOM     33  C   UNL A   1      40.738  28.701  29.479  1.00  0.00     0.074 A 
ATOM     34  C   UNL A   1      42.611  27.761  30.781  1.00  0.00     0.049 A 
ATOM     35  N   UNL A   1      40.155  29.449  30.383  1.00  0.00    -0.248 NA
ATOM     36  C   UNL A   1      40.069  28.705  28.170  1.00  0.00     0.031 C 
ATOM     37  C   UNL A   1      43.808  26.958  31.030  1.00  0.00     0.029 A 
ATOM     38  N   UNL A   1      42.343  28.350  31.991  1.00  0.00    -0.354 N 
ATOM     39  C   UNL A   1      39.056  30.018  29.751  1.00  0.00     0.074 A 
ATOM     40  C   UNL A   1      39.068  29.549  28.381  1.00  0.00     0.031 C 
ATOM     41  C   UNL A   1      44.174  27.108  32.315  1.00  0.00     0.029 A 
ATOM     42  C   UNL A   1      43.259  28.041  32.966  1.00  0.00     0.049 A 
ATOM     43  H   UNL A   1      41.569  28.939  32.145  1.00  0.00     0.167 HD
ATOM     44  C   UNL A   1      38.118  30.848  30.269  1.00  0.00     0.037 A 
ATOM     45  C   UNL A   1      43.359  28.476  34.236  1.00  0.00     0.037 A 
ATOM     46  C   UNL A   1      38.105  31.311  31.632  1.00  0.00     0.049 A 
ATOM     47  C   UNL A   1      42.337  29.441  34.772  1.00  0.00     0.074 A 
ATOM     48  C   UNL A   1      37.184  32.138  32.254  1.00  0.00     0.029 A 
ATOM     49  N   UNL A   1      39.063  30.995  32.584  1.00  0.00    -0.354 N 
ATOM     50  N   UNL A   1      41.289  29.951  34.173  1.00  0.00    -0.248 NA
ATOM     51  C   UNL A   1      42.512  29.888  36.162  1.00  0.00     0.031 C 
ATOM     52  C   UNL A   1      37.606  32.352  33.571  1.00  0.00     0.029 A 
ATOM     53  C   UNL A   1      38.766  31.625  33.782  1.00  0.00     0.049 A 
ATOM     54  H   UNL A   1      39.838  30.408  32.431  1.00  0.00     0.167 HD
ATOM     55  C   UNL A   1      40.668  30.761  35.115  1.00  0.00     0.074 A 
ATOM     56  C   UNL A   1      41.449  30.663  36.331  1.00  0.00     0.031 C 
ATOM     57  C   UNL A   1      39.550  31.516  34.985  1.00  0.00     0.037 A 
BRANCH  44  58
ATOM     58  C   UNL A   1      37.034  31.323  29.348  1.00  0.00     0.057 A 
ATOM     59  C   UNL A   1      35.945  30.510  29.009  1.00  0.00     0.134 A 
ATOM     60  C   UNL A   1      37.061  32.620  28.821  1.00  0.00     0.134 A 
ATOM     61  F   UNL A   1      35.865  29.253  29.472  1.00  0.00    -0.206 F 
ATOM     62  C   UNL A   1      34.932  30.963  28.161  1.00  0.00     0.040 A 
ATOM     63  C   UNL A   1      36.044  33.092  27.991  1.00  0.00     0.040 A 
ATOM     64  F   UNL A   1      38.073  33.451  29.111  1.00  0.00    -0.206 F 
ATOM     65  C   UNL A   1      34.978  32.260  27.654  1.00  0.00     0.006 A 
ENDBRANCH  44  58
BRANCH  45  66
ATOM     66  C   UNL A   1      44.479  28.011  35.091  1.00  0.00     0.057 A 
ATOM     67  C   UNL A   1      45.712  28.674  35.095  1.00  0.00     0.134 A 
ATOM     68  C   UNL A   1      44.346  26.889  35.917  1.00  0.00     0.134 A 
ATOM     69  F   UNL A   1      45.906  29.741  34.307  1.00  0.00    -0.206 F 
ATOM     70  C   UNL A   1      46.776  28.230  35.881  1.00  0.00     0.040 A 
ATOM     71  C   UNL A   1      45.394  26.449  36.725  1.00  0.00     0.040 A 
ATOM     72  F   UNL A   1      43.189  26.212  35.957  1.00  0.00    -0.206 F 
ATOM     73  C   UNL A   1      46.617  27.117  36.704  1.00  0.00     0.006 A 
ENDBRANCH  45  66
BRANCH  57  74
ATOM     74  C   UNL A   1      39.089  32.273  36.196  1.00  0.00     0.057 A 
ATOM     75  C   UNL A   1      39.490  33.592  36.438  1.00  0.00     0.134 A 
ATOM     76  C   UNL A   1      38.206  31.685  37.110  1.00  0.00     0.134 A 
ATOM     77  F   UNL A   1      40.346  34.207  35.607  1.00  0.00    -0.206 F 
ATOM     78  C   UNL A   1      39.045  34.295  37.560  1.00  0.00     0.040 A 
ATOM     79  C   UNL A   1      37.736  32.385  38.223  1.00  0.00     0.040 A 
ATOM     80  F   UNL A   1      37.779  30.426  36.932  1.00  0.00    -0.206 F 
ATOM     81  C   UNL A   1      38.160  33.692  38.453  1.00  0.00     0.006 A 
ENDBRANCH  57  74
ENDBRANCH  31  32
ENDBRANCH  24  26
ENDBRANCH  23  24
ENDBRANCH  22  23
ENDBRANCH   1  22
TORSDOF 14
ENDMDL
MODEL 3
REMARK VINA RESULT:     -11.0      5.353     11.133
REMARK SMILES Cc1cc(C(=O)N[C@@H]2CC2(C)C)sc1/C=C/C(=O)OCCOC(=O)c1ccc(-c2c3nc(c(-c4c(F)cccc4F)c4ccc([nH]4)c(-c4c(F)cccc4F)c4nc(c(-c5c(F)cccc5F)c5ccc2[nH]5)C=C4)C=C3)cc1
REMARK SMILES IDX 20 1 19 2 17 3 18 4 16 5 15 6 14 7 1 8 2 9 3 10 4 11 13 12
REMARK SMILES IDX 5 13 6 14 7 15 8 17 9 18 10 19 11 20 12 21 21 22 22 23 23 24
REMARK SMILES IDX 24 25 25 26 26 27 78 28 27 29 77 30 28 31 29 32 30 33 71 34
REMARK SMILES IDX 31 35 76 36 70 37 72 38 32 39 75 40 69 41 68 42 33 44 59 45
REMARK SMILES IDX 42 46 58 47 43 48 46 49 57 50 73 51 44 52 45 53 56 55 74 56
REMARK SMILES IDX 47 57 34 58 35 59 40 60 36 61 37 62 39 63 41 64 38 65 60 66
REMARK SMILES IDX 61 67 66 68 62 69 63 70 65 71 67 72 64 73 48 74 49 75 54 76
REMARK SMILES IDX 50 77 51 78 53 79 55 80 52 81
REMARK H PARENT 7 16 72 43 46 54
REMARK Flexibility Score: inf
ROOT
ATOM      1  C   UNL A   1      32.275  35.555  32.437  1.00  0.00     0.275 C 
ENDROOT
BRANCH   1   2
ATOM      2  O   UNL A   1      33.516  34.916  32.784  1.00  0.00    -0.459 OA
BRANCH   2   3
ATOM      3  C   UNL A   1      34.373  35.667  33.511  1.00  0.00     0.330 C 
ATOM      4  O   UNL A   1      34.261  36.860  33.760  1.00  0.00    -0.247 OA
BRANCH   3   5
ATOM      5  C   UNL A   1      35.487  34.883  34.066  1.00  0.00     0.095 C 
ATOM      6  C   UNL A   1      36.768  34.906  33.662  1.00  0.00     0.027 C 
BRANCH   6   7
ATOM      7  C   UNL A   1      37.693  34.048  34.320  1.00  0.00     0.031 A 
ATOM      8  C   UNL A   1      39.416  35.683  35.301  1.00  0.00     0.046 C 
ATOM      9  C   UNL A   1      38.793  34.341  35.112  1.00  0.00    -0.032 A 
ATOM     10  C   UNL A   1      39.199  33.168  35.837  1.00  0.00     0.029 A 
ATOM     11  C   UNL A   1      38.437  32.043  35.551  1.00  0.00     0.093 A 
ATOM     12  S   UNL A   1      37.566  32.339  34.127  1.00  0.00    -0.130 S 
BRANCH  11  13
ATOM     13  C   UNL A   1      38.536  30.769  36.233  1.00  0.00     0.261 C 
ATOM     14  O   UNL A   1      37.635  30.414  37.007  1.00  0.00    -0.268 OA
ATOM     15  N   UNL A   1      39.508  29.804  36.062  1.00  0.00    -0.348 N 
ATOM     16  H   UNL A   1      39.281  29.029  36.624  1.00  0.00     0.164 HD
BRANCH  15  17
ATOM     17  C   UNL A   1      40.725  29.521  35.368  1.00  0.00     0.088 C 
ATOM     18  C   UNL A   1      41.586  30.407  34.537  1.00  0.00     0.034 C 
ATOM     19  C   UNL A   1      40.906  29.218  33.891  1.00  0.00    -0.013 C 
ATOM     20  C   UNL A   1      41.825  28.092  33.478  1.00  0.00     0.013 C 
ATOM     21  C   UNL A   1      39.778  29.427  32.921  1.00  0.00     0.013 C 
ENDBRANCH  15  17
ENDBRANCH  11  13
ENDBRANCH   6   7
ENDBRANCH   3   5
ENDBRANCH   2   3
ENDBRANCH   1   2
BRANCH   1  22
ATOM     22  C   UNL A   1      32.236  35.910  30.948  1.00  0.00     0.275 C 
BRANCH  22  23
ATOM     23  O   UNL A   1      33.506  35.687  30.304  1.00  0.00    -0.458 OA
BRANCH  23  24
ATOM     24  C   UNL A   1      33.526  34.692  29.388  1.00  0.00     0.338 C 
ATOM     25  O   UNL A   1      32.677  34.447  28.544  1.00  0.00    -0.246 OA
BRANCH  24  26
ATOM     26  C   UNL A   1      34.806  33.968  29.467  1.00  0.00     0.060 A 
ATOM     27  C   UNL A   1      34.946  32.971  30.439  1.00  0.00     0.016 A 
ATOM     28  C   UNL A   1      35.881  34.310  28.643  1.00  0.00     0.016 A 
ATOM     29  C   UNL A   1      36.166  32.317  30.593  1.00  0.00     0.010 A 
ATOM     30  C   UNL A   1      37.106  33.654  28.803  1.00  0.00     0.010 A 
ATOM     31  C   UNL A   1      37.260  32.663  29.788  1.00  0.00    -0.014 A 
BRANCH  31  32
ATOM     32  C   UNL A   1      38.575  32.012  30.007  1.00  0.00     0.031 A 
ATOM     33  C   UNL A   1      39.648  32.725  30.779  1.00  0.00     0.074 A 
ATOM     34  C   UNL A   1      38.800  30.778  29.523  1.00  0.00     0.049 A 
ATOM     35  N   UNL A   1      40.871  32.339  31.045  1.00  0.00    -0.248 NA
ATOM     36  C   UNL A   1      39.301  34.046  31.323  1.00  0.00     0.031 C 
ATOM     37  C   UNL A   1      37.832  29.976  28.776  1.00  0.00     0.029 A 
ATOM     38  N   UNL A   1      39.919  29.986  29.583  1.00  0.00    -0.354 N 
ATOM     39  C   UNL A   1      41.442  33.369  31.781  1.00  0.00     0.074 A 
ATOM     40  C   UNL A   1      40.440  34.409  31.896  1.00  0.00     0.031 C 
ATOM     41  C   UNL A   1      38.400  28.804  28.443  1.00  0.00     0.029 A 
ATOM     42  C   UNL A   1      39.779  28.790  28.923  1.00  0.00     0.049 A 
ATOM     43  H   UNL A   1      40.743  30.250  30.052  1.00  0.00     0.167 HD
ATOM     44  C   UNL A   1      42.684  33.439  32.318  1.00  0.00     0.037 A 
ATOM     45  C   UNL A   1      40.670  27.801  28.714  1.00  0.00     0.037 A 
ATOM     46  C   UNL A   1      43.679  32.404  32.205  1.00  0.00     0.049 A 
ATOM     47  C   UNL A   1      42.060  27.926  29.273  1.00  0.00     0.074 A 
ATOM     48  C   UNL A   1      44.959  32.376  32.733  1.00  0.00     0.029 A 
ATOM     49  N   UNL A   1      43.508  31.216  31.509  1.00  0.00    -0.354 N 
ATOM     50  N   UNL A   1      42.579  28.893  29.989  1.00  0.00    -0.248 NA
ATOM     51  C   UNL A   1      42.988  26.819  28.997  1.00  0.00     0.031 C 
ATOM     52  C   UNL A   1      45.575  31.188  32.324  1.00  0.00     0.029 A 
ATOM     53  C   UNL A   1      44.665  30.457  31.578  1.00  0.00     0.049 A 
ATOM     54  H   UNL A   1      42.685  30.952  31.037  1.00  0.00     0.167 HD
ATOM     55  C   UNL A   1      43.884  28.505  30.266  1.00  0.00     0.074 A 
ATOM     56  C   UNL A   1      44.073  27.206  29.654  1.00  0.00     0.031 C 
ATOM     57  C   UNL A   1      44.838  29.165  30.966  1.00  0.00     0.037 A 
BRANCH  44  58
ATOM     58  C   UNL A   1      43.043  34.689  33.065  1.00  0.00     0.057 A 
ATOM     59  C   UNL A   1      43.515  35.832  32.407  1.00  0.00     0.134 A 
ATOM     60  C   UNL A   1      42.882  34.763  34.454  1.00  0.00     0.134 A 
ATOM     61  F   UNL A   1      43.703  35.823  31.079  1.00  0.00    -0.206 F 
ATOM     62  C   UNL A   1      43.836  36.996  33.107  1.00  0.00     0.040 A 
ATOM     63  C   UNL A   1      43.177  35.928  35.162  1.00  0.00     0.040 A 
ATOM     64  F   UNL A   1      42.428  33.705  35.143  1.00  0.00    -0.206 F 
ATOM     65  C   UNL A   1      43.662  37.048  34.489  1.00  0.00     0.006 A 
ENDBRANCH  44  58
BRANCH  45  66
ATOM     66  C   UNL A   1      40.276  26.607  27.927  1.00  0.00     0.057 A 
ATOM     67  C   UNL A   1      40.703  26.436  26.605  1.00  0.00     0.134 A 
ATOM     68  C   UNL A   1      39.459  25.612  28.475  1.00  0.00     0.134 A 
ATOM     69  F   UNL A   1      41.469  27.368  26.019  1.00  0.00    -0.206 F 
ATOM     70  C   UNL A   1      40.321  25.326  25.852  1.00  0.00     0.040 A 
ATOM     71  C   UNL A   1      39.089  24.484  27.742  1.00  0.00     0.040 A 
ATOM     72  F   UNL A   1      39.018  25.718  29.737  1.00  0.00    -0.206 F 
ATOM     73  C   UNL A   1      39.515  24.342  26.423  1.00  0.00     0.006 A 
ENDBRANCH  45  66
BRANCH  57  74
ATOM     74  C   UNL A   1      46.163  28.480  31.132  1.00  0.00     0.057 A 
ATOM     75  C   UNL A   1      46.413  27.600  32.191  1.00  0.00     0.134 A 
ATOM     76  C   UNL A   1      47.189  28.679  30.199  1.00  0.00     0.134 A 
ATOM     77  F   UNL A   1      45.475  27.377  33.125  1.00  0.00    -0.206 F 
ATOM     78  C   UNL A   1      47.644  26.956  32.329  1.00  0.00     0.040 A 
ATOM     79  C   UNL A   1      48.416  28.024  30.313  1.00  0.00     0.040 A 
ATOM     80  F   UNL A   1      47.012  29.506  29.157  1.00  0.00    -0.206 F 
ATOM     81  C   UNL A   1      48.647  27.162  31.384  1.00  0.00     0.006 A 
ENDBRANCH  57  74
ENDBRANCH  31  32
ENDBRANCH  24  26
ENDBRANCH  23  24
ENDBRANCH  22  23
ENDBRANCH   1  22
TORSDOF 14
ENDMDL
