MODEL 1
REMARK VINA RESULT:     -13.0      0.000      0.000
REMARK SMILES Cc1c(CC(=O)N[C@H](CO)C(=O)OCCOC(=O)c2ccc(-c3c4nc(c(-c5c(F)cccc5F)c5ccc([nH]5)c(-c5c(F)cccc5F)c5nc(c(-c6c(F)cccc6F)c6ccc3[nH]6)C=C5)C=C4)cc2)cc(-c2ccc(S(C)(=O)=O)cc2)n1-c1cccc(F)c1
REMARK SMILES IDX 13 1 11 2 12 3 8 4 7 5 5 6 6 7 4 9 3 10 1 11 2 12 85 13
REMARK SMILES IDX 73 14 74 15 86 16 87 17 92 18 88 19 90 20 89 21 91 22 75 23
REMARK SMILES IDX 76 24 84 25 77 26 83 27 78 28 79 29 80 30 81 31 82 32 9 33
REMARK SMILES IDX 10 34 14 36 15 37 16 38 17 39 18 40 19 41 20 42 72 43 21 44
REMARK SMILES IDX 71 45 22 46 23 47 24 48 65 49 25 50 70 51 64 52 66 53 26 54
REMARK SMILES IDX 69 55 63 56 62 57 27 59 53 60 36 61 52 62 37 63 40 64 51 65
REMARK SMILES IDX 67 66 38 67 39 68 50 70 68 71 41 72 28 73 29 74 34 75 30 76
REMARK SMILES IDX 31 77 33 78 35 79 32 80 54 81 55 82 60 83 56 84 57 85 59 86
REMARK SMILES IDX 61 87 58 88 42 89 43 90 48 91 44 92 45 93 47 94 49 95 46 96
REMARK H PARENT 7 8 10 35 66 58 40 69
REMARK Flexibility Score: inf
ROOT
ATOM      1  O   UNL A   1      35.757  21.164  24.462  1.00  0.00    -0.460 OA
ENDROOT
BRANCH   1   2
ATOM      2  C   UNL A   1      34.777  20.928  25.374  1.00  0.00     0.331 C 
ATOM      3  O   UNL A   1      34.799  21.349  26.528  1.00  0.00    -0.250 OA
BRANCH   2   4
ATOM      4  C   UNL A   1      33.597  20.084  24.824  1.00  0.00     0.218 C 
BRANCH   4   5
ATOM      5  N   UNL A   1      32.323  20.536  25.426  1.00  0.00    -0.341 N 
ATOM      6  C   UNL A   1      31.538  21.610  25.108  1.00  0.00     0.225 C 
ATOM      7  O   UNL A   1      30.498  21.772  25.753  1.00  0.00    -0.275 OA
ATOM      8  H   UNL A   1      31.990  19.979  26.166  1.00  0.00     0.164 HD
BRANCH   6   9
ATOM      9  C   UNL A   1      31.918  22.558  23.979  1.00  0.00     0.137 C 
BRANCH   9  10
ATOM     10  C   UNL A   1      31.669  23.997  24.319  1.00  0.00    -0.017 A 
ATOM     11  C   UNL A   1      33.216  24.262  26.377  1.00  0.00     0.065 C 
ATOM     12  C   UNL A   1      32.279  24.749  25.315  1.00  0.00     0.024 A 
ATOM     13  N   UNL A   1      31.803  26.053  25.234  1.00  0.00    -0.313 N 
ATOM     14  C   UNL A   1      30.721  24.845  23.692  1.00  0.00     0.033 A 
ATOM     15  C   UNL A   1      30.827  26.111  24.237  1.00  0.00     0.053 A 
BRANCH  13  16
ATOM     16  C   UNL A   1      32.239  27.155  26.015  1.00  0.00     0.049 A 
ATOM     17  C   UNL A   1      31.354  27.761  26.918  1.00  0.00     0.027 A 
ATOM     18  C   UNL A   1      33.520  27.678  25.817  1.00  0.00     0.065 A 
ATOM     19  C   UNL A   1      31.751  28.897  27.623  1.00  0.00     0.005 A 
ATOM     20  C   UNL A   1      33.891  28.819  26.517  1.00  0.00     0.125 A 
ATOM     21  C   UNL A   1      33.022  29.432  27.415  1.00  0.00     0.039 A 
ATOM     22  F   UNL A   1      35.101  29.355  26.307  1.00  0.00    -0.207 F 
ENDBRANCH  13  16
BRANCH  15  23
ATOM     23  C   UNL A   1      30.137  27.331  23.803  1.00  0.00    -0.001 A 
ATOM     24  C   UNL A   1      28.754  27.326  23.563  1.00  0.00     0.011 A 
ATOM     25  C   UNL A   1      30.859  28.518  23.619  1.00  0.00     0.011 A 
ATOM     26  C   UNL A   1      28.110  28.473  23.099  1.00  0.00     0.021 A 
ATOM     27  C   UNL A   1      30.220  29.672  23.159  1.00  0.00     0.021 A 
ATOM     28  C   UNL A   1      28.850  29.635  22.886  1.00  0.00     0.067 A 
BRANCH  28  29
ATOM     29  S   UNL A   1      28.012  31.105  22.344  1.00  0.00     0.175 S 
ATOM     30  C   UNL A   1      29.230  32.384  22.474  1.00  0.00     0.163 C 
ATOM     31  O   UNL A   1      27.747  30.910  20.917  1.00  0.00    -0.224 OA
ATOM     32  O   UNL A   1      26.963  31.391  23.280  1.00  0.00    -0.224 OA
ENDBRANCH  28  29
ENDBRANCH  15  23
ENDBRANCH   9  10
ENDBRANCH   6   9
ENDBRANCH   4   5
BRANCH   4  33
ATOM     33  C   UNL A   1      33.772  18.556  24.933  1.00  0.00     0.193 C 
BRANCH  33  34
ATOM     34  O   UNL A   1      34.922  18.058  24.241  1.00  0.00    -0.394 OA
ATOM     35  H   UNL A   1      35.076  18.589  23.445  1.00  0.00     0.210 HD
ENDBRANCH  33  34
ENDBRANCH   4  33
ENDBRANCH   2   4
ENDBRANCH   1   2
BRANCH   1  36
ATOM     36  C   UNL A   1      37.123  20.779  24.788  1.00  0.00     0.274 C 
BRANCH  36  37
ATOM     37  C   UNL A   1      37.755  21.811  25.767  1.00  0.00     0.275 C 
BRANCH  37  38
ATOM     38  O   UNL A   1      39.210  22.070  25.706  1.00  0.00    -0.458 OA
BRANCH  38  39
ATOM     39  C   UNL A   1      39.859  22.358  26.882  1.00  0.00     0.338 C 
ATOM     40  O   UNL A   1      40.291  21.482  27.623  1.00  0.00    -0.246 OA
BRANCH  39  41
ATOM     41  C   UNL A   1      40.080  23.857  27.199  1.00  0.00     0.060 A 
ATOM     42  C   UNL A   1      39.509  24.372  28.347  1.00  0.00     0.016 A 
ATOM     43  C   UNL A   1      40.626  24.853  26.352  1.00  0.00     0.016 A 
ATOM     44  C   UNL A   1      39.557  25.785  28.648  1.00  0.00     0.010 A 
ATOM     45  C   UNL A   1      40.594  26.330  26.641  1.00  0.00     0.010 A 
ATOM     46  C   UNL A   1      40.048  26.879  27.817  1.00  0.00    -0.014 A 
BRANCH  46  47
ATOM     47  C   UNL A   1      39.623  28.474  28.273  1.00  0.00     0.031 A 
ATOM     48  C   UNL A   1      40.972  29.084  28.423  1.00  0.00     0.074 A 
ATOM     49  C   UNL A   1      38.631  29.401  28.712  1.00  0.00     0.049 A 
ATOM     50  N   UNL A   1      41.790  28.538  29.278  1.00  0.00    -0.248 NA
ATOM     51  C   UNL A   1      41.616  29.944  27.429  1.00  0.00     0.031 C 
ATOM     52  C   UNL A   1      37.212  29.157  29.051  1.00  0.00     0.029 A 
ATOM     53  N   UNL A   1      38.655  30.843  29.007  1.00  0.00    -0.354 N 
ATOM     54  C   UNL A   1      42.973  29.212  29.171  1.00  0.00     0.074 A 
ATOM     55  C   UNL A   1      42.880  29.881  27.877  1.00  0.00     0.031 C 
ATOM     56  C   UNL A   1      36.515  30.313  29.309  1.00  0.00     0.029 A 
ATOM     57  C   UNL A   1      37.366  31.508  29.248  1.00  0.00     0.049 A 
ATOM     58  H   UNL A   1      39.501  31.344  29.040  1.00  0.00     0.167 HD
ATOM     59  C   UNL A   1      43.447  29.682  30.360  1.00  0.00     0.037 A 
ATOM     60  C   UNL A   1      37.000  32.855  29.488  1.00  0.00     0.037 A 
ATOM     61  C   UNL A   1      43.165  31.080  30.523  1.00  0.00     0.049 A 
ATOM     62  C   UNL A   1      38.138  33.476  30.169  1.00  0.00     0.074 A 
ATOM     63  C   UNL A   1      43.148  32.149  29.648  1.00  0.00     0.029 A 
ATOM     64  N   UNL A   1      42.391  31.433  31.600  1.00  0.00    -0.354 N 
ATOM     65  N   UNL A   1      38.335  33.271  31.434  1.00  0.00    -0.248 NA
ATOM     66  C   UNL A   1      38.966  34.512  29.565  1.00  0.00     0.031 C 
ATOM     67  C   UNL A   1      41.970  32.846  29.971  1.00  0.00     0.029 A 
ATOM     68  C   UNL A   1      41.561  32.465  31.241  1.00  0.00     0.049 A 
ATOM     69  H   UNL A   1      42.424  31.013  32.490  1.00  0.00     0.167 HD
ATOM     70  C   UNL A   1      39.595  33.724  31.632  1.00  0.00     0.074 A 
ATOM     71  C   UNL A   1      39.821  34.699  30.576  1.00  0.00     0.031 C 
ATOM     72  C   UNL A   1      40.434  32.764  32.081  1.00  0.00     0.037 A 
BRANCH  59  73
ATOM     73  C   UNL A   1      43.364  28.667  31.479  1.00  0.00     0.057 A 
ATOM     74  C   UNL A   1      42.180  28.533  32.200  1.00  0.00     0.134 A 
ATOM     75  C   UNL A   1      44.473  27.931  31.949  1.00  0.00     0.134 A 
ATOM     76  F   UNL A   1      41.042  29.072  31.743  1.00  0.00    -0.206 F 
ATOM     77  C   UNL A   1      42.131  27.817  33.400  1.00  0.00     0.040 A 
ATOM     78  C   UNL A   1      44.456  27.262  33.173  1.00  0.00     0.040 A 
ATOM     79  F   UNL A   1      45.605  27.845  31.230  1.00  0.00    -0.206 F 
ATOM     80  C   UNL A   1      43.283  27.222  33.915  1.00  0.00     0.006 A 
ENDBRANCH  59  73
BRANCH  60  81
ATOM     81  C   UNL A   1      35.832  33.954  29.590  1.00  0.00     0.057 A 
ATOM     82  C   UNL A   1      35.044  34.353  28.440  1.00  0.00     0.134 A 
ATOM     83  C   UNL A   1      35.152  34.214  30.788  1.00  0.00     0.134 A 
ATOM     84  F   UNL A   1      35.519  34.259  27.191  1.00  0.00    -0.206 F 
ATOM     85  C   UNL A   1      33.703  34.810  28.479  1.00  0.00     0.040 A 
ATOM     86  C   UNL A   1      33.813  34.724  30.839  1.00  0.00     0.040 A 
ATOM     87  F   UNL A   1      35.719  33.907  31.961  1.00  0.00    -0.206 F 
ATOM     88  C   UNL A   1      33.069  34.979  29.688  1.00  0.00     0.006 A 
ENDBRANCH  60  81
BRANCH  72  89
ATOM     89  C   UNL A   1      39.976  31.946  33.272  1.00  0.00     0.057 A 
ATOM     90  C   UNL A   1      39.063  30.868  33.285  1.00  0.00     0.134 A 
ATOM     91  C   UNL A   1      40.473  32.334  34.523  1.00  0.00     0.134 A 
ATOM     92  F   UNL A   1      38.576  30.313  32.166  1.00  0.00    -0.206 F 
ATOM     93  C   UNL A   1      38.623  30.279  34.478  1.00  0.00     0.040 A 
ATOM     94  C   UNL A   1      40.083  31.718  35.714  1.00  0.00     0.040 A 
ATOM     95  F   UNL A   1      41.374  33.325  34.608  1.00  0.00    -0.206 F 
ATOM     96  C   UNL A   1      39.135  30.701  35.698  1.00  0.00     0.006 A 
ENDBRANCH  72  89
ENDBRANCH  46  47
ENDBRANCH  39  41
ENDBRANCH  38  39
ENDBRANCH  37  38
ENDBRANCH  36  37
ENDBRANCH   1  36
TORSDOF 19
ENDMDL
MODEL 2
REMARK VINA RESULT:     -13.0      2.267      3.472
REMARK SMILES Cc1c(CC(=O)N[C@H](CO)C(=O)OCCOC(=O)c2ccc(-c3c4nc(c(-c5c(F)cccc5F)c5ccc([nH]5)c(-c5c(F)cccc5F)c5nc(c(-c6c(F)cccc6F)c6ccc3[nH]6)C=C5)C=C4)cc2)cc(-c2ccc(S(C)(=O)=O)cc2)n1-c1cccc(F)c1
REMARK SMILES IDX 13 1 11 2 12 3 8 4 7 5 5 6 6 7 4 9 3 10 1 11 2 12 85 13
REMARK SMILES IDX 73 14 74 15 86 16 87 17 92 18 88 19 90 20 89 21 91 22 75 23
REMARK SMILES IDX 76 24 84 25 77 26 83 27 78 28 79 29 80 30 81 31 82 32 9 33
REMARK SMILES IDX 10 34 14 36 15 37 16 38 17 39 18 40 19 41 20 42 72 43 21 44
REMARK SMILES IDX 71 45 22 46 23 47 24 48 65 49 25 50 70 51 64 52 66 53 26 54
REMARK SMILES IDX 69 55 63 56 62 57 27 59 53 60 36 61 52 62 37 63 40 64 51 65
REMARK SMILES IDX 67 66 38 67 39 68 50 70 68 71 41 72 28 73 29 74 34 75 30 76
REMARK SMILES IDX 31 77 33 78 35 79 32 80 54 81 55 82 60 83 56 84 57 85 59 86
REMARK SMILES IDX 61 87 58 88 42 89 43 90 48 91 44 92 45 93 47 94 49 95 46 96
REMARK H PARENT 7 8 10 35 66 58 40 69
REMARK Flexibility Score: inf
ROOT
ATOM      1  O   UNL A   1      35.579  19.631  24.827  1.00  0.00    -0.460 OA
ENDROOT
BRANCH   1   2
ATOM      2  C   UNL A   1      34.780  18.558  24.587  1.00  0.00     0.331 C 
ATOM      3  O   UNL A   1      35.038  17.416  24.958  1.00  0.00    -0.250 OA
BRANCH   2   4
ATOM      4  C   UNL A   1      33.482  18.902  23.811  1.00  0.00     0.218 C 
BRANCH   4   5
ATOM      5  N   UNL A   1      32.511  19.566  24.709  1.00  0.00    -0.341 N 
ATOM      6  C   UNL A   1      32.162  20.886  24.796  1.00  0.00     0.225 C 
ATOM      7  O   UNL A   1      31.303  21.198  25.626  1.00  0.00    -0.275 OA
ATOM      8  H   UNL A   1      32.047  18.968  25.339  1.00  0.00     0.164 HD
BRANCH   6   9
ATOM      9  C   UNL A   1      32.787  21.929  23.881  1.00  0.00     0.137 C 
BRANCH   9  10
ATOM     10  C   UNL A   1      32.366  23.328  24.222  1.00  0.00    -0.017 A 
ATOM     11  C   UNL A   1      33.767  23.727  26.361  1.00  0.00     0.065 C 
ATOM     12  C   UNL A   1      32.839  24.126  25.256  1.00  0.00     0.024 A 
ATOM     13  N   UNL A   1      32.230  25.372  25.162  1.00  0.00    -0.313 N 
ATOM     14  C   UNL A   1      31.365  24.078  23.553  1.00  0.00     0.033 A 
ATOM     15  C   UNL A   1      31.306  25.340  24.116  1.00  0.00     0.053 A 
BRANCH  13  16
ATOM     16  C   UNL A   1      32.502  26.503  25.976  1.00  0.00     0.049 A 
ATOM     17  C   UNL A   1      31.520  26.980  26.855  1.00  0.00     0.027 A 
ATOM     18  C   UNL A   1      33.717  27.179  25.833  1.00  0.00     0.065 A 
ATOM     19  C   UNL A   1      31.753  28.141  27.592  1.00  0.00     0.005 A 
ATOM     20  C   UNL A   1      33.924  28.342  26.564  1.00  0.00     0.125 A 
ATOM     21  C   UNL A   1      32.957  28.828  27.439  1.00  0.00     0.039 A 
ATOM     22  F   UNL A   1      35.067  29.023  26.407  1.00  0.00    -0.207 F 
ENDBRANCH  13  16
BRANCH  15  23
ATOM     23  C   UNL A   1      30.511  26.484  23.657  1.00  0.00    -0.001 A 
ATOM     24  C   UNL A   1      31.121  27.568  23.006  1.00  0.00     0.011 A 
ATOM     25  C   UNL A   1      29.126  26.507  23.872  1.00  0.00     0.011 A 
ATOM     26  C   UNL A   1      30.371  28.678  22.619  1.00  0.00     0.021 A 
ATOM     27  C   UNL A   1      28.366  27.615  23.482  1.00  0.00     0.021 A 
ATOM     28  C   UNL A   1      29.000  28.701  22.873  1.00  0.00     0.067 A 
BRANCH  28  29
ATOM     29  S   UNL A   1      28.045  30.097  22.331  1.00  0.00     0.175 S 
ATOM     30  C   UNL A   1      29.100  31.492  22.610  1.00  0.00     0.163 C 
ATOM     31  O   UNL A   1      27.908  29.947  20.880  1.00  0.00    -0.224 OA
ATOM     32  O   UNL A   1      26.905  30.220  23.193  1.00  0.00    -0.224 OA
ENDBRANCH  28  29
ENDBRANCH  15  23
ENDBRANCH   9  10
ENDBRANCH   6   9
ENDBRANCH   4   5
BRANCH   4  33
ATOM     33  C   UNL A   1      32.841  17.727  23.044  1.00  0.00     0.193 C 
BRANCH  33  34
ATOM     34  O   UNL A   1      33.793  16.873  22.401  1.00  0.00    -0.394 OA
ATOM     35  H   UNL A   1      34.109  16.207  23.031  1.00  0.00     0.210 HD
ENDBRANCH  33  34
ENDBRANCH   4  33
ENDBRANCH   2   4
ENDBRANCH   1   2
BRANCH   1  36
ATOM     36  C   UNL A   1      37.023  19.466  24.724  1.00  0.00     0.274 C 
BRANCH  36  37
ATOM     37  C   UNL A   1      37.741  20.819  24.996  1.00  0.00     0.275 C 
BRANCH  37  38
ATOM     38  O   UNL A   1      38.362  21.057  26.317  1.00  0.00    -0.458 OA
BRANCH  38  39
ATOM     39  C   UNL A   1      39.611  21.629  26.344  1.00  0.00     0.338 C 
ATOM     40  O   UNL A   1      40.617  21.023  25.995  1.00  0.00    -0.246 OA
BRANCH  39  41
ATOM     41  C   UNL A   1      39.679  23.113  26.778  1.00  0.00     0.060 A 
ATOM     42  C   UNL A   1      40.521  23.450  27.821  1.00  0.00     0.016 A 
ATOM     43  C   UNL A   1      38.826  24.174  26.384  1.00  0.00     0.016 A 
ATOM     44  C   UNL A   1      40.546  24.786  28.372  1.00  0.00     0.010 A 
ATOM     45  C   UNL A   1      38.807  25.537  27.025  1.00  0.00     0.010 A 
ATOM     46  C   UNL A   1      39.676  25.916  28.067  1.00  0.00    -0.014 A 
BRANCH  46  47
ATOM     47  C   UNL A   1      39.691  27.244  29.147  1.00  0.00     0.031 A 
ATOM     48  C   UNL A   1      40.774  28.071  28.549  1.00  0.00     0.074 A 
ATOM     49  C   UNL A   1      39.281  27.823  30.386  1.00  0.00     0.049 A 
ATOM     50  N   UNL A   1      41.953  27.528  28.432  1.00  0.00    -0.248 NA
ATOM     51  C   UNL A   1      40.559  29.247  27.704  1.00  0.00     0.031 C 
ATOM     52  C   UNL A   1      38.486  27.221  31.479  1.00  0.00     0.029 A 
ATOM     53  N   UNL A   1      39.509  29.135  31.014  1.00  0.00    -0.354 N 
ATOM     54  C   UNL A   1      42.739  28.439  27.786  1.00  0.00     0.074 A 
ATOM     55  C   UNL A   1      41.782  29.348  27.162  1.00  0.00     0.031 C 
ATOM     56  C   UNL A   1      38.166  28.118  32.468  1.00  0.00     0.029 A 
ATOM     57  C   UNL A   1      38.747  29.446  32.231  1.00  0.00     0.049 A 
ATOM     58  H   UNL A   1      40.147  29.780  30.632  1.00  0.00     0.167 HD
ATOM     59  C   UNL A   1      43.905  28.718  28.436  1.00  0.00     0.037 A 
ATOM     60  C   UNL A   1      38.654  30.600  33.049  1.00  0.00     0.037 A 
ATOM     61  C   UNL A   1      43.821  29.953  29.160  1.00  0.00     0.049 A 
ATOM     62  C   UNL A   1      39.952  31.273  32.958  1.00  0.00     0.074 A 
ATOM     63  C   UNL A   1      43.211  31.164  28.897  1.00  0.00     0.029 A 
ATOM     64  N   UNL A   1      44.006  29.887  30.519  1.00  0.00    -0.354 N 
ATOM     65  N   UNL A   1      40.966  30.835  33.636  1.00  0.00    -0.248 NA
ATOM     66  C   UNL A   1      40.139  32.567  32.314  1.00  0.00     0.031 C 
ATOM     67  C   UNL A   1      42.585  31.512  30.107  1.00  0.00     0.029 A 
ATOM     68  C   UNL A   1      43.163  30.779  31.134  1.00  0.00     0.049 A 
ATOM     69  H   UNL A   1      44.642  29.294  30.981  1.00  0.00     0.167 HD
ATOM     70  C   UNL A   1      42.017  31.483  33.081  1.00  0.00     0.074 A 
ATOM     71  C   UNL A   1      41.456  32.695  32.504  1.00  0.00     0.031 C 
ATOM     72  C   UNL A   1      42.929  30.641  32.545  1.00  0.00     0.037 A 
BRANCH  59  73
ATOM     73  C   UNL A   1      44.612  27.483  28.950  1.00  0.00     0.057 A 
ATOM     74  C   UNL A   1      45.745  27.015  28.292  1.00  0.00     0.134 A 
ATOM     75  C   UNL A   1      44.107  26.671  29.989  1.00  0.00     0.134 A 
ATOM     76  F   UNL A   1      46.379  27.786  27.400  1.00  0.00    -0.206 F 
ATOM     77  C   UNL A   1      46.272  25.746  28.555  1.00  0.00     0.040 A 
ATOM     78  C   UNL A   1      44.584  25.381  30.222  1.00  0.00     0.040 A 
ATOM     79  F   UNL A   1      43.134  27.111  30.804  1.00  0.00    -0.206 F 
ATOM     80  C   UNL A   1      45.661  24.906  29.486  1.00  0.00     0.006 A 
ENDBRANCH  59  73
BRANCH  60  81
ATOM     81  C   UNL A   1      37.885  31.381  34.223  1.00  0.00     0.057 A 
ATOM     82  C   UNL A   1      38.321  31.321  35.606  1.00  0.00     0.134 A 
ATOM     83  C   UNL A   1      37.117  32.529  33.981  1.00  0.00     0.134 A 
ATOM     84  F   UNL A   1      39.014  30.279  36.084  1.00  0.00    -0.206 F 
ATOM     85  C   UNL A   1      38.140  32.343  36.571  1.00  0.00     0.040 A 
ATOM     86  C   UNL A   1      36.886  33.544  34.967  1.00  0.00     0.040 A 
ATOM     87  F   UNL A   1      36.629  32.762  32.757  1.00  0.00    -0.206 F 
ATOM     88  C   UNL A   1      37.433  33.478  36.247  1.00  0.00     0.006 A 
ENDBRANCH  60  81
BRANCH  72  89
ATOM     89  C   UNL A   1      43.415  29.500  33.415  1.00  0.00     0.057 A 
ATOM     90  C   UNL A   1      42.770  28.270  33.673  1.00  0.00     0.134 A 
ATOM     91  C   UNL A   1      44.623  29.704  34.094  1.00  0.00     0.134 A 
ATOM     92  F   UNL A   1      41.661  27.880  33.028  1.00  0.00    -0.206 F 
ATOM     93  C   UNL A   1      43.267  27.348  34.606  1.00  0.00     0.040 A 
ATOM     94  C   UNL A   1      45.155  28.769  34.984  1.00  0.00     0.040 A 
ATOM     95  F   UNL A   1      45.327  30.828  33.886  1.00  0.00    -0.206 F 
ATOM     96  C   UNL A   1      44.465  27.596  35.263  1.00  0.00     0.006 A 
ENDBRANCH  72  89
ENDBRANCH  46  47
ENDBRANCH  39  41
ENDBRANCH  38  39
ENDBRANCH  37  38
ENDBRANCH  36  37
ENDBRANCH   1  36
TORSDOF 19
ENDMDL
MODEL 3
REMARK VINA RESULT:     -12.7      3.271      8.781
REMARK SMILES Cc1c(CC(=O)N[C@H](CO)C(=O)OCCOC(=O)c2ccc(-c3c4nc(c(-c5c(F)cccc5F)c5ccc([nH]5)c(-c5c(F)cccc5F)c5nc(c(-c6c(F)cccc6F)c6ccc3[nH]6)C=C5)C=C4)cc2)cc(-c2ccc(S(C)(=O)=O)cc2)n1-c1cccc(F)c1
REMARK SMILES IDX 13 1 11 2 12 3 8 4 7 5 5 6 6 7 4 9 3 10 1 11 2 12 85 13
REMARK SMILES IDX 73 14 74 15 86 16 87 17 92 18 88 19 90 20 89 21 91 22 75 23
REMARK SMILES IDX 76 24 84 25 77 26 83 27 78 28 79 29 80 30 81 31 82 32 9 33
REMARK SMILES IDX 10 34 14 36 15 37 16 38 17 39 18 40 19 41 20 42 72 43 21 44
REMARK SMILES IDX 71 45 22 46 23 47 24 48 65 49 25 50 70 51 64 52 66 53 26 54
REMARK SMILES IDX 69 55 63 56 62 57 27 59 53 60 36 61 52 62 37 63 40 64 51 65
REMARK SMILES IDX 67 66 38 67 39 68 50 70 68 71 41 72 28 73 29 74 34 75 30 76
REMARK SMILES IDX 31 77 33 78 35 79 32 80 54 81 55 82 60 83 56 84 57 85 59 86
REMARK SMILES IDX 61 87 58 88 42 89 43 90 48 91 44 92 45 93 47 94 49 95 46 96
REMARK H PARENT 7 8 10 35 66 58 40 69
REMARK Flexibility Score: inf
ROOT
ATOM      1  O   UNL A   1      29.450  31.402  24.217  1.00  0.00    -0.460 OA
ENDROOT
BRANCH   1   2
ATOM      2  C   UNL A   1      29.072  30.693  23.120  1.00  0.00     0.331 C 
ATOM      3  O   UNL A   1      28.860  31.196  22.020  1.00  0.00    -0.250 OA
BRANCH   2   4
ATOM      4  C   UNL A   1      28.947  29.167  23.370  1.00  0.00     0.218 C 
BRANCH   4   5
ATOM      5  N   UNL A   1      29.759  28.421  22.383  1.00  0.00    -0.341 N 
ATOM      6  C   UNL A   1      30.458  27.254  22.528  1.00  0.00     0.225 C 
ATOM      7  O   UNL A   1      31.052  26.815  21.540  1.00  0.00    -0.275 OA
ATOM      8  H   UNL A   1      29.802  28.825  21.486  1.00  0.00     0.164 HD
BRANCH   6   9
ATOM      9  C   UNL A   1      30.478  26.507  23.854  1.00  0.00     0.137 C 
BRANCH   9  10
ATOM     10  C   UNL A   1      31.476  25.388  23.876  1.00  0.00    -0.017 A 
ATOM     11  C   UNL A   1      33.685  26.735  23.892  1.00  0.00     0.065 C 
ATOM     12  C   UNL A   1      32.859  25.488  23.957  1.00  0.00     0.024 A 
ATOM     13  N   UNL A   1      33.389  24.204  24.020  1.00  0.00    -0.313 N 
ATOM     14  C   UNL A   1      31.173  24.005  23.778  1.00  0.00     0.033 A 
ATOM     15  C   UNL A   1      32.346  23.284  23.895  1.00  0.00     0.053 A 
BRANCH  13  16
ATOM     16  C   UNL A   1      34.757  23.870  24.198  1.00  0.00     0.049 A 
ATOM     17  C   UNL A   1      35.451  23.210  23.173  1.00  0.00     0.027 A 
ATOM     18  C   UNL A   1      35.376  24.126  25.424  1.00  0.00     0.065 A 
ATOM     19  C   UNL A   1      36.769  22.802  23.378  1.00  0.00     0.005 A 
ATOM     20  C   UNL A   1      36.684  23.699  25.615  1.00  0.00     0.125 A 
ATOM     21  C   UNL A   1      37.384  23.042  24.606  1.00  0.00     0.039 A 
ATOM     22  F   UNL A   1      37.277  23.902  26.798  1.00  0.00    -0.207 F 
ENDBRANCH  13  16
BRANCH  15  23
ATOM     23  C   UNL A   1      32.493  21.827  23.982  1.00  0.00    -0.001 A 
ATOM     24  C   UNL A   1      32.879  21.215  25.186  1.00  0.00     0.011 A 
ATOM     25  C   UNL A   1      32.251  21.029  22.856  1.00  0.00     0.011 A 
ATOM     26  C   UNL A   1      33.070  19.835  25.251  1.00  0.00     0.021 A 
ATOM     27  C   UNL A   1      32.435  19.644  22.915  1.00  0.00     0.021 A 
ATOM     28  C   UNL A   1      32.861  19.059  24.111  1.00  0.00     0.067 A 
BRANCH  28  29
ATOM     29  S   UNL A   1      33.056  17.297  24.218  1.00  0.00     0.175 S 
ATOM     30  C   UNL A   1      34.744  17.066  24.701  1.00  0.00     0.163 C 
ATOM     31  O   UNL A   1      32.225  16.872  25.348  1.00  0.00    -0.224 OA
ATOM     32  O   UNL A   1      32.889  16.749  22.903  1.00  0.00    -0.224 OA
ENDBRANCH  28  29
ENDBRANCH  15  23
ENDBRANCH   9  10
ENDBRANCH   6   9
ENDBRANCH   4   5
BRANCH   4  33
ATOM     33  C   UNL A   1      27.505  28.628  23.451  1.00  0.00     0.193 C 
BRANCH  33  34
ATOM     34  O   UNL A   1      26.655  29.100  22.400  1.00  0.00    -0.394 OA
ATOM     35  H   UNL A   1      25.807  28.630  22.433  1.00  0.00     0.210 HD
ENDBRANCH  33  34
ENDBRANCH   4  33
ENDBRANCH   2   4
ENDBRANCH   1   2
BRANCH   1  36
ATOM     36  C   UNL A   1      30.649  30.992  24.936  1.00  0.00     0.274 C 
BRANCH  36  37
ATOM     37  C   UNL A   1      30.862  31.895  26.186  1.00  0.00     0.275 C 
BRANCH  37  38
ATOM     38  O   UNL A   1      32.154  31.844  26.904  1.00  0.00    -0.458 OA
BRANCH  38  39
ATOM     39  C   UNL A   1      32.653  30.609  27.237  1.00  0.00     0.338 C 
ATOM     40  O   UNL A   1      31.931  29.633  27.406  1.00  0.00    -0.246 OA
BRANCH  39  41
ATOM     41  C   UNL A   1      34.194  30.489  27.324  1.00  0.00     0.060 A 
ATOM     42  C   UNL A   1      34.783  29.316  26.890  1.00  0.00     0.016 A 
ATOM     43  C   UNL A   1      35.097  31.352  27.994  1.00  0.00     0.016 A 
ATOM     44  C   UNL A   1      36.198  29.073  27.058  1.00  0.00     0.010 A 
ATOM     45  C   UNL A   1      36.551  31.046  28.234  1.00  0.00     0.010 A 
ATOM     46  C   UNL A   1      37.184  29.875  27.775  1.00  0.00    -0.014 A 
BRANCH  46  47
ATOM     47  C   UNL A   1      38.691  29.146  28.132  1.00  0.00     0.031 A 
ATOM     48  C   UNL A   1      38.643  29.134  29.619  1.00  0.00     0.074 A 
ATOM     49  C   UNL A   1      39.979  28.713  27.695  1.00  0.00     0.049 A 
ATOM     50  N   UNL A   1      38.502  30.278  30.227  1.00  0.00    -0.248 NA
ATOM     51  C   UNL A   1      38.313  27.966  30.436  1.00  0.00     0.031 C 
ATOM     52  C   UNL A   1      40.608  28.854  26.363  1.00  0.00     0.029 A 
ATOM     53  N   UNL A   1      41.103  28.042  28.368  1.00  0.00    -0.354 N 
ATOM     54  C   UNL A   1      38.399  30.000  31.561  1.00  0.00     0.074 A 
ATOM     55  C   UNL A   1      38.049  28.584  31.598  1.00  0.00     0.031 C 
ATOM     56  C   UNL A   1      41.811  28.197  26.264  1.00  0.00     0.029 A 
ATOM     57  C   UNL A   1      42.212  27.567  27.529  1.00  0.00     0.049 A 
ATOM     58  H   UNL A   1      41.111  27.915  29.344  1.00  0.00     0.167 HD
ATOM     59  C   UNL A   1      39.276  30.699  32.337  1.00  0.00     0.037 A 
ATOM     60  C   UNL A   1      43.396  26.840  27.806  1.00  0.00     0.037 A 
ATOM     61  C   UNL A   1      40.410  29.898  32.702  1.00  0.00     0.049 A 
ATOM     62  C   UNL A   1      43.779  27.185  29.177  1.00  0.00     0.074 A 
ATOM     63  C   UNL A   1      40.558  28.565  33.030  1.00  0.00     0.029 A 
ATOM     64  N   UNL A   1      41.642  30.349  32.296  1.00  0.00    -0.354 N 
ATOM     65  N   UNL A   1      44.374  28.309  29.426  1.00  0.00    -0.248 NA
ATOM     66  C   UNL A   1      43.738  26.237  30.283  1.00  0.00     0.031 C 
ATOM     67  C   UNL A   1      41.696  28.152  32.314  1.00  0.00     0.029 A 
ATOM     68  C   UNL A   1      42.423  29.275  31.947  1.00  0.00     0.049 A 
ATOM     69  H   UNL A   1      41.921  31.292  32.259  1.00  0.00     0.167 HD
ATOM     70  C   UNL A   1      44.289  28.415  30.773  1.00  0.00     0.074 A 
ATOM     71  C   UNL A   1      44.162  27.049  31.257  1.00  0.00     0.031 C 
ATOM     72  C   UNL A   1      43.609  29.513  31.172  1.00  0.00     0.037 A 
BRANCH  59  73
ATOM     73  C   UNL A   1      39.360  32.165  31.972  1.00  0.00     0.057 A 
ATOM     74  C   UNL A   1      38.716  33.109  32.767  1.00  0.00     0.134 A 
ATOM     75  C   UNL A   1      39.938  32.639  30.774  1.00  0.00     0.134 A 
ATOM     76  F   UNL A   1      38.272  32.781  33.987  1.00  0.00    -0.206 F 
ATOM     77  C   UNL A   1      38.535  34.428  32.335  1.00  0.00     0.040 A 
ATOM     78  C   UNL A   1      39.715  33.934  30.304  1.00  0.00     0.040 A 
ATOM     79  F   UNL A   1      40.734  31.855  30.029  1.00  0.00    -0.206 F 
ATOM     80  C   UNL A   1      38.990  34.828  31.079  1.00  0.00     0.006 A 
ENDBRANCH  59  73
BRANCH  60  81
ATOM     81  C   UNL A   1      44.651  26.011  27.242  1.00  0.00     0.057 A 
ATOM     82  C   UNL A   1      45.926  26.640  26.955  1.00  0.00     0.134 A 
ATOM     83  C   UNL A   1      44.801  24.635  27.464  1.00  0.00     0.134 A 
ATOM     84  F   UNL A   1      46.020  27.940  26.645  1.00  0.00    -0.206 F 
ATOM     85  C   UNL A   1      47.192  26.007  27.030  1.00  0.00     0.040 A 
ATOM     86  C   UNL A   1      46.074  23.976  27.492  1.00  0.00     0.040 A 
ATOM     87  F   UNL A   1      43.732  23.882  27.751  1.00  0.00    -0.206 F 
ATOM     88  C   UNL A   1      47.274  24.664  27.322  1.00  0.00     0.006 A 
ENDBRANCH  60  81
BRANCH  72  89
ATOM     89  C   UNL A   1      44.019  30.840  30.565  1.00  0.00     0.057 A 
ATOM     90  C   UNL A   1      43.692  31.348  29.288  1.00  0.00     0.134 A 
ATOM     91  C   UNL A   1      44.870  31.643  31.336  1.00  0.00     0.134 A 
ATOM     92  F   UNL A   1      42.812  30.751  28.471  1.00  0.00    -0.206 F 
ATOM     93  C   UNL A   1      44.245  32.538  28.795  1.00  0.00     0.040 A 
ATOM     94  C   UNL A   1      45.383  32.857  30.876  1.00  0.00     0.040 A 
ATOM     95  F   UNL A   1      45.207  31.261  32.577  1.00  0.00    -0.206 F 
ATOM     96  C   UNL A   1      45.092  33.298  29.590  1.00  0.00     0.006 A 
ENDBRANCH  72  89
ENDBRANCH  46  47
ENDBRANCH  39  41
ENDBRANCH  38  39
ENDBRANCH  37  38
ENDBRANCH  36  37
ENDBRANCH   1  36
TORSDOF 19
ENDMDL
