MODEL 1
REMARK VINA RESULT:      -9.8      0.000      0.000
REMARK SMILES C[C@H](C(=O)OCCOC(=O)c1ccc(-c2c3nc(c(-c4c(F)cccc4F)c4ccc([nH]4)c(-c4c(F)cccc4F)c4nc(c(-c5c(F)cccc5F)c5ccc2[nH]5)C=C4)C=C3)cc1)c1ccc2c(c1)[nH]c1ccc(Cl)cc12
REMARK SMILES IDX 7 1 6 2 5 3 3 4 4 5 2 6 1 7 65 8 66 9 70 10 67 11 69 12
REMARK SMILES IDX 68 13 71 14 78 15 72 16 77 18 73 19 75 20 74 21 76 22 8 23
REMARK SMILES IDX 9 24 10 25 11 26 12 27 64 28 13 29 63 30 14 31 15 32 16 33
REMARK SMILES IDX 57 34 17 35 62 36 56 37 58 38 18 39 61 40 55 41 54 42 19 44
REMARK SMILES IDX 45 45 28 46 44 47 29 48 32 49 43 50 59 51 30 52 31 53 42 55
REMARK SMILES IDX 60 56 33 57 20 58 21 59 26 60 22 61 23 62 25 63 27 64 24 65
REMARK SMILES IDX 46 66 47 67 52 68 48 69 49 70 51 71 53 72 50 73 34 74 35 75
REMARK SMILES IDX 40 76 36 77 37 78 39 79 41 80 38 81
REMARK H PARENT 71 17 58 43 32 54
REMARK Flexibility Score: inf
ROOT
ATOM      1  C   UNL A   1      32.867  36.052  30.811  1.00  0.00     0.275 C 
ENDROOT
BRANCH   1   2
ATOM      2  C   UNL A   1      33.728  36.986  31.666  1.00  0.00     0.274 C 
BRANCH   2   3
ATOM      3  O   UNL A   1      34.037  36.370  32.930  1.00  0.00    -0.462 OA
BRANCH   3   4
ATOM      4  C   UNL A   1      35.014  35.423  32.932  1.00  0.00     0.313 C 
ATOM      5  O   UNL A   1      36.103  35.562  32.383  1.00  0.00    -0.252 OA
BRANCH   4   6
ATOM      6  C   UNL A   1      34.652  34.223  33.812  1.00  0.00     0.126 C 
ATOM      7  C   UNL A   1      33.515  33.362  33.261  1.00  0.00     0.025 C 
BRANCH   6   8
ATOM      8  C   UNL A   1      35.831  33.332  34.192  1.00  0.00    -0.032 A 
ATOM      9  C   UNL A   1      36.780  33.715  35.148  1.00  0.00     0.005 A 
ATOM     10  C   UNL A   1      36.014  32.131  33.479  1.00  0.00     0.031 A 
ATOM     11  C   UNL A   1      37.928  32.946  35.385  1.00  0.00     0.011 A 
ATOM     12  C   UNL A   1      37.186  31.399  33.698  1.00  0.00     0.047 A 
ATOM     13  C   UNL A   1      38.155  31.784  34.620  1.00  0.00     0.007 A 
ATOM     14  N   UNL A   1      37.640  30.252  33.090  1.00  0.00    -0.355 N 
ATOM     15  C   UNL A   1      39.242  30.857  34.513  1.00  0.00     0.009 A 
ATOM     16  C   UNL A   1      38.907  29.936  33.520  1.00  0.00     0.047 A 
ATOM     17  H   UNL A   1      37.127  29.728  32.433  1.00  0.00     0.167 HD
ATOM     18  C   UNL A   1      40.501  30.750  35.137  1.00  0.00     0.031 A 
ATOM     19  C   UNL A   1      39.774  28.921  33.100  1.00  0.00     0.028 A 
ATOM     20  C   UNL A   1      41.380  29.746  34.720  1.00  0.00     0.041 A 
ATOM     21  C   UNL A   1      41.027  28.849  33.714  1.00  0.00     0.022 A 
ATOM     22  Cl  UNL A   1      42.936  29.629  35.452  1.00  0.00    -0.084 Cl
ENDBRANCH   6   8
ENDBRANCH   4   6
ENDBRANCH   3   4
ENDBRANCH   2   3
ENDBRANCH   1   2
BRANCH   1  23
ATOM     23  O   UNL A   1      33.351  35.970  29.455  1.00  0.00    -0.458 OA
BRANCH  23  24
ATOM     24  C   UNL A   1      33.261  34.746  28.886  1.00  0.00     0.338 C 
ATOM     25  O   UNL A   1      32.333  34.287  28.244  1.00  0.00    -0.246 OA
BRANCH  24  26
ATOM     26  C   UNL A   1      34.520  34.015  29.076  1.00  0.00     0.060 A 
ATOM     27  C   UNL A   1      34.525  32.889  29.901  1.00  0.00     0.016 A 
ATOM     28  C   UNL A   1      35.711  34.518  28.550  1.00  0.00     0.016 A 
ATOM     29  C   UNL A   1      35.730  32.287  30.247  1.00  0.00     0.010 A 
ATOM     30  C   UNL A   1      36.917  33.884  28.864  1.00  0.00     0.010 A 
ATOM     31  C   UNL A   1      36.937  32.778  29.732  1.00  0.00    -0.014 A 
BRANCH  31  32
ATOM     32  C   UNL A   1      38.219  32.139  30.118  1.00  0.00     0.031 A 
ATOM     33  C   UNL A   1      39.154  32.829  31.071  1.00  0.00     0.074 A 
ATOM     34  C   UNL A   1      38.538  30.931  29.619  1.00  0.00     0.049 A 
ATOM     35  N   UNL A   1      40.361  32.486  31.439  1.00  0.00    -0.248 NA
ATOM     36  C   UNL A   1      38.667  34.073  31.689  1.00  0.00     0.031 C 
ATOM     37  C   UNL A   1      37.699  30.142  28.715  1.00  0.00     0.029 A 
ATOM     38  N   UNL A   1      39.654  30.155  29.802  1.00  0.00    -0.354 N 
ATOM     39  C   UNL A   1      40.794  33.483  32.303  1.00  0.00     0.074 A 
ATOM     40  C   UNL A   1      39.720  34.451  32.401  1.00  0.00     0.031 C 
ATOM     41  C   UNL A   1      38.325  28.988  28.434  1.00  0.00     0.029 A 
ATOM     42  C   UNL A   1      39.628  28.982  29.091  1.00  0.00     0.049 A 
ATOM     43  H   UNL A   1      40.402  30.415  30.389  1.00  0.00     0.167 HD
ATOM     44  C   UNL A   1      41.977  33.581  32.955  1.00  0.00     0.037 A 
ATOM     45  C   UNL A   1      40.562  28.023  28.955  1.00  0.00     0.037 A 
ATOM     46  C   UNL A   1      43.030  32.603  32.880  1.00  0.00     0.049 A 
ATOM     47  C   UNL A   1      41.878  28.171  29.662  1.00  0.00     0.074 A 
ATOM     48  C   UNL A   1      44.261  32.608  33.515  1.00  0.00     0.029 A 
ATOM     49  N   UNL A   1      42.973  31.439  32.129  1.00  0.00    -0.354 N 
ATOM     50  N   UNL A   1      42.285  29.133  30.453  1.00  0.00    -0.248 NA
ATOM     51  C   UNL A   1      42.867  27.107  29.446  1.00  0.00     0.031 C 
ATOM     52  C   UNL A   1      44.959  31.459  33.127  1.00  0.00     0.029 A 
ATOM     53  C   UNL A   1      44.150  30.723  32.275  1.00  0.00     0.049 A 
ATOM     54  H   UNL A   1      42.209  31.161  31.574  1.00  0.00     0.167 HD
ATOM     55  C   UNL A   1      43.573  28.788  30.837  1.00  0.00     0.074 A 
ATOM     56  C   UNL A   1      43.873  27.519  30.206  1.00  0.00     0.031 C 
ATOM     57  C   UNL A   1      44.431  29.464  31.638  1.00  0.00     0.037 A 
BRANCH  44  58
ATOM     58  C   UNL A   1      42.207  34.806  33.787  1.00  0.00     0.057 A 
ATOM     59  C   UNL A   1      42.815  35.953  33.264  1.00  0.00     0.134 A 
ATOM     60  C   UNL A   1      41.782  34.848  35.121  1.00  0.00     0.134 A 
ATOM     61  F   UNL A   1      43.257  35.970  31.998  1.00  0.00    -0.206 F 
ATOM     62  C   UNL A   1      43.006  37.096  34.044  1.00  0.00     0.040 A 
ATOM     63  C   UNL A   1      41.951  35.990  35.905  1.00  0.00     0.040 A 
ATOM     64  F   UNL A   1      41.190  33.782  35.682  1.00  0.00    -0.206 F 
ATOM     65  C   UNL A   1      42.568  37.117  35.367  1.00  0.00     0.006 A 
ENDBRANCH  44  58
BRANCH  45  66
ATOM     66  C   UNL A   1      40.289  26.850  28.091  1.00  0.00     0.057 A 
ATOM     67  C   UNL A   1      39.494  25.791  28.540  1.00  0.00     0.134 A 
ATOM     68  C   UNL A   1      40.808  26.769  26.793  1.00  0.00     0.134 A 
ATOM     69  F   UNL A   1      38.989  25.805  29.782  1.00  0.00    -0.206 F 
ATOM     70  C   UNL A   1      39.227  24.687  27.729  1.00  0.00     0.040 A 
ATOM     71  C   UNL A   1      40.531  25.680  25.964  1.00  0.00     0.040 A 
ATOM     72  F   UNL A   1      41.576  27.754  26.307  1.00  0.00    -0.206 F 
ATOM     73  C   UNL A   1      39.740  24.634  26.434  1.00  0.00     0.006 A 
ENDBRANCH  45  66
BRANCH  57  74
ATOM     74  C   UNL A   1      45.766  28.832  31.887  1.00  0.00     0.057 A 
ATOM     75  C   UNL A   1      45.966  27.934  32.943  1.00  0.00     0.134 A 
ATOM     76  C   UNL A   1      46.854  29.106  31.051  1.00  0.00     0.134 A 
ATOM     77  F   UNL A   1      44.965  27.644  33.788  1.00  0.00    -0.206 F 
ATOM     78  C   UNL A   1      47.209  27.342  33.168  1.00  0.00     0.040 A 
ATOM     79  C   UNL A   1      48.097  28.506  31.254  1.00  0.00     0.040 A 
ATOM     80  F   UNL A   1      46.724  29.954  30.019  1.00  0.00    -0.206 F 
ATOM     81  C   UNL A   1      48.278  27.624  32.319  1.00  0.00     0.006 A 
ENDBRANCH  57  74
ENDBRANCH  31  32
ENDBRANCH  24  26
ENDBRANCH  23  24
ENDBRANCH   1  23
TORSDOF 12
ENDMDL
MODEL 2
REMARK VINA RESULT:      -9.5      0.482      6.293
REMARK SMILES C[C@H](C(=O)OCCOC(=O)c1ccc(-c2c3nc(c(-c4c(F)cccc4F)c4ccc([nH]4)c(-c4c(F)cccc4F)c4nc(c(-c5c(F)cccc5F)c5ccc2[nH]5)C=C4)C=C3)cc1)c1ccc2c(c1)[nH]c1ccc(Cl)cc12
REMARK SMILES IDX 7 1 6 2 5 3 3 4 4 5 2 6 1 7 65 8 66 9 70 10 67 11 69 12
REMARK SMILES IDX 68 13 71 14 78 15 72 16 77 18 73 19 75 20 74 21 76 22 8 23
REMARK SMILES IDX 9 24 10 25 11 26 12 27 64 28 13 29 63 30 14 31 15 32 16 33
REMARK SMILES IDX 57 34 17 35 62 36 56 37 58 38 18 39 61 40 55 41 54 42 19 44
REMARK SMILES IDX 45 45 28 46 44 47 29 48 32 49 43 50 59 51 30 52 31 53 42 55
REMARK SMILES IDX 60 56 33 57 20 58 21 59 26 60 22 61 23 62 25 63 27 64 24 65
REMARK SMILES IDX 46 66 47 67 52 68 48 69 49 70 51 71 53 72 50 73 34 74 35 75
REMARK SMILES IDX 40 76 36 77 37 78 39 79 41 80 38 81
REMARK H PARENT 71 17 58 43 32 54
REMARK Flexibility Score: inf
ROOT
ATOM      1  C   UNL A   1      32.871  35.722  30.527  1.00  0.00     0.275 C 
ENDROOT
BRANCH   1   2
ATOM      2  C   UNL A   1      33.724  36.757  31.264  1.00  0.00     0.274 C 
BRANCH   2   3
ATOM      3  O   UNL A   1      33.950  36.348  32.625  1.00  0.00    -0.462 OA
BRANCH   3   4
ATOM      4  C   UNL A   1      34.962  35.464  32.843  1.00  0.00     0.313 C 
ATOM      5  O   UNL A   1      36.111  35.629  32.447  1.00  0.00    -0.252 OA
BRANCH   4   6
ATOM      6  C   UNL A   1      34.533  34.312  33.756  1.00  0.00     0.126 C 
ATOM      7  C   UNL A   1      33.387  33.465  33.200  1.00  0.00     0.025 C 
BRANCH   6   8
ATOM      8  C   UNL A   1      35.669  33.401  34.209  1.00  0.00    -0.032 A 
ATOM      9  C   UNL A   1      36.475  33.703  35.314  1.00  0.00     0.005 A 
ATOM     10  C   UNL A   1      35.971  32.271  33.423  1.00  0.00     0.031 A 
ATOM     11  C   UNL A   1      37.598  32.925  35.633  1.00  0.00     0.011 A 
ATOM     12  C   UNL A   1      37.119  31.533  33.730  1.00  0.00     0.047 A 
ATOM     13  C   UNL A   1      37.949  31.841  34.804  1.00  0.00     0.007 A 
ATOM     14  N   UNL A   1      37.674  30.451  33.088  1.00  0.00    -0.355 N 
ATOM     15  C   UNL A   1      39.060  30.938  34.761  1.00  0.00     0.009 A 
ATOM     16  C   UNL A   1      38.879  30.108  33.654  1.00  0.00     0.047 A 
ATOM     17  H   UNL A   1      37.263  29.985  32.324  1.00  0.00     0.167 HD
ATOM     18  C   UNL A   1      40.227  30.785  35.536  1.00  0.00     0.031 A 
ATOM     19  C   UNL A   1      39.816  29.144  33.265  1.00  0.00     0.028 A 
ATOM     20  C   UNL A   1      41.175  29.831  35.153  1.00  0.00     0.041 A 
ATOM     21  C   UNL A   1      40.978  29.027  34.032  1.00  0.00     0.022 A 
ATOM     22  Cl  UNL A   1      42.622  29.662  36.073  1.00  0.00    -0.084 Cl
ENDBRANCH   6   8
ENDBRANCH   4   6
ENDBRANCH   3   4
ENDBRANCH   2   3
ENDBRANCH   1   2
BRANCH   1  23
ATOM     23  O   UNL A   1      33.189  35.666  29.122  1.00  0.00    -0.458 OA
BRANCH  23  24
ATOM     24  C   UNL A   1      33.178  34.428  28.579  1.00  0.00     0.338 C 
ATOM     25  O   UNL A   1      32.297  33.912  27.913  1.00  0.00    -0.246 OA
BRANCH  24  26
ATOM     26  C   UNL A   1      34.463  33.762  28.830  1.00  0.00     0.060 A 
ATOM     27  C   UNL A   1      34.550  32.848  29.882  1.00  0.00     0.016 A 
ATOM     28  C   UNL A   1      35.602  34.140  28.118  1.00  0.00     0.016 A 
ATOM     29  C   UNL A   1      35.789  32.343  30.261  1.00  0.00     0.010 A 
ATOM     30  C   UNL A   1      36.840  33.597  28.474  1.00  0.00     0.010 A 
ATOM     31  C   UNL A   1      36.945  32.711  29.561  1.00  0.00    -0.014 A 
BRANCH  31  32
ATOM     32  C   UNL A   1      38.265  32.179  29.982  1.00  0.00     0.031 A 
ATOM     33  C   UNL A   1      38.760  30.866  29.445  1.00  0.00     0.074 A 
ATOM     34  C   UNL A   1      39.024  32.885  30.839  1.00  0.00     0.049 A 
ATOM     35  N   UNL A   1      39.827  30.187  29.777  1.00  0.00    -0.248 NA
ATOM     36  C   UNL A   1      37.943  30.231  28.398  1.00  0.00     0.031 C 
ATOM     37  C   UNL A   1      38.673  34.190  31.402  1.00  0.00     0.029 A 
ATOM     38  N   UNL A   1      40.249  32.603  31.388  1.00  0.00    -0.354 N 
ATOM     39  C   UNL A   1      39.797  29.031  29.009  1.00  0.00     0.074 A 
ATOM     40  C   UNL A   1      38.600  29.096  28.195  1.00  0.00     0.031 C 
ATOM     41  C   UNL A   1      39.667  34.601  32.206  1.00  0.00     0.029 A 
ATOM     42  C   UNL A   1      40.694  33.567  32.257  1.00  0.00     0.049 A 
ATOM     43  H   UNL A   1      40.761  31.788  31.177  1.00  0.00     0.167 HD
ATOM     44  C   UNL A   1      40.686  28.010  28.984  1.00  0.00     0.037 A 
ATOM     45  C   UNL A   1      41.791  33.600  33.035  1.00  0.00     0.037 A 
ATOM     46  C   UNL A   1      41.891  27.961  29.770  1.00  0.00     0.049 A 
ATOM     47  C   UNL A   1      42.746  32.442  33.014  1.00  0.00     0.074 A 
ATOM     48  C   UNL A   1      42.862  26.974  29.804  1.00  0.00     0.029 A 
ATOM     49  N   UNL A   1      42.294  28.947  30.657  1.00  0.00    -0.354 N 
ATOM     50  N   UNL A   1      42.690  31.341  32.304  1.00  0.00    -0.248 NA
ATOM     51  C   UNL A   1      43.906  32.524  33.911  1.00  0.00     0.031 C 
ATOM     52  C   UNL A   1      43.839  27.352  30.731  1.00  0.00     0.029 A 
ATOM     53  C   UNL A   1      43.493  28.589  31.252  1.00  0.00     0.049 A 
ATOM     54  H   UNL A   1      41.802  29.781  30.838  1.00  0.00     0.167 HD
ATOM     55  C   UNL A   1      43.810  30.604  32.661  1.00  0.00     0.074 A 
ATOM     56  C   UNL A   1      44.537  31.390  33.637  1.00  0.00     0.031 C 
ATOM     57  C   UNL A   1      44.200  29.383  32.222  1.00  0.00     0.037 A 
BRANCH  44  58
ATOM     58  C   UNL A   1      40.375  26.844  28.095  1.00  0.00     0.057 A 
ATOM     59  C   UNL A   1      39.487  25.834  28.482  1.00  0.00     0.134 A 
ATOM     60  C   UNL A   1      40.946  26.751  26.819  1.00  0.00     0.134 A 
ATOM     61  F   UNL A   1      38.918  25.858  29.697  1.00  0.00    -0.206 F 
ATOM     62  C   UNL A   1      39.188  24.763  27.637  1.00  0.00     0.040 A 
ATOM     63  C   UNL A   1      40.642  25.696  25.959  1.00  0.00     0.040 A 
ATOM     64  F   UNL A   1      41.803  27.689  26.387  1.00  0.00    -0.206 F 
ATOM     65  C   UNL A   1      39.763  24.696  26.369  1.00  0.00     0.006 A 
ENDBRANCH  44  58
BRANCH  45  66
ATOM     66  C   UNL A   1      42.029  34.766  33.919  1.00  0.00     0.057 A 
ATOM     67  C   UNL A   1      41.578  34.773  35.243  1.00  0.00     0.134 A 
ATOM     68  C   UNL A   1      42.722  35.894  33.463  1.00  0.00     0.134 A 
ATOM     69  F   UNL A   1      40.889  33.730  35.727  1.00  0.00    -0.206 F 
ATOM     70  C   UNL A   1      41.805  35.864  36.084  1.00  0.00     0.040 A 
ATOM     71  C   UNL A   1      42.974  36.983  34.299  1.00  0.00     0.040 A 
ATOM     72  F   UNL A   1      43.179  35.944  32.204  1.00  0.00    -0.206 F 
ATOM     73  C   UNL A   1      42.511  36.970  35.613  1.00  0.00     0.006 A 
ENDBRANCH  45  66
BRANCH  57  74
ATOM     74  C   UNL A   1      45.476  28.836  32.782  1.00  0.00     0.057 A 
ATOM     75  C   UNL A   1      45.480  27.935  33.854  1.00  0.00     0.134 A 
ATOM     76  C   UNL A   1      46.711  29.196  32.229  1.00  0.00     0.134 A 
ATOM     77  F   UNL A   1      44.329  27.565  34.434  1.00  0.00    -0.206 F 
ATOM     78  C   UNL A   1      46.671  27.422  34.368  1.00  0.00     0.040 A 
ATOM     79  C   UNL A   1      47.908  28.676  32.723  1.00  0.00     0.040 A 
ATOM     80  F   UNL A   1      46.773  30.052  31.198  1.00  0.00    -0.206 F 
ATOM     81  C   UNL A   1      47.890  27.789  33.799  1.00  0.00     0.006 A 
ENDBRANCH  57  74
ENDBRANCH  31  32
ENDBRANCH  24  26
ENDBRANCH  23  24
ENDBRANCH   1  23
TORSDOF 12
ENDMDL
MODEL 3
REMARK VINA RESULT:      -9.2      5.155     10.952
REMARK SMILES C[C@H](C(=O)OCCOC(=O)c1ccc(-c2c3nc(c(-c4c(F)cccc4F)c4ccc([nH]4)c(-c4c(F)cccc4F)c4nc(c(-c5c(F)cccc5F)c5ccc2[nH]5)C=C4)C=C3)cc1)c1ccc2c(c1)[nH]c1ccc(Cl)cc12
REMARK SMILES IDX 7 1 6 2 5 3 3 4 4 5 2 6 1 7 65 8 66 9 70 10 67 11 69 12
REMARK SMILES IDX 68 13 71 14 78 15 72 16 77 18 73 19 75 20 74 21 76 22 8 23
REMARK SMILES IDX 9 24 10 25 11 26 12 27 64 28 13 29 63 30 14 31 15 32 16 33
REMARK SMILES IDX 57 34 17 35 62 36 56 37 58 38 18 39 61 40 55 41 54 42 19 44
REMARK SMILES IDX 45 45 28 46 44 47 29 48 32 49 43 50 59 51 30 52 31 53 42 55
REMARK SMILES IDX 60 56 33 57 20 58 21 59 26 60 22 61 23 62 25 63 27 64 24 65
REMARK SMILES IDX 46 66 47 67 52 68 48 69 49 70 51 71 53 72 50 73 34 74 35 75
REMARK SMILES IDX 40 76 36 77 37 78 39 79 41 80 38 81
REMARK H PARENT 71 17 58 43 32 54
REMARK Flexibility Score: inf
ROOT
ATOM      1  C   UNL A   1      44.288  22.898  24.403  1.00  0.00     0.275 C 
ENDROOT
BRANCH   1   2
ATOM      2  C   UNL A   1      43.799  21.769  25.314  1.00  0.00     0.274 C 
BRANCH   2   3
ATOM      3  O   UNL A   1      42.361  21.726  25.337  1.00  0.00    -0.462 OA
BRANCH   3   4
ATOM      4  C   UNL A   1      41.784  20.766  26.110  1.00  0.00     0.313 C 
ATOM      5  O   UNL A   1      42.083  19.577  26.060  1.00  0.00    -0.252 OA
BRANCH   4   6
ATOM      6  C   UNL A   1      40.821  21.359  27.143  1.00  0.00     0.126 C 
ATOM      7  C   UNL A   1      41.500  22.215  28.213  1.00  0.00     0.025 C 
BRANCH   6   8
ATOM      8  C   UNL A   1      39.641  22.121  26.549  1.00  0.00    -0.032 A 
ATOM      9  C   UNL A   1      39.352  23.445  26.904  1.00  0.00     0.005 A 
ATOM     10  C   UNL A   1      38.763  21.428  25.692  1.00  0.00     0.031 A 
ATOM     11  C   UNL A   1      38.187  24.083  26.453  1.00  0.00     0.011 A 
ATOM     12  C   UNL A   1      37.585  22.067  25.288  1.00  0.00     0.047 A 
ATOM     13  C   UNL A   1      37.267  23.369  25.660  1.00  0.00     0.007 A 
ATOM     14  N   UNL A   1      36.540  21.596  24.529  1.00  0.00    -0.355 N 
ATOM     15  C   UNL A   1      35.963  23.656  25.142  1.00  0.00     0.009 A 
ATOM     16  C   UNL A   1      35.519  22.515  24.475  1.00  0.00     0.047 A 
ATOM     17  H   UNL A   1      36.524  20.717  24.084  1.00  0.00     0.167 HD
ATOM     18  C   UNL A   1      35.101  24.769  25.224  1.00  0.00     0.031 A 
ATOM     19  C   UNL A   1      34.246  22.415  23.901  1.00  0.00     0.028 A 
ATOM     20  C   UNL A   1      33.824  24.680  24.662  1.00  0.00     0.041 A 
ATOM     21  C   UNL A   1      33.399  23.520  24.016  1.00  0.00     0.022 A 
ATOM     22  Cl  UNL A   1      32.750  26.021  24.789  1.00  0.00    -0.084 Cl
ENDBRANCH   6   8
ENDBRANCH   4   6
ENDBRANCH   3   4
ENDBRANCH   2   3
ENDBRANCH   1   2
BRANCH   1  23
ATOM     23  O   UNL A   1      43.567  24.124  24.634  1.00  0.00    -0.458 OA
BRANCH  23  24
ATOM     24  C   UNL A   1      44.320  25.160  25.071  1.00  0.00     0.338 C 
ATOM     25  O   UNL A   1      45.401  25.528  24.647  1.00  0.00    -0.246 OA
BRANCH  24  26
ATOM     26  C   UNL A   1      43.604  25.884  26.129  1.00  0.00     0.060 A 
ATOM     27  C   UNL A   1      44.016  27.178  26.453  1.00  0.00     0.016 A 
ATOM     28  C   UNL A   1      42.625  25.238  26.885  1.00  0.00     0.016 A 
ATOM     29  C   UNL A   1      43.484  27.817  27.568  1.00  0.00     0.010 A 
ATOM     30  C   UNL A   1      42.061  25.900  27.980  1.00  0.00     0.010 A 
ATOM     31  C   UNL A   1      42.501  27.185  28.341  1.00  0.00    -0.014 A 
BRANCH  31  32
ATOM     32  C   UNL A   1      41.951  27.868  29.537  1.00  0.00     0.031 A 
ATOM     33  C   UNL A   1      40.693  28.684  29.434  1.00  0.00     0.074 A 
ATOM     34  C   UNL A   1      42.577  27.744  30.722  1.00  0.00     0.049 A 
ATOM     35  N   UNL A   1      40.122  29.440  30.335  1.00  0.00    -0.248 NA
ATOM     36  C   UNL A   1      39.986  28.646  28.144  1.00  0.00     0.031 C 
ATOM     37  C   UNL A   1      43.784  26.951  30.961  1.00  0.00     0.029 A 
ATOM     38  N   UNL A   1      42.284  28.286  31.947  1.00  0.00    -0.354 N 
ATOM     39  C   UNL A   1      39.010  29.996  29.716  1.00  0.00     0.074 A 
ATOM     40  C   UNL A   1      38.988  29.494  28.358  1.00  0.00     0.031 C 
ATOM     41  C   UNL A   1      44.120  27.047  32.257  1.00  0.00     0.029 A 
ATOM     42  C   UNL A   1      43.188  27.950  32.924  1.00  0.00     0.049 A 
ATOM     43  H   UNL A   1      41.501  28.860  32.111  1.00  0.00     0.167 HD
ATOM     44  C   UNL A   1      38.092  30.846  30.234  1.00  0.00     0.037 A 
ATOM     45  C   UNL A   1      43.277  28.350  34.205  1.00  0.00     0.037 A 
ATOM     46  C   UNL A   1      38.098  31.321  31.593  1.00  0.00     0.049 A 
ATOM     47  C   UNL A   1      42.266  29.318  34.747  1.00  0.00     0.074 A 
ATOM     48  C   UNL A   1      37.201  32.174  32.215  1.00  0.00     0.029 A 
ATOM     49  N   UNL A   1      39.044  30.974  32.545  1.00  0.00    -0.354 N 
ATOM     50  N   UNL A   1      41.236  29.858  34.143  1.00  0.00    -0.248 NA
ATOM     51  C   UNL A   1      42.438  29.742  36.143  1.00  0.00     0.031 C 
ATOM     52  C   UNL A   1      37.622  32.365  33.536  1.00  0.00     0.029 A 
ATOM     53  C   UNL A   1      38.762  31.605  33.746  1.00  0.00     0.049 A 
ATOM     54  H   UNL A   1      39.806  30.369  32.391  1.00  0.00     0.167 HD
ATOM     55  C   UNL A   1      40.631  30.678  35.085  1.00  0.00     0.074 A 
ATOM     56  C   UNL A   1      41.399  30.550  36.307  1.00  0.00     0.031 C 
ATOM     57  C   UNL A   1      39.539  31.467  34.949  1.00  0.00     0.037 A 
BRANCH  44  58
ATOM     58  C   UNL A   1      37.015  31.342  29.317  1.00  0.00     0.057 A 
ATOM     59  C   UNL A   1      35.904  30.557  28.989  1.00  0.00     0.134 A 
ATOM     60  C   UNL A   1      37.076  32.636  28.784  1.00  0.00     0.134 A 
ATOM     61  F   UNL A   1      35.794  29.305  29.456  1.00  0.00    -0.206 F 
ATOM     62  C   UNL A   1      34.896  31.037  28.149  1.00  0.00     0.040 A 
ATOM     63  C   UNL A   1      36.067  33.133  27.958  1.00  0.00     0.040 A 
ATOM     64  F   UNL A   1      38.114  33.439  29.063  1.00  0.00    -0.206 F 
ATOM     65  C   UNL A   1      34.974  32.332  27.637  1.00  0.00     0.006 A 
ENDBRANCH  44  58
BRANCH  45  66
ATOM     66  C   UNL A   1      44.385  27.851  35.055  1.00  0.00     0.057 A 
ATOM     67  C   UNL A   1      45.614  28.514  35.102  1.00  0.00     0.134 A 
ATOM     68  C   UNL A   1      44.233  26.706  35.846  1.00  0.00     0.134 A 
ATOM     69  F   UNL A   1      45.824  29.603  34.348  1.00  0.00    -0.206 F 
ATOM     70  C   UNL A   1      46.660  28.054  35.906  1.00  0.00     0.040 A 
ATOM     71  C   UNL A   1      45.262  26.247  36.670  1.00  0.00     0.040 A 
ATOM     72  F   UNL A   1      43.076  26.028  35.843  1.00  0.00    -0.206 F 
ATOM     73  C   UNL A   1      46.481  26.922  36.698  1.00  0.00     0.006 A 
ENDBRANCH  45  66
BRANCH  57  74
ATOM     74  C   UNL A   1      39.105  32.238  36.158  1.00  0.00     0.057 A 
ATOM     75  C   UNL A   1      39.557  33.542  36.397  1.00  0.00     0.134 A 
ATOM     76  C   UNL A   1      38.209  31.680  37.077  1.00  0.00     0.134 A 
ATOM     77  F   UNL A   1      40.427  34.124  35.559  1.00  0.00    -0.206 F 
ATOM     78  C   UNL A   1      39.144  34.259  37.521  1.00  0.00     0.040 A 
ATOM     79  C   UNL A   1      37.775  32.394  38.195  1.00  0.00     0.040 A 
ATOM     80  F   UNL A   1      37.737  30.437  36.901  1.00  0.00    -0.206 F 
ATOM     81  C   UNL A   1      38.246  33.687  38.421  1.00  0.00     0.006 A 
ENDBRANCH  57  74
ENDBRANCH  31  32
ENDBRANCH  24  26
ENDBRANCH  23  24
ENDBRANCH   1  23
TORSDOF 12
ENDMDL
