MODEL 1
REMARK VINA RESULT:     -11.6      0.000      0.000
REMARK SMILES COc1c(C(=O)OCCOC(=O)c2ccc(-c3c4nc(c(-c5c(F)cccc5F)c5ccc([nH]5)c(-c5c(F)cccc5F)c5nc(c(-c6c(F)cccc6F)c6ccc3[nH]6)C=C5)C=C4)cc2)cccc1-c1cc(C)ccc1C
REMARK SMILES IDX 9 1 8 2 7 3 5 4 6 5 4 6 3 7 70 8 67 9 69 10 68 11 2 12 1 13
REMARK SMILES IDX 71 14 72 15 77 16 73 17 76 18 78 19 74 20 75 21 10 22 11 23
REMARK SMILES IDX 12 24 13 25 14 26 66 27 15 28 65 29 16 30 17 31 18 32 59 33
REMARK SMILES IDX 19 34 64 35 58 36 60 37 20 38 63 39 57 40 56 41 21 43 47 44
REMARK SMILES IDX 30 45 46 46 31 47 34 48 45 49 61 50 32 51 33 52 44 54 62 55
REMARK SMILES IDX 35 56 22 57 23 58 28 59 24 60 25 61 27 62 29 63 26 64 48 65
REMARK SMILES IDX 49 66 54 67 50 68 51 69 53 70 55 71 52 72 36 73 37 74 42 75
REMARK SMILES IDX 38 76 39 77 41 78 43 79 40 80
REMARK H PARENT 60 42 34 53
REMARK Flexibility Score: inf
ROOT
ATOM      1  C   UNL A   1      36.805  20.258  25.075  1.00  0.00     0.275 C 
ENDROOT
BRANCH   1   2
ATOM      2  C   UNL A   1      35.598  21.130  25.418  1.00  0.00     0.275 C 
BRANCH   2   3
ATOM      3  O   UNL A   1      35.194  21.888  24.260  1.00  0.00    -0.458 OA
BRANCH   3   4
ATOM      4  C   UNL A   1      33.857  21.980  24.032  1.00  0.00     0.342 C 
ATOM      5  O   UNL A   1      33.039  21.091  24.142  1.00  0.00    -0.246 OA
BRANCH   4   6
ATOM      6  C   UNL A   1      33.475  23.399  23.810  1.00  0.00     0.102 A 
ATOM      7  C   UNL A   1      33.153  24.284  24.850  1.00  0.00     0.141 A 
ATOM      8  C   UNL A   1      32.786  25.615  24.542  1.00  0.00     0.025 A 
ATOM      9  C   UNL A   1      33.458  23.838  22.476  1.00  0.00     0.019 A 
ATOM     10  C   UNL A   1      32.653  25.982  23.183  1.00  0.00     0.012 A 
ATOM     11  C   UNL A   1      32.997  25.108  22.159  1.00  0.00     0.002 A 
BRANCH   7  12
ATOM     12  O   UNL A   1      33.395  23.863  26.136  1.00  0.00    -0.495 OA
ATOM     13  C   UNL A   1      32.251  23.302  26.776  1.00  0.00     0.278 C 
ENDBRANCH   7  12
BRANCH   8  14
ATOM     14  C   UNL A   1      32.667  26.696  25.541  1.00  0.00    -0.011 A 
ATOM     15  C   UNL A   1      33.808  27.449  25.888  1.00  0.00     0.012 A 
ATOM     16  C   UNL A   1      31.462  26.934  26.239  1.00  0.00    -0.043 A 
ATOM     17  C   UNL A   1      33.767  28.423  26.896  1.00  0.00    -0.050 A 
ATOM     18  C   UNL A   1      31.417  27.943  27.214  1.00  0.00     0.004 A 
ATOM     19  C   UNL A   1      30.198  26.159  25.967  1.00  0.00     0.045 C 
ATOM     20  C   UNL A   1      35.018  29.151  27.291  1.00  0.00     0.044 C 
ATOM     21  C   UNL A   1      32.558  28.671  27.547  1.00  0.00     0.004 A 
ENDBRANCH   8  14
ENDBRANCH   4   6
ENDBRANCH   3   4
ENDBRANCH   2   3
ENDBRANCH   1   2
BRANCH   1  22
ATOM     22  O   UNL A   1      37.979  21.089  24.982  1.00  0.00    -0.458 OA
BRANCH  22  23
ATOM     23  C   UNL A   1      39.008  20.746  25.784  1.00  0.00     0.338 C 
ATOM     24  O   UNL A   1      39.527  19.651  25.922  1.00  0.00    -0.246 OA
BRANCH  23  25
ATOM     25  C   UNL A   1      39.529  21.959  26.431  1.00  0.00     0.060 A 
ATOM     26  C   UNL A   1      38.950  23.174  26.074  1.00  0.00     0.016 A 
ATOM     27  C   UNL A   1      40.653  21.929  27.251  1.00  0.00     0.016 A 
ATOM     28  C   UNL A   1      39.519  24.376  26.484  1.00  0.00     0.010 A 
ATOM     29  C   UNL A   1      41.201  23.138  27.704  1.00  0.00     0.010 A 
ATOM     30  C   UNL A   1      40.666  24.374  27.288  1.00  0.00    -0.014 A 
BRANCH  30  31
ATOM     31  C   UNL A   1      41.369  25.657  27.573  1.00  0.00     0.031 A 
ATOM     32  C   UNL A   1      40.685  26.713  28.404  1.00  0.00     0.074 A 
ATOM     33  C   UNL A   1      42.634  25.867  27.157  1.00  0.00     0.049 A 
ATOM     34  N   UNL A   1      41.076  27.930  28.692  1.00  0.00    -0.248 NA
ATOM     35  C   UNL A   1      39.383  26.351  28.985  1.00  0.00     0.031 C 
ATOM     36  C   UNL A   1      43.446  24.918  26.395  1.00  0.00     0.029 A 
ATOM     37  N   UNL A   1      43.464  26.949  27.333  1.00  0.00    -0.354 N 
ATOM     38  C   UNL A   1      40.048  28.493  29.438  1.00  0.00     0.074 A 
ATOM     39  C   UNL A   1      39.012  27.488  29.554  1.00  0.00     0.031 C 
ATOM     40  C   UNL A   1      44.664  25.445  26.195  1.00  0.00     0.029 A 
ATOM     41  C   UNL A   1      44.704  26.790  26.762  1.00  0.00     0.049 A 
ATOM     42  H   UNL A   1      43.195  27.760  27.821  1.00  0.00     0.167 HD
ATOM     43  C   UNL A   1      39.971  29.731  29.983  1.00  0.00     0.037 A 
ATOM     44  C   UNL A   1      45.747  27.641  26.685  1.00  0.00     0.037 A 
ATOM     45  C   UNL A   1      41.020  30.716  29.924  1.00  0.00     0.049 A 
ATOM     46  C   UNL A   1      45.637  29.012  27.291  1.00  0.00     0.074 A 
ATOM     47  C   UNL A   1      41.031  31.998  30.447  1.00  0.00     0.029 A 
ATOM     48  N   UNL A   1      42.254  30.518  29.325  1.00  0.00    -0.354 N 
ATOM     49  N   UNL A   1      44.638  29.549  27.948  1.00  0.00    -0.248 NA
ATOM     50  C   UNL A   1      46.800  29.899  27.140  1.00  0.00     0.031 C 
ATOM     51  C   UNL A   1      42.265  32.585  30.143  1.00  0.00     0.029 A 
ATOM     52  C   UNL A   1      43.034  31.654  29.466  1.00  0.00     0.049 A 
ATOM     53  H   UNL A   1      42.534  29.692  28.867  1.00  0.00     0.167 HD
ATOM     54  C   UNL A   1      45.058  30.823  28.306  1.00  0.00     0.074 A 
ATOM     55  C   UNL A   1      46.411  30.975  27.810  1.00  0.00     0.031 C 
ATOM     56  C   UNL A   1      44.385  31.784  28.984  1.00  0.00     0.037 A 
BRANCH  43  57
ATOM     57  C   UNL A   1      38.689  30.103  30.669  1.00  0.00     0.057 A 
ATOM     58  C   UNL A   1      37.625  30.703  29.986  1.00  0.00     0.134 A 
ATOM     59  C   UNL A   1      38.515  29.836  32.034  1.00  0.00     0.134 A 
ATOM     60  F   UNL A   1      37.735  31.001  28.682  1.00  0.00    -0.206 F 
ATOM     61  C   UNL A   1      36.441  31.049  30.641  1.00  0.00     0.040 A 
ATOM     62  C   UNL A   1      37.327  30.154  32.694  1.00  0.00     0.040 A 
ATOM     63  F   UNL A   1      39.493  29.257  32.745  1.00  0.00    -0.206 F 
ATOM     64  C   UNL A   1      36.288  30.769  31.999  1.00  0.00     0.006 A 
ENDBRANCH  43  57
BRANCH  44  65
ATOM     65  C   UNL A   1      46.992  27.228  25.989  1.00  0.00     0.057 A 
ATOM     66  C   UNL A   1      47.169  27.462  24.620  1.00  0.00     0.134 A 
ATOM     67  C   UNL A   1      48.023  26.567  26.668  1.00  0.00     0.134 A 
ATOM     68  F   UNL A   1      46.206  28.066  23.909  1.00  0.00    -0.206 F 
ATOM     69  C   UNL A   1      48.319  27.042  23.949  1.00  0.00     0.040 A 
ATOM     70  C   UNL A   1      49.189  26.165  26.016  1.00  0.00     0.040 A 
ATOM     71  F   UNL A   1      47.913  26.311  27.980  1.00  0.00    -0.206 F 
ATOM     72  C   UNL A   1      49.336  26.396  24.650  1.00  0.00     0.006 A 
ENDBRANCH  44  65
BRANCH  56  73
ATOM     73  C   UNL A   1      45.116  33.063  29.270  1.00  0.00     0.057 A 
ATOM     74  C   UNL A   1      45.062  34.159  28.400  1.00  0.00     0.134 A 
ATOM     75  C   UNL A   1      45.872  33.201  30.440  1.00  0.00     0.134 A 
ATOM     76  F   UNL A   1      44.365  34.085  27.257  1.00  0.00    -0.206 F 
ATOM     77  C   UNL A   1      45.756  35.340  28.673  1.00  0.00     0.040 A 
ATOM     78  C   UNL A   1      46.551  34.384  30.735  1.00  0.00     0.040 A 
ATOM     79  F   UNL A   1      45.959  32.191  31.319  1.00  0.00    -0.206 F 
ATOM     80  C   UNL A   1      46.500  35.456  29.845  1.00  0.00     0.006 A 
ENDBRANCH  56  73
ENDBRANCH  30  31
ENDBRANCH  23  25
ENDBRANCH  22  23
ENDBRANCH   1  22
TORSDOF 13
ENDMDL
MODEL 2
REMARK VINA RESULT:     -11.6      0.084      1.623
REMARK SMILES COc1c(C(=O)OCCOC(=O)c2ccc(-c3c4nc(c(-c5c(F)cccc5F)c5ccc([nH]5)c(-c5c(F)cccc5F)c5nc(c(-c6c(F)cccc6F)c6ccc3[nH]6)C=C5)C=C4)cc2)cccc1-c1cc(C)ccc1C
REMARK SMILES IDX 9 1 8 2 7 3 5 4 6 5 4 6 3 7 70 8 67 9 69 10 68 11 2 12 1 13
REMARK SMILES IDX 71 14 72 15 77 16 73 17 76 18 78 19 74 20 75 21 10 22 11 23
REMARK SMILES IDX 12 24 13 25 14 26 66 27 15 28 65 29 16 30 17 31 18 32 59 33
REMARK SMILES IDX 19 34 64 35 58 36 60 37 20 38 63 39 57 40 56 41 21 43 47 44
REMARK SMILES IDX 30 45 46 46 31 47 34 48 45 49 61 50 32 51 33 52 44 54 62 55
REMARK SMILES IDX 35 56 22 57 23 58 28 59 24 60 25 61 27 62 29 63 26 64 48 65
REMARK SMILES IDX 49 66 54 67 50 68 51 69 53 70 55 71 52 72 36 73 37 74 42 75
REMARK SMILES IDX 38 76 39 77 41 78 43 79 40 80
REMARK H PARENT 60 42 34 53
REMARK Flexibility Score: inf
ROOT
ATOM      1  C   UNL A   1      36.800  20.149  24.992  1.00  0.00     0.275 C 
ENDROOT
BRANCH   1   2
ATOM      2  C   UNL A   1      35.556  20.945  25.384  1.00  0.00     0.275 C 
BRANCH   2   3
ATOM      3  O   UNL A   1      35.192  21.845  24.317  1.00  0.00    -0.458 OA
BRANCH   3   4
ATOM      4  C   UNL A   1      33.867  21.937  24.026  1.00  0.00     0.342 C 
ATOM      5  O   UNL A   1      33.048  21.045  24.086  1.00  0.00    -0.246 OA
BRANCH   4   6
ATOM      6  C   UNL A   1      33.493  23.357  23.804  1.00  0.00     0.102 A 
ATOM      7  C   UNL A   1      33.163  24.241  24.844  1.00  0.00     0.141 A 
ATOM      8  C   UNL A   1      32.803  25.575  24.536  1.00  0.00     0.025 A 
ATOM      9  C   UNL A   1      33.489  23.801  22.472  1.00  0.00     0.019 A 
ATOM     10  C   UNL A   1      32.685  25.945  23.177  1.00  0.00     0.012 A 
ATOM     11  C   UNL A   1      33.036  25.073  22.153  1.00  0.00     0.002 A 
BRANCH   7  12
ATOM     12  O   UNL A   1      33.391  23.816  26.131  1.00  0.00    -0.495 OA
ATOM     13  C   UNL A   1      32.244  23.236  26.750  1.00  0.00     0.278 C 
ENDBRANCH   7  12
BRANCH   8  14
ATOM     14  C   UNL A   1      32.678  26.653  25.536  1.00  0.00    -0.011 A 
ATOM     15  C   UNL A   1      33.815  27.413  25.883  1.00  0.00     0.012 A 
ATOM     16  C   UNL A   1      31.472  26.881  26.237  1.00  0.00    -0.043 A 
ATOM     17  C   UNL A   1      33.768  28.386  26.892  1.00  0.00    -0.050 A 
ATOM     18  C   UNL A   1      31.422  27.889  27.213  1.00  0.00     0.004 A 
ATOM     19  C   UNL A   1      30.214  26.097  25.965  1.00  0.00     0.045 C 
ATOM     20  C   UNL A   1      35.014  29.122  27.287  1.00  0.00     0.044 C 
ATOM     21  C   UNL A   1      32.558  28.624  27.545  1.00  0.00     0.004 A 
ENDBRANCH   8  14
ENDBRANCH   4   6
ENDBRANCH   3   4
ENDBRANCH   2   3
ENDBRANCH   1   2
BRANCH   1  22
ATOM     22  O   UNL A   1      37.937  21.033  24.962  1.00  0.00    -0.458 OA
BRANCH  22  23
ATOM     23  C   UNL A   1      38.973  20.686  25.755  1.00  0.00     0.338 C 
ATOM     24  O   UNL A   1      39.491  19.590  25.886  1.00  0.00    -0.246 OA
BRANCH  23  25
ATOM     25  C   UNL A   1      39.501  21.896  26.401  1.00  0.00     0.060 A 
ATOM     26  C   UNL A   1      38.916  23.112  26.059  1.00  0.00     0.016 A 
ATOM     27  C   UNL A   1      40.637  21.864  27.205  1.00  0.00     0.016 A 
ATOM     28  C   UNL A   1      39.489  24.313  26.466  1.00  0.00     0.010 A 
ATOM     29  C   UNL A   1      41.190  23.071  27.655  1.00  0.00     0.010 A 
ATOM     30  C   UNL A   1      40.647  24.309  27.254  1.00  0.00    -0.014 A 
BRANCH  30  31
ATOM     31  C   UNL A   1      41.353  25.591  27.535  1.00  0.00     0.031 A 
ATOM     32  C   UNL A   1      40.676  26.645  28.375  1.00  0.00     0.074 A 
ATOM     33  C   UNL A   1      42.613  25.803  27.108  1.00  0.00     0.049 A 
ATOM     34  N   UNL A   1      41.068  27.862  28.662  1.00  0.00    -0.248 NA
ATOM     35  C   UNL A   1      39.378  26.281  28.967  1.00  0.00     0.031 C 
ATOM     36  C   UNL A   1      43.419  24.856  26.337  1.00  0.00     0.029 A 
ATOM     37  N   UNL A   1      43.444  26.884  27.279  1.00  0.00    -0.354 N 
ATOM     38  C   UNL A   1      40.047  28.422  29.419  1.00  0.00     0.074 A 
ATOM     39  C   UNL A   1      39.012  27.417  29.541  1.00  0.00     0.031 C 
ATOM     40  C   UNL A   1      44.635  25.383  26.127  1.00  0.00     0.029 A 
ATOM     41  C   UNL A   1      44.679  26.728  26.697  1.00  0.00     0.049 A 
ATOM     42  H   UNL A   1      43.180  27.694  27.772  1.00  0.00     0.167 HD
ATOM     43  C   UNL A   1      39.975  29.659  29.967  1.00  0.00     0.037 A 
ATOM     44  C   UNL A   1      45.721  27.578  26.612  1.00  0.00     0.037 A 
ATOM     45  C   UNL A   1      41.023  30.645  29.901  1.00  0.00     0.049 A 
ATOM     46  C   UNL A   1      45.616  28.948  27.223  1.00  0.00     0.074 A 
ATOM     47  C   UNL A   1      41.038  31.925  30.426  1.00  0.00     0.029 A 
ATOM     48  N   UNL A   1      42.252  30.448  29.290  1.00  0.00    -0.354 N 
ATOM     49  N   UNL A   1      44.623  29.483  27.890  1.00  0.00    -0.248 NA
ATOM     50  C   UNL A   1      46.778  29.836  27.063  1.00  0.00     0.031 C 
ATOM     51  C   UNL A   1      42.269  32.514  30.113  1.00  0.00     0.029 A 
ATOM     52  C   UNL A   1      43.033  31.584  29.427  1.00  0.00     0.049 A 
ATOM     53  H   UNL A   1      42.528  29.624  28.827  1.00  0.00     0.167 HD
ATOM     54  C   UNL A   1      45.046  30.757  28.247  1.00  0.00     0.074 A 
ATOM     55  C   UNL A   1      46.394  30.910  27.738  1.00  0.00     0.031 C 
ATOM     56  C   UNL A   1      44.379  31.716  28.933  1.00  0.00     0.037 A 
BRANCH  43  57
ATOM     57  C   UNL A   1      38.699  30.029  30.665  1.00  0.00     0.057 A 
ATOM     58  C   UNL A   1      38.499  29.791  32.030  1.00  0.00     0.134 A 
ATOM     59  C   UNL A   1      37.660  30.650  29.958  1.00  0.00     0.134 A 
ATOM     60  F   UNL A   1      39.447  29.184  32.760  1.00  0.00    -0.206 F 
ATOM     61  C   UNL A   1      37.303  30.134  32.662  1.00  0.00     0.040 A 
ATOM     62  C   UNL A   1      36.470  31.021  30.584  1.00  0.00     0.040 A 
ATOM     63  F   UNL A   1      37.789  30.911  28.649  1.00  0.00    -0.206 F 
ATOM     64  C   UNL A   1      36.286  30.757  31.939  1.00  0.00     0.006 A 
ENDBRANCH  43  57
BRANCH  44  65
ATOM     65  C   UNL A   1      46.960  27.167  25.905  1.00  0.00     0.057 A 
ATOM     66  C   UNL A   1      48.000  26.518  26.582  1.00  0.00     0.134 A 
ATOM     67  C   UNL A   1      47.147  27.436  24.543  1.00  0.00     0.134 A 
ATOM     68  F   UNL A   1      47.892  26.257  27.893  1.00  0.00    -0.206 F 
ATOM     69  C   UNL A   1      49.185  26.163  25.935  1.00  0.00     0.040 A 
ATOM     70  C   UNL A   1      48.315  27.064  23.878  1.00  0.00     0.040 A 
ATOM     71  F   UNL A   1      46.190  28.057  23.840  1.00  0.00    -0.206 F 
ATOM     72  C   UNL A   1      49.343  26.433  24.576  1.00  0.00     0.006 A 
ENDBRANCH  44  65
BRANCH  56  73
ATOM     73  C   UNL A   1      45.112  32.994  29.215  1.00  0.00     0.057 A 
ATOM     74  C   UNL A   1      45.901  33.160  30.361  1.00  0.00     0.134 A 
ATOM     75  C   UNL A   1      45.040  34.067  28.318  1.00  0.00     0.134 A 
ATOM     76  F   UNL A   1      46.000  32.174  31.265  1.00  0.00    -0.206 F 
ATOM     77  C   UNL A   1      46.570  34.358  30.618  1.00  0.00     0.040 A 
ATOM     78  C   UNL A   1      45.723  35.262  28.552  1.00  0.00     0.040 A 
ATOM     79  F   UNL A   1      44.309  33.971  27.198  1.00  0.00    -0.206 F 
ATOM     80  C   UNL A   1      46.485  35.412  29.710  1.00  0.00     0.006 A 
ENDBRANCH  56  73
ENDBRANCH  30  31
ENDBRANCH  23  25
ENDBRANCH  22  23
ENDBRANCH   1  22
TORSDOF 13
ENDMDL
MODEL 3
REMARK VINA RESULT:     -11.5      0.328      6.343
REMARK SMILES COc1c(C(=O)OCCOC(=O)c2ccc(-c3c4nc(c(-c5c(F)cccc5F)c5ccc([nH]5)c(-c5c(F)cccc5F)c5nc(c(-c6c(F)cccc6F)c6ccc3[nH]6)C=C5)C=C4)cc2)cccc1-c1cc(C)ccc1C
REMARK SMILES IDX 9 1 8 2 7 3 5 4 6 5 4 6 3 7 70 8 67 9 69 10 68 11 2 12 1 13
REMARK SMILES IDX 71 14 72 15 77 16 73 17 76 18 78 19 74 20 75 21 10 22 11 23
REMARK SMILES IDX 12 24 13 25 14 26 66 27 15 28 65 29 16 30 17 31 18 32 59 33
REMARK SMILES IDX 19 34 64 35 58 36 60 37 20 38 63 39 57 40 56 41 21 43 47 44
REMARK SMILES IDX 30 45 46 46 31 47 34 48 45 49 61 50 32 51 33 52 44 54 62 55
REMARK SMILES IDX 35 56 22 57 23 58 28 59 24 60 25 61 27 62 29 63 26 64 48 65
REMARK SMILES IDX 49 66 54 67 50 68 51 69 53 70 55 71 52 72 36 73 37 74 42 75
REMARK SMILES IDX 38 76 39 77 41 78 43 79 40 80
REMARK H PARENT 60 42 34 53
REMARK Flexibility Score: inf
ROOT
ATOM      1  C   UNL A   1      36.966  20.206  25.004  1.00  0.00     0.275 C 
ENDROOT
BRANCH   1   2
ATOM      2  C   UNL A   1      35.710  20.931  25.484  1.00  0.00     0.275 C 
BRANCH   2   3
ATOM      3  O   UNL A   1      35.359  21.975  24.552  1.00  0.00    -0.458 OA
BRANCH   3   4
ATOM      4  C   UNL A   1      34.069  21.997  24.123  1.00  0.00     0.342 C 
ATOM      5  O   UNL A   1      33.299  21.060  24.092  1.00  0.00    -0.246 OA
BRANCH   4   6
ATOM      6  C   UNL A   1      33.641  23.396  23.870  1.00  0.00     0.102 A 
ATOM      7  C   UNL A   1      33.284  24.292  24.890  1.00  0.00     0.141 A 
ATOM      8  C   UNL A   1      32.873  25.603  24.553  1.00  0.00     0.025 A 
ATOM      9  C   UNL A   1      33.614  23.807  22.528  1.00  0.00     0.019 A 
ATOM     10  C   UNL A   1      32.734  25.937  23.186  1.00  0.00     0.012 A 
ATOM     11  C   UNL A   1      33.112  25.054  22.182  1.00  0.00     0.002 A 
BRANCH   7  12
ATOM     12  O   UNL A   1      33.535  23.907  26.185  1.00  0.00    -0.495 OA
ATOM     13  C   UNL A   1      32.400  23.345  26.842  1.00  0.00     0.278 C 
ENDBRANCH   7  12
BRANCH   8  14
ATOM     14  C   UNL A   1      32.713  26.700  25.528  1.00  0.00    -0.011 A 
ATOM     15  C   UNL A   1      33.835  27.475  25.892  1.00  0.00     0.012 A 
ATOM     16  C   UNL A   1      31.487  26.933  26.191  1.00  0.00    -0.043 A 
ATOM     17  C   UNL A   1      33.754  28.466  26.880  1.00  0.00    -0.050 A 
ATOM     18  C   UNL A   1      31.403  27.959  27.145  1.00  0.00     0.004 A 
ATOM     19  C   UNL A   1      30.242  26.136  25.900  1.00  0.00     0.045 C 
ATOM     20  C   UNL A   1      34.984  29.219  27.294  1.00  0.00     0.044 C 
ATOM     21  C   UNL A   1      32.525  28.709  27.494  1.00  0.00     0.004 A 
ENDBRANCH   8  14
ENDBRANCH   4   6
ENDBRANCH   3   4
ENDBRANCH   2   3
ENDBRANCH   1   2
BRANCH   1  22
ATOM     22  O   UNL A   1      38.071  21.131  24.990  1.00  0.00    -0.458 OA
BRANCH  22  23
ATOM     23  C   UNL A   1      39.089  20.844  25.829  1.00  0.00     0.338 C 
ATOM     24  O   UNL A   1      39.664  19.780  25.983  1.00  0.00    -0.246 OA
BRANCH  23  25
ATOM     25  C   UNL A   1      39.515  22.081  26.497  1.00  0.00     0.060 A 
ATOM     26  C   UNL A   1      38.871  23.261  26.133  1.00  0.00     0.016 A 
ATOM     27  C   UNL A   1      40.617  22.116  27.347  1.00  0.00     0.016 A 
ATOM     28  C   UNL A   1      39.352  24.493  26.565  1.00  0.00     0.010 A 
ATOM     29  C   UNL A   1      41.076  23.353  27.821  1.00  0.00     0.010 A 
ATOM     30  C   UNL A   1      40.475  24.557  27.399  1.00  0.00    -0.014 A 
BRANCH  30  31
ATOM     31  C   UNL A   1      41.089  25.879  27.711  1.00  0.00     0.031 A 
ATOM     32  C   UNL A   1      42.468  26.200  27.192  1.00  0.00     0.074 A 
ATOM     33  C   UNL A   1      40.408  26.821  28.393  1.00  0.00     0.049 A 
ATOM     34  N   UNL A   1      43.222  27.247  27.422  1.00  0.00    -0.248 NA
ATOM     35  C   UNL A   1      43.083  25.206  26.299  1.00  0.00     0.031 C 
ATOM     36  C   UNL A   1      39.046  26.679  28.908  1.00  0.00     0.029 A 
ATOM     37  N   UNL A   1      40.770  28.096  28.757  1.00  0.00    -0.354 N 
ATOM     38  C   UNL A   1      44.414  27.012  26.748  1.00  0.00     0.074 A 
ATOM     39  C   UNL A   1      44.288  25.720  26.107  1.00  0.00     0.031 C 
ATOM     40  C   UNL A   1      38.677  27.829  29.493  1.00  0.00     0.029 A 
ATOM     41  C   UNL A   1      39.793  28.770  29.448  1.00  0.00     0.049 A 
ATOM     42  H   UNL A   1      41.647  28.489  28.543  1.00  0.00     0.167 HD
ATOM     43  C   UNL A   1      45.514  27.799  26.666  1.00  0.00     0.037 A 
ATOM     44  C   UNL A   1      39.801  29.999  30.002  1.00  0.00     0.037 A 
ATOM     45  C   UNL A   1      45.627  29.109  27.251  1.00  0.00     0.049 A 
ATOM     46  C   UNL A   1      41.036  30.852  29.903  1.00  0.00     0.074 A 
ATOM     47  C   UNL A   1      46.703  29.979  27.220  1.00  0.00     0.029 A 
ATOM     48  N   UNL A   1      44.617  29.748  27.954  1.00  0.00    -0.354 N 
ATOM     49  N   UNL A   1      42.175  30.594  29.308  1.00  0.00    -0.248 NA
ATOM     50  C   UNL A   1      40.987  32.167  30.560  1.00  0.00     0.031 C 
ATOM     51  C   UNL A   1      46.353  31.137  27.925  1.00  0.00     0.029 A 
ATOM     52  C   UNL A   1      45.045  31.001  28.360  1.00  0.00     0.049 A 
ATOM     53  H   UNL A   1      43.727  29.367  28.137  1.00  0.00     0.167 HD
ATOM     54  C   UNL A   1      42.967  31.719  29.499  1.00  0.00     0.074 A 
ATOM     55  C   UNL A   1      42.173  32.670  30.250  1.00  0.00     0.031 C 
ATOM     56  C   UNL A   1      44.239  31.945  29.090  1.00  0.00     0.037 A 
BRANCH  43  57
ATOM     57  C   UNL A   1      46.702  27.245  25.935  1.00  0.00     0.057 A 
ATOM     58  C   UNL A   1      46.917  27.482  24.573  1.00  0.00     0.134 A 
ATOM     59  C   UNL A   1      47.655  26.475  26.617  1.00  0.00     0.134 A 
ATOM     60  F   UNL A   1      46.033  28.196  23.859  1.00  0.00    -0.206 F 
ATOM     61  C   UNL A   1      48.025  26.952  23.907  1.00  0.00     0.040 A 
ATOM     62  C   UNL A   1      48.779  25.963  25.968  1.00  0.00     0.040 A 
ATOM     63  F   UNL A   1      47.512  26.216  27.925  1.00  0.00    -0.206 F 
ATOM     64  C   UNL A   1      48.963  26.195  24.607  1.00  0.00     0.006 A 
ENDBRANCH  43  57
BRANCH  44  65
ATOM     65  C   UNL A   1      38.602  30.499  30.721  1.00  0.00     0.057 A 
ATOM     66  C   UNL A   1      38.413  30.239  32.084  1.00  0.00     0.134 A 
ATOM     67  C   UNL A   1      37.604  31.225  30.059  1.00  0.00     0.134 A 
ATOM     68  F   UNL A   1      39.319  29.524  32.767  1.00  0.00    -0.206 F 
ATOM     69  C   UNL A   1      37.269  30.670  32.759  1.00  0.00     0.040 A 
ATOM     70  C   UNL A   1      36.470  31.685  30.727  1.00  0.00     0.040 A 
ATOM     71  F   UNL A   1      37.726  31.505  28.753  1.00  0.00    -0.206 F 
ATOM     72  C   UNL A   1      36.295  31.400  32.080  1.00  0.00     0.006 A 
ENDBRANCH  44  65
BRANCH  56  73
ATOM     73  C   UNL A   1      44.833  33.287  29.404  1.00  0.00     0.057 A 
ATOM     74  C   UNL A   1      45.565  33.518  30.575  1.00  0.00     0.134 A 
ATOM     75  C   UNL A   1      44.681  34.356  28.513  1.00  0.00     0.134 A 
ATOM     76  F   UNL A   1      45.735  32.539  31.476  1.00  0.00    -0.206 F 
ATOM     77  C   UNL A   1      46.104  34.775  30.861  1.00  0.00     0.040 A 
ATOM     78  C   UNL A   1      45.235  35.610  28.776  1.00  0.00     0.040 A 
ATOM     79  F   UNL A   1      43.998  34.198  27.369  1.00  0.00    -0.206 F 
ATOM     80  C   UNL A   1      45.942  35.824  29.958  1.00  0.00     0.006 A 
ENDBRANCH  56  73
ENDBRANCH  30  31
ENDBRANCH  23  25
ENDBRANCH  22  23
ENDBRANCH   1  22
TORSDOF 13
ENDMDL
