MODEL 1
REMARK VINA RESULT:      -9.6      0.000      0.000
REMARK SMILES CCCN1C(=O)/C(=C\c2ccc(OC)c(OC)c2C(=O)OCCOC(=O)c2ccc(-c3c4nc(c(-c5c(F)cccc5F)c5ccc([nH]5)c(-c5c(F)cccc5F)c5nc(c(-c6c(F)cccc6F)c6ccc3[nH]6)C=C5)C=C4)cc2)S/C1=[NH+]\c1nccs1
REMARK SMILES IDX 22 1 21 2 19 3 20 4 18 5 9 6 10 7 11 8 15 9 12 10 8 11 4 12
REMARK SMILES IDX 5 13 82 14 6 15 7 16 81 17 83 18 3 20 2 21 1 22 84 23 85 24
REMARK SMILES IDX 88 25 86 26 87 27 16 28 17 29 13 30 14 31 23 32 24 33 25 34
REMARK SMILES IDX 26 35 27 36 28 37 80 38 29 39 79 40 30 41 31 42 32 43 73 44
REMARK SMILES IDX 33 45 78 46 72 47 74 48 34 49 77 50 71 51 70 52 35 54 61 55
REMARK SMILES IDX 44 56 60 57 45 58 48 59 59 60 75 61 46 62 47 63 58 65 76 66
REMARK SMILES IDX 49 67 36 68 37 69 42 70 38 71 39 72 41 73 43 74 40 75 62 76
REMARK SMILES IDX 63 77 68 78 64 79 65 80 67 81 69 82 66 83 50 84 51 85 56 86
REMARK SMILES IDX 52 87 53 88 55 89 57 90 54 91
REMARK H PARENT 83 19 74 53 48 64
REMARK Flexibility Score: inf
ROOT
ATOM      1  C   UNL A   1      39.777  22.023  26.519  1.00  0.00     0.275 C 
ENDROOT
BRANCH   1   2
ATOM      2  O   UNL A   1      41.139  22.185  26.069  1.00  0.00    -0.458 OA
BRANCH   2   3
ATOM      3  C   UNL A   1      42.095  22.111  27.027  1.00  0.00     0.342 C 
ATOM      4  O   UNL A   1      41.915  22.314  28.215  1.00  0.00    -0.246 OA
BRANCH   3   5
ATOM      5  C   UNL A   1      43.421  21.864  26.402  1.00  0.00     0.113 A 
ATOM      6  C   UNL A   1      44.448  22.816  26.695  1.00  0.00    -0.006 A 
ATOM      7  C   UNL A   1      45.718  22.680  26.132  1.00  0.00     0.013 A 
ATOM      8  C   UNL A   1      46.008  21.565  25.361  1.00  0.00     0.051 A 
ATOM      9  C   UNL A   1      43.716  20.718  25.633  1.00  0.00     0.175 A 
ATOM     10  C   UNL A   1      45.033  20.589  25.126  1.00  0.00     0.161 A 
BRANCH   6  11
ATOM     11  C   UNL A   1      44.282  23.895  27.690  1.00  0.00     0.032 C 
ATOM     12  N   UNL A   1      45.190  26.862  25.965  1.00  0.00    -0.219 N 
ATOM     13  C   UNL A   1      44.455  25.702  25.948  1.00  0.00     0.321 C 
ATOM     14  C   UNL A   1      45.326  27.457  27.205  1.00  0.00     0.271 C 
ATOM     15  O   UNL A   1      43.965  25.131  24.987  1.00  0.00    -0.250 OA
ATOM     16  C   UNL A   1      44.312  25.190  27.340  1.00  0.00     0.100 C 
ATOM     17  S   UNL A   1      44.508  26.491  28.435  1.00  0.00    -0.012 SA
ATOM     18  N   UNL A   1      45.965  28.569  27.362  1.00  0.00    -0.228 N 
ATOM     19  H   UNL A   1      46.368  29.038  26.595  1.00  0.00     0.268 HD
BRANCH  12  20
ATOM     20  C   UNL A   1      45.822  27.457  24.784  1.00  0.00     0.206 C 
BRANCH  20  21
ATOM     21  C   UNL A   1      47.290  27.134  24.483  1.00  0.00     0.035 C 
ATOM     22  C   UNL A   1      47.649  25.673  24.718  1.00  0.00     0.007 C 
ENDBRANCH  20  21
ENDBRANCH  12  20
BRANCH  18  23
ATOM     23  C   UNL A   1      46.059  29.067  28.616  1.00  0.00     0.319 A 
ATOM     24  N   UNL A   1      45.201  29.863  29.223  1.00  0.00    -0.101 NA
ATOM     25  S   UNL A   1      47.417  28.609  29.584  1.00  0.00    -0.070 S 
ATOM     26  C   UNL A   1      45.657  30.186  30.486  1.00  0.00     0.219 A 
ATOM     27  C   UNL A   1      46.847  29.603  30.855  1.00  0.00     0.110 A 
ENDBRANCH  18  23
ENDBRANCH   6  11
BRANCH   9  28
ATOM     28  O   UNL A   1      42.889  19.696  25.263  1.00  0.00    -0.492 OA
ATOM     29  C   UNL A   1      42.522  18.647  26.139  1.00  0.00     0.278 C 
ENDBRANCH   9  28
BRANCH  10  30
ATOM     30  O   UNL A   1      45.537  19.474  24.492  1.00  0.00    -0.493 OA
ATOM     31  C   UNL A   1      46.204  18.542  25.331  1.00  0.00     0.278 C 
ENDBRANCH  10  30
ENDBRANCH   3   5
ENDBRANCH   2   3
ENDBRANCH   1   2
BRANCH   1  32
ATOM     32  C   UNL A   1      38.897  23.121  25.926  1.00  0.00     0.275 C 
BRANCH  32  33
ATOM     33  O   UNL A   1      38.929  24.295  26.758  1.00  0.00    -0.458 OA
BRANCH  33  34
ATOM     34  C   UNL A   1      39.904  25.182  26.433  1.00  0.00     0.338 C 
ATOM     35  O   UNL A   1      40.468  25.301  25.361  1.00  0.00    -0.246 OA
BRANCH  34  36
ATOM     36  C   UNL A   1      40.110  26.118  27.553  1.00  0.00     0.060 A 
ATOM     37  C   UNL A   1      39.305  25.956  28.684  1.00  0.00     0.016 A 
ATOM     38  C   UNL A   1      41.046  27.155  27.491  1.00  0.00     0.016 A 
ATOM     39  C   UNL A   1      39.441  26.825  29.759  1.00  0.00     0.010 A 
ATOM     40  C   UNL A   1      41.161  28.045  28.564  1.00  0.00     0.010 A 
ATOM     41  C   UNL A   1      40.351  27.885  29.697  1.00  0.00    -0.014 A 
BRANCH  41  42
ATOM     42  C   UNL A   1      40.324  28.893  30.779  1.00  0.00     0.031 A 
ATOM     43  C   UNL A   1      39.323  30.007  30.695  1.00  0.00     0.074 A 
ATOM     44  C   UNL A   1      41.106  28.756  31.863  1.00  0.00     0.049 A 
ATOM     45  N   UNL A   1      39.073  30.963  31.549  1.00  0.00    -0.248 NA
ATOM     46  C   UNL A   1      38.475  30.029  29.492  1.00  0.00     0.031 C 
ATOM     47  C   UNL A   1      42.046  27.662  32.092  1.00  0.00     0.029 A 
ATOM     48  N   UNL A   1      41.215  29.536  32.985  1.00  0.00    -0.354 N 
ATOM     49  C   UNL A   1      38.028  31.692  30.998  1.00  0.00     0.074 A 
ATOM     50  C   UNL A   1      37.705  31.080  29.727  1.00  0.00     0.031 C 
ATOM     51  C   UNL A   1      42.636  27.837  33.287  1.00  0.00     0.029 A 
ATOM     52  C   UNL A   1      42.137  29.072  33.890  1.00  0.00     0.049 A 
ATOM     53  H   UNL A   1      40.682  30.352  33.129  1.00  0.00     0.167 HD
ATOM     54  C   UNL A   1      37.397  32.775  31.506  1.00  0.00     0.037 A 
ATOM     55  C   UNL A   1      42.538  29.597  35.064  1.00  0.00     0.037 A 
ATOM     56  C   UNL A   1      37.756  33.410  32.746  1.00  0.00     0.049 A 
ATOM     57  C   UNL A   1      41.910  30.879  35.545  1.00  0.00     0.074 A 
ATOM     58  C   UNL A   1      37.220  34.547  33.321  1.00  0.00     0.029 A 
ATOM     59  N   UNL A   1      38.760  32.965  33.594  1.00  0.00    -0.354 N 
ATOM     60  N   UNL A   1      40.932  31.571  35.013  1.00  0.00    -0.248 NA
ATOM     61  C   UNL A   1      42.449  31.457  36.784  1.00  0.00     0.031 C 
ATOM     62  C   UNL A   1      37.934  34.819  34.493  1.00  0.00     0.029 A 
ATOM     63  C   UNL A   1      38.881  33.822  34.674  1.00  0.00     0.049 A 
ATOM     64  H   UNL A   1      39.305  32.158  33.448  1.00  0.00     0.167 HD
ATOM     65  C   UNL A   1      40.722  32.651  35.860  1.00  0.00     0.074 A 
ATOM     66  C   UNL A   1      41.668  32.516  36.950  1.00  0.00     0.031 C 
ATOM     67  C   UNL A   1      39.828  33.666  35.748  1.00  0.00     0.037 A 
BRANCH  54  68
ATOM     68  C   UNL A   1      36.300  33.366  30.675  1.00  0.00     0.057 A 
ATOM     69  C   UNL A   1      34.948  33.137  30.962  1.00  0.00     0.134 A 
ATOM     70  C   UNL A   1      36.600  34.146  29.551  1.00  0.00     0.134 A 
ATOM     71  F   UNL A   1      34.596  32.377  32.010  1.00  0.00    -0.206 F 
ATOM     72  C   UNL A   1      33.934  33.639  30.146  1.00  0.00     0.040 A 
ATOM     73  C   UNL A   1      35.595  34.672  28.739  1.00  0.00     0.040 A 
ATOM     74  F   UNL A   1      37.875  34.399  29.219  1.00  0.00    -0.206 F 
ATOM     75  C   UNL A   1      34.256  34.411  29.030  1.00  0.00     0.006 A 
ENDBRANCH  54  68
BRANCH  55  76
ATOM     76  C   UNL A   1      43.601  28.929  35.858  1.00  0.00     0.057 A 
ATOM     77  C   UNL A   1      44.942  29.314  35.749  1.00  0.00     0.134 A 
ATOM     78  C   UNL A   1      43.304  27.870  36.726  1.00  0.00     0.134 A 
ATOM     79  F   UNL A   1      45.295  30.302  34.914  1.00  0.00    -0.206 F 
ATOM     80  C   UNL A   1      45.950  28.664  36.463  1.00  0.00     0.040 A 
ATOM     81  C   UNL A   1      44.299  27.228  37.466  1.00  0.00     0.040 A 
ATOM     82  F   UNL A   1      42.039  27.448  36.873  1.00  0.00    -0.206 F 
ATOM     83  C   UNL A   1      45.628  27.621  37.330  1.00  0.00     0.006 A 
ENDBRANCH  55  76
BRANCH  67  84
ATOM     84  C   UNL A   1      39.815  34.694  36.841  1.00  0.00     0.057 A 
ATOM     85  C   UNL A   1      39.002  34.558  37.972  1.00  0.00     0.134 A 
ATOM     86  C   UNL A   1      40.665  35.806  36.782  1.00  0.00     0.134 A 
ATOM     87  F   UNL A   1      38.157  33.523  38.083  1.00  0.00    -0.206 F 
ATOM     88  C   UNL A   1      39.024  35.501  39.002  1.00  0.00     0.040 A 
ATOM     89  C   UNL A   1      40.714  36.742  37.816  1.00  0.00     0.040 A 
ATOM     90  F   UNL A   1      41.476  35.990  35.729  1.00  0.00    -0.206 F 
ATOM     91  C   UNL A   1      39.887  36.593  38.928  1.00  0.00     0.006 A 
ENDBRANCH  67  84
ENDBRANCH  41  42
ENDBRANCH  34  36
ENDBRANCH  33  34
ENDBRANCH  32  33
ENDBRANCH   1  32
TORSDOF 17
ENDMDL
MODEL 2
REMARK VINA RESULT:      -9.4      6.532     10.534
REMARK SMILES CCCN1C(=O)/C(=C\c2ccc(OC)c(OC)c2C(=O)OCCOC(=O)c2ccc(-c3c4nc(c(-c5c(F)cccc5F)c5ccc([nH]5)c(-c5c(F)cccc5F)c5nc(c(-c6c(F)cccc6F)c6ccc3[nH]6)C=C5)C=C4)cc2)S/C1=[NH+]\c1nccs1
REMARK SMILES IDX 22 1 21 2 19 3 20 4 18 5 9 6 10 7 11 8 15 9 12 10 8 11 4 12
REMARK SMILES IDX 5 13 82 14 6 15 7 16 81 17 83 18 3 20 2 21 1 22 84 23 85 24
REMARK SMILES IDX 88 25 86 26 87 27 16 28 17 29 13 30 14 31 23 32 24 33 25 34
REMARK SMILES IDX 26 35 27 36 28 37 80 38 29 39 79 40 30 41 31 42 32 43 73 44
REMARK SMILES IDX 33 45 78 46 72 47 74 48 34 49 77 50 71 51 70 52 35 54 61 55
REMARK SMILES IDX 44 56 60 57 45 58 48 59 59 60 75 61 46 62 47 63 58 65 76 66
REMARK SMILES IDX 49 67 36 68 37 69 42 70 38 71 39 72 41 73 43 74 40 75 62 76
REMARK SMILES IDX 63 77 68 78 64 79 65 80 67 81 69 82 66 83 50 84 51 85 56 86
REMARK SMILES IDX 52 87 53 88 55 89 57 90 54 91
REMARK H PARENT 83 19 74 53 48 64
REMARK Flexibility Score: inf
ROOT
ATOM      1  C   UNL A   1      49.630  25.042  36.300  1.00  0.00     0.275 C 
ENDROOT
BRANCH   1   2
ATOM      2  O   UNL A   1      48.940  23.775  36.274  1.00  0.00    -0.458 OA
BRANCH   2   3
ATOM      3  C   UNL A   1      48.537  23.343  35.054  1.00  0.00     0.342 C 
ATOM      4  O   UNL A   1      47.556  23.746  34.454  1.00  0.00    -0.246 OA
BRANCH   3   5
ATOM      5  C   UNL A   1      49.400  22.218  34.604  1.00  0.00     0.113 A 
ATOM      6  C   UNL A   1      49.108  20.933  35.160  1.00  0.00    -0.006 A 
ATOM      7  C   UNL A   1      49.882  19.823  34.818  1.00  0.00     0.013 A 
ATOM      8  C   UNL A   1      50.877  19.953  33.861  1.00  0.00     0.051 A 
ATOM      9  C   UNL A   1      50.400  22.353  33.617  1.00  0.00     0.175 A 
ATOM     10  C   UNL A   1      51.126  21.191  33.256  1.00  0.00     0.161 A 
BRANCH   6  11
ATOM     11  C   UNL A   1      47.922  20.673  36.001  1.00  0.00     0.032 C 
ATOM     12  N   UNL A   1      49.224  19.284  38.998  1.00  0.00    -0.219 N 
ATOM     13  C   UNL A   1      49.309  20.289  38.064  1.00  0.00     0.321 C 
ATOM     14  C   UNL A   1      47.947  18.826  39.257  1.00  0.00     0.271 C 
ATOM     15  O   UNL A   1      50.246  21.040  37.845  1.00  0.00    -0.250 OA
ATOM     16  C   UNL A   1      48.032  20.360  37.301  1.00  0.00     0.100 C 
ATOM     17  S   UNL A   1      46.777  19.683  38.249  1.00  0.00    -0.012 SA
ATOM     18  N   UNL A   1      47.717  17.907  40.135  1.00  0.00    -0.228 N 
ATOM     19  H   UNL A   1      48.450  17.509  40.661  1.00  0.00     0.268 HD
BRANCH  12  20
ATOM     20  C   UNL A   1      50.377  18.695  39.684  1.00  0.00     0.206 C 
BRANCH  20  21
ATOM     21  C   UNL A   1      51.086  19.504  40.778  1.00  0.00     0.035 C 
ATOM     22  C   UNL A   1      50.127  20.203  41.731  1.00  0.00     0.007 C 
ENDBRANCH  20  21
ENDBRANCH  12  20
BRANCH  18  23
ATOM     23  C   UNL A   1      46.435  17.510  40.309  1.00  0.00     0.319 A 
ATOM     24  N   UNL A   1      45.792  16.580  39.632  1.00  0.00    -0.101 NA
ATOM     25  S   UNL A   1      45.508  18.248  41.569  1.00  0.00    -0.070 S 
ATOM     26  C   UNL A   1      44.488  16.481  40.074  1.00  0.00     0.219 A 
ATOM     27  C   UNL A   1      44.149  17.312  41.116  1.00  0.00     0.110 A 
ENDBRANCH  18  23
ENDBRANCH   6  11
BRANCH   9  28
ATOM     28  O   UNL A   1      50.811  23.476  32.959  1.00  0.00    -0.492 OA
ATOM     29  C   UNL A   1      51.860  24.302  33.429  1.00  0.00     0.278 C 
ENDBRANCH   9  28
BRANCH  10  30
ATOM     30  O   UNL A   1      52.022  21.103  32.213  1.00  0.00    -0.493 OA
ATOM     31  C   UNL A   1      53.347  20.741  32.575  1.00  0.00     0.278 C 
ENDBRANCH  10  30
ENDBRANCH   3   5
ENDBRANCH   2   3
ENDBRANCH   1   2
BRANCH   1  32
ATOM     32  C   UNL A   1      48.877  26.029  37.190  1.00  0.00     0.275 C 
BRANCH  32  33
ATOM     33  O   UNL A   1      47.767  26.602  36.477  1.00  0.00    -0.458 OA
BRANCH  33  34
ATOM     34  C   UNL A   1      46.550  26.238  36.956  1.00  0.00     0.338 C 
ATOM     35  O   UNL A   1      46.300  25.738  38.037  1.00  0.00    -0.246 OA
BRANCH  34  36
ATOM     36  C   UNL A   1      45.502  26.668  36.013  1.00  0.00     0.060 A 
ATOM     37  C   UNL A   1      45.677  27.900  35.375  1.00  0.00     0.016 A 
ATOM     38  C   UNL A   1      44.355  25.904  35.778  1.00  0.00     0.016 A 
ATOM     39  C   UNL A   1      44.708  28.364  34.493  1.00  0.00     0.010 A 
ATOM     40  C   UNL A   1      43.369  26.388  34.911  1.00  0.00     0.010 A 
ATOM     41  C   UNL A   1      43.541  27.624  34.273  1.00  0.00    -0.014 A 
BRANCH  41  42
ATOM     42  C   UNL A   1      42.459  28.246  33.482  1.00  0.00     0.031 A 
ATOM     43  C   UNL A   1      41.549  29.228  34.159  1.00  0.00     0.074 A 
ATOM     44  C   UNL A   1      42.356  28.017  32.162  1.00  0.00     0.049 A 
ATOM     45  N   UNL A   1      40.578  29.941  33.657  1.00  0.00    -0.248 NA
ATOM     46  C   UNL A   1      41.788  29.451  35.595  1.00  0.00     0.031 C 
ATOM     47  C   UNL A   1      43.242  27.155  31.385  1.00  0.00     0.029 A 
ATOM     48  N   UNL A   1      41.468  28.509  31.240  1.00  0.00    -0.354 N 
ATOM     49  C   UNL A   1      40.097  30.711  34.708  1.00  0.00     0.074 A 
ATOM     50  C   UNL A   1      40.870  30.362  35.880  1.00  0.00     0.031 C 
ATOM     51  C   UNL A   1      42.857  27.182  30.097  1.00  0.00     0.029 A 
ATOM     52  C   UNL A   1      41.679  28.037  29.968  1.00  0.00     0.049 A 
ATOM     53  H   UNL A   1      40.749  29.142  31.468  1.00  0.00     0.167 HD
ATOM     54  C   UNL A   1      39.099  31.623  34.696  1.00  0.00     0.037 A 
ATOM     55  C   UNL A   1      40.985  28.263  28.835  1.00  0.00     0.037 A 
ATOM     56  C   UNL A   1      38.299  31.929  33.540  1.00  0.00     0.049 A 
ATOM     57  C   UNL A   1      39.794  29.185  28.878  1.00  0.00     0.074 A 
ATOM     58  C   UNL A   1      37.225  32.793  33.436  1.00  0.00     0.029 A 
ATOM     59  N   UNL A   1      38.481  31.361  32.287  1.00  0.00    -0.354 N 
ATOM     60  N   UNL A   1      39.336  29.898  29.878  1.00  0.00    -0.248 NA
ATOM     61  C   UNL A   1      39.018  29.323  27.638  1.00  0.00     0.031 C 
ATOM     62  C   UNL A   1      36.725  32.710  32.132  1.00  0.00     0.029 A 
ATOM     63  C   UNL A   1      37.520  31.833  31.410  1.00  0.00     0.049 A 
ATOM     64  H   UNL A   1      39.190  30.717  32.057  1.00  0.00     0.167 HD
ATOM     65  C   UNL A   1      38.236  30.587  29.384  1.00  0.00     0.074 A 
ATOM     66  C   UNL A   1      38.102  30.215  27.990  1.00  0.00     0.031 C 
ATOM     67  C   UNL A   1      37.408  31.450  30.025  1.00  0.00     0.037 A 
BRANCH  54  68
ATOM     68  C   UNL A   1      38.788  32.298  35.997  1.00  0.00     0.057 A 
ATOM     69  C   UNL A   1      39.243  33.590  36.287  1.00  0.00     0.134 A 
ATOM     70  C   UNL A   1      38.054  31.633  36.986  1.00  0.00     0.134 A 
ATOM     71  F   UNL A   1      39.973  34.271  35.391  1.00  0.00    -0.206 F 
ATOM     72  C   UNL A   1      39.003  34.187  37.526  1.00  0.00     0.040 A 
ATOM     73  C   UNL A   1      37.789  32.226  38.220  1.00  0.00     0.040 A 
ATOM     74  F   UNL A   1      37.593  30.390  36.772  1.00  0.00    -0.206 F 
ATOM     75  C   UNL A   1      38.272  33.504  38.497  1.00  0.00     0.006 A 
ENDBRANCH  54  68
BRANCH  55  76
ATOM     76  C   UNL A   1      41.381  27.593  27.571  1.00  0.00     0.057 A 
ATOM     77  C   UNL A   1      42.303  28.177  26.694  1.00  0.00     0.134 A 
ATOM     78  C   UNL A   1      40.827  26.363  27.194  1.00  0.00     0.134 A 
ATOM     79  F   UNL A   1      42.849  29.368  26.984  1.00  0.00    -0.206 F 
ATOM     80  C   UNL A   1      42.650  27.571  25.486  1.00  0.00     0.040 A 
ATOM     81  C   UNL A   1      41.184  25.732  26.001  1.00  0.00     0.040 A 
ATOM     82  F   UNL A   1      39.934  25.752  27.987  1.00  0.00    -0.206 F 
ATOM     83  C   UNL A   1      42.093  26.341  25.139  1.00  0.00     0.006 A 
ENDBRANCH  55  76
BRANCH  67  84
ATOM     84  C   UNL A   1      36.301  32.067  29.221  1.00  0.00     0.057 A 
ATOM     85  C   UNL A   1      36.350  33.401  28.802  1.00  0.00     0.134 A 
ATOM     86  C   UNL A   1      35.200  31.299  28.820  1.00  0.00     0.134 A 
ATOM     87  F   UNL A   1      37.371  34.192  29.164  1.00  0.00    -0.206 F 
ATOM     88  C   UNL A   1      35.333  33.957  28.023  1.00  0.00     0.040 A 
ATOM     89  C   UNL A   1      34.190  31.836  28.020  1.00  0.00     0.040 A 
ATOM     90  F   UNL A   1      35.099  30.011  29.181  1.00  0.00    -0.206 F 
ATOM     91  C   UNL A   1      34.253  33.171  27.623  1.00  0.00     0.006 A 
ENDBRANCH  67  84
ENDBRANCH  41  42
ENDBRANCH  34  36
ENDBRANCH  33  34
ENDBRANCH  32  33
ENDBRANCH   1  32
TORSDOF 17
ENDMDL
MODEL 3
REMARK VINA RESULT:      -9.2      4.680     11.882
REMARK SMILES CCCN1C(=O)/C(=C\c2ccc(OC)c(OC)c2C(=O)OCCOC(=O)c2ccc(-c3c4nc(c(-c5c(F)cccc5F)c5ccc([nH]5)c(-c5c(F)cccc5F)c5nc(c(-c6c(F)cccc6F)c6ccc3[nH]6)C=C5)C=C4)cc2)S/C1=[NH+]\c1nccs1
REMARK SMILES IDX 22 1 21 2 19 3 20 4 18 5 9 6 10 7 11 8 15 9 12 10 8 11 4 12
REMARK SMILES IDX 5 13 82 14 6 15 7 16 81 17 83 18 3 20 2 21 1 22 84 23 85 24
REMARK SMILES IDX 88 25 86 26 87 27 16 28 17 29 13 30 14 31 23 32 24 33 25 34
REMARK SMILES IDX 26 35 27 36 28 37 80 38 29 39 79 40 30 41 31 42 32 43 73 44
REMARK SMILES IDX 33 45 78 46 72 47 74 48 34 49 77 50 71 51 70 52 35 54 61 55
REMARK SMILES IDX 44 56 60 57 45 58 48 59 59 60 75 61 46 62 47 63 58 65 76 66
REMARK SMILES IDX 49 67 36 68 37 69 42 70 38 71 39 72 41 73 43 74 40 75 62 76
REMARK SMILES IDX 63 77 68 78 64 79 65 80 67 81 69 82 66 83 50 84 51 85 56 86
REMARK SMILES IDX 52 87 53 88 55 89 57 90 54 91
REMARK H PARENT 83 19 74 53 48 64
REMARK Flexibility Score: inf
ROOT
ATOM      1  C   UNL A   1      36.371  32.041  33.262  1.00  0.00     0.275 C 
ENDROOT
BRANCH   1   2
ATOM      2  O   UNL A   1      37.806  31.895  33.205  1.00  0.00    -0.458 OA
BRANCH   2   3
ATOM      3  C   UNL A   1      38.374  31.204  34.223  1.00  0.00     0.342 C 
ATOM      4  O   UNL A   1      38.000  30.117  34.628  1.00  0.00    -0.246 OA
BRANCH   3   5
ATOM      5  C   UNL A   1      39.446  32.018  34.853  1.00  0.00     0.113 A 
ATOM      6  C   UNL A   1      40.792  31.649  34.538  1.00  0.00    -0.006 A 
ATOM      7  C   UNL A   1      41.865  32.339  35.105  1.00  0.00     0.013 A 
ATOM      8  C   UNL A   1      41.619  33.447  35.901  1.00  0.00     0.051 A 
ATOM      9  C   UNL A   1      39.191  33.155  35.650  1.00  0.00     0.175 A 
ATOM     10  C   UNL A   1      40.308  33.863  36.160  1.00  0.00     0.161 A 
BRANCH   6  11
ATOM     11  C   UNL A   1      41.128  30.634  33.518  1.00  0.00     0.032 C 
ATOM     12  N   UNL A   1      42.656  27.996  35.336  1.00  0.00    -0.219 N 
ATOM     13  C   UNL A   1      41.598  28.867  35.245  1.00  0.00     0.321 C 
ATOM     14  C   UNL A   1      43.158  27.550  34.128  1.00  0.00     0.271 C 
ATOM     15  O   UNL A   1      40.813  29.198  36.121  1.00  0.00    -0.250 OA
ATOM     16  C   UNL A   1      41.513  29.394  33.855  1.00  0.00     0.100 C 
ATOM     17  S   UNL A   1      42.272  28.288  32.792  1.00  0.00    -0.012 SA
ATOM     18  N   UNL A   1      44.132  26.703  34.066  1.00  0.00    -0.228 N 
ATOM     19  H   UNL A   1      44.542  26.336  34.883  1.00  0.00     0.268 HD
BRANCH  12  20
ATOM     20  C   UNL A   1      43.257  27.555  36.598  1.00  0.00     0.206 C 
BRANCH  20  21
ATOM     21  C   UNL A   1      42.755  26.260  37.249  1.00  0.00     0.035 C 
ATOM     22  C   UNL A   1      43.857  25.240  37.498  1.00  0.00     0.007 C 
ENDBRANCH  20  21
ENDBRANCH  12  20
BRANCH  18  23
ATOM     23  C   UNL A   1      44.567  26.337  32.839  1.00  0.00     0.319 A 
ATOM     24  N   UNL A   1      45.044  27.126  31.896  1.00  0.00    -0.101 NA
ATOM     25  S   UNL A   1      44.553  24.657  32.426  1.00  0.00    -0.070 S 
ATOM     26  C   UNL A   1      45.354  26.391  30.768  1.00  0.00     0.219 A 
ATOM     27  C   UNL A   1      45.148  25.035  30.867  1.00  0.00     0.110 A 
ENDBRANCH  18  23
ENDBRANCH   6  11
BRANCH   9  28
ATOM     28  O   UNL A   1      37.992  33.676  36.044  1.00  0.00    -0.492 OA
ATOM     29  C   UNL A   1      37.334  33.279  37.232  1.00  0.00     0.278 C 
ENDBRANCH   9  28
BRANCH  10  30
ATOM     30  O   UNL A   1      40.253  35.071  36.820  1.00  0.00    -0.493 OA
ATOM     31  C   UNL A   1      41.018  36.120  36.243  1.00  0.00     0.278 C 
ENDBRANCH  10  30
ENDBRANCH   3   5
ENDBRANCH   2   3
ENDBRANCH   1   2
BRANCH   1  32
ATOM     32  C   UNL A   1      35.776  31.901  31.862  1.00  0.00     0.275 C 
BRANCH  32  33
ATOM     33  O   UNL A   1      36.113  30.621  31.299  1.00  0.00    -0.458 OA
BRANCH  33  34
ATOM     34  C   UNL A   1      36.237  30.622  29.947  1.00  0.00     0.338 C 
ATOM     35  O   UNL A   1      35.476  31.114  29.135  1.00  0.00    -0.246 OA
BRANCH  34  36
ATOM     36  C   UNL A   1      37.540  30.043  29.573  1.00  0.00     0.060 A 
ATOM     37  C   UNL A   1      38.411  29.694  30.609  1.00  0.00     0.016 A 
ATOM     38  C   UNL A   1      37.921  29.874  28.238  1.00  0.00     0.016 A 
ATOM     39  C   UNL A   1      39.662  29.166  30.312  1.00  0.00     0.010 A 
ATOM     40  C   UNL A   1      39.192  29.368  27.943  1.00  0.00     0.010 A 
ATOM     41  C   UNL A   1      40.067  29.021  28.981  1.00  0.00    -0.014 A 
BRANCH  41  42
ATOM     42  C   UNL A   1      41.470  28.639  28.717  1.00  0.00     0.031 A 
ATOM     43  C   UNL A   1      41.769  27.217  28.343  1.00  0.00     0.074 A 
ATOM     44  C   UNL A   1      42.444  29.566  28.709  1.00  0.00     0.049 A 
ATOM     45  N   UNL A   1      42.905  26.669  28.007  1.00  0.00    -0.248 NA
ATOM     46  C   UNL A   1      40.620  26.297  28.323  1.00  0.00     0.031 C 
ATOM     47  C   UNL A   1      42.251  30.991  28.966  1.00  0.00     0.029 A 
ATOM     48  N   UNL A   1      43.785  29.445  28.455  1.00  0.00    -0.354 N 
ATOM     49  C   UNL A   1      42.610  25.343  27.720  1.00  0.00     0.074 A 
ATOM     50  C   UNL A   1      41.191  25.165  27.940  1.00  0.00     0.031 C 
ATOM     51  C   UNL A   1      43.436  31.618  28.852  1.00  0.00     0.029 A 
ATOM     52  C   UNL A   1      44.470  30.632  28.545  1.00  0.00     0.049 A 
ATOM     53  H   UNL A   1      44.217  28.590  28.229  1.00  0.00     0.167 HD
ATOM     54  C   UNL A   1      43.447  24.363  27.312  1.00  0.00     0.037 A 
ATOM     55  C   UNL A   1      45.787  30.883  28.409  1.00  0.00     0.037 A 
ATOM     56  C   UNL A   1      44.866  24.532  27.144  1.00  0.00     0.049 A 
ATOM     57  C   UNL A   1      46.720  29.746  28.083  1.00  0.00     0.074 A 
ATOM     58  C   UNL A   1      45.813  23.588  26.792  1.00  0.00     0.029 A 
ATOM     59  N   UNL A   1      45.542  25.729  27.334  1.00  0.00    -0.354 N 
ATOM     60  N   UNL A   1      46.436  28.492  27.826  1.00  0.00    -0.248 NA
ATOM     61  C   UNL A   1      48.155  30.057  28.038  1.00  0.00     0.031 C 
ATOM     62  C   UNL A   1      47.070  24.204  26.819  1.00  0.00     0.029 A 
ATOM     63  C   UNL A   1      46.899  25.543  27.137  1.00  0.00     0.049 A 
ATOM     64  H   UNL A   1      45.117  26.585  27.574  1.00  0.00     0.167 HD
ATOM     65  C   UNL A   1      47.651  27.870  27.567  1.00  0.00     0.074 A 
ATOM     66  C   UNL A   1      48.674  28.889  27.685  1.00  0.00     0.031 C 
ATOM     67  C   UNL A   1      47.899  26.573  27.259  1.00  0.00     0.037 A 
BRANCH  54  68
ATOM     68  C   UNL A   1      42.843  23.011  27.087  1.00  0.00     0.057 A 
ATOM     69  C   UNL A   1      42.527  22.156  28.151  1.00  0.00     0.134 A 
ATOM     70  C   UNL A   1      42.605  22.545  25.788  1.00  0.00     0.134 A 
ATOM     71  F   UNL A   1      42.754  22.533  29.417  1.00  0.00    -0.206 F 
ATOM     72  C   UNL A   1      42.022  20.873  27.929  1.00  0.00     0.040 A 
ATOM     73  C   UNL A   1      42.082  21.273  25.554  1.00  0.00     0.040 A 
ATOM     74  F   UNL A   1      42.891  23.314  24.726  1.00  0.00    -0.206 F 
ATOM     75  C   UNL A   1      41.797  20.429  26.627  1.00  0.00     0.006 A 
ENDBRANCH  54  68
BRANCH  55  76
ATOM     76  C   UNL A   1      46.309  32.260  28.602  1.00  0.00     0.057 A 
ATOM     77  C   UNL A   1      46.430  33.150  27.528  1.00  0.00     0.134 A 
ATOM     78  C   UNL A   1      46.723  32.713  29.861  1.00  0.00     0.134 A 
ATOM     79  F   UNL A   1      46.076  32.768  26.292  1.00  0.00    -0.206 F 
ATOM     80  C   UNL A   1      46.955  34.432  27.696  1.00  0.00     0.040 A 
ATOM     81  C   UNL A   1      47.227  34.001  30.049  1.00  0.00     0.040 A 
ATOM     82  F   UNL A   1      46.638  31.908  30.931  1.00  0.00    -0.206 F 
ATOM     83  C   UNL A   1      47.350  34.863  28.962  1.00  0.00     0.006 A 
ENDBRANCH  55  76
BRANCH  67  84
ATOM     84  C   UNL A   1      49.327  26.187  27.006  1.00  0.00     0.057 A 
ATOM     85  C   UNL A   1      49.890  26.240  25.726  1.00  0.00     0.134 A 
ATOM     86  C   UNL A   1      50.161  25.810  28.067  1.00  0.00     0.134 A 
ATOM     87  F   UNL A   1      49.142  26.582  24.667  1.00  0.00    -0.206 F 
ATOM     88  C   UNL A   1      51.230  25.915  25.505  1.00  0.00     0.040 A 
ATOM     89  C   UNL A   1      51.507  25.507  27.863  1.00  0.00     0.040 A 
ATOM     90  F   UNL A   1      49.685  25.749  29.320  1.00  0.00    -0.206 F 
ATOM     91  C   UNL A   1      52.044  25.555  26.578  1.00  0.00     0.006 A 
ENDBRANCH  67  84
ENDBRANCH  41  42
ENDBRANCH  34  36
ENDBRANCH  33  34
ENDBRANCH  32  33
ENDBRANCH   1  32
TORSDOF 17
ENDMDL
