MODEL 1
REMARK VINA RESULT:     -10.9      0.000      0.000
REMARK SMILES CC(C)C[C@H](NC(=O)[C@H](C)NC(=O)[C@@H](NC(=O)CNC(=O)OCc1ccccc1)C(C)C)C(=O)OCCOC(=O)c1ccc(-c2c3nc(c(-c4c(F)cccc4F)c4ccc([nH]4)c(-c4c(F)cccc4F)c4nc(c(-c5c(F)cccc5F)c5ccc2[nH]5)C=C4)C=C3)cc1
REMARK SMILES IDX 6 1 7 2 8 3 5 5 4 6 2 7 1 8 3 9 33 10 34 11 35 12 36 13
REMARK SMILES IDX 37 14 38 15 39 16 40 17 41 18 42 19 94 20 43 21 93 22 44 23
REMARK SMILES IDX 45 24 46 25 87 26 47 27 92 28 86 29 88 30 48 31 91 32 85 33
REMARK SMILES IDX 84 34 49 36 75 37 58 38 74 39 59 40 62 41 73 42 89 43 60 44
REMARK SMILES IDX 61 45 72 47 90 48 63 49 50 50 51 51 56 52 52 53 53 54 55 55
REMARK SMILES IDX 57 56 54 57 76 58 77 59 82 60 78 61 79 62 81 63 83 64 80 65
REMARK SMILES IDX 64 66 65 67 70 68 66 69 67 70 69 71 71 72 68 73 9 74 10 75
REMARK SMILES IDX 11 76 12 77 13 79 14 80 15 81 16 82 17 84 18 85 19 86 20 87
REMARK SMILES IDX 21 89 22 90 23 91 24 92 25 93 29 94 26 95 28 96 27 97 30 98
REMARK SMILES IDX 31 99 32 100
REMARK H PARENT 6 4 88 35 62 46 11 78 15 83 19 88
REMARK Flexibility Score: inf
ROOT
ATOM      1  N   UNL A   1      32.731  27.413  23.122  1.00  0.00    -0.341 N 
ATOM      2  C   UNL A   1      33.490  26.882  22.126  1.00  0.00     0.242 C 
ATOM      3  O   UNL A   1      34.413  27.604  21.733  1.00  0.00    -0.273 OA
ATOM      4  H   UNL A   1      33.242  28.037  23.688  1.00  0.00     0.164 HD
ENDROOT
BRANCH   1   5
ATOM      5  C   UNL A   1      31.341  27.282  23.554  1.00  0.00     0.192 C 
BRANCH   5   6
ATOM      6  C   UNL A   1      31.114  26.446  24.839  1.00  0.00     0.040 C 
BRANCH   6   7
ATOM      7  C   UNL A   1      30.129  25.258  24.824  1.00  0.00    -0.015 C 
ATOM      8  C   UNL A   1      30.279  24.357  23.605  1.00  0.00     0.007 C 
ATOM      9  C   UNL A   1      30.346  24.423  26.091  1.00  0.00     0.007 C 
ENDBRANCH   6   7
ENDBRANCH   5   6
BRANCH   5  10
ATOM     10  C   UNL A   1      30.303  28.423  23.375  1.00  0.00     0.328 C 
ATOM     11  O   UNL A   1      29.186  28.255  22.906  1.00  0.00    -0.250 OA
BRANCH  10  12
ATOM     12  O   UNL A   1      30.835  29.634  23.655  1.00  0.00    -0.461 OA
BRANCH  12  13
ATOM     13  C   UNL A   1      30.988  30.040  25.033  1.00  0.00     0.274 C 
BRANCH  13  14
ATOM     14  C   UNL A   1      32.478  30.080  25.378  1.00  0.00     0.275 C 
BRANCH  14  15
ATOM     15  O   UNL A   1      32.607  30.260  26.795  1.00  0.00    -0.458 OA
BRANCH  15  16
ATOM     16  C   UNL A   1      33.065  31.473  27.163  1.00  0.00     0.338 C 
ATOM     17  O   UNL A   1      32.453  32.531  27.238  1.00  0.00    -0.246 OA
BRANCH  16  18
ATOM     18  C   UNL A   1      34.390  31.268  27.737  1.00  0.00     0.060 A 
ATOM     19  C   UNL A   1      34.752  29.961  28.061  1.00  0.00     0.016 A 
ATOM     20  C   UNL A   1      35.234  32.334  28.012  1.00  0.00     0.016 A 
ATOM     21  C   UNL A   1      35.915  29.706  28.761  1.00  0.00     0.010 A 
ATOM     22  C   UNL A   1      36.455  32.069  28.631  1.00  0.00     0.010 A 
ATOM     23  C   UNL A   1      36.786  30.761  29.037  1.00  0.00    -0.014 A 
BRANCH  23  24
ATOM     24  C   UNL A   1      38.022  30.511  29.806  1.00  0.00     0.031 A 
ATOM     25  C   UNL A   1      39.108  29.697  29.174  1.00  0.00     0.074 A 
ATOM     26  C   UNL A   1      38.158  31.008  31.049  1.00  0.00     0.049 A 
ATOM     27  N   UNL A   1      40.128  29.104  29.731  1.00  0.00    -0.248 NA
ATOM     28  C   UNL A   1      39.014  29.499  27.717  1.00  0.00     0.031 C 
ATOM     29  C   UNL A   1      37.191  31.876  31.729  1.00  0.00     0.029 A 
ATOM     30  N   UNL A   1      39.161  30.846  31.967  1.00  0.00    -0.354 N 
ATOM     31  C   UNL A   1      40.755  28.403  28.710  1.00  0.00     0.074 A 
ATOM     32  C   UNL A   1      40.009  28.653  27.497  1.00  0.00     0.031 C 
ATOM     33  C   UNL A   1      37.655  32.179  32.950  1.00  0.00     0.029 A 
ATOM     34  C   UNL A   1      38.899  31.453  33.171  1.00  0.00     0.049 A 
ATOM     35  H   UNL A   1      39.988  30.346  31.783  1.00  0.00     0.167 HD
ATOM     36  C   UNL A   1      41.849  27.612  28.795  1.00  0.00     0.037 A 
ATOM     37  C   UNL A   1      39.559  31.378  34.340  1.00  0.00     0.037 A 
ATOM     38  C   UNL A   1      42.590  27.421  30.015  1.00  0.00     0.049 A 
ATOM     39  C   UNL A   1      40.774  30.502  34.410  1.00  0.00     0.074 A 
ATOM     40  C   UNL A   1      43.687  26.615  30.250  1.00  0.00     0.029 A 
ATOM     41  N   UNL A   1      42.308  28.076  31.207  1.00  0.00    -0.354 N 
ATOM     42  N   UNL A   1      41.301  29.748  33.473  1.00  0.00    -0.248 NA
ATOM     43  C   UNL A   1      41.476  30.447  35.696  1.00  0.00     0.031 C 
ATOM     44  C   UNL A   1      44.063  26.775  31.590  1.00  0.00     0.029 A 
ATOM     45  C   UNL A   1      43.219  27.705  32.179  1.00  0.00     0.049 A 
ATOM     46  H   UNL A   1      41.567  28.711  31.341  1.00  0.00     0.167 HD
ATOM     47  C   UNL A   1      42.396  29.127  34.055  1.00  0.00     0.074 A 
ATOM     48  C   UNL A   1      42.474  29.619  35.418  1.00  0.00     0.031 C 
ATOM     49  C   UNL A   1      43.253  28.221  33.524  1.00  0.00     0.037 A 
BRANCH  36  50
ATOM     50  C   UNL A   1      42.265  26.877  27.556  1.00  0.00     0.057 A 
ATOM     51  C   UNL A   1      43.177  27.417  26.639  1.00  0.00     0.134 A 
ATOM     52  C   UNL A   1      41.730  25.616  27.264  1.00  0.00     0.134 A 
ATOM     53  F   UNL A   1      43.707  28.632  26.843  1.00  0.00    -0.206 F 
ATOM     54  C   UNL A   1      43.522  26.740  25.465  1.00  0.00     0.040 A 
ATOM     55  C   UNL A   1      42.085  24.919  26.107  1.00  0.00     0.040 A 
ATOM     56  F   UNL A   1      40.847  25.042  28.096  1.00  0.00    -0.206 F 
ATOM     57  C   UNL A   1      42.978  25.486  25.200  1.00  0.00     0.006 A 
ENDBRANCH  36  50
BRANCH  37  58
ATOM     58  C   UNL A   1      39.049  32.106  35.528  1.00  0.00     0.057 A 
ATOM     59  C   UNL A   1      38.236  31.470  36.473  1.00  0.00     0.134 A 
ATOM     60  C   UNL A   1      39.390  33.444  35.770  1.00  0.00     0.134 A 
ATOM     61  F   UNL A   1      37.861  30.196  36.291  1.00  0.00    -0.206 F 
ATOM     62  C   UNL A   1      37.778  32.137  37.611  1.00  0.00     0.040 A 
ATOM     63  C   UNL A   1      38.961  34.115  36.916  1.00  0.00     0.040 A 
ATOM     64  F   UNL A   1      40.174  34.108  34.908  1.00  0.00    -0.206 F 
ATOM     65  C   UNL A   1      38.149  33.461  37.840  1.00  0.00     0.006 A 
ENDBRANCH  37  58
BRANCH  49  66
ATOM     66  C   UNL A   1      44.345  27.737  34.425  1.00  0.00     0.057 A 
ATOM     67  C   UNL A   1      45.573  28.405  34.510  1.00  0.00     0.134 A 
ATOM     68  C   UNL A   1      44.163  26.597  35.215  1.00  0.00     0.134 A 
ATOM     69  F   UNL A   1      45.809  29.494  33.763  1.00  0.00    -0.206 F 
ATOM     70  C   UNL A   1      46.597  27.935  35.333  1.00  0.00     0.040 A 
ATOM     71  C   UNL A   1      45.172  26.131  36.056  1.00  0.00     0.040 A 
ATOM     72  F   UNL A   1      43.005  25.921  35.178  1.00  0.00    -0.206 F 
ATOM     73  C   UNL A   1      46.395  26.796  36.111  1.00  0.00     0.006 A 
ENDBRANCH  49  66
ENDBRANCH  23  24
ENDBRANCH  16  18
ENDBRANCH  15  16
ENDBRANCH  14  15
ENDBRANCH  13  14
ENDBRANCH  12  13
ENDBRANCH  10  12
ENDBRANCH   5  10
ENDBRANCH   1   5
BRANCH   2  74
ATOM     74  C   UNL A   1      33.281  25.460  21.545  1.00  0.00     0.168 C 
ATOM     75  C   UNL A   1      32.350  25.573  20.327  1.00  0.00     0.041 C 
BRANCH  74  76
ATOM     76  N   UNL A   1      32.902  24.402  22.512  1.00  0.00    -0.343 N 
ATOM     77  C   UNL A   1      33.840  23.542  23.041  1.00  0.00     0.243 C 
ATOM     78  H   UNL A   1      31.959  24.312  22.782  1.00  0.00     0.164 HD
ATOM     79  O   UNL A   1      34.909  23.330  22.463  1.00  0.00    -0.273 OA
BRANCH  77  80
ATOM     80  C   UNL A   1      33.659  22.994  24.491  1.00  0.00     0.174 C 
BRANCH  80  81
ATOM     81  N   UNL A   1      33.661  21.510  24.441  1.00  0.00    -0.343 N 
ATOM     82  C   UNL A   1      34.484  20.449  24.643  1.00  0.00     0.240 C 
ATOM     83  H   UNL A   1      32.770  21.190  24.174  1.00  0.00     0.164 HD
ATOM     84  O   UNL A   1      33.909  19.350  24.666  1.00  0.00    -0.273 OA
BRANCH  82  85
ATOM     85  C   UNL A   1      35.975  20.521  25.000  1.00  0.00     0.219 C 
BRANCH  85  86
ATOM     86  N   UNL A   1      36.555  21.813  24.745  1.00  0.00    -0.312 N 
ATOM     87  C   UNL A   1      37.649  22.354  25.334  1.00  0.00     0.407 C 
ATOM     88  H   UNL A   1      36.107  22.366  24.065  1.00  0.00     0.167 HD
ATOM     89  O   UNL A   1      37.821  23.575  25.265  1.00  0.00    -0.225 OA
BRANCH  87  90
ATOM     90  O   UNL A   1      38.418  21.496  26.030  1.00  0.00    -0.445 OA
BRANCH  90  91
ATOM     91  C   UNL A   1      39.652  22.068  26.504  1.00  0.00     0.270 C 
BRANCH  91  92
ATOM     92  C   UNL A   1      40.866  21.214  26.212  1.00  0.00    -0.011 A 
ATOM     93  C   UNL A   1      42.107  21.800  25.942  1.00  0.00     0.007 A 
ATOM     94  C   UNL A   1      40.776  19.813  26.275  1.00  0.00     0.007 A 
ATOM     95  C   UNL A   1      43.237  21.001  25.750  1.00  0.00     0.000 A 
ATOM     96  C   UNL A   1      41.907  19.017  26.095  1.00  0.00     0.000 A 
ATOM     97  C   UNL A   1      43.138  19.612  25.833  1.00  0.00     0.000 A 
ENDBRANCH  91  92
ENDBRANCH  90  91
ENDBRANCH  87  90
ENDBRANCH  85  86
ENDBRANCH  82  85
ENDBRANCH  80  81
BRANCH  80  98
ATOM     98  C   UNL A   1      34.316  23.680  25.689  1.00  0.00     0.015 C 
ATOM     99  C   UNL A   1      34.323  25.204  25.575  1.00  0.00     0.010 C 
ATOM    100  C   UNL A   1      33.631  23.276  27.010  1.00  0.00     0.010 C 
ENDBRANCH  80  98
ENDBRANCH  77  80
ENDBRANCH  74  76
ENDBRANCH   2  74
TORSDOF 24
ENDMDL
MODEL 2
REMARK VINA RESULT:     -10.6      1.604      6.274
REMARK SMILES CC(C)C[C@H](NC(=O)[C@H](C)NC(=O)[C@@H](NC(=O)CNC(=O)OCc1ccccc1)C(C)C)C(=O)OCCOC(=O)c1ccc(-c2c3nc(c(-c4c(F)cccc4F)c4ccc([nH]4)c(-c4c(F)cccc4F)c4nc(c(-c5c(F)cccc5F)c5ccc2[nH]5)C=C4)C=C3)cc1
REMARK SMILES IDX 6 1 7 2 8 3 5 5 4 6 2 7 1 8 3 9 33 10 34 11 35 12 36 13
REMARK SMILES IDX 37 14 38 15 39 16 40 17 41 18 42 19 94 20 43 21 93 22 44 23
REMARK SMILES IDX 45 24 46 25 87 26 47 27 92 28 86 29 88 30 48 31 91 32 85 33
REMARK SMILES IDX 84 34 49 36 75 37 58 38 74 39 59 40 62 41 73 42 89 43 60 44
REMARK SMILES IDX 61 45 72 47 90 48 63 49 50 50 51 51 56 52 52 53 53 54 55 55
REMARK SMILES IDX 57 56 54 57 76 58 77 59 82 60 78 61 79 62 81 63 83 64 80 65
REMARK SMILES IDX 64 66 65 67 70 68 66 69 67 70 69 71 71 72 68 73 9 74 10 75
REMARK SMILES IDX 11 76 12 77 13 79 14 80 15 81 16 82 17 84 18 85 19 86 20 87
REMARK SMILES IDX 21 89 22 90 23 91 24 92 25 93 29 94 26 95 28 96 27 97 30 98
REMARK SMILES IDX 31 99 32 100
REMARK H PARENT 6 4 88 35 62 46 11 78 15 83 19 88
REMARK Flexibility Score: inf
ROOT
ATOM      1  N   UNL A   1      32.768  27.331  21.975  1.00  0.00    -0.341 N 
ATOM      2  C   UNL A   1      33.171  26.036  22.071  1.00  0.00     0.242 C 
ATOM      3  O   UNL A   1      33.306  25.451  20.990  1.00  0.00    -0.273 OA
ATOM      4  H   UNL A   1      33.065  27.754  21.137  1.00  0.00     0.164 HD
ENDROOT
BRANCH   1   5
ATOM      5  C   UNL A   1      31.999  28.248  22.815  1.00  0.00     0.192 C 
BRANCH   5   6
ATOM      6  C   UNL A   1      30.484  27.943  22.929  1.00  0.00     0.040 C 
BRANCH   6   7
ATOM      7  C   UNL A   1      29.459  29.097  22.901  1.00  0.00    -0.015 C 
ATOM      8  C   UNL A   1      29.624  30.031  21.709  1.00  0.00     0.007 C 
ATOM      9  C   UNL A   1      28.047  28.501  22.877  1.00  0.00     0.007 C 
ENDBRANCH   6   7
ENDBRANCH   5   6
BRANCH   5  10
ATOM     10  C   UNL A   1      32.590  28.897  24.096  1.00  0.00     0.328 C 
ATOM     11  O   UNL A   1      33.724  28.687  24.501  1.00  0.00    -0.250 OA
BRANCH  10  12
ATOM     12  O   UNL A   1      31.655  29.592  24.783  1.00  0.00    -0.461 OA
BRANCH  12  13
ATOM     13  C   UNL A   1      31.741  29.667  26.223  1.00  0.00     0.274 C 
BRANCH  13  14
ATOM     14  C   UNL A   1      32.191  31.074  26.622  1.00  0.00     0.275 C 
BRANCH  14  15
ATOM     15  O   UNL A   1      33.229  30.952  27.604  1.00  0.00    -0.458 OA
BRANCH  15  16
ATOM     16  C   UNL A   1      34.141  31.943  27.573  1.00  0.00     0.338 C 
ATOM     17  O   UNL A   1      33.980  33.124  27.292  1.00  0.00    -0.246 OA
BRANCH  16  18
ATOM     18  C   UNL A   1      35.347  31.428  28.212  1.00  0.00     0.060 A 
ATOM     19  C   UNL A   1      35.334  30.094  28.622  1.00  0.00     0.016 A 
ATOM     20  C   UNL A   1      36.441  32.243  28.465  1.00  0.00     0.016 A 
ATOM     21  C   UNL A   1      36.367  29.582  29.382  1.00  0.00     0.010 A 
ATOM     22  C   UNL A   1      37.528  31.700  29.147  1.00  0.00     0.010 A 
ATOM     23  C   UNL A   1      37.482  30.379  29.637  1.00  0.00    -0.014 A 
BRANCH  23  24
ATOM     24  C   UNL A   1      38.585  29.856  30.469  1.00  0.00     0.031 A 
ATOM     25  C   UNL A   1      38.678  30.299  31.897  1.00  0.00     0.074 A 
ATOM     26  C   UNL A   1      39.482  29.001  29.945  1.00  0.00     0.049 A 
ATOM     27  N   UNL A   1      39.686  30.224  32.722  1.00  0.00    -0.248 NA
ATOM     28  C   UNL A   1      37.479  30.942  32.462  1.00  0.00     0.031 C 
ATOM     29  C   UNL A   1      39.439  28.449  28.588  1.00  0.00     0.029 A 
ATOM     30  N   UNL A   1      40.613  28.454  30.490  1.00  0.00    -0.354 N 
ATOM     31  C   UNL A   1      39.272  30.874  33.876  1.00  0.00     0.074 A 
ATOM     32  C   UNL A   1      37.917  31.329  33.651  1.00  0.00     0.031 C 
ATOM     33  C   UNL A   1      40.489  27.632  28.412  1.00  0.00     0.029 A 
ATOM     34  C   UNL A   1      41.323  27.680  29.605  1.00  0.00     0.049 A 
ATOM     35  H   UNL A   1      40.889  28.600  31.423  1.00  0.00     0.167 HD
ATOM     36  C   UNL A   1      39.977  31.081  35.012  1.00  0.00     0.037 A 
ATOM     37  C   UNL A   1      42.541  27.124  29.725  1.00  0.00     0.037 A 
ATOM     38  C   UNL A   1      41.310  30.577  35.214  1.00  0.00     0.049 A 
ATOM     39  C   UNL A   1      43.302  27.359  30.997  1.00  0.00     0.074 A 
ATOM     40  C   UNL A   1      42.152  30.749  36.296  1.00  0.00     0.029 A 
ATOM     41  N   UNL A   1      41.984  29.773  34.303  1.00  0.00    -0.354 N 
ATOM     42  N   UNL A   1      42.956  28.070  32.044  1.00  0.00    -0.248 NA
ATOM     43  C   UNL A   1      44.624  26.733  31.100  1.00  0.00     0.031 C 
ATOM     44  C   UNL A   1      43.342  30.057  36.034  1.00  0.00     0.029 A 
ATOM     45  C   UNL A   1      43.227  29.428  34.804  1.00  0.00     0.049 A 
ATOM     46  H   UNL A   1      41.630  29.490  33.429  1.00  0.00     0.167 HD
ATOM     47  C   UNL A   1      44.018  27.981  32.932  1.00  0.00     0.074 A 
ATOM     48  C   UNL A   1      45.005  27.119  32.311  1.00  0.00     0.031 C 
ATOM     49  C   UNL A   1      44.177  28.568  34.144  1.00  0.00     0.037 A 
BRANCH  36  50
ATOM     50  C   UNL A   1      39.332  31.912  36.081  1.00  0.00     0.057 A 
ATOM     51  C   UNL A   1      38.328  31.405  36.916  1.00  0.00     0.134 A 
ATOM     52  C   UNL A   1      39.709  33.249  36.265  1.00  0.00     0.134 A 
ATOM     53  F   UNL A   1      37.900  30.142  36.775  1.00  0.00    -0.206 F 
ATOM     54  C   UNL A   1      37.704  32.205  37.878  1.00  0.00     0.040 A 
ATOM     55  C   UNL A   1      39.111  34.051  37.239  1.00  0.00     0.040 A 
ATOM     56  F   UNL A   1      40.661  33.800  35.496  1.00  0.00    -0.206 F 
ATOM     57  C   UNL A   1      38.099  33.530  38.044  1.00  0.00     0.006 A 
ENDBRANCH  36  50
BRANCH  37  58
ATOM     58  C   UNL A   1      43.120  26.353  28.598  1.00  0.00     0.057 A 
ATOM     59  C   UNL A   1      43.814  26.991  27.564  1.00  0.00     0.134 A 
ATOM     60  C   UNL A   1      43.027  24.955  28.542  1.00  0.00     0.134 A 
ATOM     61  F   UNL A   1      43.924  28.327  27.550  1.00  0.00    -0.206 F 
ATOM     62  C   UNL A   1      44.389  26.271  26.515  1.00  0.00     0.040 A 
ATOM     63  C   UNL A   1      43.620  24.221  27.515  1.00  0.00     0.040 A 
ATOM     64  F   UNL A   1      42.382  24.282  29.507  1.00  0.00    -0.206 F 
ATOM     65  C   UNL A   1      44.301  24.880  26.494  1.00  0.00     0.006 A 
ENDBRANCH  37  58
BRANCH  49  66
ATOM     66  C   UNL A   1      45.454  28.266  34.862  1.00  0.00     0.057 A 
ATOM     67  C   UNL A   1      46.608  29.032  34.654  1.00  0.00     0.134 A 
ATOM     68  C   UNL A   1      45.527  27.204  35.769  1.00  0.00     0.134 A 
ATOM     69  F   UNL A   1      46.600  30.053  33.783  1.00  0.00    -0.206 F 
ATOM     70  C   UNL A   1      47.804  28.731  35.307  1.00  0.00     0.040 A 
ATOM     71  C   UNL A   1      46.711  26.907  36.442  1.00  0.00     0.040 A 
ATOM     72  F   UNL A   1      44.452  26.440  36.010  1.00  0.00    -0.206 F 
ATOM     73  C   UNL A   1      47.855  27.667  36.206  1.00  0.00     0.006 A 
ENDBRANCH  49  66
ENDBRANCH  23  24
ENDBRANCH  16  18
ENDBRANCH  15  16
ENDBRANCH  14  15
ENDBRANCH  13  14
ENDBRANCH  12  13
ENDBRANCH  10  12
ENDBRANCH   5  10
ENDBRANCH   1   5
BRANCH   2  74
ATOM     74  C   UNL A   1      33.504  25.332  23.411  1.00  0.00     0.168 C 
ATOM     75  C   UNL A   1      34.452  24.159  23.112  1.00  0.00     0.041 C 
BRANCH  74  76
ATOM     76  N   UNL A   1      32.353  24.987  24.278  1.00  0.00    -0.343 N 
ATOM     77  C   UNL A   1      31.479  23.976  23.943  1.00  0.00     0.243 C 
ATOM     78  H   UNL A   1      32.210  25.492  25.112  1.00  0.00     0.164 HD
ATOM     79  O   UNL A   1      31.352  23.602  22.775  1.00  0.00    -0.273 OA
BRANCH  77  80
ATOM     80  C   UNL A   1      30.797  23.135  25.068  1.00  0.00     0.174 C 
BRANCH  80  81
ATOM     81  N   UNL A   1      31.221  21.720  24.924  1.00  0.00    -0.343 N 
ATOM     82  C   UNL A   1      32.289  20.910  25.149  1.00  0.00     0.240 C 
ATOM     83  H   UNL A   1      30.484  21.193  24.540  1.00  0.00     0.164 HD
ATOM     84  O   UNL A   1      32.047  19.699  25.038  1.00  0.00    -0.273 OA
BRANCH  82  85
ATOM     85  C   UNL A   1      33.661  21.355  25.673  1.00  0.00     0.219 C 
BRANCH  85  86
ATOM     86  N   UNL A   1      34.638  20.298  25.668  1.00  0.00    -0.312 N 
ATOM     87  C   UNL A   1      35.865  20.315  25.094  1.00  0.00     0.407 C 
ATOM     88  H   UNL A   1      34.386  19.469  26.135  1.00  0.00     0.167 HD
ATOM     89  O   UNL A   1      36.439  19.242  24.881  1.00  0.00    -0.225 OA
BRANCH  87  90
ATOM     90  O   UNL A   1      36.316  21.528  24.723  1.00  0.00    -0.445 OA
BRANCH  90  91
ATOM     91  C   UNL A   1      37.751  21.617  24.636  1.00  0.00     0.270 C 
BRANCH  91  92
ATOM     92  C   UNL A   1      38.371  22.464  25.725  1.00  0.00    -0.011 A 
ATOM     93  C   UNL A   1      39.511  22.029  26.410  1.00  0.00     0.007 A 
ATOM     94  C   UNL A   1      37.846  23.734  26.019  1.00  0.00     0.007 A 
ATOM     95  C   UNL A   1      40.119  22.854  27.360  1.00  0.00     0.000 A 
ATOM     96  C   UNL A   1      38.461  24.561  26.958  1.00  0.00     0.000 A 
ATOM     97  C   UNL A   1      39.599  24.120  27.629  1.00  0.00     0.000 A 
ENDBRANCH  91  92
ENDBRANCH  90  91
ENDBRANCH  87  90
ENDBRANCH  85  86
ENDBRANCH  82  85
ENDBRANCH  80  81
BRANCH  80  98
ATOM     98  C   UNL A   1      30.607  23.696  26.477  1.00  0.00     0.015 C 
ATOM     99  C   UNL A   1      29.563  22.930  27.289  1.00  0.00     0.010 C 
ATOM    100  C   UNL A   1      31.938  23.717  27.256  1.00  0.00     0.010 C 
ENDBRANCH  80  98
ENDBRANCH  77  80
ENDBRANCH  74  76
ENDBRANCH   2  74
TORSDOF 24
ENDMDL
MODEL 3
REMARK VINA RESULT:     -10.5      3.978      8.361
REMARK SMILES CC(C)C[C@H](NC(=O)[C@H](C)NC(=O)[C@@H](NC(=O)CNC(=O)OCc1ccccc1)C(C)C)C(=O)OCCOC(=O)c1ccc(-c2c3nc(c(-c4c(F)cccc4F)c4ccc([nH]4)c(-c4c(F)cccc4F)c4nc(c(-c5c(F)cccc5F)c5ccc2[nH]5)C=C4)C=C3)cc1
REMARK SMILES IDX 6 1 7 2 8 3 5 5 4 6 2 7 1 8 3 9 33 10 34 11 35 12 36 13
REMARK SMILES IDX 37 14 38 15 39 16 40 17 41 18 42 19 94 20 43 21 93 22 44 23
REMARK SMILES IDX 45 24 46 25 87 26 47 27 92 28 86 29 88 30 48 31 91 32 85 33
REMARK SMILES IDX 84 34 49 36 75 37 58 38 74 39 59 40 62 41 73 42 89 43 60 44
REMARK SMILES IDX 61 45 72 47 90 48 63 49 50 50 51 51 56 52 52 53 53 54 55 55
REMARK SMILES IDX 57 56 54 57 76 58 77 59 82 60 78 61 79 62 81 63 83 64 80 65
REMARK SMILES IDX 64 66 65 67 70 68 66 69 67 70 69 71 71 72 68 73 9 74 10 75
REMARK SMILES IDX 11 76 12 77 13 79 14 80 15 81 16 82 17 84 18 85 19 86 20 87
REMARK SMILES IDX 21 89 22 90 23 91 24 92 25 93 29 94 26 95 28 96 27 97 30 98
REMARK SMILES IDX 31 99 32 100
REMARK H PARENT 6 4 88 35 62 46 11 78 15 83 19 88
REMARK Flexibility Score: inf
ROOT
ATOM      1  N   UNL A   1      34.521  24.613  25.469  1.00  0.00    -0.341 N 
ATOM      2  C   UNL A   1      35.484  23.683  25.706  1.00  0.00     0.242 C 
ATOM      3  O   UNL A   1      35.909  23.657  26.867  1.00  0.00    -0.273 OA
ATOM      4  H   UNL A   1      33.985  24.808  26.272  1.00  0.00     0.164 HD
ENDROOT
BRANCH   1   5
ATOM      5  C   UNL A   1      34.089  25.393  24.311  1.00  0.00     0.192 C 
BRANCH   5   6
ATOM      6  C   UNL A   1      33.000  24.735  23.427  1.00  0.00     0.040 C 
BRANCH   6   7
ATOM      7  C   UNL A   1      33.183  24.669  21.895  1.00  0.00    -0.015 C 
ATOM      8  C   UNL A   1      33.064  23.260  21.327  1.00  0.00     0.007 C 
ATOM      9  C   UNL A   1      32.129  25.564  21.234  1.00  0.00     0.007 C 
ENDBRANCH   6   7
ENDBRANCH   5   6
BRANCH   5  10
ATOM     10  C   UNL A   1      34.001  26.943  24.337  1.00  0.00     0.328 C 
ATOM     11  O   UNL A   1      34.048  27.642  23.335  1.00  0.00    -0.250 OA
BRANCH  10  12
ATOM     12  O   UNL A   1      34.022  27.425  25.601  1.00  0.00    -0.461 OA
BRANCH  12  13
ATOM     13  C   UNL A   1      33.994  28.853  25.816  1.00  0.00     0.274 C 
BRANCH  13  14
ATOM     14  C   UNL A   1      33.556  29.131  27.256  1.00  0.00     0.275 C 
BRANCH  14  15
ATOM     15  O   UNL A   1      34.697  28.978  28.110  1.00  0.00    -0.458 OA
BRANCH  15  16
ATOM     16  C   UNL A   1      35.330  30.131  28.404  1.00  0.00     0.338 C 
ATOM     17  O   UNL A   1      34.846  31.211  28.718  1.00  0.00    -0.246 OA
BRANCH  16  18
ATOM     18  C   UNL A   1      36.745  29.810  28.557  1.00  0.00     0.060 A 
ATOM     19  C   UNL A   1      37.562  29.968  27.437  1.00  0.00     0.016 A 
ATOM     20  C   UNL A   1      37.250  29.305  29.746  1.00  0.00     0.016 A 
ATOM     21  C   UNL A   1      38.870  29.526  27.453  1.00  0.00     0.010 A 
ATOM     22  C   UNL A   1      38.597  28.950  29.795  1.00  0.00     0.010 A 
ATOM     23  C   UNL A   1      39.404  29.028  28.642  1.00  0.00    -0.014 A 
BRANCH  23  24
ATOM     24  C   UNL A   1      40.793  28.528  28.671  1.00  0.00     0.031 A 
ATOM     25  C   UNL A   1      41.895  29.490  28.990  1.00  0.00     0.074 A 
ATOM     26  C   UNL A   1      41.052  27.233  28.412  1.00  0.00     0.049 A 
ATOM     27  N   UNL A   1      43.180  29.373  28.790  1.00  0.00    -0.248 NA
ATOM     28  C   UNL A   1      41.490  30.774  29.588  1.00  0.00     0.031 C 
ATOM     29  C   UNL A   1      40.045  26.197  28.164  1.00  0.00     0.029 A 
ATOM     30  N   UNL A   1      42.244  26.568  28.306  1.00  0.00    -0.354 N 
ATOM     31  C   UNL A   1      43.728  30.591  29.168  1.00  0.00     0.074 A 
ATOM     32  C   UNL A   1      42.640  31.430  29.619  1.00  0.00     0.031 C 
ATOM     33  C   UNL A   1      40.663  25.026  27.947  1.00  0.00     0.029 A 
ATOM     34  C   UNL A   1      42.102  25.250  27.947  1.00  0.00     0.049 A 
ATOM     35  H   UNL A   1      43.117  26.992  28.472  1.00  0.00     0.167 HD
ATOM     36  C   UNL A   1      45.027  30.967  29.123  1.00  0.00     0.037 A 
ATOM     37  C   UNL A   1      43.031  24.344  27.596  1.00  0.00     0.037 A 
ATOM     38  C   UNL A   1      46.087  30.087  28.705  1.00  0.00     0.049 A 
ATOM     39  C   UNL A   1      44.466  24.780  27.561  1.00  0.00     0.074 A 
ATOM     40  C   UNL A   1      47.437  30.352  28.571  1.00  0.00     0.029 A 
ATOM     41  N   UNL A   1      45.904  28.750  28.376  1.00  0.00    -0.354 N 
ATOM     42  N   UNL A   1      44.973  25.965  27.808  1.00  0.00    -0.248 NA
ATOM     43  C   UNL A   1      45.455  23.766  27.182  1.00  0.00     0.031 C 
ATOM     44  C   UNL A   1      48.069  29.175  28.149  1.00  0.00     0.029 A 
ATOM     45  C   UNL A   1      47.118  28.171  28.052  1.00  0.00     0.049 A 
ATOM     46  H   UNL A   1      45.037  28.282  28.372  1.00  0.00     0.167 HD
ATOM     47  C   UNL A   1      46.340  25.842  27.613  1.00  0.00     0.074 A 
ATOM     48  C   UNL A   1      46.585  24.457  27.258  1.00  0.00     0.031 C 
ATOM     49  C   UNL A   1      47.309  26.786  27.701  1.00  0.00     0.037 A 
BRANCH  36  50
ATOM     50  C   UNL A   1      45.346  32.385  29.490  1.00  0.00     0.057 A 
ATOM     51  C   UNL A   1      45.744  32.750  30.783  1.00  0.00     0.134 A 
ATOM     52  C   UNL A   1      45.234  33.408  28.538  1.00  0.00     0.134 A 
ATOM     53  F   UNL A   1      45.845  31.825  31.748  1.00  0.00    -0.206 F 
ATOM     54  C   UNL A   1      45.995  34.083  31.122  1.00  0.00     0.040 A 
ATOM     55  C   UNL A   1      45.505  34.740  28.858  1.00  0.00     0.040 A 
ATOM     56  F   UNL A   1      44.852  33.130  27.282  1.00  0.00    -0.206 F 
ATOM     57  C   UNL A   1      45.880  35.080  30.157  1.00  0.00     0.006 A 
ENDBRANCH  36  50
BRANCH  37  58
ATOM     58  C   UNL A   1      42.619  22.973  27.205  1.00  0.00     0.057 A 
ATOM     59  C   UNL A   1      42.578  22.584  25.862  1.00  0.00     0.134 A 
ATOM     60  C   UNL A   1      42.292  22.004  28.165  1.00  0.00     0.134 A 
ATOM     61  F   UNL A   1      42.864  23.468  24.895  1.00  0.00    -0.206 F 
ATOM     62  C   UNL A   1      42.223  21.287  25.486  1.00  0.00     0.040 A 
ATOM     63  C   UNL A   1      41.961  20.697  27.805  1.00  0.00     0.040 A 
ATOM     64  F   UNL A   1      42.320  22.310  29.471  1.00  0.00    -0.206 F 
ATOM     65  C   UNL A   1      41.923  20.337  26.460  1.00  0.00     0.006 A 
ENDBRANCH  37  58
BRANCH  49  66
ATOM     66  C   UNL A   1      48.707  26.326  27.428  1.00  0.00     0.057 A 
ATOM     67  C   UNL A   1      49.273  26.425  26.151  1.00  0.00     0.134 A 
ATOM     68  C   UNL A   1      49.490  25.784  28.452  1.00  0.00     0.134 A 
ATOM     69  F   UNL A   1      48.561  26.922  25.127  1.00  0.00    -0.206 F 
ATOM     70  C   UNL A   1      50.567  25.971  25.896  1.00  0.00     0.040 A 
ATOM     71  C   UNL A   1      50.791  25.346  28.213  1.00  0.00     0.040 A 
ATOM     72  F   UNL A   1      49.001  25.669  29.696  1.00  0.00    -0.206 F 
ATOM     73  C   UNL A   1      51.330  25.433  26.930  1.00  0.00     0.006 A 
ENDBRANCH  49  66
ENDBRANCH  23  24
ENDBRANCH  16  18
ENDBRANCH  15  16
ENDBRANCH  14  15
ENDBRANCH  13  14
ENDBRANCH  12  13
ENDBRANCH  10  12
ENDBRANCH   5  10
ENDBRANCH   1   5
BRANCH   2  74
ATOM     74  C   UNL A   1      35.992  22.676  24.643  1.00  0.00     0.168 C 
ATOM     75  C   UNL A   1      36.655  23.473  23.508  1.00  0.00     0.041 C 
BRANCH  74  76
ATOM     76  N   UNL A   1      35.023  21.650  24.190  1.00  0.00    -0.343 N 
ATOM     77  C   UNL A   1      35.099  20.346  24.630  1.00  0.00     0.243 C 
ATOM     78  H   UNL A   1      34.310  21.907  23.561  1.00  0.00     0.164 HD
ATOM     79  O   UNL A   1      36.155  19.878  25.061  1.00  0.00    -0.273 OA
BRANCH  77  80
ATOM     80  C   UNL A   1      33.793  19.507  24.797  1.00  0.00     0.174 C 
BRANCH  80  81
ATOM     81  N   UNL A   1      32.639  20.334  24.361  1.00  0.00    -0.343 N 
ATOM     82  C   UNL A   1      31.866  21.370  24.779  1.00  0.00     0.240 C 
ATOM     83  H   UNL A   1      32.335  20.032  23.475  1.00  0.00     0.164 HD
ATOM     84  O   UNL A   1      31.121  21.839  23.905  1.00  0.00    -0.273 OA
BRANCH  82  85
ATOM     85  C   UNL A   1      31.968  22.078  26.136  1.00  0.00     0.219 C 
BRANCH  85  86
ATOM     86  N   UNL A   1      30.700  22.559  26.619  1.00  0.00    -0.312 N 
ATOM     87  C   UNL A   1      30.241  23.834  26.593  1.00  0.00     0.407 C 
ATOM     88  H   UNL A   1      30.100  21.887  27.013  1.00  0.00     0.167 HD
ATOM     89  O   UNL A   1      29.304  24.146  27.336  1.00  0.00    -0.225 OA
BRANCH  87  90
ATOM     90  O   UNL A   1      30.922  24.682  25.800  1.00  0.00    -0.445 OA
BRANCH  90  91
ATOM     91  C   UNL A   1      30.730  26.071  26.126  1.00  0.00     0.270 C 
BRANCH  91  92
ATOM     92  C   UNL A   1      30.205  26.896  24.972  1.00  0.00    -0.011 A 
ATOM     93  C   UNL A   1      29.100  26.467  24.229  1.00  0.00     0.007 A 
ATOM     94  C   UNL A   1      30.783  28.142  24.672  1.00  0.00     0.007 A 
ATOM     95  C   UNL A   1      28.578  27.274  23.215  1.00  0.00     0.000 A 
ATOM     96  C   UNL A   1      30.253  28.951  23.668  1.00  0.00     0.000 A 
ATOM     97  C   UNL A   1      29.148  28.517  22.940  1.00  0.00     0.000 A 
ENDBRANCH  91  92
ENDBRANCH  90  91
ENDBRANCH  87  90
ENDBRANCH  85  86
ENDBRANCH  82  85
ENDBRANCH  80  81
BRANCH  80  98
ATOM     98  C   UNL A   1      33.765  18.009  24.499  1.00  0.00     0.015 C 
ATOM     99  C   UNL A   1      33.059  17.196  25.584  1.00  0.00     0.010 C 
ATOM    100  C   UNL A   1      33.099  17.721  23.138  1.00  0.00     0.010 C 
ENDBRANCH  80  98
ENDBRANCH  77  80
ENDBRANCH  74  76
ENDBRANCH   2  74
TORSDOF 24
ENDMDL
