MODEL 1
REMARK VINA RESULT:     -13.0      0.000      0.000
REMARK SMILES COc1ccc([C@H]2CC(c3ccc(S(C)(=O)=O)cc3)=NN2c2ccc(C(=O)OCCOC(=O)c3ccc(-c4c5nc(c(-c6c(F)cccc6F)c6ccc([nH]6)c(-c6c(F)cccc6F)c6nc(c(-c7c(F)cccc7F)c7ccc4[nH]7)C=C6)C=C5)cc3)cc2)cc1OC
REMARK SMILES IDX 29 1 28 2 26 3 27 4 25 5 22 6 23 7 89 8 24 9 88 10 21 11
REMARK SMILES IDX 7 12 8 13 9 14 20 15 6 16 3 17 4 18 91 19 5 20 90 21 2 22
REMARK SMILES IDX 1 23 92 24 93 25 10 26 11 27 19 28 12 29 18 30 13 31 14 32
REMARK SMILES IDX 15 33 16 34 17 35 30 36 31 37 32 38 33 39 34 40 35 41 87 42
REMARK SMILES IDX 36 43 86 44 37 45 38 46 39 47 80 48 40 49 85 50 79 51 81 52
REMARK SMILES IDX 41 53 84 54 78 55 77 56 42 58 68 59 51 60 67 61 52 62 55 63
REMARK SMILES IDX 66 64 82 65 53 66 54 67 65 69 83 70 56 71 43 72 44 73 49 74
REMARK SMILES IDX 45 75 46 76 48 77 50 78 47 79 69 80 70 81 75 82 71 83 72 84
REMARK SMILES IDX 74 85 76 86 73 87 57 88 58 89 63 90 59 91 60 92 62 93 64 94
REMARK SMILES IDX 61 95
REMARK H PARENT 81 57 55 68
REMARK Flexibility Score: inf
ROOT
ATOM      1  C   UNL A   1      40.619  21.474  26.743  1.00  0.00     0.275 C 
ENDROOT
BRANCH   1   2
ATOM      2  O   UNL A   1      39.441  21.886  26.018  1.00  0.00    -0.458 OA
BRANCH   2   3
ATOM      3  C   UNL A   1      38.892  23.056  26.434  1.00  0.00     0.338 C 
ATOM      4  O   UNL A   1      39.392  23.866  27.190  1.00  0.00    -0.246 OA
BRANCH   3   5
ATOM      5  C   UNL A   1      37.584  23.284  25.781  1.00  0.00     0.060 A 
ATOM      6  C   UNL A   1      35.238  23.861  24.335  1.00  0.00     0.060 A 
ATOM      7  C   UNL A   1      36.195  22.983  23.824  1.00  0.00     0.029 A 
ATOM      8  C   UNL A   1      35.458  24.418  25.605  1.00  0.00     0.029 A 
ATOM      9  C   UNL A   1      37.372  22.731  24.518  1.00  0.00     0.018 A 
ATOM     10  C   UNL A   1      36.614  24.115  26.341  1.00  0.00     0.018 A 
BRANCH   6  11
ATOM     11  N   UNL A   1      34.127  24.185  23.567  1.00  0.00    -0.257 N 
ATOM     12  C   UNL A   1      33.405  23.209  22.747  1.00  0.00     0.144 C 
ATOM     13  C   UNL A   1      32.144  23.983  22.339  1.00  0.00     0.091 C 
ATOM     14  C   UNL A   1      32.306  25.220  23.177  1.00  0.00     0.071 C 
ATOM     15  N   UNL A   1      33.409  25.308  23.849  1.00  0.00    -0.176 NA
BRANCH  12  16
ATOM     16  C   UNL A   1      33.074  21.916  23.486  1.00  0.00    -0.019 A 
ATOM     17  C   UNL A   1      32.376  19.537  24.842  1.00  0.00     0.160 A 
ATOM     18  C   UNL A   1      32.199  19.647  23.456  1.00  0.00     0.051 A 
ATOM     19  C   UNL A   1      32.942  20.597  25.558  1.00  0.00     0.161 A 
ATOM     20  C   UNL A   1      32.535  20.827  22.787  1.00  0.00     0.010 A 
ATOM     21  C   UNL A   1      33.293  21.769  24.868  1.00  0.00     0.056 A 
BRANCH  17  22
ATOM     22  O   UNL A   1      32.076  18.347  25.451  1.00  0.00    -0.493 OA
ATOM     23  C   UNL A   1      32.870  17.272  24.948  1.00  0.00     0.278 C 
ENDBRANCH  17  22
BRANCH  19  24
ATOM     24  O   UNL A   1      33.220  20.662  26.898  1.00  0.00    -0.493 OA
ATOM     25  C   UNL A   1      34.081  21.695  27.355  1.00  0.00     0.278 C 
ENDBRANCH  19  24
ENDBRANCH  12  16
BRANCH  14  26
ATOM     26  C   UNL A   1      31.303  26.292  23.146  1.00  0.00    -0.002 A 
ATOM     27  C   UNL A   1      31.659  27.514  22.567  1.00  0.00     0.011 A 
ATOM     28  C   UNL A   1      30.014  26.084  23.643  1.00  0.00     0.011 A 
ATOM     29  C   UNL A   1      30.705  28.525  22.438  1.00  0.00     0.021 A 
ATOM     30  C   UNL A   1      29.065  27.103  23.540  1.00  0.00     0.021 A 
ATOM     31  C   UNL A   1      29.412  28.313  22.927  1.00  0.00     0.067 A 
BRANCH  31  32
ATOM     32  S   UNL A   1      28.181  29.574  22.686  1.00  0.00     0.175 S 
ATOM     33  C   UNL A   1      28.803  30.981  23.566  1.00  0.00     0.163 C 
ATOM     34  O   UNL A   1      28.178  29.884  21.269  1.00  0.00    -0.224 OA
ATOM     35  O   UNL A   1      26.969  29.138  23.355  1.00  0.00    -0.224 OA
ENDBRANCH  31  32
ENDBRANCH  14  26
ENDBRANCH   6  11
ENDBRANCH   3   5
ENDBRANCH   2   3
ENDBRANCH   1   2
BRANCH   1  36
ATOM     36  C   UNL A   1      41.883  21.621  25.896  1.00  0.00     0.275 C 
BRANCH  36  37
ATOM     37  O   UNL A   1      42.007  22.970  25.409  1.00  0.00    -0.458 OA
BRANCH  37  38
ATOM     38  C   UNL A   1      43.219  23.543  25.576  1.00  0.00     0.338 C 
ATOM     39  O   UNL A   1      44.237  23.328  24.936  1.00  0.00    -0.246 OA
BRANCH  38  40
ATOM     40  C   UNL A   1      43.179  24.525  26.673  1.00  0.00     0.060 A 
ATOM     41  C   UNL A   1      42.857  24.105  27.957  1.00  0.00     0.016 A 
ATOM     42  C   UNL A   1      43.275  25.887  26.394  1.00  0.00     0.016 A 
ATOM     43  C   UNL A   1      42.466  25.033  28.921  1.00  0.00     0.010 A 
ATOM     44  C   UNL A   1      43.022  26.820  27.406  1.00  0.00     0.010 A 
ATOM     45  C   UNL A   1      42.554  26.409  28.668  1.00  0.00    -0.014 A 
BRANCH  45  46
ATOM     46  C   UNL A   1      42.120  27.411  29.691  1.00  0.00     0.031 A 
ATOM     47  C   UNL A   1      42.886  27.560  30.986  1.00  0.00     0.074 A 
ATOM     48  C   UNL A   1      41.050  28.203  29.475  1.00  0.00     0.049 A 
ATOM     49  N   UNL A   1      42.557  28.207  32.076  1.00  0.00    -0.248 NA
ATOM     50  C   UNL A   1      44.186  26.876  31.072  1.00  0.00     0.031 C 
ATOM     51  C   UNL A   1      40.231  28.218  28.263  1.00  0.00     0.029 A 
ATOM     52  N   UNL A   1      40.467  29.159  30.274  1.00  0.00    -0.354 N 
ATOM     53  C   UNL A   1      43.567  27.948  32.996  1.00  0.00     0.074 A 
ATOM     54  C   UNL A   1      44.523  27.085  32.336  1.00  0.00     0.031 C 
ATOM     55  C   UNL A   1      39.288  29.166  28.374  1.00  0.00     0.029 A 
ATOM     56  C   UNL A   1      39.367  29.756  29.705  1.00  0.00     0.049 A 
ATOM     57  H   UNL A   1      40.805  29.395  31.168  1.00  0.00     0.167 HD
ATOM     58  C   UNL A   1      43.687  28.386  34.273  1.00  0.00     0.037 A 
ATOM     59  C   UNL A   1      38.485  30.642  30.206  1.00  0.00     0.037 A 
ATOM     60  C   UNL A   1      42.777  29.307  34.907  1.00  0.00     0.049 A 
ATOM     61  C   UNL A   1      38.630  31.105  31.625  1.00  0.00     0.074 A 
ATOM     62  C   UNL A   1      42.826  29.823  36.191  1.00  0.00     0.029 A 
ATOM     63  N   UNL A   1      41.667  29.869  34.293  1.00  0.00    -0.354 N 
ATOM     64  N   UNL A   1      39.549  30.794  32.506  1.00  0.00    -0.248 NA
ATOM     65  C   UNL A   1      37.600  32.026  32.129  1.00  0.00     0.031 C 
ATOM     66  C   UNL A   1      41.730  30.676  36.364  1.00  0.00     0.029 A 
ATOM     67  C   UNL A   1      41.022  30.721  35.175  1.00  0.00     0.049 A 
ATOM     68  H   UNL A   1      41.381  29.689  33.369  1.00  0.00     0.167 HD
ATOM     69  C   UNL A   1      39.217  31.487  33.662  1.00  0.00     0.074 A 
ATOM     70  C   UNL A   1      38.022  32.252  33.365  1.00  0.00     0.031 C 
ATOM     71  C   UNL A   1      39.840  31.483  34.864  1.00  0.00     0.037 A 
BRANCH  58  72
ATOM     72  C   UNL A   1      44.829  27.855  35.090  1.00  0.00     0.057 A 
ATOM     73  C   UNL A   1      44.708  26.717  35.898  1.00  0.00     0.134 A 
ATOM     74  C   UNL A   1      46.086  28.471  35.030  1.00  0.00     0.134 A 
ATOM     75  F   UNL A   1      43.530  26.084  36.008  1.00  0.00    -0.206 F 
ATOM     76  C   UNL A   1      45.789  26.226  36.633  1.00  0.00     0.040 A 
ATOM     77  C   UNL A   1      47.181  27.975  35.741  1.00  0.00     0.040 A 
ATOM     78  F   UNL A   1      46.275  29.560  34.269  1.00  0.00    -0.206 F 
ATOM     79  C   UNL A   1      47.031  26.851  36.550  1.00  0.00     0.006 A 
ENDBRANCH  58  72
BRANCH  59  80
ATOM     80  C   UNL A   1      37.354  31.113  29.366  1.00  0.00     0.057 A 
ATOM     81  C   UNL A   1      36.237  30.303  29.135  1.00  0.00     0.134 A 
ATOM     82  C   UNL A   1      37.361  32.385  28.778  1.00  0.00     0.134 A 
ATOM     83  F   UNL A   1      36.183  29.065  29.648  1.00  0.00    -0.206 F 
ATOM     84  C   UNL A   1      35.171  30.738  28.346  1.00  0.00     0.040 A 
ATOM     85  C   UNL A   1      36.290  32.843  28.011  1.00  0.00     0.040 A 
ATOM     86  F   UNL A   1      38.404  33.209  28.960  1.00  0.00    -0.206 F 
ATOM     87  C   UNL A   1      35.192  32.015  27.789  1.00  0.00     0.006 A 
ENDBRANCH  59  80
BRANCH  71  88
ATOM     88  C   UNL A   1      39.265  32.362  35.933  1.00  0.00     0.057 A 
ATOM     89  C   UNL A   1      39.673  33.693  36.091  1.00  0.00     0.134 A 
ATOM     90  C   UNL A   1      38.279  31.877  36.800  1.00  0.00     0.134 A 
ATOM     91  F   UNL A   1      40.624  34.211  35.302  1.00  0.00    -0.206 F 
ATOM     92  C   UNL A   1      39.133  34.505  37.090  1.00  0.00     0.040 A 
ATOM     93  C   UNL A   1      37.716  32.685  37.788  1.00  0.00     0.040 A 
ATOM     94  F   UNL A   1      37.843  30.613  36.697  1.00  0.00    -0.206 F 
ATOM     95  C   UNL A   1      38.148  34.002  37.939  1.00  0.00     0.006 A 
ENDBRANCH  71  88
ENDBRANCH  45  46
ENDBRANCH  38  40
ENDBRANCH  37  38
ENDBRANCH  36  37
ENDBRANCH   1  36
TORSDOF 17
ENDMDL
MODEL 2
REMARK VINA RESULT:     -12.7      4.770     10.031
REMARK SMILES COc1ccc([C@H]2CC(c3ccc(S(C)(=O)=O)cc3)=NN2c2ccc(C(=O)OCCOC(=O)c3ccc(-c4c5nc(c(-c6c(F)cccc6F)c6ccc([nH]6)c(-c6c(F)cccc6F)c6nc(c(-c7c(F)cccc7F)c7ccc4[nH]7)C=C6)C=C5)cc3)cc2)cc1OC
REMARK SMILES IDX 29 1 28 2 26 3 27 4 25 5 22 6 23 7 89 8 24 9 88 10 21 11
REMARK SMILES IDX 7 12 8 13 9 14 20 15 6 16 3 17 4 18 91 19 5 20 90 21 2 22
REMARK SMILES IDX 1 23 92 24 93 25 10 26 11 27 19 28 12 29 18 30 13 31 14 32
REMARK SMILES IDX 15 33 16 34 17 35 30 36 31 37 32 38 33 39 34 40 35 41 87 42
REMARK SMILES IDX 36 43 86 44 37 45 38 46 39 47 80 48 40 49 85 50 79 51 81 52
REMARK SMILES IDX 41 53 84 54 78 55 77 56 42 58 68 59 51 60 67 61 52 62 55 63
REMARK SMILES IDX 66 64 82 65 53 66 54 67 65 69 83 70 56 71 43 72 44 73 49 74
REMARK SMILES IDX 45 75 46 76 48 77 50 78 47 79 69 80 70 81 75 82 71 83 72 84
REMARK SMILES IDX 74 85 76 86 73 87 57 88 58 89 63 90 59 91 60 92 62 93 64 94
REMARK SMILES IDX 61 95
REMARK H PARENT 81 57 55 68
REMARK Flexibility Score: inf
ROOT
ATOM      1  C   UNL A   1      34.423  32.773  28.818  1.00  0.00     0.275 C 
ENDROOT
BRANCH   1   2
ATOM      2  O   UNL A   1      33.701  31.743  28.109  1.00  0.00    -0.458 OA
BRANCH   2   3
ATOM      3  C   UNL A   1      34.480  30.822  27.486  1.00  0.00     0.338 C 
ATOM      4  O   UNL A   1      35.646  30.951  27.170  1.00  0.00    -0.246 OA
BRANCH   3   5
ATOM      5  C   UNL A   1      33.740  29.556  27.287  1.00  0.00     0.060 A 
ATOM      6  C   UNL A   1      32.354  27.197  26.626  1.00  0.00     0.060 A 
ATOM      7  C   UNL A   1      33.717  27.325  26.353  1.00  0.00     0.029 A 
ATOM      8  C   UNL A   1      31.702  28.258  27.272  1.00  0.00     0.029 A 
ATOM      9  C   UNL A   1      34.391  28.505  26.640  1.00  0.00     0.018 A 
ATOM     10  C   UNL A   1      32.394  29.428  27.626  1.00  0.00     0.018 A 
BRANCH   6  11
ATOM     11  N   UNL A   1      31.680  26.051  26.221  1.00  0.00    -0.257 N 
ATOM     12  C   UNL A   1      30.363  26.078  25.580  1.00  0.00     0.144 C 
ATOM     13  C   UNL A   1      30.197  24.630  25.098  1.00  0.00     0.091 C 
ATOM     14  C   UNL A   1      31.565  24.088  25.402  1.00  0.00     0.071 C 
ATOM     15  N   UNL A   1      32.369  24.892  26.021  1.00  0.00    -0.176 NA
BRANCH  12  16
ATOM     16  C   UNL A   1      30.260  27.082  24.437  1.00  0.00    -0.019 A 
ATOM     17  C   UNL A   1      30.045  28.878  22.266  1.00  0.00     0.160 A 
ATOM     18  C   UNL A   1      28.898  28.320  22.847  1.00  0.00     0.051 A 
ATOM     19  C   UNL A   1      31.307  28.578  22.788  1.00  0.00     0.161 A 
ATOM     20  C   UNL A   1      29.006  27.425  23.915  1.00  0.00     0.010 A 
ATOM     21  C   UNL A   1      31.397  27.692  23.874  1.00  0.00     0.056 A 
BRANCH  17  22
ATOM     22  O   UNL A   1      29.892  29.786  21.251  1.00  0.00    -0.493 OA
ATOM     23  C   UNL A   1      28.636  30.462  21.320  1.00  0.00     0.278 C 
ENDBRANCH  17  22
BRANCH  19  24
ATOM     24  O   UNL A   1      32.527  29.048  22.378  1.00  0.00    -0.493 OA
ATOM     25  C   UNL A   1      33.609  28.130  22.307  1.00  0.00     0.278 C 
ENDBRANCH  19  24
ENDBRANCH  12  16
BRANCH  14  26
ATOM     26  C   UNL A   1      31.915  22.696  25.089  1.00  0.00    -0.002 A 
ATOM     27  C   UNL A   1      31.948  22.309  23.745  1.00  0.00     0.011 A 
ATOM     28  C   UNL A   1      32.247  21.794  26.103  1.00  0.00     0.011 A 
ATOM     29  C   UNL A   1      32.364  21.021  23.405  1.00  0.00     0.021 A 
ATOM     30  C   UNL A   1      32.638  20.496  25.766  1.00  0.00     0.021 A 
ATOM     31  C   UNL A   1      32.706  20.121  24.419  1.00  0.00     0.067 A 
BRANCH  31  32
ATOM     32  S   UNL A   1      33.313  18.509  23.973  1.00  0.00     0.175 S 
ATOM     33  C   UNL A   1      32.528  17.404  25.114  1.00  0.00     0.163 C 
ATOM     34  O   UNL A   1      32.808  18.231  22.643  1.00  0.00    -0.224 OA
ATOM     35  O   UNL A   1      34.738  18.486  24.249  1.00  0.00    -0.224 OA
ENDBRANCH  31  32
ENDBRANCH  14  26
ENDBRANCH   6  11
ENDBRANCH   3   5
ENDBRANCH   2   3
ENDBRANCH   1   2
BRANCH   1  36
ATOM     36  C   UNL A   1      34.792  32.331  30.234  1.00  0.00     0.275 C 
BRANCH  36  37
ATOM     37  O   UNL A   1      36.185  31.973  30.300  1.00  0.00    -0.458 OA
BRANCH  37  38
ATOM     38  C   UNL A   1      36.468  30.856  31.006  1.00  0.00     0.338 C 
ATOM     39  O   UNL A   1      35.902  30.446  32.008  1.00  0.00    -0.246 OA
BRANCH  38  40
ATOM     40  C   UNL A   1      37.592  30.129  30.393  1.00  0.00     0.060 A 
ATOM     41  C   UNL A   1      38.486  29.440  31.204  1.00  0.00     0.016 A 
ATOM     42  C   UNL A   1      37.869  30.286  29.037  1.00  0.00     0.016 A 
ATOM     43  C   UNL A   1      39.729  29.053  30.707  1.00  0.00     0.010 A 
ATOM     44  C   UNL A   1      39.058  29.768  28.508  1.00  0.00     0.010 A 
ATOM     45  C   UNL A   1      40.034  29.198  29.346  1.00  0.00    -0.014 A 
BRANCH  45  46
ATOM     46  C   UNL A   1      41.373  28.802  28.809  1.00  0.00     0.031 A 
ATOM     47  C   UNL A   1      41.613  27.390  28.323  1.00  0.00     0.074 A 
ATOM     48  C   UNL A   1      42.383  29.693  28.737  1.00  0.00     0.049 A 
ATOM     49  N   UNL A   1      42.741  26.795  28.025  1.00  0.00    -0.248 NA
ATOM     50  C   UNL A   1      40.429  26.529  28.171  1.00  0.00     0.031 C 
ATOM     51  C   UNL A   1      42.304  31.103  29.121  1.00  0.00     0.029 A 
ATOM     52  N   UNL A   1      43.681  29.543  28.310  1.00  0.00    -0.354 N 
ATOM     53  C   UNL A   1      42.412  25.478  27.724  1.00  0.00     0.074 A 
ATOM     54  C   UNL A   1      40.977  25.360  27.873  1.00  0.00     0.031 C 
ATOM     55  C   UNL A   1      43.477  31.700  28.865  1.00  0.00     0.029 A 
ATOM     56  C   UNL A   1      44.426  30.695  28.399  1.00  0.00     0.049 A 
ATOM     57  H   UNL A   1      44.043  28.693  27.971  1.00  0.00     0.167 HD
ATOM     58  C   UNL A   1      43.228  24.459  27.358  1.00  0.00     0.037 A 
ATOM     59  C   UNL A   1      45.736  30.919  28.181  1.00  0.00     0.037 A 
ATOM     60  C   UNL A   1      44.646  24.593  27.133  1.00  0.00     0.049 A 
ATOM     61  C   UNL A   1      46.624  29.775  27.788  1.00  0.00     0.074 A 
ATOM     62  C   UNL A   1      45.553  23.623  26.742  1.00  0.00     0.029 A 
ATOM     63  N   UNL A   1      45.356  25.778  27.254  1.00  0.00    -0.354 N 
ATOM     64  N   UNL A   1      46.311  28.521  27.578  1.00  0.00    -0.248 NA
ATOM     65  C   UNL A   1      48.054  30.075  27.623  1.00  0.00     0.031 C 
ATOM     66  C   UNL A   1      46.818  24.214  26.654  1.00  0.00     0.029 A 
ATOM     67  C   UNL A   1      46.691  25.560  26.952  1.00  0.00     0.049 A 
ATOM     68  H   UNL A   1      44.970  26.644  27.517  1.00  0.00     0.167 HD
ATOM     69  C   UNL A   1      47.499  27.883  27.246  1.00  0.00     0.074 A 
ATOM     70  C   UNL A   1      48.537  28.894  27.263  1.00  0.00     0.031 C 
ATOM     71  C   UNL A   1      47.711  26.577  26.963  1.00  0.00     0.037 A 
BRANCH  58  72
ATOM     72  C   UNL A   1      42.619  23.096  27.203  1.00  0.00     0.057 A 
ATOM     73  C   UNL A   1      42.262  22.305  28.302  1.00  0.00     0.134 A 
ATOM     74  C   UNL A   1      42.345  22.586  25.927  1.00  0.00     0.134 A 
ATOM     75  F   UNL A   1      42.505  22.728  29.552  1.00  0.00    -0.206 F 
ATOM     76  C   UNL A   1      41.676  21.048  28.137  1.00  0.00     0.040 A 
ATOM     77  C   UNL A   1      41.737  21.342  25.749  1.00  0.00     0.040 A 
ATOM     78  F   UNL A   1      42.653  23.295  24.830  1.00  0.00    -0.206 F 
ATOM     79  C   UNL A   1      41.406  20.567  26.858  1.00  0.00     0.006 A 
ENDBRANCH  58  72
BRANCH  59  80
ATOM     80  C   UNL A   1      46.296  32.281  28.378  1.00  0.00     0.057 A 
ATOM     81  C   UNL A   1      46.808  32.681  29.617  1.00  0.00     0.134 A 
ATOM     82  C   UNL A   1      46.336  33.212  27.332  1.00  0.00     0.134 A 
ATOM     83  F   UNL A   1      46.773  31.844  30.664  1.00  0.00    -0.206 F 
ATOM     84  C   UNL A   1      47.334  33.959  29.811  1.00  0.00     0.040 A 
ATOM     85  C   UNL A   1      46.886  34.483  27.505  1.00  0.00     0.040 A 
ATOM     86  F   UNL A   1      45.860  32.891  26.120  1.00  0.00    -0.206 F 
ATOM     87  C   UNL A   1      47.382  34.861  28.749  1.00  0.00     0.006 A 
ENDBRANCH  59  80
BRANCH  71  88
ATOM     88  C   UNL A   1      49.111  26.175  26.608  1.00  0.00     0.057 A 
ATOM     89  C   UNL A   1      49.976  25.605  27.551  1.00  0.00     0.134 A 
ATOM     90  C   UNL A   1      49.591  26.341  25.304  1.00  0.00     0.134 A 
ATOM     91  F   UNL A   1      49.579  25.433  28.821  1.00  0.00    -0.206 F 
ATOM     92  C   UNL A   1      51.278  25.234  27.214  1.00  0.00     0.040 A 
ATOM     93  C   UNL A   1      50.884  25.955  24.948  1.00  0.00     0.040 A 
ATOM     94  F   UNL A   1      48.810  26.877  24.354  1.00  0.00    -0.206 F 
ATOM     95  C   UNL A   1      51.734  25.404  25.906  1.00  0.00     0.006 A 
ENDBRANCH  71  88
ENDBRANCH  45  46
ENDBRANCH  38  40
ENDBRANCH  37  38
ENDBRANCH  36  37
ENDBRANCH   1  36
TORSDOF 17
ENDMDL
MODEL 3
REMARK VINA RESULT:     -12.7      1.525      6.138
REMARK SMILES COc1ccc([C@H]2CC(c3ccc(S(C)(=O)=O)cc3)=NN2c2ccc(C(=O)OCCOC(=O)c3ccc(-c4c5nc(c(-c6c(F)cccc6F)c6ccc([nH]6)c(-c6c(F)cccc6F)c6nc(c(-c7c(F)cccc7F)c7ccc4[nH]7)C=C6)C=C5)cc3)cc2)cc1OC
REMARK SMILES IDX 29 1 28 2 26 3 27 4 25 5 22 6 23 7 89 8 24 9 88 10 21 11
REMARK SMILES IDX 7 12 8 13 9 14 20 15 6 16 3 17 4 18 91 19 5 20 90 21 2 22
REMARK SMILES IDX 1 23 92 24 93 25 10 26 11 27 19 28 12 29 18 30 13 31 14 32
REMARK SMILES IDX 15 33 16 34 17 35 30 36 31 37 32 38 33 39 34 40 35 41 87 42
REMARK SMILES IDX 36 43 86 44 37 45 38 46 39 47 80 48 40 49 85 50 79 51 81 52
REMARK SMILES IDX 41 53 84 54 78 55 77 56 42 58 68 59 51 60 67 61 52 62 55 63
REMARK SMILES IDX 66 64 82 65 53 66 54 67 65 69 83 70 56 71 43 72 44 73 49 74
REMARK SMILES IDX 45 75 46 76 48 77 50 78 47 79 69 80 70 81 75 82 71 83 72 84
REMARK SMILES IDX 74 85 76 86 73 87 57 88 58 89 63 90 59 91 60 92 62 93 64 94
REMARK SMILES IDX 61 95
REMARK H PARENT 81 57 55 68
REMARK Flexibility Score: inf
ROOT
ATOM      1  C   UNL A   1      41.346  23.000  27.224  1.00  0.00     0.275 C 
ENDROOT
BRANCH   1   2
ATOM      2  O   UNL A   1      40.010  23.251  26.738  1.00  0.00    -0.458 OA
BRANCH   2   3
ATOM      3  C   UNL A   1      39.372  22.167  26.226  1.00  0.00     0.338 C 
ATOM      4  O   UNL A   1      39.750  21.014  26.272  1.00  0.00    -0.246 OA
BRANCH   3   5
ATOM      5  C   UNL A   1      38.068  22.552  25.642  1.00  0.00     0.060 A 
ATOM      6  C   UNL A   1      35.731  23.351  24.291  1.00  0.00     0.060 A 
ATOM      7  C   UNL A   1      36.419  22.198  23.909  1.00  0.00     0.029 A 
ATOM      8  C   UNL A   1      36.213  24.078  25.391  1.00  0.00     0.029 A 
ATOM      9  C   UNL A   1      37.596  21.828  24.547  1.00  0.00     0.018 A 
ATOM     10  C   UNL A   1      37.364  23.672  26.083  1.00  0.00     0.018 A 
BRANCH   6  11
ATOM     11  N   UNL A   1      34.624  23.761  23.560  1.00  0.00    -0.257 N 
ATOM     12  C   UNL A   1      33.771  22.837  22.807  1.00  0.00     0.144 C 
ATOM     13  C   UNL A   1      32.576  23.723  22.425  1.00  0.00     0.091 C 
ATOM     14  C   UNL A   1      32.900  24.963  23.209  1.00  0.00     0.071 C 
ATOM     15  N   UNL A   1      34.036  24.960  23.831  1.00  0.00    -0.176 NA
BRANCH  12  16
ATOM     16  C   UNL A   1      33.346  21.609  23.608  1.00  0.00    -0.019 A 
ATOM     17  C   UNL A   1      32.475  19.356  25.073  1.00  0.00     0.160 A 
ATOM     18  C   UNL A   1      32.338  19.397  23.679  1.00  0.00     0.051 A 
ATOM     19  C   UNL A   1      33.086  20.420  25.745  1.00  0.00     0.161 A 
ATOM     20  C   UNL A   1      32.760  20.516  22.955  1.00  0.00     0.010 A 
ATOM     21  C   UNL A   1      33.522  21.528  25.001  1.00  0.00     0.056 A 
BRANCH  17  22
ATOM     22  O   UNL A   1      32.091  18.221  25.738  1.00  0.00    -0.493 OA
ATOM     23  C   UNL A   1      32.848  17.080  25.334  1.00  0.00     0.278 C 
ENDBRANCH  17  22
BRANCH  19  24
ATOM     24  O   UNL A   1      33.336  20.544  27.086  1.00  0.00    -0.493 OA
ATOM     25  C   UNL A   1      34.066  21.678  27.530  1.00  0.00     0.278 C 
ENDBRANCH  19  24
ENDBRANCH  12  16
BRANCH  14  26
ATOM     26  C   UNL A   1      32.009  26.130  23.182  1.00  0.00    -0.002 A 
ATOM     27  C   UNL A   1      32.549  27.365  22.808  1.00  0.00     0.011 A 
ATOM     28  C   UNL A   1      30.650  26.003  23.479  1.00  0.00     0.011 A 
ATOM     29  C   UNL A   1      31.715  28.477  22.683  1.00  0.00     0.021 A 
ATOM     30  C   UNL A   1      29.818  27.121  23.380  1.00  0.00     0.021 A 
ATOM     31  C   UNL A   1      30.353  28.348  22.971  1.00  0.00     0.067 A 
BRANCH  31  32
ATOM     32  S   UNL A   1      29.284  29.749  22.730  1.00  0.00     0.175 S 
ATOM     33  C   UNL A   1      27.645  29.094  22.884  1.00  0.00     0.163 C 
ATOM     34  O   UNL A   1      29.524  30.649  23.842  1.00  0.00    -0.224 OA
ATOM     35  O   UNL A   1      29.451  30.198  21.360  1.00  0.00    -0.224 OA
ENDBRANCH  31  32
ENDBRANCH  14  26
ENDBRANCH   6  11
ENDBRANCH   3   5
ENDBRANCH   2   3
ENDBRANCH   1   2
BRANCH   1  36
ATOM     36  C   UNL A   1      42.406  23.455  26.221  1.00  0.00     0.275 C 
BRANCH  36  37
ATOM     37  O   UNL A   1      42.923  24.747  26.589  1.00  0.00    -0.458 OA
BRANCH  37  38
ATOM     38  C   UNL A   1      42.348  25.803  25.971  1.00  0.00     0.338 C 
ATOM     39  O   UNL A   1      42.288  26.020  24.771  1.00  0.00    -0.246 OA
BRANCH  38  40
ATOM     40  C   UNL A   1      41.751  26.718  26.960  1.00  0.00     0.060 A 
ATOM     41  C   UNL A   1      42.247  28.010  27.083  1.00  0.00     0.016 A 
ATOM     42  C   UNL A   1      40.833  26.237  27.890  1.00  0.00     0.016 A 
ATOM     43  C   UNL A   1      41.960  28.765  28.219  1.00  0.00     0.010 A 
ATOM     44  C   UNL A   1      40.435  27.054  28.955  1.00  0.00     0.010 A 
ATOM     45  C   UNL A   1      41.038  28.307  29.171  1.00  0.00    -0.014 A 
BRANCH  45  46
ATOM     46  C   UNL A   1      40.739  29.103  30.401  1.00  0.00     0.031 A 
ATOM     47  C   UNL A   1      39.567  30.058  30.426  1.00  0.00     0.074 A 
ATOM     48  C   UNL A   1      41.497  28.978  31.510  1.00  0.00     0.049 A 
ATOM     49  N   UNL A   1      39.268  30.984  31.304  1.00  0.00    -0.248 NA
ATOM     50  C   UNL A   1      38.616  29.973  29.306  1.00  0.00     0.031 C 
ATOM     51  C   UNL A   1      42.634  28.069  31.667  1.00  0.00     0.029 A 
ATOM     52  N   UNL A   1      41.422  29.619  32.724  1.00  0.00    -0.354 N 
ATOM     53  C   UNL A   1      38.145  31.635  30.806  1.00  0.00     0.074 A 
ATOM     54  C   UNL A   1      37.813  30.998  29.549  1.00  0.00     0.031 C 
ATOM     55  C   UNL A   1      43.116  28.172  32.914  1.00  0.00     0.029 A 
ATOM     56  C   UNL A   1      42.393  29.226  33.615  1.00  0.00     0.049 A 
ATOM     57  H   UNL A   1      40.738  30.293  32.937  1.00  0.00     0.167 HD
ATOM     58  C   UNL A   1      37.453  32.669  31.345  1.00  0.00     0.037 A 
ATOM     59  C   UNL A   1      42.707  29.690  34.840  1.00  0.00     0.037 A 
ATOM     60  C   UNL A   1      37.734  33.254  32.632  1.00  0.00     0.049 A 
ATOM     61  C   UNL A   1      41.936  30.842  35.412  1.00  0.00     0.074 A 
ATOM     62  C   UNL A   1      37.078  34.292  33.271  1.00  0.00     0.029 A 
ATOM     63  N   UNL A   1      38.740  32.832  33.488  1.00  0.00    -0.354 N 
ATOM     64  N   UNL A   1      40.923  31.496  34.898  1.00  0.00    -0.248 NA
ATOM     65  C   UNL A   1      42.367  31.338  36.727  1.00  0.00     0.031 C 
ATOM     66  C   UNL A   1      37.704  34.518  34.501  1.00  0.00     0.029 A 
ATOM     67  C   UNL A   1      38.725  33.594  34.646  1.00  0.00     0.049 A 
ATOM     68  H   UNL A   1      39.372  32.100  33.301  1.00  0.00     0.167 HD
ATOM     69  C   UNL A   1      40.589  32.470  35.828  1.00  0.00     0.074 A 
ATOM     70  C   UNL A   1      41.494  32.310  36.948  1.00  0.00     0.031 C 
ATOM     71  C   UNL A   1      39.625  33.418  35.756  1.00  0.00     0.037 A 
BRANCH  58  72
ATOM     72  C   UNL A   1      36.338  33.263  30.533  1.00  0.00     0.057 A 
ATOM     73  C   UNL A   1      34.990  33.006  30.809  1.00  0.00     0.134 A 
ATOM     74  C   UNL A   1      36.623  34.144  29.481  1.00  0.00     0.134 A 
ATOM     75  F   UNL A   1      34.647  32.164  31.796  1.00  0.00    -0.206 F 
ATOM     76  C   UNL A   1      33.967  33.585  30.056  1.00  0.00     0.040 A 
ATOM     77  C   UNL A   1      35.609  34.749  28.737  1.00  0.00     0.040 A 
ATOM     78  F   UNL A   1      37.894  34.443  29.168  1.00  0.00    -0.206 F 
ATOM     79  C   UNL A   1      34.276  34.465  29.020  1.00  0.00     0.006 A 
ENDBRANCH  58  72
BRANCH  59  80
ATOM     80  C   UNL A   1      43.840  29.088  35.589  1.00  0.00     0.057 A 
ATOM     81  C   UNL A   1      45.143  29.578  35.448  1.00  0.00     0.134 A 
ATOM     82  C   UNL A   1      43.646  28.013  36.467  1.00  0.00     0.134 A 
ATOM     83  F   UNL A   1      45.396  30.588  34.602  1.00  0.00    -0.206 F 
ATOM     84  C   UNL A   1      46.213  29.018  36.147  1.00  0.00     0.040 A 
ATOM     85  C   UNL A   1      44.702  27.462  37.193  1.00  0.00     0.040 A 
ATOM     86  F   UNL A   1      42.421  27.497  36.646  1.00  0.00    -0.206 F 
ATOM     87  C   UNL A   1      45.992  27.962  37.030  1.00  0.00     0.006 A 
ENDBRANCH  59  80
BRANCH  71  88
ATOM     88  C   UNL A   1      39.473  34.328  36.938  1.00  0.00     0.057 A 
ATOM     89  C   UNL A   1      38.756  33.942  38.078  1.00  0.00     0.134 A 
ATOM     90  C   UNL A   1      40.069  35.594  36.943  1.00  0.00     0.134 A 
ATOM     91  F   UNL A   1      38.150  32.747  38.128  1.00  0.00    -0.206 F 
ATOM     92  C   UNL A   1      38.619  34.795  39.174  1.00  0.00     0.040 A 
ATOM     93  C   UNL A   1      39.957  36.448  38.040  1.00  0.00     0.040 A 
ATOM     94  F   UNL A   1      40.772  36.020  35.883  1.00  0.00    -0.206 F 
ATOM     95  C   UNL A   1      39.225  36.051  39.159  1.00  0.00     0.006 A 
ENDBRANCH  71  88
ENDBRANCH  45  46
ENDBRANCH  38  40
ENDBRANCH  37  38
ENDBRANCH  36  37
ENDBRANCH   1  36
TORSDOF 17
ENDMDL
