MODEL 1
REMARK VINA RESULT:     -10.4      0.000      0.000
REMARK SMILES CCC[NH2+][C@]1(C(=O)OCCOC(=O)c2ccc(-c3c4nc(c(-c5c(F)cccc5F)c5ccc([nH]5)c(-c5c(F)cccc5F)c5nc(c(-c6c(F)cccc6F)c6ccc3[nH]6)C=C5)C=C4)cc2)CCC[C@@H]([N@@H+](C)[C@@H](C)C2CC2)C1
REMARK SMILES IDX 9 1 8 2 6 3 7 4 5 5 68 6 79 7 69 8 71 9 70 10 4 11 3 14 2 15
REMARK SMILES IDX 1 16 72 17 73 18 74 20 75 21 76 22 77 23 78 24 10 25 11 26
REMARK SMILES IDX 12 27 13 28 14 29 15 30 67 31 16 32 66 33 17 34 18 35 19 36
REMARK SMILES IDX 60 37 20 38 65 39 59 40 61 41 21 42 64 43 58 44 57 45 22 47
REMARK SMILES IDX 48 48 31 49 47 50 32 51 35 52 46 53 62 54 33 55 34 56 45 58
REMARK SMILES IDX 63 59 36 60 23 61 24 62 29 63 25 64 26 65 28 66 30 67 27 68
REMARK SMILES IDX 49 69 50 70 55 71 51 72 52 73 54 74 56 75 53 76 37 77 38 78
REMARK SMILES IDX 43 79 39 80 40 81 42 82 44 83 41 84
REMARK H PARENT 4 12 4 13 72 19 61 46 35 57
REMARK Flexibility Score: inf
ROOT
ATOM      1  C   UNL A   1      31.490  29.074  25.118  1.00  0.00     0.274 C 
ENDROOT
BRANCH   1   2
ATOM      2  O   UNL A   1      32.491  28.142  25.578  1.00  0.00    -0.457 OA
BRANCH   2   3
ATOM      3  C   UNL A   1      32.029  26.961  26.077  1.00  0.00     0.368 C 
ATOM      4  O   UNL A   1      31.424  26.860  27.143  1.00  0.00    -0.245 OA
BRANCH   3   5
ATOM      5  C   UNL A   1      32.306  25.720  25.126  1.00  0.00     0.200 C 
ATOM      6  C   UNL A   1      33.047  26.209  23.860  1.00  0.00     0.081 C 
ATOM      7  C   UNL A   1      33.200  24.761  25.932  1.00  0.00     0.146 C 
ATOM      8  C   UNL A   1      33.780  25.135  23.056  1.00  0.00     0.013 C 
ATOM      9  C   UNL A   1      33.944  23.676  25.150  1.00  0.00     0.190 C 
ATOM     10  C   UNL A   1      34.663  24.243  23.917  1.00  0.00     0.065 C 
BRANCH   5  11
ATOM     11  N   UNL A   1      30.948  25.163  24.870  1.00  0.00    -0.332 N 
ATOM     12  H   UNL A   1      31.046  24.148  24.881  1.00  0.00     0.347 HD
ATOM     13  H   UNL A   1      30.387  25.609  25.596  1.00  0.00     0.347 HD
BRANCH  11  14
ATOM     14  C   UNL A   1      30.211  25.489  23.666  1.00  0.00     0.261 C 
BRANCH  14  15
ATOM     15  C   UNL A   1      28.984  26.354  23.989  1.00  0.00     0.058 C 
ATOM     16  C   UNL A   1      28.991  27.686  23.245  1.00  0.00     0.010 C 
ENDBRANCH  14  15
ENDBRANCH  11  14
ENDBRANCH   5  11
BRANCH   9  17
ATOM     17  N   UNL A   1      34.772  22.837  26.049  1.00  0.00    -0.332 N 
ATOM     18  C   UNL A   1      34.206  22.792  27.401  1.00  0.00     0.333 C 
ATOM     19  H   UNL A   1      35.642  23.364  25.987  1.00  0.00     0.348 HD
BRANCH  17  20
ATOM     20  C   UNL A   1      35.297  21.512  25.644  1.00  0.00     0.184 C 
ATOM     21  C   UNL A   1      34.311  20.519  25.011  1.00  0.00     0.075 C 
BRANCH  20  22
ATOM     22  C   UNL A   1      36.559  21.576  24.805  1.00  0.00     0.047 C 
ATOM     23  C   UNL A   1      37.918  21.827  25.422  1.00  0.00     0.010 C 
ATOM     24  C   UNL A   1      37.589  20.470  24.878  1.00  0.00     0.010 C 
ENDBRANCH  20  22
ENDBRANCH  17  20
ENDBRANCH   9  17
ENDBRANCH   3   5
ENDBRANCH   2   3
ENDBRANCH   1   2
BRANCH   1  25
ATOM     25  C   UNL A   1      31.665  30.434  25.781  1.00  0.00     0.275 C 
BRANCH  25  26
ATOM     26  O   UNL A   1      32.628  30.328  26.840  1.00  0.00    -0.458 OA
BRANCH  26  27
ATOM     27  C   UNL A   1      33.189  31.486  27.240  1.00  0.00     0.338 C 
ATOM     28  O   UNL A   1      32.693  32.607  27.232  1.00  0.00    -0.246 OA
BRANCH  27  29
ATOM     29  C   UNL A   1      34.533  31.218  27.759  1.00  0.00     0.060 A 
ATOM     30  C   UNL A   1      34.871  29.919  28.137  1.00  0.00     0.016 A 
ATOM     31  C   UNL A   1      35.417  32.269  27.989  1.00  0.00     0.016 A 
ATOM     32  C   UNL A   1      36.046  29.669  28.829  1.00  0.00     0.010 A 
ATOM     33  C   UNL A   1      36.647  32.001  28.590  1.00  0.00     0.010 A 
ATOM     34  C   UNL A   1      36.960  30.704  29.041  1.00  0.00    -0.014 A 
BRANCH  34  35
ATOM     35  C   UNL A   1      38.235  30.449  29.749  1.00  0.00     0.031 A 
ATOM     36  C   UNL A   1      39.266  29.562  29.119  1.00  0.00     0.074 A 
ATOM     37  C   UNL A   1      38.452  30.982  30.967  1.00  0.00     0.049 A 
ATOM     38  N   UNL A   1      40.290  28.966  29.666  1.00  0.00    -0.248 NA
ATOM     39  C   UNL A   1      39.107  29.295  27.680  1.00  0.00     0.031 C 
ATOM     40  C   UNL A   1      37.562  31.915  31.659  1.00  0.00     0.029 A 
ATOM     41  N   UNL A   1      39.486  30.791  31.848  1.00  0.00    -0.354 N 
ATOM     42  C   UNL A   1      40.856  28.193  28.661  1.00  0.00     0.074 A 
ATOM     43  C   UNL A   1      40.073  28.413  27.463  1.00  0.00     0.031 C 
ATOM     44  C   UNL A   1      38.085  32.213  32.857  1.00  0.00     0.029 A 
ATOM     45  C   UNL A   1      39.291  31.421  33.053  1.00  0.00     0.049 A 
ATOM     46  H   UNL A   1      40.286  30.257  31.638  1.00  0.00     0.167 HD
ATOM     47  C   UNL A   1      41.919  27.361  28.745  1.00  0.00     0.037 A 
ATOM     48  C   UNL A   1      39.966  31.316  34.212  1.00  0.00     0.037 A 
ATOM     49  C   UNL A   1      42.717  27.197  29.932  1.00  0.00     0.049 A 
ATOM     50  C   UNL A   1      41.131  30.375  34.293  1.00  0.00     0.074 A 
ATOM     51  C   UNL A   1      43.830  26.398  30.124  1.00  0.00     0.029 A 
ATOM     52  N   UNL A   1      42.487  27.861  31.129  1.00  0.00    -0.354 N 
ATOM     53  N   UNL A   1      41.620  29.591  33.363  1.00  0.00    -0.248 NA
ATOM     54  C   UNL A   1      41.822  30.286  35.585  1.00  0.00     0.031 C 
ATOM     55  C   UNL A   1      44.259  26.559  31.446  1.00  0.00     0.029 A 
ATOM     56  C   UNL A   1      43.433  27.484  32.067  1.00  0.00     0.049 A 
ATOM     57  H   UNL A   1      41.761  28.506  31.287  1.00  0.00     0.167 HD
ATOM     58  C   UNL A   1      42.678  28.916  33.953  1.00  0.00     0.074 A 
ATOM     59  C   UNL A   1      42.769  29.397  35.318  1.00  0.00     0.031 C 
ATOM     60  C   UNL A   1      43.499  27.980  33.418  1.00  0.00     0.037 A 
BRANCH  47  61
ATOM     61  C   UNL A   1      42.241  26.529  27.540  1.00  0.00     0.057 A 
ATOM     62  C   UNL A   1      43.113  26.968  26.537  1.00  0.00     0.134 A 
ATOM     63  C   UNL A   1      41.664  25.262  27.388  1.00  0.00     0.134 A 
ATOM     64  F   UNL A   1      43.681  28.181  26.613  1.00  0.00    -0.206 F 
ATOM     65  C   UNL A   1      43.382  26.183  25.413  1.00  0.00     0.040 A 
ATOM     66  C   UNL A   1      41.943  24.460  26.280  1.00  0.00     0.040 A 
ATOM     67  F   UNL A   1      40.819  24.782  28.314  1.00  0.00    -0.206 F 
ATOM     68  C   UNL A   1      42.800  24.923  25.285  1.00  0.00     0.006 A 
ENDBRANCH  47  61
BRANCH  48  69
ATOM     69  C   UNL A   1      39.498  32.075  35.396  1.00  0.00     0.057 A 
ATOM     70  C   UNL A   1      38.561  31.534  36.280  1.00  0.00     0.134 A 
ATOM     71  C   UNL A   1      40.021  33.340  35.699  1.00  0.00     0.134 A 
ATOM     72  F   UNL A   1      38.014  30.335  36.031  1.00  0.00    -0.206 F 
ATOM     73  C   UNL A   1      38.162  32.219  37.429  1.00  0.00     0.040 A 
ATOM     74  C   UNL A   1      39.649  34.025  36.855  1.00  0.00     0.040 A 
ATOM     75  F   UNL A   1      40.929  33.908  34.893  1.00  0.00    -0.206 F 
ATOM     76  C   UNL A   1      38.715  33.465  37.724  1.00  0.00     0.006 A 
ENDBRANCH  48  69
BRANCH  60  77
ATOM     77  C   UNL A   1      44.577  27.439  34.304  1.00  0.00     0.057 A 
ATOM     78  C   UNL A   1      45.818  28.074  34.419  1.00  0.00     0.134 A 
ATOM     79  C   UNL A   1      44.352  26.296  35.080  1.00  0.00     0.134 A 
ATOM     80  F   UNL A   1      46.094  29.165  33.690  1.00  0.00    -0.206 F 
ATOM     81  C   UNL A   1      46.808  27.582  35.270  1.00  0.00     0.040 A 
ATOM     82  C   UNL A   1      45.327  25.804  35.947  1.00  0.00     0.040 A 
ATOM     83  F   UNL A   1      43.179  25.648  35.013  1.00  0.00    -0.206 F 
ATOM     84  C   UNL A   1      46.560  26.446  36.041  1.00  0.00     0.006 A 
ENDBRANCH  60  77
ENDBRANCH  34  35
ENDBRANCH  27  29
ENDBRANCH  26  27
ENDBRANCH  25  26
ENDBRANCH   1  25
TORSDOF 17
ENDMDL
MODEL 2
REMARK VINA RESULT:     -10.4      1.396      2.775
REMARK SMILES CCC[NH2+][C@]1(C(=O)OCCOC(=O)c2ccc(-c3c4nc(c(-c5c(F)cccc5F)c5ccc([nH]5)c(-c5c(F)cccc5F)c5nc(c(-c6c(F)cccc6F)c6ccc3[nH]6)C=C5)C=C4)cc2)CCC[C@@H]([N@@H+](C)[C@@H](C)C2CC2)C1
REMARK SMILES IDX 9 1 8 2 6 3 7 4 5 5 68 6 79 7 69 8 71 9 70 10 4 11 3 14 2 15
REMARK SMILES IDX 1 16 72 17 73 18 74 20 75 21 76 22 77 23 78 24 10 25 11 26
REMARK SMILES IDX 12 27 13 28 14 29 15 30 67 31 16 32 66 33 17 34 18 35 19 36
REMARK SMILES IDX 60 37 20 38 65 39 59 40 61 41 21 42 64 43 58 44 57 45 22 47
REMARK SMILES IDX 48 48 31 49 47 50 32 51 35 52 46 53 62 54 33 55 34 56 45 58
REMARK SMILES IDX 63 59 36 60 23 61 24 62 29 63 25 64 26 65 28 66 30 67 27 68
REMARK SMILES IDX 49 69 50 70 55 71 51 72 52 73 54 74 56 75 53 76 37 77 38 78
REMARK SMILES IDX 43 79 39 80 40 81 42 82 44 83 41 84
REMARK H PARENT 4 12 4 13 72 19 61 46 35 57
REMARK Flexibility Score: inf
ROOT
ATOM      1  C   UNL A   1      31.554  28.190  25.386  1.00  0.00     0.274 C 
ENDROOT
BRANCH   1   2
ATOM      2  O   UNL A   1      32.552  27.300  24.846  1.00  0.00    -0.457 OA
BRANCH   2   3
ATOM      3  C   UNL A   1      32.091  26.141  24.297  1.00  0.00     0.368 C 
ATOM      4  O   UNL A   1      31.576  26.071  23.182  1.00  0.00    -0.245 OA
BRANCH   3   5
ATOM      5  C   UNL A   1      32.319  24.868  25.219  1.00  0.00     0.200 C 
ATOM      6  C   UNL A   1      31.139  24.744  26.210  1.00  0.00     0.081 C 
ATOM      7  C   UNL A   1      32.350  23.658  24.268  1.00  0.00     0.146 C 
ATOM      8  C   UNL A   1      30.951  23.372  26.859  1.00  0.00     0.013 C 
ATOM      9  C   UNL A   1      32.165  22.274  24.894  1.00  0.00     0.190 C 
ATOM     10  C   UNL A   1      30.967  22.229  25.855  1.00  0.00     0.065 C 
BRANCH   5  11
ATOM     11  N   UNL A   1      33.638  25.131  25.860  1.00  0.00    -0.332 N 
ATOM     12  H   UNL A   1      33.631  26.111  26.143  1.00  0.00     0.347 HD
ATOM     13  H   UNL A   1      33.677  24.412  26.583  1.00  0.00     0.347 HD
BRANCH  11  14
ATOM     14  C   UNL A   1      34.882  24.921  25.147  1.00  0.00     0.261 C 
BRANCH  14  15
ATOM     15  C   UNL A   1      35.628  23.695  25.692  1.00  0.00     0.058 C 
ATOM     16  C   UNL A   1      36.514  23.031  24.641  1.00  0.00     0.010 C 
ENDBRANCH  14  15
ENDBRANCH  11  14
ENDBRANCH   5  11
BRANCH   9  17
ATOM     17  N   UNL A   1      32.205  21.207  23.865  1.00  0.00    -0.332 N 
ATOM     18  C   UNL A   1      32.135  21.774  22.514  1.00  0.00     0.333 C 
ATOM     19  H   UNL A   1      31.363  20.702  24.140  1.00  0.00     0.348 HD
BRANCH  17  20
ATOM     20  C   UNL A   1      33.160  20.077  23.924  1.00  0.00     0.184 C 
ATOM     21  C   UNL A   1      34.137  20.031  25.108  1.00  0.00     0.075 C 
BRANCH  20  22
ATOM     22  C   UNL A   1      32.519  18.714  23.744  1.00  0.00     0.047 C 
ATOM     23  C   UNL A   1      32.371  18.073  22.382  1.00  0.00     0.010 C 
ATOM     24  C   UNL A   1      33.356  17.513  23.363  1.00  0.00     0.010 C 
ENDBRANCH  20  22
ENDBRANCH  17  20
ENDBRANCH   9  17
ENDBRANCH   3   5
ENDBRANCH   2   3
ENDBRANCH   1   2
BRANCH   1  25
ATOM     25  C   UNL A   1      31.837  29.633  24.987  1.00  0.00     0.275 C 
BRANCH  25  26
ATOM     26  O   UNL A   1      33.069  30.061  25.588  1.00  0.00    -0.458 OA
BRANCH  26  27
ATOM     27  C   UNL A   1      32.950  30.911  26.627  1.00  0.00     0.338 C 
ATOM     28  O   UNL A   1      32.012  31.658  26.887  1.00  0.00    -0.246 OA
BRANCH  27  29
ATOM     29  C   UNL A   1      34.131  30.793  27.486  1.00  0.00     0.060 A 
ATOM     30  C   UNL A   1      34.806  31.948  27.879  1.00  0.00     0.016 A 
ATOM     31  C   UNL A   1      34.645  29.539  27.800  1.00  0.00     0.016 A 
ATOM     32  C   UNL A   1      36.041  31.866  28.504  1.00  0.00     0.010 A 
ATOM     33  C   UNL A   1      35.835  29.454  28.524  1.00  0.00     0.010 A 
ATOM     34  C   UNL A   1      36.558  30.617  28.856  1.00  0.00    -0.014 A 
BRANCH  34  35
ATOM     35  C   UNL A   1      37.860  30.511  29.553  1.00  0.00     0.031 A 
ATOM     36  C   UNL A   1      38.969  29.719  28.928  1.00  0.00     0.074 A 
ATOM     37  C   UNL A   1      38.035  31.091  30.755  1.00  0.00     0.049 A 
ATOM     38  N   UNL A   1      40.055  29.244  29.474  1.00  0.00    -0.248 NA
ATOM     39  C   UNL A   1      38.822  29.403  27.498  1.00  0.00     0.031 C 
ATOM     40  C   UNL A   1      37.062  31.944  31.439  1.00  0.00     0.029 A 
ATOM     41  N   UNL A   1      39.093  31.027  31.626  1.00  0.00    -0.354 N 
ATOM     42  C   UNL A   1      40.685  28.509  28.478  1.00  0.00     0.074 A 
ATOM     43  C   UNL A   1      39.871  28.621  27.287  1.00  0.00     0.031 C 
ATOM     44  C   UNL A   1      37.565  32.322  32.623  1.00  0.00     0.029 A 
ATOM     45  C   UNL A   1      38.849  31.662  32.820  1.00  0.00     0.049 A 
ATOM     46  H   UNL A   1      39.941  30.573  31.417  1.00  0.00     0.167 HD
ATOM     47  C   UNL A   1      41.830  27.792  28.566  1.00  0.00     0.037 A 
ATOM     48  C   UNL A   1      39.544  31.653  33.971  1.00  0.00     0.037 A 
ATOM     49  C   UNL A   1      42.653  27.738  29.745  1.00  0.00     0.049 A 
ATOM     50  C   UNL A   1      40.800  30.838  34.056  1.00  0.00     0.074 A 
ATOM     51  C   UNL A   1      43.844  27.061  29.939  1.00  0.00     0.029 A 
ATOM     52  N   UNL A   1      42.371  28.403  30.930  1.00  0.00    -0.354 N 
ATOM     53  N   UNL A   1      41.356  30.086  33.138  1.00  0.00    -0.248 NA
ATOM     54  C   UNL A   1      41.511  30.851  35.341  1.00  0.00     0.031 C 
ATOM     55  C   UNL A   1      44.269  27.296  31.252  1.00  0.00     0.029 A 
ATOM     56  C   UNL A   1      43.360  28.146  31.864  1.00  0.00     0.049 A 
ATOM     57  H   UNL A   1      41.584  28.973  31.084  1.00  0.00     0.167 HD
ATOM     58  C   UNL A   1      42.485  29.537  33.728  1.00  0.00     0.074 A 
ATOM     59  C   UNL A   1      42.541  30.056  35.081  1.00  0.00     0.031 C 
ATOM     60  C   UNL A   1      43.391  28.678  33.202  1.00  0.00     0.037 A 
BRANCH  47  61
ATOM     61  C   UNL A   1      42.220  26.970  27.375  1.00  0.00     0.057 A 
ATOM     62  C   UNL A   1      41.781  25.653  27.196  1.00  0.00     0.134 A 
ATOM     63  C   UNL A   1      43.052  27.515  26.388  1.00  0.00     0.134 A 
ATOM     64  F   UNL A   1      41.000  25.067  28.114  1.00  0.00    -0.206 F 
ATOM     65  C   UNL A   1      42.173  24.900  26.086  1.00  0.00     0.040 A 
ATOM     66  C   UNL A   1      43.433  26.780  25.265  1.00  0.00     0.040 A 
ATOM     67  F   UNL A   1      43.509  28.772  26.501  1.00  0.00    -0.206 F 
ATOM     68  C   UNL A   1      42.999  25.466  25.115  1.00  0.00     0.006 A 
ENDBRANCH  47  61
BRANCH  48  69
ATOM     69  C   UNL A   1      39.014  32.388  35.144  1.00  0.00     0.057 A 
ATOM     70  C   UNL A   1      38.263  31.738  36.127  1.00  0.00     0.134 A 
ATOM     71  C   UNL A   1      39.296  33.747  35.336  1.00  0.00     0.134 A 
ATOM     72  F   UNL A   1      37.948  30.442  35.988  1.00  0.00    -0.206 F 
ATOM     73  C   UNL A   1      37.813  32.411  37.265  1.00  0.00     0.040 A 
ATOM     74  C   UNL A   1      38.874  34.426  36.478  1.00  0.00     0.040 A 
ATOM     75  F   UNL A   1      40.019  34.422  34.431  1.00  0.00    -0.206 F 
ATOM     76  C   UNL A   1      38.128  33.758  37.447  1.00  0.00     0.006 A 
ENDBRANCH  48  69
BRANCH  60  77
ATOM     77  C   UNL A   1      44.528  28.271  34.085  1.00  0.00     0.057 A 
ATOM     78  C   UNL A   1      44.465  27.119  34.876  1.00  0.00     0.134 A 
ATOM     79  C   UNL A   1      45.713  29.017  34.108  1.00  0.00     0.134 A 
ATOM     80  F   UNL A   1      43.351  26.373  34.905  1.00  0.00    -0.206 F 
ATOM     81  C   UNL A   1      45.541  26.728  35.674  1.00  0.00     0.040 A 
ATOM     82  C   UNL A   1      46.801  28.627  34.887  1.00  0.00     0.040 A 
ATOM     83  F   UNL A   1      45.832  30.128  33.366  1.00  0.00    -0.206 F 
ATOM     84  C   UNL A   1      46.715  27.481  35.676  1.00  0.00     0.006 A 
ENDBRANCH  60  77
ENDBRANCH  34  35
ENDBRANCH  27  29
ENDBRANCH  26  27
ENDBRANCH  25  26
ENDBRANCH   1  25
TORSDOF 17
ENDMDL
MODEL 3
REMARK VINA RESULT:     -10.4      4.761     10.271
REMARK SMILES CCC[NH2+][C@]1(C(=O)OCCOC(=O)c2ccc(-c3c4nc(c(-c5c(F)cccc5F)c5ccc([nH]5)c(-c5c(F)cccc5F)c5nc(c(-c6c(F)cccc6F)c6ccc3[nH]6)C=C5)C=C4)cc2)CCC[C@@H]([N@@H+](C)[C@@H](C)C2CC2)C1
REMARK SMILES IDX 9 1 8 2 6 3 7 4 5 5 68 6 79 7 69 8 71 9 70 10 4 11 3 14 2 15
REMARK SMILES IDX 1 16 72 17 73 18 74 20 75 21 76 22 77 23 78 24 10 25 11 26
REMARK SMILES IDX 12 27 13 28 14 29 15 30 67 31 16 32 66 33 17 34 18 35 19 36
REMARK SMILES IDX 60 37 20 38 65 39 59 40 61 41 21 42 64 43 58 44 57 45 22 47
REMARK SMILES IDX 48 48 31 49 47 50 32 51 35 52 46 53 62 54 33 55 34 56 45 58
REMARK SMILES IDX 63 59 36 60 23 61 24 62 29 63 25 64 26 65 28 66 30 67 27 68
REMARK SMILES IDX 49 69 50 70 55 71 51 72 52 73 54 74 56 75 53 76 37 77 38 78
REMARK SMILES IDX 43 79 39 80 40 81 42 82 44 83 41 84
REMARK H PARENT 4 12 4 13 72 19 61 46 35 57
REMARK Flexibility Score: inf
ROOT
ATOM      1  C   UNL A   1      45.830  23.298  24.144  1.00  0.00     0.274 C 
ENDROOT
BRANCH   1   2
ATOM      2  O   UNL A   1      45.870  24.629  24.699  1.00  0.00    -0.457 OA
BRANCH   2   3
ATOM      3  C   UNL A   1      47.105  25.193  24.822  1.00  0.00     0.368 C 
ATOM      4  O   UNL A   1      47.827  25.470  23.865  1.00  0.00    -0.245 OA
BRANCH   3   5
ATOM      5  C   UNL A   1      47.513  25.503  26.324  1.00  0.00     0.200 C 
ATOM      6  C   UNL A   1      49.055  25.501  26.440  1.00  0.00     0.081 C 
ATOM      7  C   UNL A   1      46.955  26.904  26.633  1.00  0.00     0.146 C 
ATOM      8  C   UNL A   1      49.636  26.203  27.668  1.00  0.00     0.013 C 
ATOM      9  C   UNL A   1      47.521  27.627  27.858  1.00  0.00     0.190 C 
ATOM     10  C   UNL A   1      49.056  27.590  27.894  1.00  0.00     0.065 C 
BRANCH   5  11
ATOM     11  N   UNL A   1      46.835  24.429  27.102  1.00  0.00    -0.332 N 
ATOM     12  H   UNL A   1      46.440  23.783  26.419  1.00  0.00     0.347 HD
ATOM     13  H   UNL A   1      47.581  24.098  27.715  1.00  0.00     0.347 HD
BRANCH  11  14
ATOM     14  C   UNL A   1      45.773  24.729  28.041  1.00  0.00     0.261 C 
BRANCH  14  15
ATOM     15  C   UNL A   1      44.896  23.494  28.293  1.00  0.00     0.058 C 
ATOM     16  C   UNL A   1      44.442  23.382  29.746  1.00  0.00     0.010 C 
ENDBRANCH  14  15
ENDBRANCH  11  14
ENDBRANCH   5  11
BRANCH   9  17
ATOM     17  N   UNL A   1      46.904  28.964  28.027  1.00  0.00    -0.332 N 
ATOM     18  C   UNL A   1      47.179  29.823  26.870  1.00  0.00     0.333 C 
ATOM     19  H   UNL A   1      47.395  29.250  28.874  1.00  0.00     0.348 HD
BRANCH  17  20
ATOM     20  C   UNL A   1      45.517  29.148  28.513  1.00  0.00     0.184 C 
ATOM     21  C   UNL A   1      45.323  29.508  29.994  1.00  0.00     0.075 C 
BRANCH  20  22
ATOM     22  C   UNL A   1      44.677  30.073  27.654  1.00  0.00     0.047 C 
ATOM     23  C   UNL A   1      43.432  29.592  26.940  1.00  0.00     0.010 C 
ATOM     24  C   UNL A   1      43.305  30.517  28.112  1.00  0.00     0.010 C 
ENDBRANCH  20  22
ENDBRANCH  17  20
ENDBRANCH   9  17
ENDBRANCH   3   5
ENDBRANCH   2   3
ENDBRANCH   1   2
BRANCH   1  25
ATOM     25  C   UNL A   1      44.584  22.552  24.605  1.00  0.00     0.275 C 
BRANCH  25  26
ATOM     26  O   UNL A   1      43.475  23.463  24.657  1.00  0.00    -0.458 OA
BRANCH  26  27
ATOM     27  C   UNL A   1      42.443  23.084  25.436  1.00  0.00     0.338 C 
ATOM     28  O   UNL A   1      41.889  21.991  25.477  1.00  0.00    -0.246 OA
BRANCH  27  29
ATOM     29  C   UNL A   1      42.068  24.195  26.315  1.00  0.00     0.060 A 
ATOM     30  C   UNL A   1      42.650  25.447  26.116  1.00  0.00     0.016 A 
ATOM     31  C   UNL A   1      41.240  23.972  27.411  1.00  0.00     0.016 A 
ATOM     32  C   UNL A   1      42.488  26.457  27.053  1.00  0.00     0.010 A 
ATOM     33  C   UNL A   1      40.991  25.020  28.298  1.00  0.00     0.010 A 
ATOM     34  C   UNL A   1      41.635  26.263  28.142  1.00  0.00    -0.014 A 
BRANCH  34  35
ATOM     35  C   UNL A   1      41.425  27.340  29.135  1.00  0.00     0.031 A 
ATOM     36  C   UNL A   1      42.259  27.369  30.381  1.00  0.00     0.074 A 
ATOM     37  C   UNL A   1      40.469  28.267  28.938  1.00  0.00     0.049 A 
ATOM     38  N   UNL A   1      42.053  28.011  31.499  1.00  0.00    -0.248 NA
ATOM     39  C   UNL A   1      43.479  26.546  30.371  1.00  0.00     0.031 C 
ATOM     40  C   UNL A   1      39.637  28.391  27.739  1.00  0.00     0.029 A 
ATOM     41  N   UNL A   1      40.020  29.269  29.761  1.00  0.00    -0.354 N 
ATOM     42  C   UNL A   1      43.073  27.613  32.353  1.00  0.00     0.074 A 
ATOM     43  C   UNL A   1      43.910  26.690  31.616  1.00  0.00     0.031 C 
ATOM     44  C   UNL A   1      38.779  29.407  27.904  1.00  0.00     0.029 A 
ATOM     45  C   UNL A   1      38.935  29.939  29.252  1.00  0.00     0.049 A 
ATOM     46  H   UNL A   1      40.433  29.485  30.628  1.00  0.00     0.167 HD
ATOM     47  C   UNL A   1      43.272  27.974  33.642  1.00  0.00     0.037 A 
ATOM     48  C   UNL A   1      38.109  30.831  29.830  1.00  0.00     0.037 A 
ATOM     49  C   UNL A   1      42.459  28.935  34.340  1.00  0.00     0.049 A 
ATOM     50  C   UNL A   1      38.334  31.206  31.264  1.00  0.00     0.074 A 
ATOM     51  C   UNL A   1      42.583  29.392  35.639  1.00  0.00     0.029 A 
ATOM     52  N   UNL A   1      41.373  29.596  33.782  1.00  0.00    -0.354 N 
ATOM     53  N   UNL A   1      39.254  30.774  32.092  1.00  0.00    -0.248 NA
ATOM     54  C   UNL A   1      37.395  32.170  31.851  1.00  0.00     0.031 C 
ATOM     55  C   UNL A   1      41.555  30.312  35.877  1.00  0.00     0.029 A 
ATOM     56  C   UNL A   1      40.812  30.452  34.714  1.00  0.00     0.049 A 
ATOM     57  H   UNL A   1      41.051  29.475  32.860  1.00  0.00     0.167 HD
ATOM     58  C   UNL A   1      39.010  31.415  33.298  1.00  0.00     0.074 A 
ATOM     59  C   UNL A   1      37.864  32.277  33.087  1.00  0.00     0.031 C 
ATOM     60  C   UNL A   1      39.671  31.299  34.475  1.00  0.00     0.037 A 
BRANCH  47  61
ATOM     61  C   UNL A   1      44.375  27.286  34.387  1.00  0.00     0.057 A 
ATOM     62  C   UNL A   1      45.673  27.807  34.456  1.00  0.00     0.134 A 
ATOM     63  C   UNL A   1      44.126  26.078  35.052  1.00  0.00     0.134 A 
ATOM     64  F   UNL A   1      45.981  28.949  33.824  1.00  0.00    -0.206 F 
ATOM     65  C   UNL A   1      46.690  27.138  35.142  1.00  0.00     0.040 A 
ATOM     66  C   UNL A   1      45.129  25.412  35.758  1.00  0.00     0.040 A 
ATOM     67  F   UNL A   1      42.904  25.525  35.024  1.00  0.00    -0.206 F 
ATOM     68  C   UNL A   1      46.417  25.939  35.799  1.00  0.00     0.006 A 
ENDBRANCH  47  61
BRANCH  48  69
ATOM     69  C   UNL A   1      36.961  31.363  29.059  1.00  0.00     0.057 A 
ATOM     70  C   UNL A   1      35.821  30.588  28.830  1.00  0.00     0.134 A 
ATOM     71  C   UNL A   1      36.956  32.681  28.581  1.00  0.00     0.134 A 
ATOM     72  F   UNL A   1      35.777  29.314  29.248  1.00  0.00    -0.206 F 
ATOM     73  C   UNL A   1      34.711  31.103  28.157  1.00  0.00     0.040 A 
ATOM     74  C   UNL A   1      35.846  33.216  27.929  1.00  0.00     0.040 A 
ATOM     75  F   UNL A   1      38.017  33.475  28.777  1.00  0.00    -0.206 F 
ATOM     76  C   UNL A   1      34.719  32.426  27.713  1.00  0.00     0.006 A 
ENDBRANCH  48  69
BRANCH  60  77
ATOM     77  C   UNL A   1      39.184  32.142  35.611  1.00  0.00     0.057 A 
ATOM     78  C   UNL A   1      38.291  31.642  36.565  1.00  0.00     0.134 A 
ATOM     79  C   UNL A   1      39.646  33.454  35.772  1.00  0.00     0.134 A 
ATOM     80  F   UNL A   1      37.804  30.397  36.453  1.00  0.00    -0.206 F 
ATOM     81  C   UNL A   1      37.863  32.423  37.638  1.00  0.00     0.040 A 
ATOM     82  C   UNL A   1      39.240  34.239  36.850  1.00  0.00     0.040 A 
ATOM     83  F   UNL A   1      40.506  33.986  34.891  1.00  0.00    -0.206 F 
ATOM     84  C   UNL A   1      38.343  33.725  37.785  1.00  0.00     0.006 A 
ENDBRANCH  60  77
ENDBRANCH  34  35
ENDBRANCH  27  29
ENDBRANCH  26  27
ENDBRANCH  25  26
ENDBRANCH   1  25
TORSDOF 17
ENDMDL
