MODEL 1
REMARK VINA RESULT:     -11.9      0.000      0.000
REMARK SMILES O=C(OCCOC(=O)c1cc(Br)cn(Cc2cccc(F)c2)c1=O)c1ccc(-c2c3nc(c(-c4c(F)cccc4F)c4ccc([nH]4)c(-c4c(F)cccc4F)c4nc(c(-c5c(F)cccc5F)c5ccc2[nH]5)C=C4)C=C3)cc1
REMARK SMILES IDX 4 1 3 2 2 3 1 4 25 5 26 6 78 7 27 8 77 9 28 10 29 11 30 12
REMARK SMILES IDX 71 13 31 14 76 15 70 16 72 17 32 18 75 19 69 20 68 21 33 23
REMARK SMILES IDX 59 24 42 25 58 26 43 27 46 28 57 29 73 30 44 31 45 32 56 34
REMARK SMILES IDX 74 35 47 36 34 37 35 38 40 39 36 40 37 41 39 42 41 43 38 44
REMARK SMILES IDX 60 45 61 46 66 47 62 48 63 49 65 50 67 51 64 52 48 53 49 54
REMARK SMILES IDX 54 55 50 56 51 57 53 58 55 59 52 60 5 61 6 62 7 63 8 64 9 65
REMARK SMILES IDX 10 66 23 67 11 68 14 69 24 70 12 71 13 72 15 73 16 74 17 75
REMARK SMILES IDX 22 76 18 77 20 78 19 79 21 80
REMARK H PARENT 72 22 46 33
REMARK Flexibility Score: inf
ROOT
ATOM      1  C   UNL A   1      38.451  19.991  24.990  1.00  0.00     0.275 C 
ENDROOT
BRANCH   1   2
ATOM      2  O   UNL A   1      39.395  19.260  25.791  1.00  0.00    -0.458 OA
BRANCH   2   3
ATOM      3  C   UNL A   1      40.727  19.479  25.920  1.00  0.00     0.338 C 
ATOM      4  O   UNL A   1      41.514  18.562  25.697  1.00  0.00    -0.246 OA
BRANCH   3   5
ATOM      5  C   UNL A   1      41.270  20.724  26.540  1.00  0.00     0.060 A 
ATOM      6  C   UNL A   1      41.869  21.634  25.655  1.00  0.00     0.016 A 
ATOM      7  C   UNL A   1      41.204  21.071  27.891  1.00  0.00     0.016 A 
ATOM      8  C   UNL A   1      42.478  22.799  26.124  1.00  0.00     0.010 A 
ATOM      9  C   UNL A   1      41.796  22.252  28.365  1.00  0.00     0.010 A 
ATOM     10  C   UNL A   1      42.449  23.120  27.490  1.00  0.00    -0.014 A 
BRANCH  10  11
ATOM     11  C   UNL A   1      42.912  24.458  27.930  1.00  0.00     0.031 A 
ATOM     12  C   UNL A   1      44.359  24.839  28.013  1.00  0.00     0.074 A 
ATOM     13  C   UNL A   1      41.966  25.361  28.248  1.00  0.00     0.049 A 
ATOM     14  N   UNL A   1      44.877  26.042  28.076  1.00  0.00    -0.248 NA
ATOM     15  C   UNL A   1      45.356  23.761  27.996  1.00  0.00     0.031 C 
ATOM     16  C   UNL A   1      40.528  25.088  28.290  1.00  0.00     0.029 A 
ATOM     17  N   UNL A   1      42.068  26.682  28.591  1.00  0.00    -0.354 N 
ATOM     18  C   UNL A   1      46.251  25.870  28.002  1.00  0.00     0.074 A 
ATOM     19  C   UNL A   1      46.496  24.444  27.981  1.00  0.00     0.031 C 
ATOM     20  C   UNL A   1      39.878  26.212  28.620  1.00  0.00     0.029 A 
ATOM     21  C   UNL A   1      40.855  27.273  28.838  1.00  0.00     0.049 A 
ATOM     22  H   UNL A   1      42.926  27.162  28.652  1.00  0.00     0.167 HD
ATOM     23  C   UNL A   1      47.210  26.823  27.906  1.00  0.00     0.037 A 
ATOM     24  C   UNL A   1      40.559  28.530  29.208  1.00  0.00     0.037 A 
ATOM     25  C   UNL A   1      46.968  28.232  28.076  1.00  0.00     0.049 A 
ATOM     26  C   UNL A   1      41.668  29.529  29.322  1.00  0.00     0.074 A 
ATOM     27  C   UNL A   1      47.861  29.286  27.982  1.00  0.00     0.029 A 
ATOM     28  N   UNL A   1      45.749  28.774  28.452  1.00  0.00    -0.354 N 
ATOM     29  N   UNL A   1      42.939  29.386  29.032  1.00  0.00    -0.248 NA
ATOM     30  C   UNL A   1      41.302  30.863  29.808  1.00  0.00     0.031 C 
ATOM     31  C   UNL A   1      47.198  30.455  28.380  1.00  0.00     0.029 A 
ATOM     32  C   UNL A   1      45.882  30.134  28.678  1.00  0.00     0.049 A 
ATOM     33  H   UNL A   1      44.911  28.266  28.546  1.00  0.00     0.167 HD
ATOM     34  C   UNL A   1      43.526  30.617  29.286  1.00  0.00     0.074 A 
ATOM     35  C   UNL A   1      42.462  31.499  29.732  1.00  0.00     0.031 C 
ATOM     36  C   UNL A   1      44.825  30.988  29.157  1.00  0.00     0.037 A 
BRANCH  23  37
ATOM     37  C   UNL A   1      48.596  26.375  27.562  1.00  0.00     0.057 A 
ATOM     38  C   UNL A   1      49.550  26.075  28.538  1.00  0.00     0.134 A 
ATOM     39  C   UNL A   1      48.995  26.299  26.222  1.00  0.00     0.134 A 
ATOM     40  F   UNL A   1      49.237  26.150  29.840  1.00  0.00    -0.206 F 
ATOM     41  C   UNL A   1      50.850  25.697  28.190  1.00  0.00     0.040 A 
ATOM     42  C   UNL A   1      50.285  25.909  25.858  1.00  0.00     0.040 A 
ATOM     43  F   UNL A   1      48.131  26.617  25.248  1.00  0.00    -0.206 F 
ATOM     44  C   UNL A   1      51.218  25.608  26.847  1.00  0.00     0.006 A 
ENDBRANCH  23  37
BRANCH  24  45
ATOM     45  C   UNL A   1      39.149  28.888  29.490  1.00  0.00     0.057 A 
ATOM     46  C   UNL A   1      38.342  29.468  28.504  1.00  0.00     0.134 A 
ATOM     47  C   UNL A   1      38.592  28.708  30.760  1.00  0.00     0.134 A 
ATOM     48  F   UNL A   1      38.825  29.675  27.269  1.00  0.00    -0.206 F 
ATOM     49  C   UNL A   1      37.039  29.883  28.775  1.00  0.00     0.040 A 
ATOM     50  C   UNL A   1      37.280  29.094  31.038  1.00  0.00     0.040 A 
ATOM     51  F   UNL A   1      39.311  28.145  31.741  1.00  0.00    -0.206 F 
ATOM     52  C   UNL A   1      36.503  29.693  30.047  1.00  0.00     0.006 A 
ENDBRANCH  24  45
BRANCH  36  53
ATOM     53  C   UNL A   1      45.152  32.403  29.522  1.00  0.00     0.057 A 
ATOM     54  C   UNL A   1      45.616  32.729  30.802  1.00  0.00     0.134 A 
ATOM     55  C   UNL A   1      45.034  33.444  28.590  1.00  0.00     0.134 A 
ATOM     56  F   UNL A   1      45.745  31.780  31.742  1.00  0.00    -0.206 F 
ATOM     57  C   UNL A   1      45.964  34.037  31.139  1.00  0.00     0.040 A 
ATOM     58  C   UNL A   1      45.408  34.751  28.906  1.00  0.00     0.040 A 
ATOM     59  F   UNL A   1      44.613  33.194  27.342  1.00  0.00    -0.206 F 
ATOM     60  C   UNL A   1      45.873  35.050  30.186  1.00  0.00     0.006 A 
ENDBRANCH  36  53
ENDBRANCH  10  11
ENDBRANCH   3   5
ENDBRANCH   2   3
ENDBRANCH   1   2
BRANCH   1  61
ATOM     61  C   UNL A   1      38.203  21.425  25.461  1.00  0.00     0.275 C 
BRANCH  61  62
ATOM     62  O   UNL A   1      37.412  22.183  24.534  1.00  0.00    -0.458 OA
BRANCH  62  63
ATOM     63  C   UNL A   1      36.622  23.140  25.089  1.00  0.00     0.343 C 
ATOM     64  O   UNL A   1      37.014  24.118  25.713  1.00  0.00    -0.246 OA
BRANCH  63  65
ATOM     65  C   UNL A   1      35.221  22.954  24.681  1.00  0.00     0.126 A 
ATOM     66  C   UNL A   1      34.761  23.801  23.741  1.00  0.00     0.038 A 
ATOM     67  C   UNL A   1      34.349  21.861  25.199  1.00  0.00     0.265 A 
ATOM     68  C   UNL A   1      33.448  23.633  23.170  1.00  0.00     0.035 A 
ATOM     69  N   UNL A   1      33.071  21.781  24.623  1.00  0.00    -0.309 N 
ATOM     70  O   UNL A   1      34.752  21.101  26.077  1.00  0.00    -0.268 OA
ATOM     71  Br  UNL A   1      32.938  24.753  21.774  1.00  0.00    -0.049 Br
ATOM     72  C   UNL A   1      32.665  22.642  23.612  1.00  0.00     0.105 A 
BRANCH  69  73
ATOM     73  C   UNL A   1      32.140  20.750  25.084  1.00  0.00     0.161 C 
BRANCH  73  74
ATOM     74  C   UNL A   1      32.494  19.366  24.599  1.00  0.00    -0.025 A 
ATOM     75  C   UNL A   1      32.489  19.057  23.230  1.00  0.00     0.006 A 
ATOM     76  C   UNL A   1      32.858  18.373  25.519  1.00  0.00     0.044 A 
ATOM     77  C   UNL A   1      32.834  17.779  22.788  1.00  0.00     0.003 A 
ATOM     78  C   UNL A   1      33.227  17.113  25.066  1.00  0.00     0.123 A 
ATOM     79  C   UNL A   1      33.210  16.804  23.710  1.00  0.00     0.039 A 
ATOM     80  F   UNL A   1      33.621  16.186  25.948  1.00  0.00    -0.207 F 
ENDBRANCH  73  74
ENDBRANCH  69  73
ENDBRANCH  63  65
ENDBRANCH  62  63
ENDBRANCH  61  62
ENDBRANCH   1  61
TORSDOF 13
ENDMDL
MODEL 2
REMARK VINA RESULT:     -11.8      4.307      9.863
REMARK SMILES O=C(OCCOC(=O)c1cc(Br)cn(Cc2cccc(F)c2)c1=O)c1ccc(-c2c3nc(c(-c4c(F)cccc4F)c4ccc([nH]4)c(-c4c(F)cccc4F)c4nc(c(-c5c(F)cccc5F)c5ccc2[nH]5)C=C4)C=C3)cc1
REMARK SMILES IDX 4 1 3 2 2 3 1 4 25 5 26 6 78 7 27 8 77 9 28 10 29 11 30 12
REMARK SMILES IDX 71 13 31 14 76 15 70 16 72 17 32 18 75 19 69 20 68 21 33 23
REMARK SMILES IDX 59 24 42 25 58 26 43 27 46 28 57 29 73 30 44 31 45 32 56 34
REMARK SMILES IDX 74 35 47 36 34 37 35 38 40 39 36 40 37 41 39 42 41 43 38 44
REMARK SMILES IDX 60 45 61 46 66 47 62 48 63 49 65 50 67 51 64 52 48 53 49 54
REMARK SMILES IDX 54 55 50 56 51 57 53 58 55 59 52 60 5 61 6 62 7 63 8 64 9 65
REMARK SMILES IDX 10 66 23 67 11 68 14 69 24 70 12 71 13 72 15 73 16 74 17 75
REMARK SMILES IDX 22 76 18 77 20 78 19 79 21 80
REMARK H PARENT 72 22 46 33
REMARK Flexibility Score: inf
ROOT
ATOM      1  C   UNL A   1      31.885  26.588  22.277  1.00  0.00     0.275 C 
ENDROOT
BRANCH   1   2
ATOM      2  O   UNL A   1      31.864  26.459  23.709  1.00  0.00    -0.458 OA
BRANCH   2   3
ATOM      3  C   UNL A   1      31.511  27.392  24.626  1.00  0.00     0.338 C 
ATOM      4  O   UNL A   1      30.380  27.872  24.595  1.00  0.00    -0.246 OA
BRANCH   3   5
ATOM      5  C   UNL A   1      32.509  28.029  25.536  1.00  0.00     0.060 A 
ATOM      6  C   UNL A   1      33.527  28.762  24.906  1.00  0.00     0.016 A 
ATOM      7  C   UNL A   1      32.498  27.988  26.932  1.00  0.00     0.016 A 
ATOM      8  C   UNL A   1      34.559  29.341  25.646  1.00  0.00     0.010 A 
ATOM      9  C   UNL A   1      33.523  28.587  27.681  1.00  0.00     0.010 A 
ATOM     10  C   UNL A   1      34.568  29.258  27.047  1.00  0.00    -0.014 A 
BRANCH  10  11
ATOM     11  C   UNL A   1      35.553  30.058  27.814  1.00  0.00     0.031 A 
ATOM     12  C   UNL A   1      35.207  31.343  28.504  1.00  0.00     0.074 A 
ATOM     13  C   UNL A   1      36.806  29.576  27.894  1.00  0.00     0.049 A 
ATOM     14  N   UNL A   1      35.876  31.961  29.446  1.00  0.00    -0.248 NA
ATOM     15  C   UNL A   1      33.955  32.011  28.126  1.00  0.00     0.031 C 
ATOM     16  C   UNL A   1      37.291  28.382  27.197  1.00  0.00     0.029 A 
ATOM     17  N   UNL A   1      37.895  30.023  28.592  1.00  0.00    -0.354 N 
ATOM     18  C   UNL A   1      35.081  33.026  29.844  1.00  0.00     0.074 A 
ATOM     19  C   UNL A   1      33.920  33.029  28.980  1.00  0.00     0.031 C 
ATOM     20  C   UNL A   1      38.576  28.179  27.517  1.00  0.00     0.029 A 
ATOM     21  C   UNL A   1      39.009  29.241  28.417  1.00  0.00     0.049 A 
ATOM     22  H   UNL A   1      37.881  30.825  29.163  1.00  0.00     0.167 HD
ATOM     23  C   UNL A   1      35.285  33.885  30.872  1.00  0.00     0.037 A 
ATOM     24  C   UNL A   1      40.249  29.368  28.920  1.00  0.00     0.037 A 
ATOM     25  C   UNL A   1      36.509  33.966  31.626  1.00  0.00     0.049 A 
ATOM     26  C   UNL A   1      40.523  30.473  29.891  1.00  0.00     0.074 A 
ATOM     27  C   UNL A   1      36.817  34.785  32.698  1.00  0.00     0.029 A 
ATOM     28  N   UNL A   1      37.655  33.245  31.332  1.00  0.00    -0.354 N 
ATOM     29  N   UNL A   1      39.687  31.339  30.415  1.00  0.00    -0.248 NA
ATOM     30  C   UNL A   1      41.910  30.617  30.346  1.00  0.00     0.031 C 
ATOM     31  C   UNL A   1      38.175  34.615  33.000  1.00  0.00     0.029 A 
ATOM     32  C   UNL A   1      38.698  33.657  32.144  1.00  0.00     0.049 A 
ATOM     33  H   UNL A   1      37.719  32.541  30.646  1.00  0.00     0.167 HD
ATOM     34  C   UNL A   1      40.443  32.122  31.274  1.00  0.00     0.074 A 
ATOM     35  C   UNL A   1      41.800  31.612  31.215  1.00  0.00     0.031 C 
ATOM     36  C   UNL A   1      40.050  33.166  32.047  1.00  0.00     0.037 A 
BRANCH  23  37
ATOM     37  C   UNL A   1      34.147  34.774  31.263  1.00  0.00     0.057 A 
ATOM     38  C   UNL A   1      33.757  35.875  30.495  1.00  0.00     0.134 A 
ATOM     39  C   UNL A   1      33.467  34.551  32.467  1.00  0.00     0.134 A 
ATOM     40  F   UNL A   1      34.384  36.155  29.343  1.00  0.00    -0.206 F 
ATOM     41  C   UNL A   1      32.716  36.713  30.904  1.00  0.00     0.040 A 
ATOM     42  C   UNL A   1      32.415  35.371  32.882  1.00  0.00     0.040 A 
ATOM     43  F   UNL A   1      33.829  33.535  33.261  1.00  0.00    -0.206 F 
ATOM     44  C   UNL A   1      32.038  36.458  32.098  1.00  0.00     0.006 A 
ENDBRANCH  23  37
BRANCH  24  45
ATOM     45  C   UNL A   1      41.301  28.414  28.499  1.00  0.00     0.057 A 
ATOM     46  C   UNL A   1      41.870  28.486  27.222  1.00  0.00     0.134 A 
ATOM     47  C   UNL A   1      41.724  27.380  29.339  1.00  0.00     0.134 A 
ATOM     48  F   UNL A   1      41.497  29.451  26.368  1.00  0.00    -0.206 F 
ATOM     49  C   UNL A   1      42.803  27.548  26.782  1.00  0.00     0.040 A 
ATOM     50  C   UNL A   1      42.677  26.449  28.923  1.00  0.00     0.040 A 
ATOM     51  F   UNL A   1      41.225  27.267  30.579  1.00  0.00    -0.206 F 
ATOM     52  C   UNL A   1      43.212  26.527  27.637  1.00  0.00     0.006 A 
ENDBRANCH  24  45
BRANCH  36  53
ATOM     53  C   UNL A   1      41.115  33.823  32.869  1.00  0.00     0.057 A 
ATOM     54  C   UNL A   1      41.964  34.788  32.313  1.00  0.00     0.134 A 
ATOM     55  C   UNL A   1      41.281  33.520  34.228  1.00  0.00     0.134 A 
ATOM     56  F   UNL A   1      41.862  35.119  31.017  1.00  0.00    -0.206 F 
ATOM     57  C   UNL A   1      42.931  35.436  33.081  1.00  0.00     0.040 A 
ATOM     58  C   UNL A   1      42.224  34.183  35.013  1.00  0.00     0.040 A 
ATOM     59  F   UNL A   1      40.487  32.618  34.824  1.00  0.00    -0.206 F 
ATOM     60  C   UNL A   1      43.054  35.144  34.438  1.00  0.00     0.006 A 
ENDBRANCH  36  53
ENDBRANCH  10  11
ENDBRANCH   3   5
ENDBRANCH   2   3
ENDBRANCH   1   2
BRANCH   1  61
ATOM     61  C   UNL A   1      33.172  26.087  21.618  1.00  0.00     0.275 C 
BRANCH  61  62
ATOM     62  O   UNL A   1      34.025  25.385  22.533  1.00  0.00    -0.458 OA
BRANCH  62  63
ATOM     63  C   UNL A   1      33.908  24.031  22.516  1.00  0.00     0.343 C 
ATOM     64  O   UNL A   1      33.502  23.360  21.576  1.00  0.00    -0.246 OA
BRANCH  63  65
ATOM     65  C   UNL A   1      34.518  23.444  23.720  1.00  0.00     0.126 A 
ATOM     66  C   UNL A   1      33.726  23.363  24.805  1.00  0.00     0.038 A 
ATOM     67  C   UNL A   1      35.903  22.894  23.758  1.00  0.00     0.265 A 
ATOM     68  C   UNL A   1      34.171  22.691  26.000  1.00  0.00     0.035 A 
ATOM     69  N   UNL A   1      36.280  22.286  24.966  1.00  0.00    -0.309 N 
ATOM     70  O   UNL A   1      36.642  22.988  22.781  1.00  0.00    -0.268 OA
ATOM     71  Br  UNL A   1      32.968  22.493  27.407  1.00  0.00    -0.049 Br
ATOM     72  C   UNL A   1      35.405  22.174  26.037  1.00  0.00     0.105 A 
BRANCH  69  73
ATOM     73  C   UNL A   1      37.629  21.735  25.101  1.00  0.00     0.161 C 
BRANCH  73  74
ATOM     74  C   UNL A   1      38.534  22.574  25.969  1.00  0.00    -0.025 A 
ATOM     75  C   UNL A   1      38.259  23.931  26.198  1.00  0.00     0.006 A 
ATOM     76  C   UNL A   1      39.653  21.994  26.580  1.00  0.00     0.044 A 
ATOM     77  C   UNL A   1      39.091  24.697  27.017  1.00  0.00     0.003 A 
ATOM     78  C   UNL A   1      40.458  22.758  27.416  1.00  0.00     0.123 A 
ATOM     79  C   UNL A   1      40.193  24.106  27.632  1.00  0.00     0.039 A 
ATOM     80  F   UNL A   1      41.497  22.183  28.035  1.00  0.00    -0.207 F 
ENDBRANCH  73  74
ENDBRANCH  69  73
ENDBRANCH  63  65
ENDBRANCH  62  63
ENDBRANCH  61  62
ENDBRANCH   1  61
TORSDOF 13
ENDMDL
MODEL 3
REMARK VINA RESULT:     -11.7      5.646     10.304
REMARK SMILES O=C(OCCOC(=O)c1cc(Br)cn(Cc2cccc(F)c2)c1=O)c1ccc(-c2c3nc(c(-c4c(F)cccc4F)c4ccc([nH]4)c(-c4c(F)cccc4F)c4nc(c(-c5c(F)cccc5F)c5ccc2[nH]5)C=C4)C=C3)cc1
REMARK SMILES IDX 4 1 3 2 2 3 1 4 25 5 26 6 78 7 27 8 77 9 28 10 29 11 30 12
REMARK SMILES IDX 71 13 31 14 76 15 70 16 72 17 32 18 75 19 69 20 68 21 33 23
REMARK SMILES IDX 59 24 42 25 58 26 43 27 46 28 57 29 73 30 44 31 45 32 56 34
REMARK SMILES IDX 74 35 47 36 34 37 35 38 40 39 36 40 37 41 39 42 41 43 38 44
REMARK SMILES IDX 60 45 61 46 66 47 62 48 63 49 65 50 67 51 64 52 48 53 49 54
REMARK SMILES IDX 54 55 50 56 51 57 53 58 55 59 52 60 5 61 6 62 7 63 8 64 9 65
REMARK SMILES IDX 10 66 23 67 11 68 14 69 24 70 12 71 13 72 15 73 16 74 17 75
REMARK SMILES IDX 22 76 18 77 20 78 19 79 21 80
REMARK H PARENT 72 22 46 33
REMARK Flexibility Score: inf
ROOT
ATOM      1  C   UNL A   1      31.841  32.276  27.280  1.00  0.00     0.275 C 
ENDROOT
BRANCH   1   2
ATOM      2  O   UNL A   1      32.278  33.646  27.308  1.00  0.00    -0.458 OA
BRANCH   2   3
ATOM      3  C   UNL A   1      32.887  34.308  28.321  1.00  0.00     0.338 C 
ATOM      4  O   UNL A   1      32.419  35.374  28.714  1.00  0.00    -0.246 OA
BRANCH   3   5
ATOM      5  C   UNL A   1      34.232  33.910  28.834  1.00  0.00     0.060 A 
ATOM      6  C   UNL A   1      34.233  33.074  29.960  1.00  0.00     0.016 A 
ATOM      7  C   UNL A   1      35.465  34.264  28.279  1.00  0.00     0.016 A 
ATOM      8  C   UNL A   1      35.428  32.695  30.575  1.00  0.00     0.010 A 
ATOM      9  C   UNL A   1      36.669  33.868  28.880  1.00  0.00     0.010 A 
ATOM     10  C   UNL A   1      36.663  33.091  30.039  1.00  0.00    -0.014 A 
BRANCH  10  11
ATOM     11  C   UNL A   1      37.911  32.502  30.582  1.00  0.00     0.031 A 
ATOM     12  C   UNL A   1      38.629  33.058  31.775  1.00  0.00     0.074 A 
ATOM     13  C   UNL A   1      38.390  31.406  29.967  1.00  0.00     0.049 A 
ATOM     14  N   UNL A   1      39.529  32.469  32.524  1.00  0.00    -0.248 NA
ATOM     15  C   UNL A   1      38.291  34.420  32.208  1.00  0.00     0.031 C 
ATOM     16  C   UNL A   1      37.833  30.819  28.747  1.00  0.00     0.029 A 
ATOM     17  N   UNL A   1      39.446  30.593  30.280  1.00  0.00    -0.354 N 
ATOM     18  C   UNL A   1      39.786  33.343  33.571  1.00  0.00     0.074 A 
ATOM     19  C   UNL A   1      39.018  34.542  33.315  1.00  0.00     0.031 C 
ATOM     20  C   UNL A   1      38.539  29.727  28.424  1.00  0.00     0.029 A 
ATOM     21  C   UNL A   1      39.611  29.557  29.397  1.00  0.00     0.049 A 
ATOM     22  H   UNL A   1      40.028  30.737  31.061  1.00  0.00     0.167 HD
ATOM     23  C   UNL A   1      40.553  33.133  34.668  1.00  0.00     0.037 A 
ATOM     24  C   UNL A   1      40.531  28.577  29.367  1.00  0.00     0.037 A 
ATOM     25  C   UNL A   1      41.426  32.001  34.838  1.00  0.00     0.049 A 
ATOM     26  C   UNL A   1      41.529  28.491  30.480  1.00  0.00     0.074 A 
ATOM     27  C   UNL A   1      42.233  31.679  35.916  1.00  0.00     0.029 A 
ATOM     28  N   UNL A   1      41.659  31.042  33.864  1.00  0.00    -0.354 N 
ATOM     29  N   UNL A   1      41.609  29.210  31.574  1.00  0.00    -0.248 NA
ATOM     30  C   UNL A   1      42.560  27.455  30.357  1.00  0.00     0.031 C 
ATOM     31  C   UNL A   1      43.012  30.570  35.559  1.00  0.00     0.029 A 
ATOM     32  C   UNL A   1      42.657  30.176  34.278  1.00  0.00     0.049 A 
ATOM     33  H   UNL A   1      41.184  30.985  33.004  1.00  0.00     0.167 HD
ATOM     34  C   UNL A   1      42.690  28.705  32.281  1.00  0.00     0.074 A 
ATOM     35  C   UNL A   1      43.219  27.603  31.497  1.00  0.00     0.031 C 
ATOM     36  C   UNL A   1      43.197  29.110  33.472  1.00  0.00     0.037 A 
BRANCH  23  37
ATOM     37  C   UNL A   1      40.449  34.127  35.782  1.00  0.00     0.057 A 
ATOM     38  C   UNL A   1      39.496  34.016  36.798  1.00  0.00     0.134 A 
ATOM     39  C   UNL A   1      41.287  35.249  35.799  1.00  0.00     0.134 A 
ATOM     40  F   UNL A   1      38.649  32.976  36.825  1.00  0.00    -0.206 F 
ATOM     41  C   UNL A   1      39.394  34.980  37.805  1.00  0.00     0.040 A 
ATOM     42  C   UNL A   1      41.207  36.212  36.806  1.00  0.00     0.040 A 
ATOM     43  F   UNL A   1      42.190  35.425  34.825  1.00  0.00    -0.206 F 
ATOM     44  C   UNL A   1      40.255  36.079  37.814  1.00  0.00     0.006 A 
ENDBRANCH  23  37
BRANCH  24  45
ATOM     45  C   UNL A   1      40.529  27.617  28.239  1.00  0.00     0.057 A 
ATOM     46  C   UNL A   1      39.874  26.384  28.345  1.00  0.00     0.134 A 
ATOM     47  C   UNL A   1      41.220  27.883  27.054  1.00  0.00     0.134 A 
ATOM     48  F   UNL A   1      39.201  26.067  29.462  1.00  0.00    -0.206 F 
ATOM     49  C   UNL A   1      39.928  25.436  27.324  1.00  0.00     0.040 A 
ATOM     50  C   UNL A   1      41.261  26.956  26.012  1.00  0.00     0.040 A 
ATOM     51  F   UNL A   1      41.855  29.053  26.889  1.00  0.00    -0.206 F 
ATOM     52  C   UNL A   1      40.622  25.723  26.150  1.00  0.00     0.006 A 
ENDBRANCH  24  45
BRANCH  36  53
ATOM     53  C   UNL A   1      44.392  28.361  33.976  1.00  0.00     0.057 A 
ATOM     54  C   UNL A   1      45.690  28.821  33.725  1.00  0.00     0.134 A 
ATOM     55  C   UNL A   1      44.253  27.194  34.740  1.00  0.00     0.134 A 
ATOM     56  F   UNL A   1      45.892  29.928  32.994  1.00  0.00    -0.206 F 
ATOM     57  C   UNL A   1      46.808  28.154  34.226  1.00  0.00     0.040 A 
ATOM     58  C   UNL A   1      45.362  26.535  35.272  1.00  0.00     0.040 A 
ATOM     59  F   UNL A   1      43.035  26.713  35.031  1.00  0.00    -0.206 F 
ATOM     60  C   UNL A   1      46.645  27.015  35.013  1.00  0.00     0.006 A 
ENDBRANCH  36  53
ENDBRANCH  10  11
ENDBRANCH   3   5
ENDBRANCH   2   3
ENDBRANCH   1   2
BRANCH   1  61
ATOM     61  C   UNL A   1      32.946  31.269  26.957  1.00  0.00     0.275 C 
BRANCH  61  62
ATOM     62  O   UNL A   1      32.581  29.921  27.288  1.00  0.00    -0.458 OA
BRANCH  62  63
ATOM     63  C   UNL A   1      33.459  28.965  26.884  1.00  0.00     0.343 C 
ATOM     64  O   UNL A   1      34.591  28.803  27.319  1.00  0.00    -0.246 OA
BRANCH  63  65
ATOM     65  C   UNL A   1      32.802  28.011  25.976  1.00  0.00     0.126 A 
ATOM     66  C   UNL A   1      32.578  26.780  26.472  1.00  0.00     0.038 A 
ATOM     67  C   UNL A   1      32.330  28.367  24.606  1.00  0.00     0.265 A 
ATOM     68  C   UNL A   1      31.827  25.803  25.722  1.00  0.00     0.035 A 
ATOM     69  N   UNL A   1      31.639  27.355  23.922  1.00  0.00    -0.309 N 
ATOM     70  O   UNL A   1      32.555  29.479  24.136  1.00  0.00    -0.268 OA
ATOM     71  Br  UNL A   1      31.434  24.174  26.532  1.00  0.00    -0.049 Br
ATOM     72  C   UNL A   1      31.381  26.120  24.501  1.00  0.00     0.105 A 
BRANCH  69  73
ATOM     73  C   UNL A   1      31.156  27.609  22.564  1.00  0.00     0.161 C 
BRANCH  73  74
ATOM     74  C   UNL A   1      29.922  28.476  22.521  1.00  0.00    -0.025 A 
ATOM     75  C   UNL A   1      28.706  28.029  23.060  1.00  0.00     0.006 A 
ATOM     76  C   UNL A   1      29.987  29.758  21.959  1.00  0.00     0.044 A 
ATOM     77  C   UNL A   1      27.573  28.844  23.032  1.00  0.00     0.003 A 
ATOM     78  C   UNL A   1      28.860  30.572  21.962  1.00  0.00     0.123 A 
ATOM     79  C   UNL A   1      27.652  30.123  22.485  1.00  0.00     0.039 A 
ATOM     80  F   UNL A   1      28.944  31.814  21.468  1.00  0.00    -0.207 F 
ENDBRANCH  73  74
ENDBRANCH  69  73
ENDBRANCH  63  65
ENDBRANCH  62  63
ENDBRANCH  61  62
ENDBRANCH   1  61
TORSDOF 13
ENDMDL
