MODEL 1
REMARK VINA RESULT:     -10.9      0.000      0.000
REMARK SMILES CCCCCCNC(=O)Oc1cccc(-c2ccc([C@@H](C)C(=O)OCCOC(=O)c3ccc(-c4c5nc(c(-c6c(F)cccc6F)c6ccc([nH]6)c(-c6c(F)cccc6F)c6nc(c(-c7c(F)cccc7F)c7ccc4[nH]7)C=C6)C=C5)cc3)cc2O)c1
REMARK SMILES IDX 20 1 21 2 19 3 16 4 17 5 85 6 18 7 84 8 15 9 11 10 12 11
REMARK SMILES IDX 87 12 13 13 14 14 10 15 8 16 7 17 9 19 6 20 5 21 4 22 3 23
REMARK SMILES IDX 2 24 1 25 86 26 22 28 23 29 24 30 25 31 26 32 27 33 28 34
REMARK SMILES IDX 29 35 30 36 31 37 83 38 32 39 82 40 33 41 34 42 35 43 76 44
REMARK SMILES IDX 36 45 81 46 75 47 77 48 37 49 80 50 74 51 73 52 38 54 64 55
REMARK SMILES IDX 47 56 63 57 48 58 51 59 62 60 78 61 49 62 50 63 61 65 79 66
REMARK SMILES IDX 52 67 39 68 40 69 45 70 41 71 42 72 44 73 46 74 43 75 65 76
REMARK SMILES IDX 66 77 71 78 67 79 68 80 70 81 72 82 69 83 53 84 54 85 59 86
REMARK SMILES IDX 55 87 56 88 58 89 60 90 57 91
REMARK H PARENT 7 18 86 27 77 53 51 64
REMARK Flexibility Score: inf
ROOT
ATOM      1  C   UNL A   1      41.301  22.335  27.010  1.00  0.00     0.126 C 
ATOM      2  C   UNL A   1      41.372  22.187  28.528  1.00  0.00     0.025 C 
ENDROOT
BRANCH   1   3
ATOM      3  C   UNL A   1      39.876  22.518  26.512  1.00  0.00    -0.030 A 
ATOM      4  C   UNL A   1      37.216  22.814  25.524  1.00  0.00     0.024 A 
ATOM      5  C   UNL A   1      37.877  23.866  26.181  1.00  0.00     0.013 A 
ATOM      6  C   UNL A   1      37.921  21.608  25.375  1.00  0.00     0.123 A 
ATOM      7  C   UNL A   1      39.187  23.727  26.654  1.00  0.00     0.005 A 
ATOM      8  C   UNL A   1      39.220  21.456  25.870  1.00  0.00     0.051 A 
BRANCH   4   9
ATOM      9  C   UNL A   1      35.855  23.030  24.999  1.00  0.00    -0.011 A 
ATOM     10  C   UNL A   1      33.440  22.935  25.218  1.00  0.00     0.133 A 
ATOM     11  C   UNL A   1      33.277  23.400  23.914  1.00  0.00     0.047 A 
ATOM     12  C   UNL A   1      34.712  22.750  25.766  1.00  0.00     0.056 A 
ATOM     13  C   UNL A   1      34.400  23.702  23.152  1.00  0.00     0.004 A 
ATOM     14  C   UNL A   1      35.675  23.513  23.688  1.00  0.00     0.009 A 
BRANCH  10  15
ATOM     15  O   UNL A   1      32.269  22.533  25.884  1.00  0.00    -0.410 OA
BRANCH  15  16
ATOM     16  C   UNL A   1      31.963  23.074  27.123  1.00  0.00     0.412 C 
ATOM     17  N   UNL A   1      31.085  24.122  27.044  1.00  0.00    -0.321 N 
ATOM     18  H   UNL A   1      30.818  24.537  27.896  1.00  0.00     0.167 HD
ATOM     19  O   UNL A   1      32.412  22.706  28.201  1.00  0.00    -0.224 OA
BRANCH  17  20
ATOM     20  C   UNL A   1      30.508  24.683  25.839  1.00  0.00     0.119 C 
BRANCH  20  21
ATOM     21  C   UNL A   1      30.717  26.196  25.749  1.00  0.00     0.021 C 
BRANCH  21  22
ATOM     22  C   UNL A   1      32.178  26.653  25.853  1.00  0.00     0.002 C 
BRANCH  22  23
ATOM     23  C   UNL A   1      32.420  27.913  26.692  1.00  0.00    -0.000 C 
BRANCH  23  24
ATOM     24  C   UNL A   1      32.382  29.235  25.921  1.00  0.00    -0.003 C 
ATOM     25  C   UNL A   1      31.832  30.395  26.736  1.00  0.00     0.004 C 
ENDBRANCH  23  24
ENDBRANCH  22  23
ENDBRANCH  21  22
ENDBRANCH  20  21
ENDBRANCH  17  20
ENDBRANCH  15  16
ENDBRANCH  10  15
ENDBRANCH   4   9
BRANCH   6  26
ATOM     26  O   UNL A   1      37.417  20.522  24.707  1.00  0.00    -0.507 OA
ATOM     27  H   UNL A   1      36.884  19.899  25.161  1.00  0.00     0.293 HD
ENDBRANCH   6  26
ENDBRANCH   1   3
BRANCH   1  28
ATOM     28  C   UNL A   1      42.110  21.232  26.341  1.00  0.00     0.313 C 
ATOM     29  O   UNL A   1      42.181  20.099  26.812  1.00  0.00    -0.252 OA
BRANCH  28  30
ATOM     30  O   UNL A   1      42.695  21.611  25.176  1.00  0.00    -0.462 OA
BRANCH  30  31
ATOM     31  C   UNL A   1      44.106  21.898  25.216  1.00  0.00     0.274 C 
BRANCH  31  32
ATOM     32  C   UNL A   1      44.443  23.111  24.348  1.00  0.00     0.275 C 
BRANCH  32  33
ATOM     33  O   UNL A   1      43.698  24.269  24.765  1.00  0.00    -0.458 OA
BRANCH  33  34
ATOM     34  C   UNL A   1      44.445  25.316  25.182  1.00  0.00     0.338 C 
ATOM     35  O   UNL A   1      45.488  25.725  24.707  1.00  0.00    -0.246 OA
BRANCH  34  36
ATOM     36  C   UNL A   1      43.757  25.979  26.296  1.00  0.00     0.060 A 
ATOM     37  C   UNL A   1      44.140  27.275  26.652  1.00  0.00     0.016 A 
ATOM     38  C   UNL A   1      42.790  25.293  27.029  1.00  0.00     0.016 A 
ATOM     39  C   UNL A   1      43.556  27.896  27.752  1.00  0.00     0.010 A 
ATOM     40  C   UNL A   1      42.199  25.919  28.127  1.00  0.00     0.010 A 
ATOM     41  C   UNL A   1      42.584  27.219  28.499  1.00  0.00    -0.014 A 
BRANCH  41  42
ATOM     42  C   UNL A   1      41.989  27.840  29.704  1.00  0.00     0.031 A 
ATOM     43  C   UNL A   1      40.750  28.673  29.570  1.00  0.00     0.074 A 
ATOM     44  C   UNL A   1      42.579  27.685  30.903  1.00  0.00     0.049 A 
ATOM     45  N   UNL A   1      40.188  29.468  30.443  1.00  0.00    -0.248 NA
ATOM     46  C   UNL A   1      40.053  28.605  28.275  1.00  0.00     0.031 C 
ATOM     47  C   UNL A   1      43.754  26.854  31.166  1.00  0.00     0.029 A 
ATOM     48  N   UNL A   1      42.283  28.245  32.120  1.00  0.00    -0.354 N 
ATOM     49  C   UNL A   1      39.085  30.012  29.799  1.00  0.00     0.074 A 
ATOM     50  C   UNL A   1      39.062  29.466  28.458  1.00  0.00     0.031 C 
ATOM     51  C   UNL A   1      44.096  26.979  32.459  1.00  0.00     0.029 A 
ATOM     52  C   UNL A   1      43.199  27.939  33.097  1.00  0.00     0.049 A 
ATOM     53  H   UNL A   1      41.492  28.810  32.277  1.00  0.00     0.167 HD
ATOM     54  C   UNL A   1      38.176  30.889  30.286  1.00  0.00     0.037 A 
ATOM     55  C   UNL A   1      43.328  28.420  34.348  1.00  0.00     0.037 A 
ATOM     56  C   UNL A   1      38.206  31.424  31.623  1.00  0.00     0.049 A 
ATOM     57  C   UNL A   1      42.351  29.450  34.844  1.00  0.00     0.074 A 
ATOM     58  C   UNL A   1      37.343  32.333  32.209  1.00  0.00     0.029 A 
ATOM     59  N   UNL A   1      39.149  31.088  32.582  1.00  0.00    -0.354 N 
ATOM     60  N   UNL A   1      41.330  29.986  34.220  1.00  0.00    -0.248 NA
ATOM     61  C   UNL A   1      42.548  29.948  36.212  1.00  0.00     0.031 C 
ATOM     62  C   UNL A   1      37.782  32.569  33.516  1.00  0.00     0.029 A 
ATOM     63  C   UNL A   1      38.895  31.779  33.754  1.00  0.00     0.049 A 
ATOM     64  H   UNL A   1      39.889  30.453  32.449  1.00  0.00     0.167 HD
ATOM     65  C   UNL A   1      40.751  30.865  35.125  1.00  0.00     0.074 A 
ATOM     66  C   UNL A   1      41.529  30.786  36.344  1.00  0.00     0.031 C 
ATOM     67  C   UNL A   1      39.672  31.669  34.962  1.00  0.00     0.037 A 
BRANCH  54  68
ATOM     68  C   UNL A   1      37.089  31.344  29.361  1.00  0.00     0.057 A 
ATOM     69  C   UNL A   1      35.991  30.530  29.056  1.00  0.00     0.134 A 
ATOM     70  C   UNL A   1      37.123  32.625  28.795  1.00  0.00     0.134 A 
ATOM     71  F   UNL A   1      35.907  29.287  29.556  1.00  0.00    -0.206 F 
ATOM     72  C   UNL A   1      34.973  30.968  28.208  1.00  0.00     0.040 A 
ATOM     73  C   UNL A   1      36.100  33.082  27.963  1.00  0.00     0.040 A 
ATOM     74  F   UNL A   1      38.144  33.456  29.049  1.00  0.00    -0.206 F 
ATOM     75  C   UNL A   1      35.022  32.249  27.664  1.00  0.00     0.006 A 
ENDBRANCH  54  68
BRANCH  55  76
ATOM     76  C   UNL A   1      44.454  27.968  35.202  1.00  0.00     0.057 A 
ATOM     77  C   UNL A   1      45.676  28.650  35.214  1.00  0.00     0.134 A 
ATOM     78  C   UNL A   1      44.338  26.836  36.018  1.00  0.00     0.134 A 
ATOM     79  F   UNL A   1      45.855  29.727  34.436  1.00  0.00    -0.206 F 
ATOM     80  C   UNL A   1      46.746  28.216  35.998  1.00  0.00     0.040 A 
ATOM     81  C   UNL A   1      45.392  26.404  36.824  1.00  0.00     0.040 A 
ATOM     82  F   UNL A   1      43.194  26.138  36.051  1.00  0.00    -0.206 F 
ATOM     83  C   UNL A   1      46.604  27.092  36.810  1.00  0.00     0.006 A 
ENDBRANCH  55  76
BRANCH  67  84
ATOM     84  C   UNL A   1      39.241  32.488  36.139  1.00  0.00     0.057 A 
ATOM     85  C   UNL A   1      38.355  31.988  37.100  1.00  0.00     0.134 A 
ATOM     86  C   UNL A   1      39.768  33.769  36.345  1.00  0.00     0.134 A 
ATOM     87  F   UNL A   1      37.807  30.772  36.953  1.00  0.00    -0.206 F 
ATOM     88  C   UNL A   1      37.998  32.739  38.220  1.00  0.00     0.040 A 
ATOM     89  C   UNL A   1      39.435  34.522  37.471  1.00  0.00     0.040 A 
ATOM     90  F   UNL A   1      40.629  34.301  35.462  1.00  0.00    -0.206 F 
ATOM     91  C   UNL A   1      38.545  34.008  38.411  1.00  0.00     0.006 A 
ENDBRANCH  67  84
ENDBRANCH  41  42
ENDBRANCH  34  36
ENDBRANCH  33  34
ENDBRANCH  32  33
ENDBRANCH  31  32
ENDBRANCH  30  31
ENDBRANCH  28  30
ENDBRANCH   1  28
TORSDOF 21
ENDMDL
MODEL 2
REMARK VINA RESULT:     -10.9      3.767      9.732
REMARK SMILES CCCCCCNC(=O)Oc1cccc(-c2ccc([C@@H](C)C(=O)OCCOC(=O)c3ccc(-c4c5nc(c(-c6c(F)cccc6F)c6ccc([nH]6)c(-c6c(F)cccc6F)c6nc(c(-c7c(F)cccc7F)c7ccc4[nH]7)C=C6)C=C5)cc3)cc2O)c1
REMARK SMILES IDX 20 1 21 2 19 3 16 4 17 5 85 6 18 7 84 8 15 9 11 10 12 11
REMARK SMILES IDX 87 12 13 13 14 14 10 15 8 16 7 17 9 19 6 20 5 21 4 22 3 23
REMARK SMILES IDX 2 24 1 25 86 26 22 28 23 29 24 30 25 31 26 32 27 33 28 34
REMARK SMILES IDX 29 35 30 36 31 37 83 38 32 39 82 40 33 41 34 42 35 43 76 44
REMARK SMILES IDX 36 45 81 46 75 47 77 48 37 49 80 50 74 51 73 52 38 54 64 55
REMARK SMILES IDX 47 56 63 57 48 58 51 59 62 60 78 61 49 62 50 63 61 65 79 66
REMARK SMILES IDX 52 67 39 68 40 69 45 70 41 71 42 72 44 73 46 74 43 75 65 76
REMARK SMILES IDX 66 77 71 78 67 79 68 80 70 81 72 82 69 83 53 84 54 85 59 86
REMARK SMILES IDX 55 87 56 88 58 89 60 90 57 91
REMARK H PARENT 7 18 86 27 77 53 51 64
REMARK Flexibility Score: inf
ROOT
ATOM      1  C   UNL A   1      35.273  32.301  28.587  1.00  0.00     0.126 C 
ATOM      2  C   UNL A   1      36.791  32.463  28.567  1.00  0.00     0.025 C 
ENDROOT
BRANCH   1   3
ATOM      3  C   UNL A   1      34.810  31.091  27.791  1.00  0.00    -0.030 A 
ATOM      4  C   UNL A   1      33.873  28.834  26.318  1.00  0.00     0.024 A 
ATOM      5  C   UNL A   1      35.139  28.839  26.929  1.00  0.00     0.013 A 
ATOM      6  C   UNL A   1      33.088  29.990  26.464  1.00  0.00     0.123 A 
ATOM      7  C   UNL A   1      35.595  29.940  27.664  1.00  0.00     0.005 A 
ATOM      8  C   UNL A   1      33.550  31.102  27.174  1.00  0.00     0.051 A 
BRANCH   4   9
ATOM      9  C   UNL A   1      33.421  27.629  25.599  1.00  0.00    -0.011 A 
ATOM     10  C   UNL A   1      32.916  25.257  25.511  1.00  0.00     0.133 A 
ATOM     11  C   UNL A   1      32.615  25.345  24.153  1.00  0.00     0.047 A 
ATOM     12  C   UNL A   1      33.314  26.382  26.238  1.00  0.00     0.056 A 
ATOM     13  C   UNL A   1      32.696  26.576  23.514  1.00  0.00     0.004 A 
ATOM     14  C   UNL A   1      33.100  27.705  24.230  1.00  0.00     0.009 A 
BRANCH  10  15
ATOM     15  O   UNL A   1      32.934  23.963  26.061  1.00  0.00    -0.410 OA
BRANCH  15  16
ATOM     16  C   UNL A   1      31.772  23.427  26.594  1.00  0.00     0.412 C 
ATOM     17  N   UNL A   1      31.451  22.210  26.054  1.00  0.00    -0.321 N 
ATOM     18  H   UNL A   1      30.642  21.773  26.406  1.00  0.00     0.167 HD
ATOM     19  O   UNL A   1      31.062  23.947  27.445  1.00  0.00    -0.224 OA
BRANCH  17  20
ATOM     20  C   UNL A   1      32.175  21.500  25.019  1.00  0.00     0.119 C 
BRANCH  20  21
ATOM     21  C   UNL A   1      33.129  20.454  25.596  1.00  0.00     0.021 C 
BRANCH  21  22
ATOM     22  C   UNL A   1      33.615  19.400  24.594  1.00  0.00     0.002 C 
BRANCH  22  23
ATOM     23  C   UNL A   1      32.639  19.062  23.461  1.00  0.00    -0.000 C 
BRANCH  23  24
ATOM     24  C   UNL A   1      32.764  17.652  22.881  1.00  0.00    -0.003 C 
ATOM     25  C   UNL A   1      34.050  16.945  23.281  1.00  0.00     0.004 C 
ENDBRANCH  23  24
ENDBRANCH  22  23
ENDBRANCH  21  22
ENDBRANCH  20  21
ENDBRANCH  17  20
ENDBRANCH  15  16
ENDBRANCH  10  15
ENDBRANCH   4   9
BRANCH   6  26
ATOM     26  O   UNL A   1      31.814  30.098  25.967  1.00  0.00    -0.507 OA
ATOM     27  H   UNL A   1      31.664  30.544  25.157  1.00  0.00     0.293 HD
ENDBRANCH   6  26
ENDBRANCH   1   3
BRANCH   1  28
ATOM     28  C   UNL A   1      34.604  33.626  28.244  1.00  0.00     0.313 C 
ATOM     29  O   UNL A   1      34.923  34.280  27.254  1.00  0.00    -0.252 OA
BRANCH  28  30
ATOM     30  O   UNL A   1      33.613  33.977  29.102  1.00  0.00    -0.462 OA
BRANCH  30  31
ATOM     31  C   UNL A   1      32.904  35.198  28.819  1.00  0.00     0.274 C 
BRANCH  31  32
ATOM     32  C   UNL A   1      32.913  36.132  30.030  1.00  0.00     0.275 C 
BRANCH  32  33
ATOM     33  O   UNL A   1      32.316  35.499  31.175  1.00  0.00    -0.458 OA
BRANCH  33  34
ATOM     34  C   UNL A   1      32.724  35.974  32.374  1.00  0.00     0.338 C 
ATOM     35  O   UNL A   1      32.233  36.876  33.027  1.00  0.00    -0.246 OA
BRANCH  34  36
ATOM     36  C   UNL A   1      33.852  35.164  32.848  1.00  0.00     0.060 A 
ATOM     37  C   UNL A   1      35.139  35.708  32.807  1.00  0.00     0.016 A 
ATOM     38  C   UNL A   1      33.645  33.849  33.260  1.00  0.00     0.016 A 
ATOM     39  C   UNL A   1      36.234  34.933  33.178  1.00  0.00     0.010 A 
ATOM     40  C   UNL A   1      34.742  33.075  33.641  1.00  0.00     0.010 A 
ATOM     41  C   UNL A   1      36.043  33.610  33.594  1.00  0.00    -0.014 A 
BRANCH  41  42
ATOM     42  C   UNL A   1      37.197  32.752  33.943  1.00  0.00     0.031 A 
ATOM     43  C   UNL A   1      37.960  33.018  35.205  1.00  0.00     0.074 A 
ATOM     44  C   UNL A   1      37.578  31.764  33.112  1.00  0.00     0.049 A 
ATOM     45  N   UNL A   1      39.111  32.534  35.595  1.00  0.00    -0.248 NA
ATOM     46  C   UNL A   1      37.346  33.961  36.154  1.00  0.00     0.031 C 
ATOM     47  C   UNL A   1      36.881  31.377  31.885  1.00  0.00     0.029 A 
ATOM     48  N   UNL A   1      38.663  30.927  33.163  1.00  0.00    -0.354 N 
ATOM     49  C   UNL A   1      39.370  33.128  36.823  1.00  0.00     0.074 A 
ATOM     50  C   UNL A   1      38.264  34.017  37.109  1.00  0.00     0.031 C 
ATOM     51  C   UNL A   1      37.572  30.392  31.285  1.00  0.00     0.029 A 
ATOM     52  C   UNL A   1      38.782  30.123  32.056  1.00  0.00     0.049 A 
ATOM     53  H   UNL A   1      39.293  30.903  33.920  1.00  0.00     0.167 HD
ATOM     54  C   UNL A   1      40.439  32.945  37.635  1.00  0.00     0.037 A 
ATOM     55  C   UNL A   1      39.782  29.301  31.682  1.00  0.00     0.037 A 
ATOM     56  C   UNL A   1      41.532  32.056  37.342  1.00  0.00     0.049 A 
ATOM     57  C   UNL A   1      40.993  29.170  32.564  1.00  0.00     0.074 A 
ATOM     58  C   UNL A   1      42.672  31.813  38.089  1.00  0.00     0.029 A 
ATOM     59  N   UNL A   1      41.616  31.259  36.211  1.00  0.00    -0.354 N 
ATOM     60  N   UNL A   1      41.250  29.759  33.707  1.00  0.00    -0.248 NA
ATOM     61  C   UNL A   1      42.058  28.269  32.100  1.00  0.00     0.031 C 
ATOM     62  C   UNL A   1      43.459  30.889  37.395  1.00  0.00     0.029 A 
ATOM     63  C   UNL A   1      42.792  30.530  36.235  1.00  0.00     0.049 A 
ATOM     64  H   UNL A   1      40.939  31.218  35.497  1.00  0.00     0.167 HD
ATOM     65  C   UNL A   1      42.491  29.284  34.109  1.00  0.00     0.074 A 
ATOM     66  C   UNL A   1      42.933  28.353  33.093  1.00  0.00     0.031 C 
ATOM     67  C   UNL A   1      43.202  29.593  35.220  1.00  0.00     0.037 A 
BRANCH  54  68
ATOM     68  C   UNL A   1      40.487  33.742  38.902  1.00  0.00     0.057 A 
ATOM     69  C   UNL A   1      39.834  33.316  40.066  1.00  0.00     0.134 A 
ATOM     70  C   UNL A   1      41.224  34.931  38.971  1.00  0.00     0.134 A 
ATOM     71  F   UNL A   1      39.101  32.193  40.062  1.00  0.00    -0.206 F 
ATOM     72  C   UNL A   1      39.900  34.054  41.249  1.00  0.00     0.040 A 
ATOM     73  C   UNL A   1      41.314  35.666  40.154  1.00  0.00     0.040 A 
ATOM     74  F   UNL A   1      41.876  35.393  37.894  1.00  0.00    -0.206 F 
ATOM     75  C   UNL A   1      40.647  35.229  41.297  1.00  0.00     0.006 A 
ENDBRANCH  54  68
BRANCH  55  76
ATOM     76  C   UNL A   1      39.699  28.575  30.391  1.00  0.00     0.057 A 
ATOM     77  C   UNL A   1      39.094  27.317  30.302  1.00  0.00     0.134 A 
ATOM     78  C   UNL A   1      40.236  29.119  29.217  1.00  0.00     0.134 A 
ATOM     79  F   UNL A   1      38.584  26.735  31.397  1.00  0.00    -0.206 F 
ATOM     80  C   UNL A   1      39.035  26.619  29.095  1.00  0.00     0.040 A 
ATOM     81  C   UNL A   1      40.163  28.442  27.999  1.00  0.00     0.040 A 
ATOM     82  F   UNL A   1      40.829  30.321  29.235  1.00  0.00    -0.206 F 
ATOM     83  C   UNL A   1      39.566  27.184  27.937  1.00  0.00     0.006 A 
ENDBRANCH  55  76
BRANCH  67  84
ATOM     84  C   UNL A   1      44.507  28.884  35.419  1.00  0.00     0.057 A 
ATOM     85  C   UNL A   1      44.585  27.663  36.098  1.00  0.00     0.134 A 
ATOM     86  C   UNL A   1      45.687  29.402  34.872  1.00  0.00     0.134 A 
ATOM     87  F   UNL A   1      43.491  27.122  36.655  1.00  0.00    -0.206 F 
ATOM     88  C   UNL A   1      45.798  26.985  36.235  1.00  0.00     0.040 A 
ATOM     89  C   UNL A   1      46.901  28.724  34.985  1.00  0.00     0.040 A 
ATOM     90  F   UNL A   1      45.675  30.566  34.204  1.00  0.00    -0.206 F 
ATOM     91  C   UNL A   1      46.958  27.513  35.670  1.00  0.00     0.006 A 
ENDBRANCH  67  84
ENDBRANCH  41  42
ENDBRANCH  34  36
ENDBRANCH  33  34
ENDBRANCH  32  33
ENDBRANCH  31  32
ENDBRANCH  30  31
ENDBRANCH  28  30
ENDBRANCH   1  28
TORSDOF 21
ENDMDL
MODEL 3
REMARK VINA RESULT:     -10.8      3.999      9.777
REMARK SMILES CCCCCCNC(=O)Oc1cccc(-c2ccc([C@@H](C)C(=O)OCCOC(=O)c3ccc(-c4c5nc(c(-c6c(F)cccc6F)c6ccc([nH]6)c(-c6c(F)cccc6F)c6nc(c(-c7c(F)cccc7F)c7ccc4[nH]7)C=C6)C=C5)cc3)cc2O)c1
REMARK SMILES IDX 20 1 21 2 19 3 16 4 17 5 85 6 18 7 84 8 15 9 11 10 12 11
REMARK SMILES IDX 87 12 13 13 14 14 10 15 8 16 7 17 9 19 6 20 5 21 4 22 3 23
REMARK SMILES IDX 2 24 1 25 86 26 22 28 23 29 24 30 25 31 26 32 27 33 28 34
REMARK SMILES IDX 29 35 30 36 31 37 83 38 32 39 82 40 33 41 34 42 35 43 76 44
REMARK SMILES IDX 36 45 81 46 75 47 77 48 37 49 80 50 74 51 73 52 38 54 64 55
REMARK SMILES IDX 47 56 63 57 48 58 51 59 62 60 78 61 49 62 50 63 61 65 79 66
REMARK SMILES IDX 52 67 39 68 40 69 45 70 41 71 42 72 44 73 46 74 43 75 65 76
REMARK SMILES IDX 66 77 71 78 67 79 68 80 70 81 72 82 69 83 53 84 54 85 59 86
REMARK SMILES IDX 55 87 56 88 58 89 60 90 57 91
REMARK H PARENT 7 18 86 27 77 53 51 64
REMARK Flexibility Score: inf
ROOT
ATOM      1  C   UNL A   1      35.413  32.754  28.684  1.00  0.00     0.126 C 
ATOM      2  C   UNL A   1      36.933  32.776  28.544  1.00  0.00     0.025 C 
ENDROOT
BRANCH   1   3
ATOM      3  C   UNL A   1      34.791  31.517  28.056  1.00  0.00    -0.030 A 
ATOM      4  C   UNL A   1      33.559  29.218  26.900  1.00  0.00     0.024 A 
ATOM      5  C   UNL A   1      34.874  29.176  27.396  1.00  0.00     0.013 A 
ATOM      6  C   UNL A   1      32.877  30.442  26.997  1.00  0.00     0.123 A 
ATOM      7  C   UNL A   1      35.475  30.300  27.975  1.00  0.00     0.005 A 
ATOM      8  C   UNL A   1      33.483  31.573  27.551  1.00  0.00     0.051 A 
BRANCH   4   9
ATOM      9  C   UNL A   1      32.956  27.992  26.346  1.00  0.00    -0.011 A 
ATOM     10  C   UNL A   1      32.570  26.434  24.526  1.00  0.00     0.133 A 
ATOM     11  C   UNL A   1      31.717  25.673  25.324  1.00  0.00     0.047 A 
ATOM     12  C   UNL A   1      33.191  27.583  25.022  1.00  0.00     0.056 A 
ATOM     13  C   UNL A   1      31.493  26.054  26.641  1.00  0.00     0.004 A 
ATOM     14  C   UNL A   1      32.103  27.205  27.145  1.00  0.00     0.009 A 
BRANCH  10  15
ATOM     15  O   UNL A   1      32.651  26.062  23.173  1.00  0.00    -0.410 OA
BRANCH  15  16
ATOM     16  C   UNL A   1      33.000  27.006  22.220  1.00  0.00     0.412 C 
ATOM     17  N   UNL A   1      31.962  27.833  21.885  1.00  0.00    -0.321 N 
ATOM     18  H   UNL A   1      32.156  28.536  21.223  1.00  0.00     0.167 HD
ATOM     19  O   UNL A   1      34.097  27.123  21.689  1.00  0.00    -0.224 OA
BRANCH  17  20
ATOM     20  C   UNL A   1      30.609  27.784  22.403  1.00  0.00     0.119 C 
BRANCH  20  21
ATOM     21  C   UNL A   1      30.240  29.052  23.174  1.00  0.00     0.021 C 
BRANCH  21  22
ATOM     22  C   UNL A   1      28.777  29.491  23.031  1.00  0.00     0.002 C 
BRANCH  22  23
ATOM     23  C   UNL A   1      28.414  30.819  23.706  1.00  0.00    -0.000 C 
BRANCH  23  24
ATOM     24  C   UNL A   1      27.723  31.848  22.809  1.00  0.00    -0.003 C 
ATOM     25  C   UNL A   1      28.490  32.146  21.530  1.00  0.00     0.004 C 
ENDBRANCH  23  24
ENDBRANCH  22  23
ENDBRANCH  21  22
ENDBRANCH  20  21
ENDBRANCH  17  20
ENDBRANCH  15  16
ENDBRANCH  10  15
ENDBRANCH   4   9
BRANCH   6  26
ATOM     26  O   UNL A   1      31.574  30.606  26.604  1.00  0.00    -0.507 OA
ATOM     27  H   UNL A   1      31.367  31.186  25.898  1.00  0.00     0.293 HD
ENDBRANCH   6  26
ENDBRANCH   1   3
BRANCH   1  28
ATOM     28  C   UNL A   1      34.832  34.094  28.248  1.00  0.00     0.313 C 
ATOM     29  O   UNL A   1      35.108  34.602  27.165  1.00  0.00    -0.252 OA
BRANCH  28  30
ATOM     30  O   UNL A   1      33.964  34.631  29.144  1.00  0.00    -0.462 OA
BRANCH  30  31
ATOM     31  C   UNL A   1      33.363  35.892  28.797  1.00  0.00     0.274 C 
BRANCH  31  32
ATOM     32  C   UNL A   1      32.735  36.556  30.023  1.00  0.00     0.275 C 
BRANCH  32  33
ATOM     33  O   UNL A   1      32.413  35.581  31.031  1.00  0.00    -0.458 OA
BRANCH  33  34
ATOM     34  C   UNL A   1      32.709  35.945  32.299  1.00  0.00     0.338 C 
ATOM     35  O   UNL A   1      32.124  36.749  33.002  1.00  0.00    -0.246 OA
BRANCH  34  36
ATOM     36  C   UNL A   1      33.843  35.143  32.773  1.00  0.00     0.060 A 
ATOM     37  C   UNL A   1      35.135  35.662  32.651  1.00  0.00     0.016 A 
ATOM     38  C   UNL A   1      33.633  33.855  33.264  1.00  0.00     0.016 A 
ATOM     39  C   UNL A   1      36.232  34.890  33.022  1.00  0.00     0.010 A 
ATOM     40  C   UNL A   1      34.733  33.085  33.643  1.00  0.00     0.010 A 
ATOM     41  C   UNL A   1      36.038  33.595  33.516  1.00  0.00    -0.014 A 
BRANCH  41  42
ATOM     42  C   UNL A   1      37.193  32.738  33.866  1.00  0.00     0.031 A 
ATOM     43  C   UNL A   1      37.952  33.001  35.132  1.00  0.00     0.074 A 
ATOM     44  C   UNL A   1      37.579  31.753  33.033  1.00  0.00     0.049 A 
ATOM     45  N   UNL A   1      39.102  32.518  35.524  1.00  0.00    -0.248 NA
ATOM     46  C   UNL A   1      37.333  33.939  36.082  1.00  0.00     0.031 C 
ATOM     47  C   UNL A   1      36.887  31.369  31.803  1.00  0.00     0.029 A 
ATOM     48  N   UNL A   1      38.665  30.917  33.086  1.00  0.00    -0.354 N 
ATOM     49  C   UNL A   1      39.356  33.108  36.755  1.00  0.00     0.074 A 
ATOM     50  C   UNL A   1      38.247  33.994  37.040  1.00  0.00     0.031 C 
ATOM     51  C   UNL A   1      37.581  30.388  31.202  1.00  0.00     0.029 A 
ATOM     52  C   UNL A   1      38.789  30.117  31.976  1.00  0.00     0.049 A 
ATOM     53  H   UNL A   1      39.292  30.892  33.844  1.00  0.00     0.167 HD
ATOM     54  C   UNL A   1      40.422  32.925  37.570  1.00  0.00     0.037 A 
ATOM     55  C   UNL A   1      39.791  29.298  31.603  1.00  0.00     0.037 A 
ATOM     56  C   UNL A   1      41.518  32.038  37.278  1.00  0.00     0.049 A 
ATOM     57  C   UNL A   1      41.000  29.167  32.488  1.00  0.00     0.074 A 
ATOM     58  C   UNL A   1      42.655  31.795  38.028  1.00  0.00     0.029 A 
ATOM     59  N   UNL A   1      41.607  31.245  36.145  1.00  0.00    -0.354 N 
ATOM     60  N   UNL A   1      41.252  29.753  33.634  1.00  0.00    -0.248 NA
ATOM     61  C   UNL A   1      42.068  28.270  32.025  1.00  0.00     0.031 C 
ATOM     62  C   UNL A   1      43.447  30.874  37.333  1.00  0.00     0.029 A 
ATOM     63  C   UNL A   1      42.784  30.518  36.169  1.00  0.00     0.049 A 
ATOM     64  H   UNL A   1      40.932  31.205  35.428  1.00  0.00     0.167 HD
ATOM     65  C   UNL A   1      42.492  29.278  34.039  1.00  0.00     0.074 A 
ATOM     66  C   UNL A   1      42.940  28.351  33.021  1.00  0.00     0.031 C 
ATOM     67  C   UNL A   1      43.199  29.585  35.154  1.00  0.00     0.037 A 
BRANCH  54  68
ATOM     68  C   UNL A   1      40.465  33.717  38.840  1.00  0.00     0.057 A 
ATOM     69  C   UNL A   1      41.196  34.908  38.941  1.00  0.00     0.134 A 
ATOM     70  C   UNL A   1      39.741  33.304  39.965  1.00  0.00     0.134 A 
ATOM     71  F   UNL A   1      41.921  35.351  37.904  1.00  0.00    -0.206 F 
ATOM     72  C   UNL A   1      41.215  35.652  40.123  1.00  0.00     0.040 A 
ATOM     73  C   UNL A   1      39.736  34.050  41.144  1.00  0.00     0.040 A 
ATOM     74  F   UNL A   1      39.018  32.175  39.933  1.00  0.00    -0.206 F 
ATOM     75  C   UNL A   1      40.479  35.226  41.226  1.00  0.00     0.006 A 
ENDBRANCH  54  68
BRANCH  55  76
ATOM     76  C   UNL A   1      39.715  28.577  30.309  1.00  0.00     0.057 A 
ATOM     77  C   UNL A   1      39.121  27.313  30.216  1.00  0.00     0.134 A 
ATOM     78  C   UNL A   1      40.245  29.130  29.136  1.00  0.00     0.134 A 
ATOM     79  F   UNL A   1      38.618  26.723  31.309  1.00  0.00    -0.206 F 
ATOM     80  C   UNL A   1      39.067  26.620  29.007  1.00  0.00     0.040 A 
ATOM     81  C   UNL A   1      40.177  28.457  27.916  1.00  0.00     0.040 A 
ATOM     82  F   UNL A   1      40.827  30.337  29.159  1.00  0.00    -0.206 F 
ATOM     83  C   UNL A   1      39.592  27.194  27.850  1.00  0.00     0.006 A 
ENDBRANCH  55  76
BRANCH  67  84
ATOM     84  C   UNL A   1      44.504  28.878  35.354  1.00  0.00     0.057 A 
ATOM     85  C   UNL A   1      45.711  29.413  34.891  1.00  0.00     0.134 A 
ATOM     86  C   UNL A   1      44.558  27.677  36.073  1.00  0.00     0.134 A 
ATOM     87  F   UNL A   1      45.723  30.555  34.185  1.00  0.00    -0.206 F 
ATOM     88  C   UNL A   1      46.928  28.772  35.126  1.00  0.00     0.040 A 
ATOM     89  C   UNL A   1      45.770  27.037  36.332  1.00  0.00     0.040 A 
ATOM     90  F   UNL A   1      43.435  27.117  36.549  1.00  0.00    -0.206 F 
ATOM     91  C   UNL A   1      46.960  27.584  35.856  1.00  0.00     0.006 A 
ENDBRANCH  67  84
ENDBRANCH  41  42
ENDBRANCH  34  36
ENDBRANCH  33  34
ENDBRANCH  32  33
ENDBRANCH  31  32
ENDBRANCH  30  31
ENDBRANCH  28  30
ENDBRANCH   1  28
TORSDOF 21
ENDMDL
