MODEL 1
REMARK VINA RESULT:     -12.6      0.000      0.000
REMARK SMILES CCOc1ccc(-c2cc(Cl)cc3c2O[C@H](C(F)(F)F)C(C(=O)OCCOC(=O)c2ccc(-c4c5nc(c(-c6c(F)cccc6F)c6ccc([nH]6)c(-c6c(F)cccc6F)c6nc(c(-c7c(F)cccc7F)c7ccc4[nH]7)C=C6)C=C5)cc2)=C3)cc1
REMARK SMILES IDX 25 1 24 2 22 3 23 4 21 5 8 6 9 7 14 8 10 9 13 10 15 11 11 12
REMARK SMILES IDX 12 13 84 14 16 15 7 16 4 17 5 18 86 19 6 20 85 21 3 22 2 23
REMARK SMILES IDX 1 24 17 25 18 26 19 27 20 28 26 29 27 30 28 31 29 32 30 33
REMARK SMILES IDX 31 34 83 35 32 36 82 37 33 38 34 39 35 40 76 41 36 42 81 43
REMARK SMILES IDX 75 44 77 45 37 46 80 47 74 48 73 49 38 51 64 52 47 53 63 54
REMARK SMILES IDX 48 55 51 56 62 57 78 58 49 59 50 60 61 62 79 63 52 64 39 65
REMARK SMILES IDX 40 66 45 67 41 68 42 69 44 70 46 71 43 72 65 73 66 74 71 75
REMARK SMILES IDX 67 76 68 77 70 78 72 79 69 80 53 81 54 82 59 83 55 84 56 85
REMARK SMILES IDX 58 86 60 87 57 88
REMARK H PARENT 77 50 51 61
REMARK Flexibility Score: inf
ROOT
ATOM      1  C   UNL A   1      34.511  21.094  24.954  1.00  0.00     0.275 C 
ENDROOT
BRANCH   1   2
ATOM      2  O   UNL A   1      34.309  22.040  23.873  1.00  0.00    -0.459 OA
BRANCH   2   3
ATOM      3  C   UNL A   1      33.025  22.470  23.768  1.00  0.00     0.338 C 
ATOM      4  O   UNL A   1      32.211  22.015  22.971  1.00  0.00    -0.246 OA
BRANCH   3   5
ATOM      5  C   UNL A   1      32.649  23.541  24.731  1.00  0.00     0.087 C 
ATOM      6  C   UNL A   1      30.628  26.677  23.175  1.00  0.00     0.026 A 
ATOM      7  C   UNL A   1      31.035  26.570  21.824  1.00  0.00     0.033 A 
ATOM      8  C   UNL A   1      31.362  25.874  24.052  1.00  0.00     0.135 A 
ATOM      9  C   UNL A   1      32.195  25.908  21.412  1.00  0.00     0.042 A 
ATOM     10  C   UNL A   1      32.657  25.445  23.672  1.00  0.00     0.019 A 
ATOM     11  O   UNL A   1      30.822  25.241  25.171  1.00  0.00    -0.475 OA
ATOM     12  Cl  UNL A   1      32.575  25.575  19.775  1.00  0.00    -0.084 Cl
ATOM     13  C   UNL A   1      33.081  25.465  22.356  1.00  0.00     0.032 A 
ATOM     14  C   UNL A   1      33.430  24.631  24.628  1.00  0.00     0.027 C 
ATOM     15  C   UNL A   1      31.245  23.785  25.259  1.00  0.00     0.316 C 
BRANCH   6  16
ATOM     16  C   UNL A   1      29.718  27.836  23.446  1.00  0.00    -0.014 A 
ATOM     17  C   UNL A   1      28.306  30.306  23.008  1.00  0.00     0.119 A 
ATOM     18  C   UNL A   1      27.652  29.072  22.950  1.00  0.00     0.047 A 
ATOM     19  C   UNL A   1      29.645  30.315  23.364  1.00  0.00     0.047 A 
ATOM     20  C   UNL A   1      28.339  27.856  23.192  1.00  0.00     0.013 A 
ATOM     21  C   UNL A   1      30.330  29.104  23.586  1.00  0.00     0.013 A 
BRANCH  17  22
ATOM     22  O   UNL A   1      27.539  31.417  22.790  1.00  0.00    -0.494 OA
BRANCH  22  23
ATOM     23  C   UNL A   1      28.102  32.507  22.049  1.00  0.00     0.226 C 
ATOM     24  C   UNL A   1      28.021  32.293  20.544  1.00  0.00     0.049 C 
ENDBRANCH  22  23
ENDBRANCH  17  22
ENDBRANCH   6  16
BRANCH  15  25
ATOM     25  C   UNL A   1      31.272  23.305  26.718  1.00  0.00     0.430 C 
ATOM     26  F   UNL A   1      30.022  23.087  27.196  1.00  0.00    -0.167 F 
ATOM     27  F   UNL A   1      31.977  22.166  26.872  1.00  0.00    -0.167 F 
ATOM     28  F   UNL A   1      31.843  24.238  27.525  1.00  0.00    -0.167 F 
ENDBRANCH  15  25
ENDBRANCH   3   5
ENDBRANCH   2   3
ENDBRANCH   1   2
BRANCH   1  29
ATOM     29  C   UNL A   1      35.951  20.584  25.064  1.00  0.00     0.275 C 
BRANCH  29  30
ATOM     30  O   UNL A   1      36.842  21.589  25.583  1.00  0.00    -0.458 OA
BRANCH  30  31
ATOM     31  C   UNL A   1      38.118  21.165  25.736  1.00  0.00     0.338 C 
ATOM     32  O   UNL A   1      38.560  20.078  25.375  1.00  0.00    -0.246 OA
BRANCH  31  33
ATOM     33  C   UNL A   1      38.994  22.226  26.293  1.00  0.00     0.060 A 
ATOM     34  C   UNL A   1      38.642  23.536  25.987  1.00  0.00     0.016 A 
ATOM     35  C   UNL A   1      40.133  21.997  27.080  1.00  0.00     0.016 A 
ATOM     36  C   UNL A   1      39.388  24.595  26.505  1.00  0.00     0.010 A 
ATOM     37  C   UNL A   1      40.877  23.084  27.606  1.00  0.00     0.010 A 
ATOM     38  C   UNL A   1      40.492  24.407  27.357  1.00  0.00    -0.014 A 
BRANCH  38  39
ATOM     39  C   UNL A   1      41.181  25.643  27.885  1.00  0.00     0.031 A 
ATOM     40  C   UNL A   1      42.554  25.974  27.371  1.00  0.00     0.074 A 
ATOM     41  C   UNL A   1      40.559  26.590  28.629  1.00  0.00     0.049 A 
ATOM     42  N   UNL A   1      43.236  27.084  27.489  1.00  0.00    -0.248 NA
ATOM     43  C   UNL A   1      43.239  24.917  26.613  1.00  0.00     0.031 C 
ATOM     44  C   UNL A   1      39.219  26.473  29.164  1.00  0.00     0.029 A 
ATOM     45  N   UNL A   1      40.917  27.877  28.981  1.00  0.00    -0.354 N 
ATOM     46  C   UNL A   1      44.423  26.864  26.813  1.00  0.00     0.074 A 
ATOM     47  C   UNL A   1      44.358  25.529  26.258  1.00  0.00     0.031 C 
ATOM     48  C   UNL A   1      38.776  27.671  29.575  1.00  0.00     0.029 A 
ATOM     49  C   UNL A   1      39.884  28.615  29.531  1.00  0.00     0.049 A 
ATOM     50  H   UNL A   1      41.826  28.235  28.854  1.00  0.00     0.167 HD
ATOM     51  C   UNL A   1      45.497  27.678  26.701  1.00  0.00     0.037 A 
ATOM     52  C   UNL A   1      39.831  29.887  29.987  1.00  0.00     0.037 A 
ATOM     53  C   UNL A   1      45.633  28.960  27.336  1.00  0.00     0.049 A 
ATOM     54  C   UNL A   1      41.103  30.690  30.023  1.00  0.00     0.074 A 
ATOM     55  C   UNL A   1      46.742  29.787  27.366  1.00  0.00     0.029 A 
ATOM     56  N   UNL A   1      44.646  29.591  28.077  1.00  0.00    -0.354 N 
ATOM     57  N   UNL A   1      42.251  30.437  29.447  1.00  0.00    -0.248 NA
ATOM     58  C   UNL A   1      41.086  31.940  30.799  1.00  0.00     0.031 C 
ATOM     59  C   UNL A   1      46.450  30.884  28.181  1.00  0.00     0.029 A 
ATOM     60  C   UNL A   1      45.134  30.780  28.598  1.00  0.00     0.049 A 
ATOM     61  H   UNL A   1      43.733  29.246  28.212  1.00  0.00     0.167 HD
ATOM     62  C   UNL A   1      43.082  31.503  29.767  1.00  0.00     0.074 A 
ATOM     63  C   UNL A   1      42.302  32.417  30.573  1.00  0.00     0.031 C 
ATOM     64  C   UNL A   1      44.373  31.697  29.410  1.00  0.00     0.037 A 
BRANCH  51  65
ATOM     65  C   UNL A   1      46.667  27.119  25.956  1.00  0.00     0.057 A 
ATOM     66  C   UNL A   1      47.624  26.308  26.577  1.00  0.00     0.134 A 
ATOM     67  C   UNL A   1      46.859  27.443  24.607  1.00  0.00     0.134 A 
ATOM     68  F   UNL A   1      47.513  25.999  27.878  1.00  0.00    -0.206 F 
ATOM     69  C   UNL A   1      48.746  25.855  25.884  1.00  0.00     0.040 A 
ATOM     70  C   UNL A   1      47.964  26.977  23.899  1.00  0.00     0.040 A 
ATOM     71  F   UNL A   1      45.983  28.232  23.966  1.00  0.00    -0.206 F 
ATOM     72  C   UNL A   1      48.915  26.186  24.540  1.00  0.00     0.006 A 
ENDBRANCH  51  65
BRANCH  52  73
ATOM     73  C   UNL A   1      38.566  30.501  30.501  1.00  0.00     0.057 A 
ATOM     74  C   UNL A   1      38.187  30.357  31.846  1.00  0.00     0.134 A 
ATOM     75  C   UNL A   1      37.663  31.168  29.664  1.00  0.00     0.134 A 
ATOM     76  F   UNL A   1      38.976  29.693  32.704  1.00  0.00    -0.206 F 
ATOM     77  C   UNL A   1      36.963  30.834  32.328  1.00  0.00     0.040 A 
ATOM     78  C   UNL A   1      36.457  31.689  30.141  1.00  0.00     0.040 A 
ATOM     79  F   UNL A   1      37.933  31.322  28.359  1.00  0.00    -0.206 F 
ATOM     80  C   UNL A   1      36.097  31.511  31.474  1.00  0.00     0.006 A 
ENDBRANCH  52  73
BRANCH  64  81
ATOM     81  C   UNL A   1      45.036  32.970  29.854  1.00  0.00     0.057 A 
ATOM     82  C   UNL A   1      45.777  33.054  31.040  1.00  0.00     0.134 A 
ATOM     83  C   UNL A   1      44.972  34.117  29.052  1.00  0.00     0.134 A 
ATOM     84  F   UNL A   1      45.868  31.999  31.863  1.00  0.00    -0.206 F 
ATOM     85  C   UNL A   1      46.414  34.238  31.420  1.00  0.00     0.040 A 
ATOM     86  C   UNL A   1      45.630  35.296  29.405  1.00  0.00     0.040 A 
ATOM     87  F   UNL A   1      44.282  34.106  27.902  1.00  0.00    -0.206 F 
ATOM     88  C   UNL A   1      46.350  35.360  30.596  1.00  0.00     0.006 A 
ENDBRANCH  64  81
ENDBRANCH  38  39
ENDBRANCH  31  33
ENDBRANCH  30  31
ENDBRANCH  29  30
ENDBRANCH   1  29
TORSDOF 15
ENDMDL
MODEL 2
REMARK VINA RESULT:     -12.5      3.929      7.619
REMARK SMILES CCOc1ccc(-c2cc(Cl)cc3c2O[C@H](C(F)(F)F)C(C(=O)OCCOC(=O)c2ccc(-c4c5nc(c(-c6c(F)cccc6F)c6ccc([nH]6)c(-c6c(F)cccc6F)c6nc(c(-c7c(F)cccc7F)c7ccc4[nH]7)C=C6)C=C5)cc2)=C3)cc1
REMARK SMILES IDX 25 1 24 2 22 3 23 4 21 5 8 6 9 7 14 8 10 9 13 10 15 11 11 12
REMARK SMILES IDX 12 13 84 14 16 15 7 16 4 17 5 18 86 19 6 20 85 21 3 22 2 23
REMARK SMILES IDX 1 24 17 25 18 26 19 27 20 28 26 29 27 30 28 31 29 32 30 33
REMARK SMILES IDX 31 34 83 35 32 36 82 37 33 38 34 39 35 40 76 41 36 42 81 43
REMARK SMILES IDX 75 44 77 45 37 46 80 47 74 48 73 49 38 51 64 52 47 53 63 54
REMARK SMILES IDX 48 55 51 56 62 57 78 58 49 59 50 60 61 62 79 63 52 64 39 65
REMARK SMILES IDX 40 66 45 67 41 68 42 69 44 70 46 71 43 72 65 73 66 74 71 75
REMARK SMILES IDX 67 76 68 77 70 78 72 79 69 80 53 81 54 82 59 83 55 84 56 85
REMARK SMILES IDX 58 86 60 87 57 88
REMARK H PARENT 77 50 51 61
REMARK Flexibility Score: inf
ROOT
ATOM      1  C   UNL A   1      31.020  28.897  24.243  1.00  0.00     0.275 C 
ENDROOT
BRANCH   1   2
ATOM      2  O   UNL A   1      30.815  27.752  25.111  1.00  0.00    -0.459 OA
BRANCH   2   3
ATOM      3  C   UNL A   1      30.637  26.589  24.432  1.00  0.00     0.338 C 
ATOM      4  O   UNL A   1      29.541  26.096  24.189  1.00  0.00    -0.246 OA
BRANCH   3   5
ATOM      5  C   UNL A   1      31.894  25.948  23.960  1.00  0.00     0.087 C 
ATOM      6  C   UNL A   1      32.071  21.928  24.347  1.00  0.00     0.026 A 
ATOM      7  C   UNL A   1      31.121  21.750  25.380  1.00  0.00     0.033 A 
ATOM      8  C   UNL A   1      32.443  23.259  24.142  1.00  0.00     0.135 A 
ATOM      9  C   UNL A   1      30.744  22.759  26.270  1.00  0.00     0.042 A 
ATOM     10  C   UNL A   1      32.269  24.192  25.194  1.00  0.00     0.019 A 
ATOM     11  O   UNL A   1      32.734  23.808  22.893  1.00  0.00    -0.475 OA
ATOM     12  Cl  UNL A   1      29.436  22.625  27.368  1.00  0.00    -0.084 Cl
ATOM     13  C   UNL A   1      31.427  23.945  26.262  1.00  0.00     0.032 A 
ATOM     14  C   UNL A   1      32.703  25.583  24.971  1.00  0.00     0.027 C 
ATOM     15  C   UNL A   1      32.035  25.139  22.681  1.00  0.00     0.316 C 
BRANCH   6  16
ATOM     16  C   UNL A   1      32.718  20.656  23.889  1.00  0.00    -0.014 A 
ATOM     17  C   UNL A   1      33.492  17.883  23.887  1.00  0.00     0.119 A 
ATOM     18  C   UNL A   1      32.513  18.368  23.014  1.00  0.00     0.047 A 
ATOM     19  C   UNL A   1      34.143  18.793  24.703  1.00  0.00     0.047 A 
ATOM     20  C   UNL A   1      32.149  19.737  22.995  1.00  0.00     0.013 A 
ATOM     21  C   UNL A   1      33.766  20.152  24.695  1.00  0.00     0.013 A 
BRANCH  17  22
ATOM     22  O   UNL A   1      33.787  16.551  23.797  1.00  0.00    -0.494 OA
BRANCH  22  23
ATOM     23  C   UNL A   1      33.942  15.798  25.006  1.00  0.00     0.226 C 
ATOM     24  C   UNL A   1      32.634  15.179  25.480  1.00  0.00     0.049 C 
ENDBRANCH  22  23
ENDBRANCH  17  22
ENDBRANCH   6  16
BRANCH  15  25
ATOM     25  C   UNL A   1      32.832  26.034  21.721  1.00  0.00     0.430 C 
ATOM     26  F   UNL A   1      32.301  27.279  21.640  1.00  0.00    -0.167 F 
ATOM     27  F   UNL A   1      34.124  26.160  22.088  1.00  0.00    -0.167 F 
ATOM     28  F   UNL A   1      32.825  25.523  20.462  1.00  0.00    -0.167 F 
ENDBRANCH  15  25
ENDBRANCH   3   5
ENDBRANCH   2   3
ENDBRANCH   1   2
BRANCH   1  29
ATOM     29  C   UNL A   1      31.220  30.213  25.001  1.00  0.00     0.275 C 
BRANCH  29  30
ATOM     30  O   UNL A   1      32.473  30.243  25.711  1.00  0.00    -0.458 OA
BRANCH  30  31
ATOM     31  C   UNL A   1      32.566  31.243  26.618  1.00  0.00     0.338 C 
ATOM     32  O   UNL A   1      31.765  32.162  26.755  1.00  0.00    -0.246 OA
BRANCH  31  33
ATOM     33  C   UNL A   1      33.708  31.048  27.546  1.00  0.00     0.060 A 
ATOM     34  C   UNL A   1      34.077  29.730  27.798  1.00  0.00     0.016 A 
ATOM     35  C   UNL A   1      34.415  32.080  28.179  1.00  0.00     0.016 A 
ATOM     36  C   UNL A   1      35.166  29.459  28.626  1.00  0.00     0.010 A 
ATOM     37  C   UNL A   1      35.526  31.791  29.012  1.00  0.00     0.010 A 
ATOM     38  C   UNL A   1      35.944  30.470  29.220  1.00  0.00    -0.014 A 
BRANCH  38  39
ATOM     39  C   UNL A   1      37.126  30.038  30.055  1.00  0.00     0.031 A 
ATOM     40  C   UNL A   1      38.286  29.376  29.367  1.00  0.00     0.074 A 
ATOM     41  C   UNL A   1      37.304  30.399  31.348  1.00  0.00     0.049 A 
ATOM     42  N   UNL A   1      39.490  29.138  29.819  1.00  0.00    -0.248 NA
ATOM     43  C   UNL A   1      38.060  28.939  27.981  1.00  0.00     0.031 C 
ATOM     44  C   UNL A   1      36.323  31.092  32.157  1.00  0.00     0.029 A 
ATOM     45  N   UNL A   1      38.400  30.334  32.188  1.00  0.00    -0.354 N 
ATOM     46  C   UNL A   1      40.168  28.535  28.774  1.00  0.00     0.074 A 
ATOM     47  C   UNL A   1      39.254  28.472  27.653  1.00  0.00     0.031 C 
ATOM     48  C   UNL A   1      36.896  31.581  33.267  1.00  0.00     0.029 A 
ATOM     49  C   UNL A   1      38.250  31.054  33.361  1.00  0.00     0.049 A 
ATOM     50  H   UNL A   1      39.212  29.822  31.972  1.00  0.00     0.167 HD
ATOM     51  C   UNL A   1      41.422  28.031  28.757  1.00  0.00     0.037 A 
ATOM     52  C   UNL A   1      39.079  31.243  34.412  1.00  0.00     0.037 A 
ATOM     53  C   UNL A   1      42.308  27.978  29.888  1.00  0.00     0.049 A 
ATOM     54  C   UNL A   1      40.389  30.500  34.435  1.00  0.00     0.074 A 
ATOM     55  C   UNL A   1      43.549  27.372  29.975  1.00  0.00     0.029 A 
ATOM     56  N   UNL A   1      42.041  28.521  31.134  1.00  0.00    -0.354 N 
ATOM     57  N   UNL A   1      40.988  29.860  33.464  1.00  0.00    -0.248 NA
ATOM     58  C   UNL A   1      41.123  30.475  35.710  1.00  0.00     0.031 C 
ATOM     59  C   UNL A   1      44.002  27.487  31.292  1.00  0.00     0.029 A 
ATOM     60  C   UNL A   1      43.080  28.231  32.007  1.00  0.00     0.049 A 
ATOM     61  H   UNL A   1      41.235  29.036  31.366  1.00  0.00     0.167 HD
ATOM     62  C   UNL A   1      42.177  29.382  33.998  1.00  0.00     0.074 A 
ATOM     63  C   UNL A   1      42.225  29.819  35.376  1.00  0.00     0.031 C 
ATOM     64  C   UNL A   1      43.139  28.653  33.386  1.00  0.00     0.037 A 
BRANCH  51  65
ATOM     65  C   UNL A   1      41.845  27.373  27.483  1.00  0.00     0.057 A 
ATOM     66  C   UNL A   1      41.740  25.990  27.291  1.00  0.00     0.134 A 
ATOM     67  C   UNL A   1      42.415  28.135  26.455  1.00  0.00     0.134 A 
ATOM     68  F   UNL A   1      41.240  25.205  28.257  1.00  0.00    -0.206 F 
ATOM     69  C   UNL A   1      42.205  25.385  26.123  1.00  0.00     0.040 A 
ATOM     70  C   UNL A   1      42.863  27.544  25.276  1.00  0.00     0.040 A 
ATOM     71  F   UNL A   1      42.558  29.462  26.592  1.00  0.00    -0.206 F 
ATOM     72  C   UNL A   1      42.764  26.165  25.111  1.00  0.00     0.006 A 
ENDBRANCH  51  65
BRANCH  52  73
ATOM     73  C   UNL A   1      38.717  32.120  35.570  1.00  0.00     0.057 A 
ATOM     74  C   UNL A   1      39.066  33.480  35.583  1.00  0.00     0.134 A 
ATOM     75  C   UNL A   1      38.098  31.621  36.723  1.00  0.00     0.134 A 
ATOM     76  F   UNL A   1      39.702  34.026  34.535  1.00  0.00    -0.206 F 
ATOM     77  C   UNL A   1      38.829  34.298  36.694  1.00  0.00     0.040 A 
ATOM     78  C   UNL A   1      37.815  32.435  37.822  1.00  0.00     0.040 A 
ATOM     79  F   UNL A   1      37.760  30.326  36.805  1.00  0.00    -0.206 F 
ATOM     80  C   UNL A   1      38.192  33.776  37.816  1.00  0.00     0.006 A 
ENDBRANCH  52  73
BRANCH  64  81
ATOM     81  C   UNL A   1      44.361  28.298  34.184  1.00  0.00     0.057 A 
ATOM     82  C   UNL A   1      44.468  27.096  34.896  1.00  0.00     0.134 A 
ATOM     83  C   UNL A   1      45.470  29.156  34.197  1.00  0.00     0.134 A 
ATOM     84  F   UNL A   1      43.440  26.236  34.939  1.00  0.00    -0.206 F 
ATOM     85  C   UNL A   1      45.626  26.770  35.607  1.00  0.00     0.040 A 
ATOM     86  C   UNL A   1      46.643  28.826  34.876  1.00  0.00     0.040 A 
ATOM     87  F   UNL A   1      45.436  30.321  33.534  1.00  0.00    -0.206 F 
ATOM     88  C   UNL A   1      46.721  27.632  35.588  1.00  0.00     0.006 A 
ENDBRANCH  64  81
ENDBRANCH  38  39
ENDBRANCH  31  33
ENDBRANCH  30  31
ENDBRANCH  29  30
ENDBRANCH   1  29
TORSDOF 15
ENDMDL
MODEL 3
REMARK VINA RESULT:     -12.5      3.799      9.158
REMARK SMILES CCOc1ccc(-c2cc(Cl)cc3c2O[C@H](C(F)(F)F)C(C(=O)OCCOC(=O)c2ccc(-c4c5nc(c(-c6c(F)cccc6F)c6ccc([nH]6)c(-c6c(F)cccc6F)c6nc(c(-c7c(F)cccc7F)c7ccc4[nH]7)C=C6)C=C5)cc2)=C3)cc1
REMARK SMILES IDX 25 1 24 2 22 3 23 4 21 5 8 6 9 7 14 8 10 9 13 10 15 11 11 12
REMARK SMILES IDX 12 13 84 14 16 15 7 16 4 17 5 18 86 19 6 20 85 21 3 22 2 23
REMARK SMILES IDX 1 24 17 25 18 26 19 27 20 28 26 29 27 30 28 31 29 32 30 33
REMARK SMILES IDX 31 34 83 35 32 36 82 37 33 38 34 39 35 40 76 41 36 42 81 43
REMARK SMILES IDX 75 44 77 45 37 46 80 47 74 48 73 49 38 51 64 52 47 53 63 54
REMARK SMILES IDX 48 55 51 56 62 57 78 58 49 59 50 60 61 62 79 63 52 64 39 65
REMARK SMILES IDX 40 66 45 67 41 68 42 69 44 70 46 71 43 72 65 73 66 74 71 75
REMARK SMILES IDX 67 76 68 77 70 78 72 79 69 80 53 81 54 82 59 83 55 84 56 85
REMARK SMILES IDX 58 86 60 87 57 88
REMARK H PARENT 77 50 51 61
REMARK Flexibility Score: inf
ROOT
ATOM      1  C   UNL A   1      31.189  29.005  24.538  1.00  0.00     0.275 C 
ENDROOT
BRANCH   1   2
ATOM      2  O   UNL A   1      31.022  27.801  25.330  1.00  0.00    -0.459 OA
BRANCH   2   3
ATOM      3  C   UNL A   1      30.823  26.687  24.579  1.00  0.00     0.338 C 
ATOM      4  O   UNL A   1      29.718  26.253  24.273  1.00  0.00    -0.246 OA
BRANCH   3   5
ATOM      5  C   UNL A   1      32.071  26.024  24.111  1.00  0.00     0.087 C 
ATOM      6  C   UNL A   1      32.145  21.995  24.422  1.00  0.00     0.026 A 
ATOM      7  C   UNL A   1      31.178  21.821  25.440  1.00  0.00     0.033 A 
ATOM      8  C   UNL A   1      32.551  23.320  24.247  1.00  0.00     0.135 A 
ATOM      9  C   UNL A   1      30.814  22.821  26.344  1.00  0.00     0.042 A 
ATOM     10  C   UNL A   1      32.386  24.236  25.315  1.00  0.00     0.019 A 
ATOM     11  O   UNL A   1      32.872  23.884  23.013  1.00  0.00    -0.475 OA
ATOM     12  Cl  UNL A   1      29.489  22.698  27.423  1.00  0.00    -0.084 Cl
ATOM     13  C   UNL A   1      31.525  23.990  26.368  1.00  0.00     0.032 A 
ATOM     14  C   UNL A   1      32.857  25.620  25.124  1.00  0.00     0.027 C 
ATOM     15  C   UNL A   1      32.208  25.237  22.818  1.00  0.00     0.316 C 
BRANCH   6  16
ATOM     16  C   UNL A   1      32.766  20.716  23.948  1.00  0.00    -0.014 A 
ATOM     17  C   UNL A   1      33.564  17.949  23.956  1.00  0.00     0.119 A 
ATOM     18  C   UNL A   1      32.517  18.405  23.149  1.00  0.00     0.047 A 
ATOM     19  C   UNL A   1      34.266  18.885  24.696  1.00  0.00     0.047 A 
ATOM     20  C   UNL A   1      32.140  19.771  23.124  1.00  0.00     0.013 A 
ATOM     21  C   UNL A   1      33.878  20.240  24.684  1.00  0.00     0.013 A 
BRANCH  17  22
ATOM     22  O   UNL A   1      33.863  16.618  23.876  1.00  0.00    -0.494 OA
BRANCH  22  23
ATOM     23  C   UNL A   1      33.927  15.854  25.088  1.00  0.00     0.226 C 
ATOM     24  C   UNL A   1      32.564  15.329  25.519  1.00  0.00     0.049 C 
ENDBRANCH  22  23
ENDBRANCH  17  22
ENDBRANCH   6  16
BRANCH  15  25
ATOM     25  C   UNL A   1      33.038  26.130  21.885  1.00  0.00     0.430 C 
ATOM     26  F   UNL A   1      32.868  25.790  20.584  1.00  0.00    -0.167 F 
ATOM     27  F   UNL A   1      32.730  27.437  22.014  1.00  0.00    -0.167 F 
ATOM     28  F   UNL A   1      34.366  26.008  22.152  1.00  0.00    -0.167 F 
ENDBRANCH  15  25
ENDBRANCH   3   5
ENDBRANCH   2   3
ENDBRANCH   1   2
BRANCH   1  29
ATOM     29  C   UNL A   1      31.393  30.270  25.378  1.00  0.00     0.275 C 
BRANCH  29  30
ATOM     30  O   UNL A   1      32.620  30.227  26.131  1.00  0.00    -0.458 OA
BRANCH  30  31
ATOM     31  C   UNL A   1      32.837  31.326  26.890  1.00  0.00     0.338 C 
ATOM     32  O   UNL A   1      32.025  32.222  27.101  1.00  0.00    -0.246 OA
BRANCH  31  33
ATOM     33  C   UNL A   1      34.157  31.282  27.568  1.00  0.00     0.060 A 
ATOM     34  C   UNL A   1      34.596  30.028  27.977  1.00  0.00     0.016 A 
ATOM     35  C   UNL A   1      34.965  32.399  27.826  1.00  0.00     0.016 A 
ATOM     36  C   UNL A   1      35.844  29.892  28.585  1.00  0.00     0.010 A 
ATOM     37  C   UNL A   1      36.235  32.246  28.438  1.00  0.00     0.010 A 
ATOM     38  C   UNL A   1      36.714  30.979  28.794  1.00  0.00    -0.014 A 
BRANCH  38  39
ATOM     39  C   UNL A   1      38.057  30.684  29.419  1.00  0.00     0.031 A 
ATOM     40  C   UNL A   1      38.277  31.061  30.857  1.00  0.00     0.074 A 
ATOM     41  C   UNL A   1      39.003  29.909  28.837  1.00  0.00     0.049 A 
ATOM     42  N   UNL A   1      39.238  30.703  31.668  1.00  0.00    -0.248 NA
ATOM     43  C   UNL A   1      37.271  31.949  31.460  1.00  0.00     0.031 C 
ATOM     44  C   UNL A   1      38.938  29.404  27.481  1.00  0.00     0.029 A 
ATOM     45  N   UNL A   1      40.151  29.319  29.327  1.00  0.00    -0.354 N 
ATOM     46  C   UNL A   1      38.949  31.310  32.878  1.00  0.00     0.074 A 
ATOM     47  C   UNL A   1      37.706  32.032  32.707  1.00  0.00     0.031 C 
ATOM     48  C   UNL A   1      39.844  28.430  27.304  1.00  0.00     0.029 A 
ATOM     49  C   UNL A   1      40.708  28.381  28.475  1.00  0.00     0.049 A 
ATOM     50  H   UNL A   1      40.539  29.546  30.204  1.00  0.00     0.167 HD
ATOM     51  C   UNL A   1      39.674  31.311  34.020  1.00  0.00     0.037 A 
ATOM     52  C   UNL A   1      41.805  27.599  28.592  1.00  0.00     0.037 A 
ATOM     53  C   UNL A   1      40.963  30.697  34.181  1.00  0.00     0.049 A 
ATOM     54  C   UNL A   1      42.689  27.778  29.796  1.00  0.00     0.074 A 
ATOM     55  C   UNL A   1      41.811  30.762  35.273  1.00  0.00     0.029 A 
ATOM     56  N   UNL A   1      41.609  29.935  33.220  1.00  0.00    -0.354 N 
ATOM     57  N   UNL A   1      42.443  28.423  30.908  1.00  0.00    -0.248 NA
ATOM     58  C   UNL A   1      44.019  27.151  29.751  1.00  0.00     0.031 C 
ATOM     59  C   UNL A   1      42.997  30.098  34.948  1.00  0.00     0.029 A 
ATOM     60  C   UNL A   1      42.860  29.555  33.682  1.00  0.00     0.049 A 
ATOM     61  H   UNL A   1      41.234  29.699  32.341  1.00  0.00     0.167 HD
ATOM     62  C   UNL A   1      43.569  28.258  31.703  1.00  0.00     0.074 A 
ATOM     63  C   UNL A   1      44.495  27.436  30.954  1.00  0.00     0.031 C 
ATOM     64  C   UNL A   1      43.798  28.743  32.946  1.00  0.00     0.037 A 
BRANCH  51  65
ATOM     65  C   UNL A   1      39.121  32.127  35.144  1.00  0.00     0.057 A 
ATOM     66  C   UNL A   1      39.355  33.504  35.247  1.00  0.00     0.134 A 
ATOM     67  C   UNL A   1      38.388  31.509  36.165  1.00  0.00     0.134 A 
ATOM     68  F   UNL A   1      40.086  34.141  34.319  1.00  0.00    -0.206 F 
ATOM     69  C   UNL A   1      38.891  34.235  36.341  1.00  0.00     0.040 A 
ATOM     70  C   UNL A   1      37.902  32.234  37.251  1.00  0.00     0.040 A 
ATOM     71  F   UNL A   1      38.150  30.189  36.128  1.00  0.00    -0.206 F 
ATOM     72  C   UNL A   1      38.159  33.600  37.343  1.00  0.00     0.006 A 
ENDBRANCH  51  65
BRANCH  52  73
ATOM     73  C   UNL A   1      42.192  26.603  27.544  1.00  0.00     0.057 A 
ATOM     74  C   UNL A   1      42.947  26.988  26.423  1.00  0.00     0.134 A 
ATOM     75  C   UNL A   1      41.757  25.272  27.578  1.00  0.00     0.134 A 
ATOM     76  F   UNL A   1      43.365  28.256  26.293  1.00  0.00    -0.206 F 
ATOM     77  C   UNL A   1      43.237  26.100  25.381  1.00  0.00     0.040 A 
ATOM     78  C   UNL A   1      42.077  24.362  26.566  1.00  0.00     0.040 A 
ATOM     79  F   UNL A   1      41.006  24.830  28.597  1.00  0.00    -0.206 F 
ATOM     80  C   UNL A   1      42.807  24.778  25.457  1.00  0.00     0.006 A 
ENDBRANCH  52  73
BRANCH  64  81
ATOM     81  C   UNL A   1      45.094  28.376  33.611  1.00  0.00     0.057 A 
ATOM     82  C   UNL A   1      46.244  29.167  33.498  1.00  0.00     0.134 A 
ATOM     83  C   UNL A   1      45.174  27.235  34.421  1.00  0.00     0.134 A 
ATOM     84  F   UNL A   1      46.244  30.265  32.726  1.00  0.00    -0.206 F 
ATOM     85  C   UNL A   1      47.432  28.826  34.150  1.00  0.00     0.040 A 
ATOM     86  C   UNL A   1      46.344  26.902  35.104  1.00  0.00     0.040 A 
ATOM     87  F   UNL A   1      44.109  26.435  34.576  1.00  0.00    -0.206 F 
ATOM     88  C   UNL A   1      47.480  27.696  34.965  1.00  0.00     0.006 A 
ENDBRANCH  64  81
ENDBRANCH  38  39
ENDBRANCH  31  33
ENDBRANCH  30  31
ENDBRANCH  29  30
ENDBRANCH   1  29
TORSDOF 15
ENDMDL
