MODEL 1
REMARK VINA RESULT:     -13.0      0.000      0.000
REMARK SMILES Cc1c(-c2nn(-c3ccccc3)cc2/C=N/O)nnn1-c1ccc(C(=O)OCCOC(=O)c2ccc(-c3c4nc(c(-c5c(F)cccc5F)c5ccc([nH]5)c(-c5c(F)cccc5F)c5nc(c(-c6c(F)cccc6F)c6ccc3[nH]6)C=C5)C=C4)cc2)cc1
REMARK SMILES IDX 28 1 27 2 25 3 26 4 24 5 21 6 22 7 88 8 23 9 87 10 20 11
REMARK SMILES IDX 1 12 2 13 3 14 18 15 19 16 4 17 5 18 14 19 6 20 13 21 15 22
REMARK SMILES IDX 16 23 17 24 7 26 8 27 12 28 9 29 11 30 10 31 29 32 30 33
REMARK SMILES IDX 31 34 32 35 33 36 34 37 86 38 35 39 85 40 36 41 37 42 38 43
REMARK SMILES IDX 79 44 39 45 84 46 78 47 80 48 40 49 83 50 77 51 76 52 41 54
REMARK SMILES IDX 67 55 50 56 66 57 51 58 54 59 65 60 81 61 52 62 53 63 64 65
REMARK SMILES IDX 82 66 55 67 42 68 43 69 48 70 44 71 45 72 47 73 49 74 46 75
REMARK SMILES IDX 68 76 69 77 74 78 70 79 71 80 73 81 75 82 72 83 56 84 57 85
REMARK SMILES IDX 62 86 58 87 59 88 61 89 63 90 60 91
REMARK H PARENT 17 25 80 53 54 64
REMARK Flexibility Score: inf
ROOT
ATOM      1  C   UNL A   1      42.822  18.233  26.164  1.00  0.00     0.275 C 
ENDROOT
BRANCH   1   2
ATOM      2  O   UNL A   1      41.661  18.987  25.763  1.00  0.00    -0.458 OA
BRANCH   2   3
ATOM      3  C   UNL A   1      41.315  20.012  26.585  1.00  0.00     0.338 C 
ATOM      4  O   UNL A   1      41.982  20.443  27.518  1.00  0.00    -0.246 OA
BRANCH   3   5
ATOM      5  C   UNL A   1      40.042  20.646  26.160  1.00  0.00     0.060 A 
ATOM      6  C   UNL A   1      37.733  21.805  25.092  1.00  0.00     0.067 A 
ATOM      7  C   UNL A   1      37.946  20.431  24.947  1.00  0.00     0.029 A 
ATOM      8  C   UNL A   1      38.619  22.581  25.854  1.00  0.00     0.029 A 
ATOM      9  C   UNL A   1      39.118  19.862  25.451  1.00  0.00     0.018 A 
ATOM     10  C   UNL A   1      39.763  21.993  26.409  1.00  0.00     0.018 A 
BRANCH   6  11
ATOM     11  N   UNL A   1      36.634  22.397  24.425  1.00  0.00    -0.217 N 
ATOM     12  C   UNL A   1      34.878  22.416  26.278  1.00  0.00     0.069 C 
ATOM     13  C   UNL A   1      35.345  22.609  24.885  1.00  0.00     0.071 A 
ATOM     14  C   UNL A   1      34.699  23.135  23.782  1.00  0.00     0.137 A 
ATOM     15  N   UNL A   1      35.584  23.327  22.764  1.00  0.00    -0.128 NA
ATOM     16  N   UNL A   1      36.782  22.945  23.193  1.00  0.00    -0.061 NA
BRANCH  14  17
ATOM     17  C   UNL A   1      33.295  23.517  23.644  1.00  0.00     0.124 A 
ATOM     18  N   UNL A   1      32.912  24.767  23.342  1.00  0.00    -0.165 NA
ATOM     19  C   UNL A   1      32.195  22.649  23.848  1.00  0.00     0.044 A 
ATOM     20  N   UNL A   1      31.566  24.739  23.460  1.00  0.00    -0.240 N 
ATOM     21  C   UNL A   1      31.098  23.486  23.779  1.00  0.00     0.125 A 
BRANCH  19  22
ATOM     22  C   UNL A   1      32.131  21.228  24.083  1.00  0.00     0.166 C 
ATOM     23  N   UNL A   1      31.908  20.781  25.274  1.00  0.00    -0.097 NA
BRANCH  23  24
ATOM     24  O   UNL A   1      31.944  19.383  25.262  1.00  0.00    -0.411 OA
ATOM     25  H   UNL A   1      31.828  18.918  24.456  1.00  0.00     0.330 HD
ENDBRANCH  23  24
ENDBRANCH  19  22
BRANCH  20  26
ATOM     26  C   UNL A   1      30.794  25.911  23.304  1.00  0.00     0.065 A 
ATOM     27  C   UNL A   1      29.501  25.961  23.838  1.00  0.00     0.028 A 
ATOM     28  C   UNL A   1      31.320  27.007  22.609  1.00  0.00     0.028 A 
ATOM     29  C   UNL A   1      28.745  27.127  23.699  1.00  0.00     0.002 A 
ATOM     30  C   UNL A   1      30.531  28.144  22.423  1.00  0.00     0.002 A 
ATOM     31  C   UNL A   1      29.252  28.208  22.978  1.00  0.00     0.000 A 
ENDBRANCH  20  26
ENDBRANCH  14  17
ENDBRANCH   6  11
ENDBRANCH   3   5
ENDBRANCH   2   3
ENDBRANCH   1   2
BRANCH   1  32
ATOM     32  C   UNL A   1      44.015  18.489  25.251  1.00  0.00     0.275 C 
BRANCH  32  33
ATOM     33  O   UNL A   1      44.501  19.819  25.408  1.00  0.00    -0.458 OA
BRANCH  33  34
ATOM     34  C   UNL A   1      44.570  20.530  24.261  1.00  0.00     0.338 C 
ATOM     35  O   UNL A   1      44.579  20.102  23.119  1.00  0.00    -0.246 OA
BRANCH  34  36
ATOM     36  C   UNL A   1      44.912  21.915  24.580  1.00  0.00     0.060 A 
ATOM     37  C   UNL A   1      45.904  22.104  25.547  1.00  0.00     0.016 A 
ATOM     38  C   UNL A   1      43.975  22.903  24.258  1.00  0.00     0.016 A 
ATOM     39  C   UNL A   1      45.786  23.189  26.382  1.00  0.00     0.010 A 
ATOM     40  C   UNL A   1      43.854  23.977  25.096  1.00  0.00     0.010 A 
ATOM     41  C   UNL A   1      44.694  24.047  26.204  1.00  0.00    -0.014 A 
BRANCH  41  42
ATOM     42  C   UNL A   1      44.537  25.183  27.088  1.00  0.00     0.031 A 
ATOM     43  C   UNL A   1      45.670  26.128  26.901  1.00  0.00     0.074 A 
ATOM     44  C   UNL A   1      43.406  25.349  27.810  1.00  0.00     0.049 A 
ATOM     45  N   UNL A   1      46.566  26.472  27.763  1.00  0.00    -0.248 NA
ATOM     46  C   UNL A   1      45.997  26.547  25.518  1.00  0.00     0.031 C 
ATOM     47  C   UNL A   1      42.198  24.511  27.794  1.00  0.00     0.029 A 
ATOM     48  N   UNL A   1      43.039  26.379  28.629  1.00  0.00    -0.354 N 
ATOM     49  C   UNL A   1      47.400  27.361  27.090  1.00  0.00     0.074 A 
ATOM     50  C   UNL A   1      47.160  27.173  25.691  1.00  0.00     0.031 C 
ATOM     51  C   UNL A   1      41.164  25.188  28.348  1.00  0.00     0.029 A 
ATOM     52  C   UNL A   1      41.660  26.439  28.882  1.00  0.00     0.049 A 
ATOM     53  H   UNL A   1      43.684  27.020  29.008  1.00  0.00     0.167 HD
ATOM     54  C   UNL A   1      47.942  28.417  27.754  1.00  0.00     0.037 A 
ATOM     55  C   UNL A   1      41.003  27.503  29.422  1.00  0.00     0.037 A 
ATOM     56  C   UNL A   1      47.943  28.162  29.172  1.00  0.00     0.049 A 
ATOM     57  C   UNL A   1      42.034  28.347  30.080  1.00  0.00     0.074 A 
ATOM     58  C   UNL A   1      48.558  27.246  29.999  1.00  0.00     0.029 A 
ATOM     59  N   UNL A   1      46.872  28.661  29.868  1.00  0.00    -0.354 N 
ATOM     60  N   UNL A   1      42.741  27.951  31.104  1.00  0.00    -0.248 NA
ATOM     61  C   UNL A   1      42.634  29.389  29.262  1.00  0.00     0.031 C 
ATOM     62  C   UNL A   1      47.583  26.930  30.989  1.00  0.00     0.029 A 
ATOM     63  C   UNL A   1      46.462  27.738  30.788  1.00  0.00     0.049 A 
ATOM     64  H   UNL A   1      46.462  29.544  29.726  1.00  0.00     0.167 HD
ATOM     65  C   UNL A   1      44.037  28.352  30.807  1.00  0.00     0.074 A 
ATOM     66  C   UNL A   1      43.898  29.271  29.675  1.00  0.00     0.031 C 
ATOM     67  C   UNL A   1      45.113  27.675  31.306  1.00  0.00     0.037 A 
BRANCH  54  68
ATOM     68  C   UNL A   1      47.976  29.821  27.189  1.00  0.00     0.057 A 
ATOM     69  C   UNL A   1      49.181  30.541  27.259  1.00  0.00     0.134 A 
ATOM     70  C   UNL A   1      46.839  30.598  26.875  1.00  0.00     0.134 A 
ATOM     71  F   UNL A   1      50.333  29.926  27.565  1.00  0.00    -0.206 F 
ATOM     72  C   UNL A   1      49.236  31.933  27.110  1.00  0.00     0.040 A 
ATOM     73  C   UNL A   1      46.890  31.980  26.677  1.00  0.00     0.040 A 
ATOM     74  F   UNL A   1      45.599  30.099  26.838  1.00  0.00    -0.206 F 
ATOM     75  C   UNL A   1      48.085  32.658  26.826  1.00  0.00     0.006 A 
ENDBRANCH  54  68
BRANCH  55  76
ATOM     76  C   UNL A   1      39.672  28.046  29.045  1.00  0.00     0.057 A 
ATOM     77  C   UNL A   1      38.630  28.183  29.977  1.00  0.00     0.134 A 
ATOM     78  C   UNL A   1      39.482  28.710  27.819  1.00  0.00     0.134 A 
ATOM     79  F   UNL A   1      38.743  27.650  31.203  1.00  0.00    -0.206 F 
ATOM     80  C   UNL A   1      37.469  28.926  29.703  1.00  0.00     0.040 A 
ATOM     81  C   UNL A   1      38.330  29.453  27.533  1.00  0.00     0.040 A 
ATOM     82  F   UNL A   1      40.453  28.736  26.895  1.00  0.00    -0.206 F 
ATOM     83  C   UNL A   1      37.319  29.568  28.478  1.00  0.00     0.006 A 
ENDBRANCH  55  76
BRANCH  67  84
ATOM     84  C   UNL A   1      44.873  26.655  32.387  1.00  0.00     0.057 A 
ATOM     85  C   UNL A   1      44.666  25.284  32.166  1.00  0.00     0.134 A 
ATOM     86  C   UNL A   1      45.074  27.060  33.711  1.00  0.00     0.134 A 
ATOM     87  F   UNL A   1      44.538  24.793  30.926  1.00  0.00    -0.206 F 
ATOM     88  C   UNL A   1      44.656  24.364  33.222  1.00  0.00     0.040 A 
ATOM     89  C   UNL A   1      45.099  26.150  34.767  1.00  0.00     0.040 A 
ATOM     90  F   UNL A   1      45.325  28.350  33.987  1.00  0.00    -0.206 F 
ATOM     91  C   UNL A   1      44.887  24.797  34.526  1.00  0.00     0.006 A 
ENDBRANCH  67  84
ENDBRANCH  41  42
ENDBRANCH  34  36
ENDBRANCH  33  34
ENDBRANCH  32  33
ENDBRANCH   1  32
TORSDOF 16
ENDMDL
MODEL 2
REMARK VINA RESULT:     -12.4      3.701      7.494
REMARK SMILES Cc1c(-c2nn(-c3ccccc3)cc2/C=N/O)nnn1-c1ccc(C(=O)OCCOC(=O)c2ccc(-c3c4nc(c(-c5c(F)cccc5F)c5ccc([nH]5)c(-c5c(F)cccc5F)c5nc(c(-c6c(F)cccc6F)c6ccc3[nH]6)C=C5)C=C4)cc2)cc1
REMARK SMILES IDX 28 1 27 2 25 3 26 4 24 5 21 6 22 7 88 8 23 9 87 10 20 11
REMARK SMILES IDX 1 12 2 13 3 14 18 15 19 16 4 17 5 18 14 19 6 20 13 21 15 22
REMARK SMILES IDX 16 23 17 24 7 26 8 27 12 28 9 29 11 30 10 31 29 32 30 33
REMARK SMILES IDX 31 34 32 35 33 36 34 37 86 38 35 39 85 40 36 41 37 42 38 43
REMARK SMILES IDX 79 44 39 45 84 46 78 47 80 48 40 49 83 50 77 51 76 52 41 54
REMARK SMILES IDX 67 55 50 56 66 57 51 58 54 59 65 60 81 61 52 62 53 63 64 65
REMARK SMILES IDX 82 66 55 67 42 68 43 69 48 70 44 71 45 72 47 73 49 74 46 75
REMARK SMILES IDX 68 76 69 77 74 78 70 79 71 80 73 81 75 82 72 83 56 84 57 85
REMARK SMILES IDX 62 86 58 87 59 88 61 89 63 90 60 91
REMARK H PARENT 17 25 80 53 54 64
REMARK Flexibility Score: inf
ROOT
ATOM      1  C   UNL A   1      41.817  22.139  26.124  1.00  0.00     0.275 C 
ENDROOT
BRANCH   1   2
ATOM      2  O   UNL A   1      40.492  22.023  26.678  1.00  0.00    -0.458 OA
BRANCH   2   3
ATOM      3  C   UNL A   1      39.655  21.175  26.025  1.00  0.00     0.338 C 
ATOM      4  O   UNL A   1      39.872  19.992  25.786  1.00  0.00    -0.246 OA
BRANCH   3   5
ATOM      5  C   UNL A   1      38.359  21.824  25.705  1.00  0.00     0.060 A 
ATOM      6  C   UNL A   1      35.974  22.992  24.831  1.00  0.00     0.067 A 
ATOM      7  C   UNL A   1      36.137  21.605  24.744  1.00  0.00     0.029 A 
ATOM      8  C   UNL A   1      36.959  23.781  25.445  1.00  0.00     0.029 A 
ATOM      9  C   UNL A   1      37.343  21.030  25.150  1.00  0.00     0.018 A 
ATOM     10  C   UNL A   1      38.143  23.190  25.904  1.00  0.00     0.018 A 
BRANCH   6  11
ATOM     11  N   UNL A   1      34.823  23.580  24.254  1.00  0.00    -0.217 N 
ATOM     12  C   UNL A   1      33.900  24.906  26.230  1.00  0.00     0.069 C 
ATOM     13  C   UNL A   1      33.848  24.359  24.855  1.00  0.00     0.071 A 
ATOM     14  C   UNL A   1      32.940  24.569  23.834  1.00  0.00     0.137 A 
ATOM     15  N   UNL A   1      33.409  24.039  22.669  1.00  0.00    -0.128 NA
ATOM     16  N   UNL A   1      34.598  23.503  22.920  1.00  0.00    -0.061 NA
BRANCH  14  17
ATOM     17  C   UNL A   1      31.669  25.289  23.879  1.00  0.00     0.124 A 
ATOM     18  N   UNL A   1      31.409  26.347  23.096  1.00  0.00    -0.165 NA
ATOM     19  C   UNL A   1      30.601  24.993  24.759  1.00  0.00     0.044 A 
ATOM     20  N   UNL A   1      30.220  26.808  23.544  1.00  0.00    -0.240 N 
ATOM     21  C   UNL A   1      29.709  26.028  24.555  1.00  0.00     0.125 A 
BRANCH  19  22
ATOM     22  C   UNL A   1      30.400  23.906  25.684  1.00  0.00     0.166 C 
ATOM     23  N   UNL A   1      30.647  24.074  26.941  1.00  0.00    -0.097 NA
BRANCH  23  24
ATOM     24  O   UNL A   1      30.429  22.875  27.625  1.00  0.00    -0.411 OA
ATOM     25  H   UNL A   1      30.013  22.156  27.190  1.00  0.00     0.330 HD
ENDBRANCH  23  24
ENDBRANCH  19  22
BRANCH  20  26
ATOM     26  C   UNL A   1      29.647  27.986  23.017  1.00  0.00     0.065 A 
ATOM     27  C   UNL A   1      28.267  28.190  23.129  1.00  0.00     0.028 A 
ATOM     28  C   UNL A   1      30.457  28.933  22.380  1.00  0.00     0.028 A 
ATOM     29  C   UNL A   1      27.703  29.364  22.625  1.00  0.00     0.002 A 
ATOM     30  C   UNL A   1      29.873  30.073  21.824  1.00  0.00     0.002 A 
ATOM     31  C   UNL A   1      28.502  30.293  21.959  1.00  0.00     0.000 A 
ENDBRANCH  20  26
ENDBRANCH  14  17
ENDBRANCH   6  11
ENDBRANCH   3   5
ENDBRANCH   2   3
ENDBRANCH   1   2
BRANCH   1  32
ATOM     32  C   UNL A   1      42.307  23.582  26.108  1.00  0.00     0.275 C 
BRANCH  32  33
ATOM     33  O   UNL A   1      41.216  24.492  26.215  1.00  0.00    -0.458 OA
BRANCH  33  34
ATOM     34  C   UNL A   1      41.453  25.715  25.693  1.00  0.00     0.338 C 
ATOM     35  O   UNL A   1      42.292  26.019  24.860  1.00  0.00    -0.246 OA
BRANCH  34  36
ATOM     36  C   UNL A   1      40.728  26.715  26.475  1.00  0.00     0.060 A 
ATOM     37  C   UNL A   1      41.045  28.052  26.222  1.00  0.00     0.016 A 
ATOM     38  C   UNL A   1      40.132  26.294  27.669  1.00  0.00     0.016 A 
ATOM     39  C   UNL A   1      41.010  28.930  27.279  1.00  0.00     0.010 A 
ATOM     40  C   UNL A   1      40.108  27.166  28.722  1.00  0.00     0.010 A 
ATOM     41  C   UNL A   1      40.644  28.438  28.538  1.00  0.00    -0.014 A 
BRANCH  41  42
ATOM     42  C   UNL A   1      40.624  29.339  29.670  1.00  0.00     0.031 A 
ATOM     43  C   UNL A   1      39.390  30.168  29.633  1.00  0.00     0.074 A 
ATOM     44  C   UNL A   1      41.550  29.242  30.651  1.00  0.00     0.049 A 
ATOM     45  N   UNL A   1      39.300  31.449  29.506  1.00  0.00    -0.248 NA
ATOM     46  C   UNL A   1      38.095  29.470  29.462  1.00  0.00     0.031 C 
ATOM     47  C   UNL A   1      42.628  28.249  30.775  1.00  0.00     0.029 A 
ATOM     48  N   UNL A   1      41.655  29.937  31.822  1.00  0.00    -0.354 N 
ATOM     49  C   UNL A   1      37.934  31.722  29.515  1.00  0.00     0.074 A 
ATOM     50  C   UNL A   1      37.264  30.487  29.240  1.00  0.00     0.031 C 
ATOM     51  C   UNL A   1      43.098  28.240  32.044  1.00  0.00     0.029 A 
ATOM     52  C   UNL A   1      42.463  29.311  32.783  1.00  0.00     0.049 A 
ATOM     53  H   UNL A   1      41.204  30.799  31.977  1.00  0.00     0.167 HD
ATOM     54  C   UNL A   1      37.474  32.858  30.105  1.00  0.00     0.037 A 
ATOM     55  C   UNL A   1      42.512  29.636  34.105  1.00  0.00     0.037 A 
ATOM     56  C   UNL A   1      38.534  33.830  30.201  1.00  0.00     0.049 A 
ATOM     57  C   UNL A   1      41.931  30.998  34.228  1.00  0.00     0.074 A 
ATOM     58  C   UNL A   1      39.297  34.535  29.295  1.00  0.00     0.029 A 
ATOM     59  N   UNL A   1      39.218  33.849  31.389  1.00  0.00    -0.354 N 
ATOM     60  N   UNL A   1      42.471  32.060  33.695  1.00  0.00    -0.248 NA
ATOM     61  C   UNL A   1      40.498  31.069  34.469  1.00  0.00     0.031 C 
ATOM     62  C   UNL A   1      40.601  34.584  29.869  1.00  0.00     0.029 A 
ATOM     63  C   UNL A   1      40.553  34.005  31.139  1.00  0.00     0.049 A 
ATOM     64  H   UNL A   1      38.812  33.764  32.282  1.00  0.00     0.167 HD
ATOM     65  C   UNL A   1      41.404  32.743  33.124  1.00  0.00     0.074 A 
ATOM     66  C   UNL A   1      40.208  32.100  33.672  1.00  0.00     0.031 C 
ATOM     67  C   UNL A   1      41.589  33.556  32.042  1.00  0.00     0.037 A 
BRANCH  54  68
ATOM     68  C   UNL A   1      36.272  32.886  31.025  1.00  0.00     0.057 A 
ATOM     69  C   UNL A   1      35.247  33.809  30.758  1.00  0.00     0.134 A 
ATOM     70  C   UNL A   1      36.215  32.289  32.305  1.00  0.00     0.134 A 
ATOM     71  F   UNL A   1      35.194  34.458  29.585  1.00  0.00    -0.206 F 
ATOM     72  C   UNL A   1      34.291  34.169  31.717  1.00  0.00     0.040 A 
ATOM     73  C   UNL A   1      35.238  32.607  33.251  1.00  0.00     0.040 A 
ATOM     74  F   UNL A   1      37.146  31.445  32.760  1.00  0.00    -0.206 F 
ATOM     75  C   UNL A   1      34.290  33.573  32.972  1.00  0.00     0.006 A 
ENDBRANCH  54  68
BRANCH  55  76
ATOM     76  C   UNL A   1      42.610  28.719  35.271  1.00  0.00     0.057 A 
ATOM     77  C   UNL A   1      41.837  27.550  35.368  1.00  0.00     0.134 A 
ATOM     78  C   UNL A   1      43.675  28.821  36.184  1.00  0.00     0.134 A 
ATOM     79  F   UNL A   1      40.843  27.320  34.498  1.00  0.00    -0.206 F 
ATOM     80  C   UNL A   1      42.102  26.551  36.321  1.00  0.00     0.040 A 
ATOM     81  C   UNL A   1      43.949  27.834  37.139  1.00  0.00     0.040 A 
ATOM     82  F   UNL A   1      44.542  29.841  36.116  1.00  0.00    -0.206 F 
ATOM     83  C   UNL A   1      43.164  26.690  37.208  1.00  0.00     0.006 A 
ENDBRANCH  55  76
BRANCH  67  84
ATOM     84  C   UNL A   1      42.999  33.901  31.645  1.00  0.00     0.057 A 
ATOM     85  C   UNL A   1      43.765  33.196  30.703  1.00  0.00     0.134 A 
ATOM     86  C   UNL A   1      43.511  35.126  32.089  1.00  0.00     0.134 A 
ATOM     87  F   UNL A   1      43.321  32.052  30.166  1.00  0.00    -0.206 F 
ATOM     88  C   UNL A   1      44.987  33.693  30.231  1.00  0.00     0.040 A 
ATOM     89  C   UNL A   1      44.710  35.646  31.602  1.00  0.00     0.040 A 
ATOM     90  F   UNL A   1      42.807  35.873  32.954  1.00  0.00    -0.206 F 
ATOM     91  C   UNL A   1      45.454  34.929  30.672  1.00  0.00     0.006 A 
ENDBRANCH  67  84
ENDBRANCH  41  42
ENDBRANCH  34  36
ENDBRANCH  33  34
ENDBRANCH  32  33
ENDBRANCH   1  32
TORSDOF 16
ENDMDL
MODEL 3
REMARK VINA RESULT:     -12.3      6.093     10.912
REMARK SMILES Cc1c(-c2nn(-c3ccccc3)cc2/C=N/O)nnn1-c1ccc(C(=O)OCCOC(=O)c2ccc(-c3c4nc(c(-c5c(F)cccc5F)c5ccc([nH]5)c(-c5c(F)cccc5F)c5nc(c(-c6c(F)cccc6F)c6ccc3[nH]6)C=C5)C=C4)cc2)cc1
REMARK SMILES IDX 28 1 27 2 25 3 26 4 24 5 21 6 22 7 88 8 23 9 87 10 20 11
REMARK SMILES IDX 1 12 2 13 3 14 18 15 19 16 4 17 5 18 14 19 6 20 13 21 15 22
REMARK SMILES IDX 16 23 17 24 7 26 8 27 12 28 9 29 11 30 10 31 29 32 30 33
REMARK SMILES IDX 31 34 32 35 33 36 34 37 86 38 35 39 85 40 36 41 37 42 38 43
REMARK SMILES IDX 79 44 39 45 84 46 78 47 80 48 40 49 83 50 77 51 76 52 41 54
REMARK SMILES IDX 67 55 50 56 66 57 51 58 54 59 65 60 81 61 52 62 53 63 64 65
REMARK SMILES IDX 82 66 55 67 42 68 43 69 48 70 44 71 45 72 47 73 49 74 46 75
REMARK SMILES IDX 68 76 69 77 74 78 70 79 71 80 73 81 75 82 72 83 56 84 57 85
REMARK SMILES IDX 62 86 58 87 59 88 61 89 63 90 60 91
REMARK H PARENT 17 25 80 53 54 64
REMARK Flexibility Score: inf
ROOT
ATOM      1  C   UNL A   1      32.743  36.101  29.679  1.00  0.00     0.275 C 
ENDROOT
BRANCH   1   2
ATOM      2  O   UNL A   1      32.820  34.692  29.391  1.00  0.00    -0.458 OA
BRANCH   2   3
ATOM      3  C   UNL A   1      33.604  34.352  28.334  1.00  0.00     0.338 C 
ATOM      4  O   UNL A   1      34.535  35.012  27.886  1.00  0.00    -0.246 OA
BRANCH   3   5
ATOM      5  C   UNL A   1      33.269  33.002  27.818  1.00  0.00     0.060 A 
ATOM      6  C   UNL A   1      32.842  30.496  26.653  1.00  0.00     0.067 A 
ATOM      7  C   UNL A   1      34.013  30.728  27.382  1.00  0.00     0.029 A 
ATOM      8  C   UNL A   1      31.842  31.478  26.590  1.00  0.00     0.029 A 
ATOM      9  C   UNL A   1      34.237  31.992  27.933  1.00  0.00     0.018 A 
ATOM     10  C   UNL A   1      32.048  32.725  27.195  1.00  0.00     0.018 A 
BRANCH   6  11
ATOM     11  N   UNL A   1      32.708  29.273  25.953  1.00  0.00    -0.217 N 
ATOM     12  C   UNL A   1      31.337  27.898  27.610  1.00  0.00     0.069 C 
ATOM     13  C   UNL A   1      32.125  28.088  26.370  1.00  0.00     0.071 A 
ATOM     14  C   UNL A   1      32.365  27.229  25.313  1.00  0.00     0.137 A 
ATOM     15  N   UNL A   1      32.956  27.901  24.285  1.00  0.00    -0.128 NA
ATOM     16  N   UNL A   1      33.092  29.169  24.656  1.00  0.00    -0.061 NA
BRANCH  14  17
ATOM     17  C   UNL A   1      32.023  25.814  25.194  1.00  0.00     0.124 A 
ATOM     18  N   UNL A   1      32.933  24.836  25.317  1.00  0.00    -0.165 NA
ATOM     19  C   UNL A   1      30.730  25.315  24.901  1.00  0.00     0.044 A 
ATOM     20  N   UNL A   1      32.258  23.711  24.993  1.00  0.00    -0.240 N 
ATOM     21  C   UNL A   1      30.933  23.961  24.721  1.00  0.00     0.125 A 
BRANCH  19  22
ATOM     22  C   UNL A   1      29.454  25.976  24.790  1.00  0.00     0.166 C 
ATOM     23  N   UNL A   1      28.865  26.054  23.643  1.00  0.00    -0.097 NA
BRANCH  23  24
ATOM     24  O   UNL A   1      27.678  26.779  23.775  1.00  0.00    -0.411 OA
ATOM     25  H   UNL A   1      26.854  26.366  23.603  1.00  0.00     0.330 HD
ENDBRANCH  23  24
ENDBRANCH  19  22
BRANCH  20  26
ATOM     26  C   UNL A   1      32.912  22.462  24.919  1.00  0.00     0.065 A 
ATOM     27  C   UNL A   1      32.155  21.285  24.945  1.00  0.00     0.028 A 
ATOM     28  C   UNL A   1      34.308  22.408  24.831  1.00  0.00     0.028 A 
ATOM     29  C   UNL A   1      32.800  20.051  24.854  1.00  0.00     0.002 A 
ATOM     30  C   UNL A   1      34.947  21.166  24.803  1.00  0.00     0.002 A 
ATOM     31  C   UNL A   1      34.193  19.992  24.801  1.00  0.00     0.000 A 
ENDBRANCH  20  26
ENDBRANCH  14  17
ENDBRANCH   6  11
ENDBRANCH   3   5
ENDBRANCH   2   3
ENDBRANCH   1   2
BRANCH   1  32
ATOM     32  C   UNL A   1      33.753  36.525  30.739  1.00  0.00     0.275 C 
BRANCH  32  33
ATOM     33  O   UNL A   1      33.160  36.533  32.034  1.00  0.00    -0.458 OA
BRANCH  33  34
ATOM     34  C   UNL A   1      32.784  35.317  32.486  1.00  0.00     0.338 C 
ATOM     35  O   UNL A   1      31.649  34.912  32.678  1.00  0.00    -0.246 OA
BRANCH  34  36
ATOM     36  C   UNL A   1      33.962  34.610  32.987  1.00  0.00     0.060 A 
ATOM     37  C   UNL A   1      35.041  35.404  33.384  1.00  0.00     0.016 A 
ATOM     38  C   UNL A   1      34.104  33.262  32.638  1.00  0.00     0.016 A 
ATOM     39  C   UNL A   1      36.308  34.915  33.169  1.00  0.00     0.010 A 
ATOM     40  C   UNL A   1      35.365  32.782  32.416  1.00  0.00     0.010 A 
ATOM     41  C   UNL A   1      36.441  33.650  32.585  1.00  0.00    -0.014 A 
BRANCH  41  42
ATOM     42  C   UNL A   1      37.766  33.126  32.327  1.00  0.00     0.031 A 
ATOM     43  C   UNL A   1      38.592  33.215  33.561  1.00  0.00     0.074 A 
ATOM     44  C   UNL A   1      38.054  32.512  31.158  1.00  0.00     0.049 A 
ATOM     45  N   UNL A   1      39.665  33.907  33.747  1.00  0.00    -0.248 NA
ATOM     46  C   UNL A   1      38.019  32.673  34.815  1.00  0.00     0.031 C 
ATOM     47  C   UNL A   1      37.140  32.231  30.041  1.00  0.00     0.029 A 
ATOM     48  N   UNL A   1      39.204  31.892  30.760  1.00  0.00    -0.354 N 
ATOM     49  C   UNL A   1      40.037  33.656  35.066  1.00  0.00     0.074 A 
ATOM     50  C   UNL A   1      38.885  33.117  35.724  1.00  0.00     0.031 C 
ATOM     51  C   UNL A   1      37.683  31.293  29.230  1.00  0.00     0.029 A 
ATOM     52  C   UNL A   1      39.030  31.011  29.682  1.00  0.00     0.049 A 
ATOM     53  H   UNL A   1      40.076  32.049  31.190  1.00  0.00     0.167 HD
ATOM     54  C   UNL A   1      41.354  33.578  35.396  1.00  0.00     0.037 A 
ATOM     55  C   UNL A   1      39.931  30.073  29.276  1.00  0.00     0.037 A 
ATOM     56  C   UNL A   1      42.154  34.249  34.402  1.00  0.00     0.049 A 
ATOM     57  C   UNL A   1      41.239  30.460  29.866  1.00  0.00     0.074 A 
ATOM     58  C   UNL A   1      42.276  35.550  33.963  1.00  0.00     0.029 A 
ATOM     59  N   UNL A   1      42.664  33.451  33.411  1.00  0.00    -0.354 N 
ATOM     60  N   UNL A   1      41.872  31.558  29.553  1.00  0.00    -0.248 NA
ATOM     61  C   UNL A   1      41.548  29.902  31.172  1.00  0.00     0.031 C 
ATOM     62  C   UNL A   1      42.467  35.449  32.555  1.00  0.00     0.029 A 
ATOM     63  C   UNL A   1      42.559  34.098  32.212  1.00  0.00     0.049 A 
ATOM     64  H   UNL A   1      43.046  32.554  33.542  1.00  0.00     0.167 HD
ATOM     65  C   UNL A   1      42.303  32.069  30.770  1.00  0.00     0.074 A 
ATOM     66  C   UNL A   1      42.107  30.980  31.728  1.00  0.00     0.031 C 
ATOM     67  C   UNL A   1      42.491  33.411  30.940  1.00  0.00     0.037 A 
BRANCH  54  68
ATOM     68  C   UNL A   1      41.921  32.495  36.287  1.00  0.00     0.057 A 
ATOM     69  C   UNL A   1      42.774  32.872  37.340  1.00  0.00     0.134 A 
ATOM     70  C   UNL A   1      41.930  31.114  35.983  1.00  0.00     0.134 A 
ATOM     71  F   UNL A   1      42.872  34.155  37.719  1.00  0.00    -0.206 F 
ATOM     72  C   UNL A   1      43.625  31.963  37.982  1.00  0.00     0.040 A 
ATOM     73  C   UNL A   1      42.740  30.192  36.649  1.00  0.00     0.040 A 
ATOM     74  F   UNL A   1      41.241  30.585  34.967  1.00  0.00    -0.206 F 
ATOM     75  C   UNL A   1      43.615  30.618  37.631  1.00  0.00     0.006 A 
ENDBRANCH  54  68
BRANCH  55  76
ATOM     76  C   UNL A   1      39.663  28.689  28.806  1.00  0.00     0.057 A 
ATOM     77  C   UNL A   1      40.161  28.207  27.584  1.00  0.00     0.134 A 
ATOM     78  C   UNL A   1      39.151  27.714  29.680  1.00  0.00     0.134 A 
ATOM     79  F   UNL A   1      40.738  29.043  26.709  1.00  0.00    -0.206 F 
ATOM     80  C   UNL A   1      40.140  26.841  27.250  1.00  0.00     0.040 A 
ATOM     81  C   UNL A   1      39.123  26.351  29.360  1.00  0.00     0.040 A 
ATOM     82  F   UNL A   1      38.745  28.044  30.915  1.00  0.00    -0.206 F 
ATOM     83  C   UNL A   1      39.623  25.908  28.143  1.00  0.00     0.006 A 
ENDBRANCH  55  76
BRANCH  67  84
ATOM     84  C   UNL A   1      42.477  34.293  29.720  1.00  0.00     0.057 A 
ATOM     85  C   UNL A   1      41.354  34.985  29.241  1.00  0.00     0.134 A 
ATOM     86  C   UNL A   1      43.711  34.609  29.140  1.00  0.00     0.134 A 
ATOM     87  F   UNL A   1      40.143  34.802  29.786  1.00  0.00    -0.206 F 
ATOM     88  C   UNL A   1      41.461  35.945  28.227  1.00  0.00     0.040 A 
ATOM     89  C   UNL A   1      43.834  35.587  28.154  1.00  0.00     0.040 A 
ATOM     90  F   UNL A   1      44.832  34.019  29.584  1.00  0.00    -0.206 F 
ATOM     91  C   UNL A   1      42.707  36.258  27.691  1.00  0.00     0.006 A 
ENDBRANCH  67  84
ENDBRANCH  41  42
ENDBRANCH  34  36
ENDBRANCH  33  34
ENDBRANCH  32  33
ENDBRANCH   1  32
TORSDOF 16
ENDMDL
