MODEL 1
REMARK VINA RESULT:     -11.1      0.000      0.000
REMARK SMILES O=C(CSc1ccccc1C(=O)OCCOC(=O)c1ccc(-c2c3nc(c(-c4c(F)cccc4F)c4ccc([nH]4)c(-c4c(F)cccc4F)c4nc(c(-c5c(F)cccc5F)c5ccc2[nH]5)C=C4)C=C3)cc1)c1ccc(Cl)cc1
REMARK SMILES IDX 14 1 13 2 11 3 12 4 10 5 5 6 6 7 7 8 9 9 8 10 4 11 3 12 2 13
REMARK SMILES IDX 1 14 73 15 74 16 79 17 75 18 78 19 76 20 77 21 15 22 16 23
REMARK SMILES IDX 17 24 18 25 19 26 20 27 72 28 21 29 71 30 22 31 23 32 24 33
REMARK SMILES IDX 65 34 25 35 70 36 64 37 66 38 26 39 69 40 63 41 62 42 27 44
REMARK SMILES IDX 53 45 36 46 52 47 37 48 40 49 51 50 67 51 38 52 39 53 50 55
REMARK SMILES IDX 68 56 41 57 28 58 29 59 34 60 30 61 31 62 33 63 35 64 32 65
REMARK SMILES IDX 54 66 55 67 60 68 56 69 57 70 59 71 61 72 58 73 42 74 43 75
REMARK SMILES IDX 48 76 44 77 45 78 47 79 49 80 46 81
REMARK H PARENT 66 43 40 54
REMARK Flexibility Score: inf
ROOT
ATOM      1  C   UNL A   1      36.522  22.580  23.553  1.00  0.00     0.275 C 
ENDROOT
BRANCH   1   2
ATOM      2  O   UNL A   1      35.189  23.054  23.285  1.00  0.00    -0.458 OA
BRANCH   2   3
ATOM      3  C   UNL A   1      34.731  24.085  24.037  1.00  0.00     0.339 C 
ATOM      4  O   UNL A   1      35.216  24.489  25.076  1.00  0.00    -0.246 OA
BRANCH   3   5
ATOM      5  C   UNL A   1      33.606  24.785  23.353  1.00  0.00     0.073 A 
ATOM      6  C   UNL A   1      32.245  24.479  23.544  1.00  0.00     0.022 A 
ATOM      7  C   UNL A   1      31.302  25.259  22.852  1.00  0.00     0.016 A 
ATOM      8  C   UNL A   1      31.681  26.279  21.975  1.00  0.00     0.001 A 
ATOM      9  C   UNL A   1      33.975  25.852  22.507  1.00  0.00     0.017 A 
ATOM     10  C   UNL A   1      33.022  26.578  21.799  1.00  0.00     0.001 A 
BRANCH   6  11
ATOM     11  S   UNL A   1      31.720  23.281  24.780  1.00  0.00    -0.117 SA
BRANCH  11  12
ATOM     12  C   UNL A   1      31.827  24.175  26.348  1.00  0.00     0.156 C 
BRANCH  12  13
ATOM     13  C   UNL A   1      31.220  25.562  26.398  1.00  0.00     0.173 C 
ATOM     14  O   UNL A   1      29.993  25.698  26.373  1.00  0.00    -0.293 OA
BRANCH  13  15
ATOM     15  C   UNL A   1      32.031  26.800  26.608  1.00  0.00     0.018 A 
ATOM     16  C   UNL A   1      33.321  26.995  26.101  1.00  0.00     0.013 A 
ATOM     17  C   UNL A   1      31.401  27.865  27.270  1.00  0.00     0.013 A 
ATOM     18  C   UNL A   1      33.985  28.212  26.287  1.00  0.00     0.021 A 
ATOM     19  C   UNL A   1      32.061  29.084  27.451  1.00  0.00     0.021 A 
ATOM     20  C   UNL A   1      33.355  29.250  26.964  1.00  0.00     0.041 A 
ATOM     21  Cl  UNL A   1      34.169  30.749  27.174  1.00  0.00    -0.084 Cl
ENDBRANCH  13  15
ENDBRANCH  12  13
ENDBRANCH  11  12
ENDBRANCH   6  11
ENDBRANCH   3   5
ENDBRANCH   2   3
ENDBRANCH   1   2
BRANCH   1  22
ATOM     22  C   UNL A   1      36.464  21.340  24.442  1.00  0.00     0.275 C 
BRANCH  22  23
ATOM     23  O   UNL A   1      37.061  21.637  25.715  1.00  0.00    -0.458 OA
BRANCH  23  24
ATOM     24  C   UNL A   1      38.375  21.350  25.811  1.00  0.00     0.338 C 
ATOM     25  O   UNL A   1      38.974  20.377  25.369  1.00  0.00    -0.246 OA
BRANCH  24  26
ATOM     26  C   UNL A   1      39.052  22.471  26.461  1.00  0.00     0.060 A 
ATOM     27  C   UNL A   1      38.602  23.760  26.185  1.00  0.00     0.016 A 
ATOM     28  C   UNL A   1      40.182  22.265  27.244  1.00  0.00     0.016 A 
ATOM     29  C   UNL A   1      39.324  24.865  26.620  1.00  0.00     0.010 A 
ATOM     30  C   UNL A   1      40.864  23.374  27.748  1.00  0.00     0.010 A 
ATOM     31  C   UNL A   1      40.462  24.684  27.415  1.00  0.00    -0.014 A 
BRANCH  31  32
ATOM     32  C   UNL A   1      41.280  25.840  27.865  1.00  0.00     0.031 A 
ATOM     33  C   UNL A   1      40.637  26.907  28.706  1.00  0.00     0.074 A 
ATOM     34  C   UNL A   1      42.570  25.961  27.500  1.00  0.00     0.049 A 
ATOM     35  N   UNL A   1      41.033  28.130  28.941  1.00  0.00    -0.248 NA
ATOM     36  C   UNL A   1      39.361  26.551  29.348  1.00  0.00     0.031 C 
ATOM     37  C   UNL A   1      43.345  24.966  26.758  1.00  0.00     0.029 A 
ATOM     38  N   UNL A   1      43.454  26.995  27.690  1.00  0.00    -0.354 N 
ATOM     39  C   UNL A   1      40.023  28.713  29.696  1.00  0.00     0.074 A 
ATOM     40  C   UNL A   1      39.001  27.706  29.889  1.00  0.00     0.031 C 
ATOM     41  C   UNL A   1      44.587  25.435  26.556  1.00  0.00     0.029 A 
ATOM     42  C   UNL A   1      44.665  26.798  27.069  1.00  0.00     0.049 A 
ATOM     43  H   UNL A   1      43.242  27.798  28.219  1.00  0.00     0.167 HD
ATOM     44  C   UNL A   1      39.955  29.979  30.170  1.00  0.00     0.037 A 
ATOM     45  C   UNL A   1      45.694  27.643  26.873  1.00  0.00     0.037 A 
ATOM     46  C   UNL A   1      41.006  30.950  30.015  1.00  0.00     0.049 A 
ATOM     47  C   UNL A   1      45.584  29.057  27.370  1.00  0.00     0.074 A 
ATOM     48  C   UNL A   1      41.046  32.260  30.458  1.00  0.00     0.029 A 
ATOM     49  N   UNL A   1      42.216  30.704  29.381  1.00  0.00    -0.354 N 
ATOM     50  N   UNL A   1      44.596  29.631  28.012  1.00  0.00    -0.248 NA
ATOM     51  C   UNL A   1      46.721  29.946  27.097  1.00  0.00     0.031 C 
ATOM     52  C   UNL A   1      42.268  32.816  30.066  1.00  0.00     0.029 A 
ATOM     53  C   UNL A   1      43.007  31.839  29.417  1.00  0.00     0.049 A 
ATOM     54  H   UNL A   1      42.473  29.849  28.966  1.00  0.00     0.167 HD
ATOM     55  C   UNL A   1      45.000  30.938  28.243  1.00  0.00     0.074 A 
ATOM     56  C   UNL A   1      46.327  31.072  27.675  1.00  0.00     0.031 C 
ATOM     57  C   UNL A   1      44.334  31.939  28.869  1.00  0.00     0.037 A 
BRANCH  44  58
ATOM     58  C   UNL A   1      38.690  30.398  30.859  1.00  0.00     0.057 A 
ATOM     59  C   UNL A   1      38.517  30.285  32.244  1.00  0.00     0.134 A 
ATOM     60  C   UNL A   1      37.635  30.951  30.121  1.00  0.00     0.134 A 
ATOM     61  F   UNL A   1      39.482  29.751  33.008  1.00  0.00    -0.206 F 
ATOM     62  C   UNL A   1      37.332  30.685  32.866  1.00  0.00     0.040 A 
ATOM     63  C   UNL A   1      36.456  31.379  30.734  1.00  0.00     0.040 A 
ATOM     64  F   UNL A   1      37.734  31.092  28.790  1.00  0.00    -0.206 F 
ATOM     65  C   UNL A   1      36.300  31.240  32.112  1.00  0.00     0.006 A 
ENDBRANCH  44  58
BRANCH  45  66
ATOM     66  C   UNL A   1      46.894  27.185  26.127  1.00  0.00     0.057 A 
ATOM     67  C   UNL A   1      46.988  27.350  24.740  1.00  0.00     0.134 A 
ATOM     68  C   UNL A   1      47.977  26.583  26.779  1.00  0.00     0.134 A 
ATOM     69  F   UNL A   1      45.973  27.898  24.056  1.00  0.00    -0.206 F 
ATOM     70  C   UNL A   1      48.113  26.930  24.029  1.00  0.00     0.040 A 
ATOM     71  C   UNL A   1      49.119  26.183  26.084  1.00  0.00     0.040 A 
ATOM     72  F   UNL A   1      47.951  26.397  28.108  1.00  0.00    -0.206 F 
ATOM     73  C   UNL A   1      49.187  26.352  24.703  1.00  0.00     0.006 A 
ENDBRANCH  45  66
BRANCH  57  74
ATOM     74  C   UNL A   1      45.052  33.243  29.033  1.00  0.00     0.057 A 
ATOM     75  C   UNL A   1      45.895  33.493  30.121  1.00  0.00     0.134 A 
ATOM     76  C   UNL A   1      44.942  34.237  28.052  1.00  0.00     0.134 A 
ATOM     77  F   UNL A   1      46.032  32.586  31.099  1.00  0.00    -0.206 F 
ATOM     78  C   UNL A   1      46.599  34.694  30.232  1.00  0.00     0.040 A 
ATOM     79  C   UNL A   1      45.655  35.431  28.141  1.00  0.00     0.040 A 
ATOM     80  F   UNL A   1      44.154  34.052  26.982  1.00  0.00    -0.206 F 
ATOM     81  C   UNL A   1      46.486  35.663  29.236  1.00  0.00     0.006 A 
ENDBRANCH  57  74
ENDBRANCH  31  32
ENDBRANCH  24  26
ENDBRANCH  23  24
ENDBRANCH  22  23
ENDBRANCH   1  22
TORSDOF 15
ENDMDL
MODEL 2
REMARK VINA RESULT:     -11.0      3.977      8.489
REMARK SMILES O=C(CSc1ccccc1C(=O)OCCOC(=O)c1ccc(-c2c3nc(c(-c4c(F)cccc4F)c4ccc([nH]4)c(-c4c(F)cccc4F)c4nc(c(-c5c(F)cccc5F)c5ccc2[nH]5)C=C4)C=C3)cc1)c1ccc(Cl)cc1
REMARK SMILES IDX 14 1 13 2 11 3 12 4 10 5 5 6 6 7 7 8 9 9 8 10 4 11 3 12 2 13
REMARK SMILES IDX 1 14 73 15 74 16 79 17 75 18 78 19 76 20 77 21 15 22 16 23
REMARK SMILES IDX 17 24 18 25 19 26 20 27 72 28 21 29 71 30 22 31 23 32 24 33
REMARK SMILES IDX 65 34 25 35 70 36 64 37 66 38 26 39 69 40 63 41 62 42 27 44
REMARK SMILES IDX 53 45 36 46 52 47 37 48 40 49 51 50 67 51 38 52 39 53 50 55
REMARK SMILES IDX 68 56 41 57 28 58 29 59 34 60 30 61 31 62 33 63 35 64 32 65
REMARK SMILES IDX 54 66 55 67 60 68 56 69 57 70 59 71 61 72 58 73 42 74 43 75
REMARK SMILES IDX 48 76 44 77 45 78 47 79 49 80 46 81
REMARK H PARENT 66 43 40 54
REMARK Flexibility Score: inf
ROOT
ATOM      1  C   UNL A   1      31.026  29.379  24.493  1.00  0.00     0.275 C 
ENDROOT
BRANCH   1   2
ATOM      2  O   UNL A   1      31.744  28.554  23.557  1.00  0.00    -0.458 OA
BRANCH   2   3
ATOM      3  C   UNL A   1      31.012  27.828  22.676  1.00  0.00     0.339 C 
ATOM      4  O   UNL A   1      30.085  28.235  22.004  1.00  0.00    -0.246 OA
BRANCH   3   5
ATOM      5  C   UNL A   1      31.580  26.459  22.511  1.00  0.00     0.073 A 
ATOM      6  C   UNL A   1      31.388  25.403  23.424  1.00  0.00     0.022 A 
ATOM      7  C   UNL A   1      31.960  24.159  23.104  1.00  0.00     0.016 A 
ATOM      8  C   UNL A   1      32.725  23.967  21.950  1.00  0.00     0.001 A 
ATOM      9  C   UNL A   1      32.308  26.239  21.323  1.00  0.00     0.017 A 
ATOM     10  C   UNL A   1      32.902  25.009  21.056  1.00  0.00     0.001 A 
BRANCH   6  11
ATOM     11  S   UNL A   1      30.284  25.575  24.833  1.00  0.00    -0.117 SA
BRANCH  11  12
ATOM     12  C   UNL A   1      31.383  25.592  26.269  1.00  0.00     0.156 C 
BRANCH  12  13
ATOM     13  C   UNL A   1      31.873  24.253  26.782  1.00  0.00     0.173 C 
ATOM     14  O   UNL A   1      31.093  23.497  27.370  1.00  0.00    -0.293 OA
BRANCH  13  15
ATOM     15  C   UNL A   1      33.244  23.725  26.504  1.00  0.00     0.018 A 
ATOM     16  C   UNL A   1      33.679  22.439  26.841  1.00  0.00     0.013 A 
ATOM     17  C   UNL A   1      34.101  24.552  25.762  1.00  0.00     0.013 A 
ATOM     18  C   UNL A   1      34.958  22.001  26.484  1.00  0.00     0.021 A 
ATOM     19  C   UNL A   1      35.378  24.113  25.398  1.00  0.00     0.021 A 
ATOM     20  C   UNL A   1      35.804  22.840  25.768  1.00  0.00     0.041 A 
ATOM     21  Cl  UNL A   1      37.368  22.290  25.316  1.00  0.00    -0.084 Cl
ENDBRANCH  13  15
ENDBRANCH  12  13
ENDBRANCH  11  12
ENDBRANCH   6  11
ENDBRANCH   3   5
ENDBRANCH   2   3
ENDBRANCH   1   2
BRANCH   1  22
ATOM     22  C   UNL A   1      31.718  29.344  25.854  1.00  0.00     0.275 C 
BRANCH  22  23
ATOM     23  O   UNL A   1      32.935  30.104  25.792  1.00  0.00    -0.458 OA
BRANCH  23  24
ATOM     24  C   UNL A   1      33.102  30.997  26.789  1.00  0.00     0.338 C 
ATOM     25  O   UNL A   1      32.283  31.781  27.251  1.00  0.00    -0.246 OA
BRANCH  24  26
ATOM     26  C   UNL A   1      34.442  30.826  27.350  1.00  0.00     0.060 A 
ATOM     27  C   UNL A   1      34.877  29.532  27.628  1.00  0.00     0.016 A 
ATOM     28  C   UNL A   1      35.214  31.926  27.701  1.00  0.00     0.016 A 
ATOM     29  C   UNL A   1      36.055  29.324  28.335  1.00  0.00     0.010 A 
ATOM     30  C   UNL A   1      36.437  31.715  28.341  1.00  0.00     0.010 A 
ATOM     31  C   UNL A   1      36.854  30.416  28.693  1.00  0.00    -0.014 A 
BRANCH  31  32
ATOM     32  C   UNL A   1      38.100  30.233  29.484  1.00  0.00     0.031 A 
ATOM     33  C   UNL A   1      39.198  29.371  28.927  1.00  0.00     0.074 A 
ATOM     34  C   UNL A   1      38.240  30.795  30.698  1.00  0.00     0.049 A 
ATOM     35  N   UNL A   1      40.207  28.812  29.542  1.00  0.00    -0.248 NA
ATOM     36  C   UNL A   1      39.135  29.082  27.485  1.00  0.00     0.031 C 
ATOM     37  C   UNL A   1      37.294  31.719  31.327  1.00  0.00     0.029 A 
ATOM     38  N   UNL A   1      39.232  30.650  31.636  1.00  0.00    -0.354 N 
ATOM     39  C   UNL A   1      40.855  28.047  28.581  1.00  0.00     0.074 A 
ATOM     40  C   UNL A   1      40.133  28.223  27.339  1.00  0.00     0.031 C 
ATOM     41  C   UNL A   1      37.751  32.059  32.542  1.00  0.00     0.029 A 
ATOM     42  C   UNL A   1      38.968  31.305  32.816  1.00  0.00     0.049 A 
ATOM     43  H   UNL A   1      40.053  30.129  31.479  1.00  0.00     0.167 HD
ATOM     44  C   UNL A   1      41.947  27.261  28.730  1.00  0.00     0.037 A 
ATOM     45  C   UNL A   1      39.595  31.249  34.006  1.00  0.00     0.037 A 
ATOM     46  C   UNL A   1      42.685  27.141  29.961  1.00  0.00     0.049 A 
ATOM     47  C   UNL A   1      40.780  30.338  34.166  1.00  0.00     0.074 A 
ATOM     48  C   UNL A   1      43.808  26.377  30.225  1.00  0.00     0.029 A 
ATOM     49  N   UNL A   1      42.381  27.826  31.129  1.00  0.00    -0.354 N 
ATOM     50  N   UNL A   1      41.343  29.554  33.279  1.00  0.00    -0.248 NA
ATOM     51  C   UNL A   1      41.403  30.288  35.495  1.00  0.00     0.031 C 
ATOM     52  C   UNL A   1      44.166  26.577  31.562  1.00  0.00     0.029 A 
ATOM     53  C   UNL A   1      43.293  27.498  32.118  1.00  0.00     0.049 A 
ATOM     54  H   UNL A   1      41.629  28.451  31.238  1.00  0.00     0.167 HD
ATOM     55  C   UNL A   1      42.400  28.937  33.933  1.00  0.00     0.074 A 
ATOM     56  C   UNL A   1      42.403  29.442  35.292  1.00  0.00     0.031 C 
ATOM     57  C   UNL A   1      43.290  28.035  33.454  1.00  0.00     0.037 A 
BRANCH  44  58
ATOM     58  C   UNL A   1      42.380  26.437  27.554  1.00  0.00     0.057 A 
ATOM     59  C   UNL A   1      43.282  26.915  26.596  1.00  0.00     0.134 A 
ATOM     60  C   UNL A   1      41.902  25.129  27.394  1.00  0.00     0.134 A 
ATOM     61  F   UNL A   1      43.767  28.163  26.681  1.00  0.00    -0.206 F 
ATOM     62  C   UNL A   1      43.676  26.130  25.509  1.00  0.00     0.040 A 
ATOM     63  C   UNL A   1      42.308  24.326  26.327  1.00  0.00     0.040 A 
ATOM     64  F   UNL A   1      41.037  24.607  28.277  1.00  0.00    -0.206 F 
ATOM     65  C   UNL A   1      43.193  24.829  25.376  1.00  0.00     0.006 A 
ENDBRANCH  44  58
BRANCH  45  66
ATOM     66  C   UNL A   1      39.078  32.040  35.151  1.00  0.00     0.057 A 
ATOM     67  C   UNL A   1      39.350  33.408  35.265  1.00  0.00     0.134 A 
ATOM     68  C   UNL A   1      38.292  31.454  36.152  1.00  0.00     0.134 A 
ATOM     69  F   UNL A   1      40.116  34.021  34.352  1.00  0.00    -0.206 F 
ATOM     70  C   UNL A   1      38.864  34.163  36.334  1.00  0.00     0.040 A 
ATOM     71  C   UNL A   1      37.777  32.202  37.211  1.00  0.00     0.040 A 
ATOM     72  F   UNL A   1      37.993  30.147  36.101  1.00  0.00    -0.206 F 
ATOM     73  C   UNL A   1      38.067  33.561  37.306  1.00  0.00     0.006 A 
ENDBRANCH  45  66
BRANCH  57  74
ATOM     74  C   UNL A   1      44.379  27.586  34.379  1.00  0.00     0.057 A 
ATOM     75  C   UNL A   1      44.249  26.442  35.175  1.00  0.00     0.134 A 
ATOM     76  C   UNL A   1      45.597  28.276  34.424  1.00  0.00     0.134 A 
ATOM     77  F   UNL A   1      43.103  25.747  35.186  1.00  0.00    -0.206 F 
ATOM     78  C   UNL A   1      45.293  26.006  35.994  1.00  0.00     0.040 A 
ATOM     79  C   UNL A   1      46.653  27.838  35.221  1.00  0.00     0.040 A 
ATOM     80  F   UNL A   1      45.783  29.375  33.678  1.00  0.00    -0.206 F 
ATOM     81  C   UNL A   1      46.502  26.700  36.011  1.00  0.00     0.006 A 
ENDBRANCH  57  74
ENDBRANCH  31  32
ENDBRANCH  24  26
ENDBRANCH  23  24
ENDBRANCH  22  23
ENDBRANCH   1  22
TORSDOF 15
ENDMDL
MODEL 3
REMARK VINA RESULT:     -11.0      3.827      8.515
REMARK SMILES O=C(CSc1ccccc1C(=O)OCCOC(=O)c1ccc(-c2c3nc(c(-c4c(F)cccc4F)c4ccc([nH]4)c(-c4c(F)cccc4F)c4nc(c(-c5c(F)cccc5F)c5ccc2[nH]5)C=C4)C=C3)cc1)c1ccc(Cl)cc1
REMARK SMILES IDX 14 1 13 2 11 3 12 4 10 5 5 6 6 7 7 8 9 9 8 10 4 11 3 12 2 13
REMARK SMILES IDX 1 14 73 15 74 16 79 17 75 18 78 19 76 20 77 21 15 22 16 23
REMARK SMILES IDX 17 24 18 25 19 26 20 27 72 28 21 29 71 30 22 31 23 32 24 33
REMARK SMILES IDX 65 34 25 35 70 36 64 37 66 38 26 39 69 40 63 41 62 42 27 44
REMARK SMILES IDX 53 45 36 46 52 47 37 48 40 49 51 50 67 51 38 52 39 53 50 55
REMARK SMILES IDX 68 56 41 57 28 58 29 59 34 60 30 61 31 62 33 63 35 64 32 65
REMARK SMILES IDX 54 66 55 67 60 68 56 69 57 70 59 71 61 72 58 73 42 74 43 75
REMARK SMILES IDX 48 76 44 77 45 78 47 79 49 80 46 81
REMARK H PARENT 66 43 40 54
REMARK Flexibility Score: inf
ROOT
ATOM      1  C   UNL A   1      31.585  27.640  26.805  1.00  0.00     0.275 C 
ENDROOT
BRANCH   1   2
ATOM      2  O   UNL A   1      31.582  26.512  25.911  1.00  0.00    -0.458 OA
BRANCH   2   3
ATOM      3  C   UNL A   1      30.739  25.490  26.199  1.00  0.00     0.339 C 
ATOM      4  O   UNL A   1      29.555  25.586  26.457  1.00  0.00    -0.246 OA
BRANCH   3   5
ATOM      5  C   UNL A   1      31.416  24.174  26.020  1.00  0.00     0.073 A 
ATOM      6  C   UNL A   1      31.394  23.424  24.827  1.00  0.00     0.022 A 
ATOM      7  C   UNL A   1      32.116  22.217  24.807  1.00  0.00     0.016 A 
ATOM      8  C   UNL A   1      32.803  21.744  25.929  1.00  0.00     0.001 A 
ATOM      9  C   UNL A   1      32.157  23.712  27.128  1.00  0.00     0.017 A 
ATOM     10  C   UNL A   1      32.824  22.491  27.094  1.00  0.00     0.001 A 
BRANCH   6  11
ATOM     11  S   UNL A   1      30.653  24.079  23.325  1.00  0.00    -0.117 SA
BRANCH  11  12
ATOM     12  C   UNL A   1      31.709  25.475  22.872  1.00  0.00     0.156 C 
BRANCH  12  13
ATOM     13  C   UNL A   1      33.098  25.156  22.358  1.00  0.00     0.173 C 
ATOM     14  O   UNL A   1      33.458  25.579  21.256  1.00  0.00    -0.293 OA
BRANCH  13  15
ATOM     15  C   UNL A   1      34.128  24.449  23.179  1.00  0.00     0.018 A 
ATOM     16  C   UNL A   1      34.847  23.328  22.751  1.00  0.00     0.013 A 
ATOM     17  C   UNL A   1      34.456  25.026  24.416  1.00  0.00     0.013 A 
ATOM     18  C   UNL A   1      35.843  22.766  23.557  1.00  0.00     0.021 A 
ATOM     19  C   UNL A   1      35.456  24.470  25.220  1.00  0.00     0.021 A 
ATOM     20  C   UNL A   1      36.141  23.337  24.789  1.00  0.00     0.041 A 
ATOM     21  Cl  UNL A   1      37.379  22.654  25.767  1.00  0.00    -0.084 Cl
ENDBRANCH  13  15
ENDBRANCH  12  13
ENDBRANCH  11  12
ENDBRANCH   6  11
ENDBRANCH   3   5
ENDBRANCH   2   3
ENDBRANCH   1   2
BRANCH   1  22
ATOM     22  C   UNL A   1      31.480  28.937  26.006  1.00  0.00     0.275 C 
BRANCH  22  23
ATOM     23  O   UNL A   1      32.777  29.546  25.910  1.00  0.00    -0.458 OA
BRANCH  23  24
ATOM     24  C   UNL A   1      32.976  30.600  26.728  1.00  0.00     0.338 C 
ATOM     25  O   UNL A   1      32.172  31.458  27.070  1.00  0.00    -0.246 OA
BRANCH  24  26
ATOM     26  C   UNL A   1      34.333  30.523  27.269  1.00  0.00     0.060 A 
ATOM     27  C   UNL A   1      34.868  29.262  27.520  1.00  0.00     0.016 A 
ATOM     28  C   UNL A   1      35.025  31.673  27.626  1.00  0.00     0.016 A 
ATOM     29  C   UNL A   1      36.069  29.133  28.209  1.00  0.00     0.010 A 
ATOM     30  C   UNL A   1      36.269  31.546  28.247  1.00  0.00     0.010 A 
ATOM     31  C   UNL A   1      36.788  30.277  28.574  1.00  0.00    -0.014 A 
BRANCH  31  32
ATOM     32  C   UNL A   1      38.055  30.177  29.345  1.00  0.00     0.031 A 
ATOM     33  C   UNL A   1      39.174  29.332  28.805  1.00  0.00     0.074 A 
ATOM     34  C   UNL A   1      38.197  30.800  30.530  1.00  0.00     0.049 A 
ATOM     35  N   UNL A   1      40.216  28.840  29.423  1.00  0.00    -0.248 NA
ATOM     36  C   UNL A   1      39.094  28.975  27.379  1.00  0.00     0.031 C 
ATOM     37  C   UNL A   1      37.228  31.716  31.136  1.00  0.00     0.029 A 
ATOM     38  N   UNL A   1      39.212  30.735  31.452  1.00  0.00    -0.354 N 
ATOM     39  C   UNL A   1      40.874  28.057  28.483  1.00  0.00     0.074 A 
ATOM     40  C   UNL A   1      40.121  28.149  27.250  1.00  0.00     0.031 C 
ATOM     41  C   UNL A   1      37.696  32.128  32.324  1.00  0.00     0.029 A 
ATOM     42  C   UNL A   1      38.946  31.433  32.606  1.00  0.00     0.049 A 
ATOM     43  H   UNL A   1      40.049  30.238  31.301  1.00  0.00     0.167 HD
ATOM     44  C   UNL A   1      41.998  27.320  28.644  1.00  0.00     0.037 A 
ATOM     45  C   UNL A   1      39.598  31.455  33.784  1.00  0.00     0.037 A 
ATOM     46  C   UNL A   1      42.764  27.285  29.863  1.00  0.00     0.049 A 
ATOM     47  C   UNL A   1      40.820  30.598  33.960  1.00  0.00     0.074 A 
ATOM     48  C   UNL A   1      43.920  26.577  30.138  1.00  0.00     0.029 A 
ATOM     49  N   UNL A   1      42.457  28.010  31.005  1.00  0.00    -0.354 N 
ATOM     50  N   UNL A   1      41.395  29.795  33.097  1.00  0.00    -0.248 NA
ATOM     51  C   UNL A   1      41.470  30.632  35.276  1.00  0.00     0.031 C 
ATOM     52  C   UNL A   1      44.296  26.851  31.457  1.00  0.00     0.029 A 
ATOM     53  C   UNL A   1      43.399  27.763  31.989  1.00  0.00     0.049 A 
ATOM     54  H   UNL A   1      41.683  28.611  31.102  1.00  0.00     0.167 HD
ATOM     55  C   UNL A   1      42.488  29.250  33.756  1.00  0.00     0.074 A 
ATOM     56  C   UNL A   1      42.498  29.816  35.090  1.00  0.00     0.031 C 
ATOM     57  C   UNL A   1      43.402  28.361  33.299  1.00  0.00     0.037 A 
BRANCH  44  58
ATOM     58  C   UNL A   1      42.439  26.460  27.498  1.00  0.00     0.057 A 
ATOM     59  C   UNL A   1      43.322  26.919  26.513  1.00  0.00     0.134 A 
ATOM     60  C   UNL A   1      41.989  25.137  27.394  1.00  0.00     0.134 A 
ATOM     61  F   UNL A   1      43.780  28.180  26.544  1.00  0.00    -0.206 F 
ATOM     62  C   UNL A   1      43.724  26.100  25.455  1.00  0.00     0.040 A 
ATOM     63  C   UNL A   1      42.403  24.301  26.356  1.00  0.00     0.040 A 
ATOM     64  F   UNL A   1      41.143  24.631  28.305  1.00  0.00    -0.206 F 
ATOM     65  C   UNL A   1      43.269  24.785  25.378  1.00  0.00     0.006 A 
ENDBRANCH  44  58
BRANCH  45  66
ATOM     66  C   UNL A   1      39.073  32.278  34.903  1.00  0.00     0.057 A 
ATOM     67  C   UNL A   1      38.272  31.713  35.901  1.00  0.00     0.134 A 
ATOM     68  C   UNL A   1      39.367  33.643  35.009  1.00  0.00     0.134 A 
ATOM     69  F   UNL A   1      37.936  30.416  35.843  1.00  0.00    -0.206 F 
ATOM     70  C   UNL A   1      37.778  32.476  36.961  1.00  0.00     0.040 A 
ATOM     71  C   UNL A   1      38.903  34.412  36.077  1.00  0.00     0.040 A 
ATOM     72  F   UNL A   1      40.132  34.246  34.085  1.00  0.00    -0.206 F 
ATOM     73  C   UNL A   1      38.101  33.828  37.055  1.00  0.00     0.006 A 
ENDBRANCH  45  66
BRANCH  57  74
ATOM     74  C   UNL A   1      44.525  27.995  34.220  1.00  0.00     0.057 A 
ATOM     75  C   UNL A   1      45.703  28.747  34.286  1.00  0.00     0.134 A 
ATOM     76  C   UNL A   1      44.394  26.911  35.097  1.00  0.00     0.134 A 
ATOM     77  F   UNL A   1      45.894  29.789  33.464  1.00  0.00    -0.206 F 
ATOM     78  C   UNL A   1      46.720  28.425  35.188  1.00  0.00     0.040 A 
ATOM     79  C   UNL A   1      45.393  26.593  36.016  1.00  0.00     0.040 A 
ATOM     80  F   UNL A   1      43.285  26.157  35.085  1.00  0.00    -0.206 F 
ATOM     81  C   UNL A   1      46.562  27.350  36.062  1.00  0.00     0.006 A 
ENDBRANCH  57  74
ENDBRANCH  31  32
ENDBRANCH  24  26
ENDBRANCH  23  24
ENDBRANCH  22  23
ENDBRANCH   1  22
TORSDOF 15
ENDMDL
