MODEL 1
REMARK VINA RESULT:     -10.3      0.000      0.000
REMARK SMILES C[C@@H](CCO)SCc1cccc(/C=C/C(=O)OCCOC(=O)c2ccc(-c3c4nc(c(-c5c(F)cccc5F)c5ccc([nH]5)c(-c5c(F)cccc5F)c5nc(c(-c6c(F)cccc6F)c6ccc3[nH]6)C=C5)C=C4)cc2)c1
REMARK SMILES IDX 15 1 16 2 14 3 13 4 12 5 8 6 9 7 77 8 10 9 11 10 7 11 6 12
REMARK SMILES IDX 2 13 1 14 3 15 4 16 5 17 17 19 18 20 19 21 20 22 21 23 22 24
REMARK SMILES IDX 23 25 24 26 76 27 25 28 75 29 26 30 27 31 28 32 69 33 29 34
REMARK SMILES IDX 74 35 68 36 70 37 30 38 73 39 67 40 66 41 31 43 57 44 40 45
REMARK SMILES IDX 56 46 41 47 44 48 55 49 71 50 42 51 43 52 54 54 72 55 45 56
REMARK SMILES IDX 32 57 33 58 38 59 34 60 35 61 37 62 39 63 36 64 58 65 59 66
REMARK SMILES IDX 64 67 60 68 61 69 63 70 65 71 62 72 46 73 47 74 52 75 48 76
REMARK SMILES IDX 49 77 51 78 53 79 50 80
REMARK H PARENT 5 18 70 42 44 53
REMARK Flexibility Score: inf
ROOT
ATOM      1  C   UNL A   1      40.409  21.425  26.558  1.00  0.00     0.330 C 
ATOM      2  O   UNL A   1      40.381  21.434  27.781  1.00  0.00    -0.247 OA
ENDROOT
BRANCH   1   3
ATOM      3  C   UNL A   1      39.379  22.137  25.775  1.00  0.00     0.094 C 
ATOM      4  C   UNL A   1      38.069  22.197  26.058  1.00  0.00     0.015 C 
BRANCH   4   5
ATOM      5  C   UNL A   1      37.068  22.853  25.192  1.00  0.00    -0.025 A 
ATOM      6  C   UNL A   1      35.188  24.417  24.994  1.00  0.00    -0.037 A 
ATOM      7  C   UNL A   1      35.013  24.030  23.660  1.00  0.00     0.004 A 
ATOM      8  C   UNL A   1      36.247  23.851  25.734  1.00  0.00     0.012 A 
ATOM      9  C   UNL A   1      35.825  23.044  23.107  1.00  0.00     0.001 A 
ATOM     10  C   UNL A   1      36.827  22.444  23.873  1.00  0.00     0.008 A 
BRANCH   6  11
ATOM     11  C   UNL A   1      34.231  25.385  25.640  1.00  0.00     0.105 C 
BRANCH  11  12
ATOM     12  S   UNL A   1      32.859  25.862  24.521  1.00  0.00    -0.154 SA
BRANCH  12  13
ATOM     13  C   UNL A   1      31.445  24.776  24.989  1.00  0.00     0.046 C 
ATOM     14  C   UNL A   1      30.727  24.075  23.840  1.00  0.00     0.019 C 
BRANCH  13  15
ATOM     15  C   UNL A   1      31.729  23.844  26.185  1.00  0.00     0.042 C 
BRANCH  15  16
ATOM     16  C   UNL A   1      30.704  22.757  26.477  1.00  0.00     0.157 C 
BRANCH  16  17
ATOM     17  O   UNL A   1      29.776  23.196  27.455  1.00  0.00    -0.396 OA
ATOM     18  H   UNL A   1      29.088  23.732  27.030  1.00  0.00     0.210 HD
ENDBRANCH  16  17
ENDBRANCH  15  16
ENDBRANCH  13  15
ENDBRANCH  12  13
ENDBRANCH  11  12
ENDBRANCH   6  11
ENDBRANCH   4   5
ENDBRANCH   1   3
BRANCH   1  19
ATOM     19  O   UNL A   1      41.350  20.831  25.787  1.00  0.00    -0.459 OA
BRANCH  19  20
ATOM     20  C   UNL A   1      42.710  20.989  26.234  1.00  0.00     0.275 C 
BRANCH  20  21
ATOM     21  C   UNL A   1      43.558  21.786  25.237  1.00  0.00     0.275 C 
BRANCH  21  22
ATOM     22  O   UNL A   1      42.966  23.058  24.913  1.00  0.00    -0.458 OA
BRANCH  22  23
ATOM     23  C   UNL A   1      43.767  24.129  25.129  1.00  0.00     0.338 C 
ATOM     24  O   UNL A   1      44.783  24.421  24.523  1.00  0.00    -0.246 OA
BRANCH  23  25
ATOM     25  C   UNL A   1      43.178  24.999  26.164  1.00  0.00     0.060 A 
ATOM     26  C   UNL A   1      43.669  26.304  26.279  1.00  0.00     0.016 A 
ATOM     27  C   UNL A   1      42.212  24.526  27.057  1.00  0.00     0.016 A 
ATOM     28  C   UNL A   1      43.197  27.141  27.289  1.00  0.00     0.010 A 
ATOM     29  C   UNL A   1      41.743  25.366  28.073  1.00  0.00     0.010 A 
ATOM     30  C   UNL A   1      42.239  26.675  28.201  1.00  0.00    -0.014 A 
BRANCH  30  31
ATOM     31  C   UNL A   1      41.792  27.546  29.315  1.00  0.00     0.031 A 
ATOM     32  C   UNL A   1      42.512  27.512  30.632  1.00  0.00     0.074 A 
ATOM     33  C   UNL A   1      40.745  28.373  29.142  1.00  0.00     0.049 A 
ATOM     34  N   UNL A   1      42.245  28.158  31.739  1.00  0.00    -0.248 NA
ATOM     35  C   UNL A   1      43.689  26.634  30.714  1.00  0.00     0.031 C 
ATOM     36  C   UNL A   1      39.980  28.518  27.904  1.00  0.00     0.029 A 
ATOM     37  N   UNL A   1      40.142  29.244  30.015  1.00  0.00    -0.354 N 
ATOM     38  C   UNL A   1      43.213  27.760  32.652  1.00  0.00     0.074 A 
ATOM     39  C   UNL A   1      44.060  26.799  31.976  1.00  0.00     0.031 C 
ATOM     40  C   UNL A   1      39.006  29.423  28.097  1.00  0.00     0.029 A 
ATOM     41  C   UNL A   1      39.056  29.893  29.480  1.00  0.00     0.049 A 
ATOM     42  H   UNL A   1      40.456  29.389  30.936  1.00  0.00     0.167 HD
ATOM     43  C   UNL A   1      43.384  28.165  33.934  1.00  0.00     0.037 A 
ATOM     44  C   UNL A   1      38.186  30.750  30.048  1.00  0.00     0.037 A 
ATOM     45  C   UNL A   1      42.546  29.125  34.604  1.00  0.00     0.049 A 
ATOM     46  C   UNL A   1      38.361  31.137  31.491  1.00  0.00     0.074 A 
ATOM     47  C   UNL A   1      42.655  29.613  35.895  1.00  0.00     0.029 A 
ATOM     48  N   UNL A   1      41.439  29.739  34.037  1.00  0.00    -0.354 N 
ATOM     49  N   UNL A   1      39.292  30.770  32.339  1.00  0.00    -0.248 NA
ATOM     50  C   UNL A   1      37.363  32.055  32.057  1.00  0.00     0.031 C 
ATOM     51  C   UNL A   1      41.590  30.491  36.123  1.00  0.00     0.029 A 
ATOM     52  C   UNL A   1      40.843  30.583  34.959  1.00  0.00     0.049 A 
ATOM     53  H   UNL A   1      41.124  29.596  33.116  1.00  0.00     0.167 HD
ATOM     54  C   UNL A   1      39.006  31.429  33.527  1.00  0.00     0.074 A 
ATOM     55  C   UNL A   1      37.821  32.226  33.290  1.00  0.00     0.031 C 
ATOM     56  C   UNL A   1      39.668  31.377  34.709  1.00  0.00     0.037 A 
BRANCH  43  57
ATOM     57  C   UNL A   1      44.514  27.551  34.706  1.00  0.00     0.057 A 
ATOM     58  C   UNL A   1      45.774  28.156  34.780  1.00  0.00     0.134 A 
ATOM     59  C   UNL A   1      44.326  26.357  35.416  1.00  0.00     0.134 A 
ATOM     60  F   UNL A   1      46.021  29.295  34.115  1.00  0.00    -0.206 F 
ATOM     61  C   UNL A   1      46.816  27.585  35.514  1.00  0.00     0.040 A 
ATOM     62  C   UNL A   1      45.352  25.789  36.172  1.00  0.00     0.040 A 
ATOM     63  F   UNL A   1      43.140  25.730  35.393  1.00  0.00    -0.206 F 
ATOM     64  C   UNL A   1      46.603  26.402  36.219  1.00  0.00     0.006 A 
ENDBRANCH  43  57
BRANCH  44  65
ATOM     65  C   UNL A   1      37.059  31.295  29.251  1.00  0.00     0.057 A 
ATOM     66  C   UNL A   1      35.931  30.518  28.967  1.00  0.00     0.134 A 
ATOM     67  C   UNL A   1      37.090  32.600  28.748  1.00  0.00     0.134 A 
ATOM     68  F   UNL A   1      35.855  29.252  29.402  1.00  0.00    -0.206 F 
ATOM     69  C   UNL A   1      34.877  31.017  28.200  1.00  0.00     0.040 A 
ATOM     70  C   UNL A   1      36.032  33.120  28.000  1.00  0.00     0.040 A 
ATOM     71  F   UNL A   1      38.144  33.394  28.984  1.00  0.00    -0.206 F 
ATOM     72  C   UNL A   1      34.923  32.325  27.719  1.00  0.00     0.006 A 
ENDBRANCH  44  65
BRANCH  56  73
ATOM     73  C   UNL A   1      39.146  32.231  35.826  1.00  0.00     0.057 A 
ATOM     74  C   UNL A   1      38.267  31.727  36.792  1.00  0.00     0.134 A 
ATOM     75  C   UNL A   1      39.562  33.562  35.961  1.00  0.00     0.134 A 
ATOM     76  F   UNL A   1      37.819  30.465  36.712  1.00  0.00    -0.206 F 
ATOM     77  C   UNL A   1      37.807  32.522  37.844  1.00  0.00     0.040 A 
ATOM     78  C   UNL A   1      39.127  34.358  37.021  1.00  0.00     0.040 A 
ATOM     79  F   UNL A   1      40.410  34.103  35.073  1.00  0.00    -0.206 F 
ATOM     80  C   UNL A   1      38.243  33.840  37.963  1.00  0.00     0.006 A 
ENDBRANCH  56  73
ENDBRANCH  30  31
ENDBRANCH  23  25
ENDBRANCH  22  23
ENDBRANCH  21  22
ENDBRANCH  20  21
ENDBRANCH  19  20
ENDBRANCH   1  19
TORSDOF 18
ENDMDL
MODEL 2
REMARK VINA RESULT:     -10.3      1.931      2.729
REMARK SMILES C[C@@H](CCO)SCc1cccc(/C=C/C(=O)OCCOC(=O)c2ccc(-c3c4nc(c(-c5c(F)cccc5F)c5ccc([nH]5)c(-c5c(F)cccc5F)c5nc(c(-c6c(F)cccc6F)c6ccc3[nH]6)C=C5)C=C4)cc2)c1
REMARK SMILES IDX 15 1 16 2 14 3 13 4 12 5 8 6 9 7 77 8 10 9 11 10 7 11 6 12
REMARK SMILES IDX 2 13 1 14 3 15 4 16 5 17 17 19 18 20 19 21 20 22 21 23 22 24
REMARK SMILES IDX 23 25 24 26 76 27 25 28 75 29 26 30 27 31 28 32 69 33 29 34
REMARK SMILES IDX 74 35 68 36 70 37 30 38 73 39 67 40 66 41 31 43 57 44 40 45
REMARK SMILES IDX 56 46 41 47 44 48 55 49 71 50 42 51 43 52 54 54 72 55 45 56
REMARK SMILES IDX 32 57 33 58 38 59 34 60 35 61 37 62 39 63 36 64 58 65 59 66
REMARK SMILES IDX 64 67 60 68 61 69 63 70 65 71 62 72 46 73 47 74 52 75 48 76
REMARK SMILES IDX 49 77 51 78 53 79 50 80
REMARK H PARENT 5 18 70 42 44 53
REMARK Flexibility Score: inf
ROOT
ATOM      1  C   UNL A   1      40.083  20.561  25.898  1.00  0.00     0.330 C 
ATOM      2  O   UNL A   1      40.185  19.348  25.776  1.00  0.00    -0.247 OA
ENDROOT
BRANCH   1   3
ATOM      3  C   UNL A   1      38.768  21.223  25.774  1.00  0.00     0.094 C 
ATOM      4  C   UNL A   1      37.807  20.918  24.889  1.00  0.00     0.015 C 
BRANCH   4   5
ATOM      5  C   UNL A   1      36.543  21.670  24.753  1.00  0.00    -0.025 A 
ATOM      6  C   UNL A   1      34.115  21.620  24.403  1.00  0.00    -0.037 A 
ATOM      7  C   UNL A   1      34.104  23.016  24.315  1.00  0.00     0.004 A 
ATOM      8  C   UNL A   1      35.335  20.963  24.666  1.00  0.00     0.012 A 
ATOM      9  C   UNL A   1      35.295  23.732  24.404  1.00  0.00     0.001 A 
ATOM     10  C   UNL A   1      36.506  23.063  24.598  1.00  0.00     0.008 A 
BRANCH   6  11
ATOM     11  C   UNL A   1      32.852  20.829  24.174  1.00  0.00     0.105 C 
BRANCH  11  12
ATOM     12  S   UNL A   1      32.750  19.349  25.252  1.00  0.00    -0.154 SA
BRANCH  12  13
ATOM     13  C   UNL A   1      33.088  17.914  24.145  1.00  0.00     0.046 C 
ATOM     14  C   UNL A   1      32.600  18.046  22.706  1.00  0.00     0.019 C 
BRANCH  13  15
ATOM     15  C   UNL A   1      34.522  17.354  24.252  1.00  0.00     0.042 C 
BRANCH  15  16
ATOM     16  C   UNL A   1      34.707  16.068  25.046  1.00  0.00     0.157 C 
BRANCH  16  17
ATOM     17  O   UNL A   1      35.938  16.090  25.750  1.00  0.00    -0.396 OA
ATOM     18  H   UNL A   1      36.462  16.854  25.461  1.00  0.00     0.210 HD
ENDBRANCH  16  17
ENDBRANCH  15  16
ENDBRANCH  13  15
ENDBRANCH  12  13
ENDBRANCH  11  12
ENDBRANCH   6  11
ENDBRANCH   4   5
ENDBRANCH   1   3
BRANCH   1  19
ATOM     19  O   UNL A   1      41.088  21.422  26.182  1.00  0.00    -0.459 OA
BRANCH  19  20
ATOM     20  C   UNL A   1      42.414  20.861  26.145  1.00  0.00     0.275 C 
BRANCH  20  21
ATOM     21  C   UNL A   1      43.431  21.821  25.517  1.00  0.00     0.275 C 
BRANCH  21  22
ATOM     22  O   UNL A   1      42.839  23.082  25.155  1.00  0.00    -0.458 OA
BRANCH  22  23
ATOM     23  C   UNL A   1      43.684  24.140  25.199  1.00  0.00     0.338 C 
ATOM     24  O   UNL A   1      44.547  24.425  24.387  1.00  0.00    -0.246 OA
BRANCH  23  25
ATOM     25  C   UNL A   1      43.349  25.007  26.345  1.00  0.00     0.060 A 
ATOM     26  C   UNL A   1      42.425  24.528  27.278  1.00  0.00     0.016 A 
ATOM     27  C   UNL A   1      43.876  26.296  26.467  1.00  0.00     0.016 A 
ATOM     28  C   UNL A   1      42.021  25.339  28.338  1.00  0.00     0.010 A 
ATOM     29  C   UNL A   1      43.465  27.110  27.528  1.00  0.00     0.010 A 
ATOM     30  C   UNL A   1      42.528  26.640  28.465  1.00  0.00    -0.014 A 
BRANCH  30  31
ATOM     31  C   UNL A   1      42.042  27.522  29.555  1.00  0.00     0.031 A 
ATOM     32  C   UNL A   1      42.730  27.516  30.889  1.00  0.00     0.074 A 
ATOM     33  C   UNL A   1      40.991  28.333  29.344  1.00  0.00     0.049 A 
ATOM     34  N   UNL A   1      42.428  28.174  31.980  1.00  0.00    -0.248 NA
ATOM     35  C   UNL A   1      43.916  26.654  31.013  1.00  0.00     0.031 C 
ATOM     36  C   UNL A   1      40.254  28.450  28.085  1.00  0.00     0.029 A 
ATOM     37  N   UNL A   1      40.355  29.208  30.189  1.00  0.00    -0.354 N 
ATOM     38  C   UNL A   1      43.379  27.802  32.922  1.00  0.00     0.074 A 
ATOM     39  C   UNL A   1      44.253  26.842  32.281  1.00  0.00     0.031 C 
ATOM     40  C   UNL A   1      39.264  29.345  28.242  1.00  0.00     0.029 A 
ATOM     41  C   UNL A   1      39.275  29.836  29.618  1.00  0.00     0.049 A 
ATOM     42  H   UNL A   1      40.645  29.371  31.115  1.00  0.00     0.167 HD
ATOM     43  C   UNL A   1      43.513  28.228  34.201  1.00  0.00     0.037 A 
ATOM     44  C   UNL A   1      38.381  30.690  30.152  1.00  0.00     0.037 A 
ATOM     45  C   UNL A   1      42.647  29.186  34.837  1.00  0.00     0.049 A 
ATOM     46  C   UNL A   1      38.515  31.100  31.592  1.00  0.00     0.074 A 
ATOM     47  C   UNL A   1      42.717  29.695  36.123  1.00  0.00     0.029 A 
ATOM     48  N   UNL A   1      41.547  29.778  34.234  1.00  0.00    -0.354 N 
ATOM     49  N   UNL A   1      39.430  30.757  32.468  1.00  0.00    -0.248 NA
ATOM     50  C   UNL A   1      37.492  32.013  32.121  1.00  0.00     0.031 C 
ATOM     51  C   UNL A   1      41.636  30.562  36.312  1.00  0.00     0.029 A 
ATOM     52  C   UNL A   1      40.917  30.628  35.128  1.00  0.00     0.049 A 
ATOM     53  H   UNL A   1      41.256  29.618  33.307  1.00  0.00     0.167 HD
ATOM     54  C   UNL A   1      39.106  31.430  33.639  1.00  0.00     0.074 A 
ATOM     55  C   UNL A   1      37.918  32.208  33.361  1.00  0.00     0.031 C 
ATOM     56  C   UNL A   1      39.739  31.403  34.838  1.00  0.00     0.037 A 
BRANCH  43  57
ATOM     57  C   UNL A   1      44.631  27.639  35.010  1.00  0.00     0.057 A 
ATOM     58  C   UNL A   1      44.462  26.472  35.766  1.00  0.00     0.134 A 
ATOM     59  C   UNL A   1      45.902  28.228  35.003  1.00  0.00     0.134 A 
ATOM     60  F   UNL A   1      43.267  25.866  35.822  1.00  0.00    -0.206 F 
ATOM     61  C   UNL A   1      45.513  25.923  36.503  1.00  0.00     0.040 A 
ATOM     62  C   UNL A   1      46.966  27.675  35.718  1.00  0.00     0.040 A 
ATOM     63  F   UNL A   1      46.132  29.343  34.294  1.00  0.00    -0.206 F 
ATOM     64  C   UNL A   1      46.771  26.521  36.475  1.00  0.00     0.006 A 
ENDBRANCH  43  57
BRANCH  44  65
ATOM     65  C   UNL A   1      37.267  31.209  29.320  1.00  0.00     0.057 A 
ATOM     66  C   UNL A   1      37.297  32.505  28.794  1.00  0.00     0.134 A 
ATOM     67  C   UNL A   1      36.142  30.424  29.042  1.00  0.00     0.134 A 
ATOM     68  F   UNL A   1      38.338  33.312  29.047  1.00  0.00    -0.206 F 
ATOM     69  C   UNL A   1      36.244  33.007  28.030  1.00  0.00     0.040 A 
ATOM     70  C   UNL A   1      35.091  30.906  28.259  1.00  0.00     0.040 A 
ATOM     71  F   UNL A   1      36.051  29.174  29.519  1.00  0.00    -0.206 F 
ATOM     72  C   UNL A   1      35.138  32.203  27.755  1.00  0.00     0.006 A 
ENDBRANCH  44  65
BRANCH  56  73
ATOM     73  C   UNL A   1      39.180  32.266  35.929  1.00  0.00     0.057 A 
ATOM     74  C   UNL A   1      38.258  31.774  36.861  1.00  0.00     0.134 A 
ATOM     75  C   UNL A   1      39.601  33.595  36.075  1.00  0.00     0.134 A 
ATOM     76  F   UNL A   1      37.804  30.515  36.769  1.00  0.00    -0.206 F 
ATOM     77  C   UNL A   1      37.762  32.577  37.890  1.00  0.00     0.040 A 
ATOM     78  C   UNL A   1      39.130  34.400  37.112  1.00  0.00     0.040 A 
ATOM     79  F   UNL A   1      40.488  34.125  35.220  1.00  0.00    -0.206 F 
ATOM     80  C   UNL A   1      38.204  33.893  38.021  1.00  0.00     0.006 A 
ENDBRANCH  56  73
ENDBRANCH  30  31
ENDBRANCH  23  25
ENDBRANCH  22  23
ENDBRANCH  21  22
ENDBRANCH  20  21
ENDBRANCH  19  20
ENDBRANCH   1  19
TORSDOF 18
ENDMDL
MODEL 3
REMARK VINA RESULT:      -9.8      5.217      7.582
REMARK SMILES C[C@@H](CCO)SCc1cccc(/C=C/C(=O)OCCOC(=O)c2ccc(-c3c4nc(c(-c5c(F)cccc5F)c5ccc([nH]5)c(-c5c(F)cccc5F)c5nc(c(-c6c(F)cccc6F)c6ccc3[nH]6)C=C5)C=C4)cc2)c1
REMARK SMILES IDX 15 1 16 2 14 3 13 4 12 5 8 6 9 7 77 8 10 9 11 10 7 11 6 12
REMARK SMILES IDX 2 13 1 14 3 15 4 16 5 17 17 19 18 20 19 21 20 22 21 23 22 24
REMARK SMILES IDX 23 25 24 26 76 27 25 28 75 29 26 30 27 31 28 32 69 33 29 34
REMARK SMILES IDX 74 35 68 36 70 37 30 38 73 39 67 40 66 41 31 43 57 44 40 45
REMARK SMILES IDX 56 46 41 47 44 48 55 49 71 50 42 51 43 52 54 54 72 55 45 56
REMARK SMILES IDX 32 57 33 58 38 59 34 60 35 61 37 62 39 63 36 64 58 65 59 66
REMARK SMILES IDX 64 67 60 68 61 69 63 70 65 71 62 72 46 73 47 74 52 75 48 76
REMARK SMILES IDX 49 77 51 78 53 79 50 80
REMARK H PARENT 5 18 70 42 44 53
REMARK Flexibility Score: inf
ROOT
ATOM      1  C   UNL A   1      39.916  21.168  26.112  1.00  0.00     0.330 C 
ATOM      2  O   UNL A   1      40.511  22.190  26.426  1.00  0.00    -0.247 OA
ENDROOT
BRANCH   1   3
ATOM      3  C   UNL A   1      38.508  21.222  25.669  1.00  0.00     0.094 C 
ATOM      4  C   UNL A   1      37.905  22.260  25.069  1.00  0.00     0.015 C 
BRANCH   4   5
ATOM      5  C   UNL A   1      36.469  22.291  24.724  1.00  0.00    -0.025 A 
ATOM      6  C   UNL A   1      34.265  21.225  24.879  1.00  0.00    -0.037 A 
ATOM      7  C   UNL A   1      33.752  22.166  23.980  1.00  0.00     0.004 A 
ATOM      8  C   UNL A   1      35.615  21.326  25.276  1.00  0.00     0.012 A 
ATOM      9  C   UNL A   1      34.588  23.132  23.427  1.00  0.00     0.001 A 
ATOM     10  C   UNL A   1      35.939  23.179  23.778  1.00  0.00     0.008 A 
BRANCH   6  11
ATOM     11  C   UNL A   1      33.401  20.095  25.378  1.00  0.00     0.105 C 
BRANCH  11  12
ATOM     12  S   UNL A   1      32.712  19.086  24.011  1.00  0.00    -0.154 SA
BRANCH  12  13
ATOM     13  C   UNL A   1      33.836  17.632  23.860  1.00  0.00     0.046 C 
ATOM     14  C   UNL A   1      35.158  17.724  24.615  1.00  0.00     0.019 C 
BRANCH  13  15
ATOM     15  C   UNL A   1      33.135  16.268  24.027  1.00  0.00     0.042 C 
BRANCH  15  16
ATOM     16  C   UNL A   1      33.140  15.651  25.419  1.00  0.00     0.157 C 
BRANCH  16  17
ATOM     17  O   UNL A   1      33.646  14.327  25.375  1.00  0.00    -0.396 OA
ATOM     18  H   UNL A   1      34.512  14.297  25.811  1.00  0.00     0.210 HD
ENDBRANCH  16  17
ENDBRANCH  15  16
ENDBRANCH  13  15
ENDBRANCH  12  13
ENDBRANCH  11  12
ENDBRANCH   6  11
ENDBRANCH   4   5
ENDBRANCH   1   3
BRANCH   1  19
ATOM     19  O   UNL A   1      40.435  19.918  26.090  1.00  0.00    -0.459 OA
BRANCH  19  20
ATOM     20  C   UNL A   1      41.734  19.774  26.696  1.00  0.00     0.275 C 
BRANCH  20  21
ATOM     21  C   UNL A   1      42.609  18.760  25.952  1.00  0.00     0.275 C 
BRANCH  21  22
ATOM     22  O   UNL A   1      43.034  19.247  24.665  1.00  0.00    -0.458 OA
BRANCH  22  23
ATOM     23  C   UNL A   1      44.363  19.488  24.558  1.00  0.00     0.338 C 
ATOM     24  O   UNL A   1      45.222  18.710  24.184  1.00  0.00    -0.246 OA
BRANCH  23  25
ATOM     25  C   UNL A   1      44.646  20.903  24.863  1.00  0.00     0.060 A 
ATOM     26  C   UNL A   1      45.162  21.210  26.125  1.00  0.00     0.016 A 
ATOM     27  C   UNL A   1      44.344  21.922  23.955  1.00  0.00     0.016 A 
ATOM     28  C   UNL A   1      45.377  22.539  26.486  1.00  0.00     0.010 A 
ATOM     29  C   UNL A   1      44.555  23.256  24.321  1.00  0.00     0.010 A 
ATOM     30  C   UNL A   1      45.064  23.573  25.592  1.00  0.00    -0.014 A 
BRANCH  30  31
ATOM     31  C   UNL A   1      45.229  24.988  26.008  1.00  0.00     0.031 A 
ATOM     32  C   UNL A   1      46.577  25.644  25.921  1.00  0.00     0.074 A 
ATOM     33  C   UNL A   1      44.170  25.685  26.454  1.00  0.00     0.049 A 
ATOM     34  N   UNL A   1      46.936  26.850  26.281  1.00  0.00    -0.248 NA
ATOM     35  C   UNL A   1      47.667  24.834  25.355  1.00  0.00     0.031 C 
ATOM     36  C   UNL A   1      42.805  25.170  26.560  1.00  0.00     0.029 A 
ATOM     37  N   UNL A   1      44.079  26.977  26.909  1.00  0.00    -0.354 N 
ATOM     38  C   UNL A   1      48.292  26.943  25.993  1.00  0.00     0.074 A 
ATOM     39  C   UNL A   1      48.696  25.663  25.451  1.00  0.00     0.031 C 
ATOM     40  C   UNL A   1      42.011  26.137  27.052  1.00  0.00     0.029 A 
ATOM     41  C   UNL A   1      42.817  27.324  27.328  1.00  0.00     0.049 A 
ATOM     42  H   UNL A   1      44.843  27.596  26.932  1.00  0.00     0.167 HD
ATOM     43  C   UNL A   1      49.120  28.002  26.160  1.00  0.00     0.037 A 
ATOM     44  C   UNL A   1      42.369  28.461  27.893  1.00  0.00     0.037 A 
ATOM     45  C   UNL A   1      48.717  29.277  26.694  1.00  0.00     0.049 A 
ATOM     46  C   UNL A   1      43.323  29.601  28.125  1.00  0.00     0.074 A 
ATOM     47  C   UNL A   1      49.482  30.416  26.880  1.00  0.00     0.029 A 
ATOM     48  N   UNL A   1      47.437  29.580  27.134  1.00  0.00    -0.354 N 
ATOM     49  N   UNL A   1      44.598  29.685  27.830  1.00  0.00    -0.248 NA
ATOM     50  C   UNL A   1      42.776  30.803  28.769  1.00  0.00     0.031 C 
ATOM     51  C   UNL A   1      48.675  31.395  27.470  1.00  0.00     0.029 A 
ATOM     52  C   UNL A   1      47.396  30.880  27.611  1.00  0.00     0.049 A 
ATOM     53  H   UNL A   1      46.671  28.963  27.109  1.00  0.00     0.167 HD
ATOM     54  C   UNL A   1      44.998  30.953  28.230  1.00  0.00     0.074 A 
ATOM     55  C   UNL A   1      43.829  31.608  28.780  1.00  0.00     0.031 C 
ATOM     56  C   UNL A   1      46.225  31.523  28.149  1.00  0.00     0.037 A 
BRANCH  43  57
ATOM     57  C   UNL A   1      50.560  27.818  25.779  1.00  0.00     0.057 A 
ATOM     58  C   UNL A   1      50.995  27.945  24.454  1.00  0.00     0.134 A 
ATOM     59  C   UNL A   1      51.527  27.547  26.755  1.00  0.00     0.134 A 
ATOM     60  F   UNL A   1      50.118  28.195  23.471  1.00  0.00    -0.206 F 
ATOM     61  C   UNL A   1      52.340  27.788  24.110  1.00  0.00     0.040 A 
ATOM     62  C   UNL A   1      52.876  27.410  26.427  1.00  0.00     0.040 A 
ATOM     63  F   UNL A   1      51.176  27.420  28.044  1.00  0.00    -0.206 F 
ATOM     64  C   UNL A   1      53.285  27.527  25.100  1.00  0.00     0.006 A 
ENDBRANCH  43  57
BRANCH  44  65
ATOM     65  C   UNL A   1      40.944  28.575  28.293  1.00  0.00     0.057 A 
ATOM     66  C   UNL A   1      39.968  28.998  27.385  1.00  0.00     0.134 A 
ATOM     67  C   UNL A   1      40.530  28.276  29.596  1.00  0.00     0.134 A 
ATOM     68  F   UNL A   1      40.309  29.323  26.129  1.00  0.00    -0.206 F 
ATOM     69  C   UNL A   1      38.630  29.129  27.760  1.00  0.00     0.040 A 
ATOM     70  C   UNL A   1      39.191  28.380  29.978  1.00  0.00     0.040 A 
ATOM     71  F   UNL A   1      41.418  27.868  30.514  1.00  0.00    -0.206 F 
ATOM     72  C   UNL A   1      38.238  28.813  29.060  1.00  0.00     0.006 A 
ENDBRANCH  44  65
BRANCH  56  73
ATOM     73  C   UNL A   1      46.361  32.935  28.635  1.00  0.00     0.057 A 
ATOM     74  C   UNL A   1      46.724  33.232  29.954  1.00  0.00     0.134 A 
ATOM     75  C   UNL A   1      46.165  34.012  27.759  1.00  0.00     0.134 A 
ATOM     76  F   UNL A   1      46.912  32.247  30.845  1.00  0.00    -0.206 F 
ATOM     77  C   UNL A   1      46.873  34.550  30.390  1.00  0.00     0.040 A 
ATOM     78  C   UNL A   1      46.334  35.332  28.178  1.00  0.00     0.040 A 
ATOM     79  F   UNL A   1      45.823  33.796  26.480  1.00  0.00    -0.206 F 
ATOM     80  C   UNL A   1      46.684  35.604  29.499  1.00  0.00     0.006 A 
ENDBRANCH  56  73
ENDBRANCH  30  31
ENDBRANCH  23  25
ENDBRANCH  22  23
ENDBRANCH  21  22
ENDBRANCH  20  21
ENDBRANCH  19  20
ENDBRANCH   1  19
TORSDOF 18
ENDMDL
