MODEL 1
REMARK VINA RESULT:     -13.4      0.000      0.000
REMARK SMILES C[N@@H+]1CC[C@H]2CN(C(=O)c3csc(-c4ccncc4)n3)C[C@@]2(C(=O)OCCOC(=O)c2ccc(-c3c4nc(c(-c5c(F)cccc5F)c5ccc([nH]5)c(-c5c(F)cccc5F)c5nc(c(-c6c(F)cccc6F)c6ccc3[nH]6)C=C5)C=C4)cc2)C1
REMARK SMILES IDX 26 1 25 2 23 3 24 4 22 5 1 6 2 7 3 8 85 9 4 11 5 12 21 13
REMARK SMILES IDX 6 14 7 15 8 16 9 17 10 18 11 19 20 20 12 21 13 22 14 23
REMARK SMILES IDX 15 24 19 25 16 26 18 27 17 28 27 29 28 30 29 31 30 32 31 33
REMARK SMILES IDX 32 34 84 35 33 36 83 37 34 38 35 39 36 40 77 41 37 42 82 43
REMARK SMILES IDX 76 44 78 45 38 46 81 47 75 48 74 49 39 51 65 52 48 53 64 54
REMARK SMILES IDX 49 55 52 56 63 57 79 58 50 59 51 60 62 62 80 63 53 64 40 65
REMARK SMILES IDX 41 66 46 67 42 68 43 69 45 70 47 71 44 72 66 73 67 74 72 75
REMARK SMILES IDX 68 76 69 77 71 78 73 79 70 80 54 81 55 82 60 83 56 84 57 85
REMARK SMILES IDX 59 86 61 87 58 88
REMARK H PARENT 2 10 78 50 52 61
REMARK Flexibility Score: inf
ROOT
ATOM      1  C   UNL A   1      31.864  26.689  26.720  1.00  0.00     0.274 C 
ENDROOT
BRANCH   1   2
ATOM      2  O   UNL A   1      31.779  25.748  25.603  1.00  0.00    -0.461 OA
BRANCH   2   3
ATOM      3  C   UNL A   1      31.168  24.514  25.767  1.00  0.00     0.320 C 
ATOM      4  O   UNL A   1      30.276  24.297  26.573  1.00  0.00    -0.251 OA
BRANCH   3   5
ATOM      5  C   UNL A   1      31.775  23.502  24.756  1.00  0.00     0.139 C 
ATOM      6  C   UNL A   1      32.857  22.849  27.415  1.00  0.00     0.332 C 
ATOM      7  N   UNL A   1      32.368  21.797  26.496  1.00  0.00    -0.336 N 
ATOM      8  C   UNL A   1      33.547  21.174  25.910  1.00  0.00     0.262 C 
ATOM      9  C   UNL A   1      31.419  22.146  25.382  1.00  0.00     0.283 C 
ATOM     10  H   UNL A   1      31.787  21.209  27.091  1.00  0.00     0.347 HD
ATOM     11  C   UNL A   1      33.947  21.901  24.637  1.00  0.00     0.068 C 
ATOM     12  C   UNL A   1      33.315  23.318  24.401  1.00  0.00     0.039 C 
ATOM     13  C   UNL A   1      31.174  24.045  23.436  1.00  0.00     0.145 C 
ATOM     14  C   UNL A   1      33.404  23.488  22.884  1.00  0.00     0.125 C 
ATOM     15  N   UNL A   1      32.323  24.354  22.584  1.00  0.00    -0.336 N 
BRANCH  15  16
ATOM     16  C   UNL A   1      32.537  25.336  21.641  1.00  0.00     0.273 C 
ATOM     17  O   UNL A   1      33.136  25.091  20.593  1.00  0.00    -0.267 OA
BRANCH  16  18
ATOM     18  C   UNL A   1      32.192  26.712  21.992  1.00  0.00     0.139 A 
ATOM     19  C   UNL A   1      33.103  27.586  22.558  1.00  0.00     0.101 A 
ATOM     20  N   UNL A   1      30.873  27.170  21.995  1.00  0.00    -0.231 NA
ATOM     21  S   UNL A   1      32.315  29.006  23.088  1.00  0.00    -0.122 S 
ATOM     22  C   UNL A   1      30.806  28.338  22.598  1.00  0.00     0.124 A 
BRANCH  22  23
ATOM     23  C   UNL A   1      29.579  29.066  22.910  1.00  0.00     0.013 A 
ATOM     24  C   UNL A   1      29.621  30.426  23.234  1.00  0.00     0.031 A 
ATOM     25  C   UNL A   1      28.343  28.419  22.869  1.00  0.00     0.031 A 
ATOM     26  C   UNL A   1      28.424  31.079  23.480  1.00  0.00     0.111 A 
ATOM     27  C   UNL A   1      27.205  29.158  23.137  1.00  0.00     0.111 A 
ATOM     28  N   UNL A   1      27.217  30.476  23.433  1.00  0.00    -0.265 NA
ENDBRANCH  22  23
ENDBRANCH  16  18
ENDBRANCH  15  16
ENDBRANCH   3   5
ENDBRANCH   2   3
ENDBRANCH   1   2
BRANCH   1  29
ATOM     29  C   UNL A   1      31.422  28.133  26.291  1.00  0.00     0.275 C 
BRANCH  29  30
ATOM     30  O   UNL A   1      31.764  29.148  27.279  1.00  0.00    -0.458 OA
BRANCH  30  31
ATOM     31  C   UNL A   1      32.367  30.308  26.845  1.00  0.00     0.338 C 
ATOM     32  O   UNL A   1      31.813  31.193  26.218  1.00  0.00    -0.246 OA
BRANCH  31  33
ATOM     33  C   UNL A   1      33.800  30.413  27.322  1.00  0.00     0.060 A 
ATOM     34  C   UNL A   1      34.610  29.299  27.280  1.00  0.00     0.016 A 
ATOM     35  C   UNL A   1      34.349  31.554  27.913  1.00  0.00     0.016 A 
ATOM     36  C   UNL A   1      35.765  29.205  28.063  1.00  0.00     0.010 A 
ATOM     37  C   UNL A   1      35.643  31.516  28.515  1.00  0.00     0.010 A 
ATOM     38  C   UNL A   1      36.359  30.310  28.675  1.00  0.00    -0.014 A 
BRANCH  38  39
ATOM     39  C   UNL A   1      37.650  30.167  29.476  1.00  0.00     0.031 A 
ATOM     40  C   UNL A   1      38.872  29.486  28.877  1.00  0.00     0.074 A 
ATOM     41  C   UNL A   1      37.829  30.686  30.719  1.00  0.00     0.049 A 
ATOM     42  N   UNL A   1      39.910  28.955  29.481  1.00  0.00    -0.248 NA
ATOM     43  C   UNL A   1      38.929  29.381  27.412  1.00  0.00     0.031 C 
ATOM     44  C   UNL A   1      36.855  31.462  31.486  1.00  0.00     0.029 A 
ATOM     45  N   UNL A   1      38.929  30.666  31.561  1.00  0.00    -0.354 N 
ATOM     46  C   UNL A   1      40.665  28.339  28.487  1.00  0.00     0.074 A 
ATOM     47  C   UNL A   1      39.993  28.609  27.232  1.00  0.00     0.031 C 
ATOM     48  C   UNL A   1      37.429  31.959  32.589  1.00  0.00     0.029 A 
ATOM     49  C   UNL A   1      38.744  31.358  32.741  1.00  0.00     0.049 A 
ATOM     50  H   UNL A   1      39.767  30.202  31.339  1.00  0.00     0.167 HD
ATOM     51  C   UNL A   1      41.795  27.596  28.610  1.00  0.00     0.037 A 
ATOM     52  C   UNL A   1      39.472  31.436  33.875  1.00  0.00     0.037 A 
ATOM     53  C   UNL A   1      42.540  27.434  29.835  1.00  0.00     0.049 A 
ATOM     54  C   UNL A   1      40.704  30.594  34.019  1.00  0.00     0.074 A 
ATOM     55  C   UNL A   1      43.669  26.667  30.072  1.00  0.00     0.029 A 
ATOM     56  N   UNL A   1      42.260  28.097  31.020  1.00  0.00    -0.354 N 
ATOM     57  N   UNL A   1      41.278  29.817  33.135  1.00  0.00    -0.248 NA
ATOM     58  C   UNL A   1      41.352  30.583  35.340  1.00  0.00     0.031 C 
ATOM     59  C   UNL A   1      44.060  26.850  31.404  1.00  0.00     0.029 A 
ATOM     60  C   UNL A   1      43.195  27.760  31.986  1.00  0.00     0.049 A 
ATOM     61  H   UNL A   1      41.506  28.716  31.155  1.00  0.00     0.167 HD
ATOM     62  C   UNL A   1      42.341  29.215  33.794  1.00  0.00     0.074 A 
ATOM     63  C   UNL A   1      42.357  29.742  35.142  1.00  0.00     0.031 C 
ATOM     64  C   UNL A   1      43.211  28.289  33.324  1.00  0.00     0.037 A 
BRANCH  51  65
ATOM     65  C   UNL A   1      42.249  26.821  27.403  1.00  0.00     0.057 A 
ATOM     66  C   UNL A   1      43.129  27.339  26.448  1.00  0.00     0.134 A 
ATOM     67  C   UNL A   1      41.791  25.509  27.210  1.00  0.00     0.134 A 
ATOM     68  F   UNL A   1      43.600  28.591  26.564  1.00  0.00    -0.206 F 
ATOM     69  C   UNL A   1      43.509  26.596  25.326  1.00  0.00     0.040 A 
ATOM     70  C   UNL A   1      42.183  24.746  26.108  1.00  0.00     0.040 A 
ATOM     71  F   UNL A   1      40.956  24.942  28.095  1.00  0.00    -0.206 F 
ATOM     72  C   UNL A   1      43.037  25.295  25.156  1.00  0.00     0.006 A 
ENDBRANCH  51  65
BRANCH  52  73
ATOM     73  C   UNL A   1      38.978  32.246  35.026  1.00  0.00     0.057 A 
ATOM     74  C   UNL A   1      38.226  31.668  36.056  1.00  0.00     0.134 A 
ATOM     75  C   UNL A   1      39.255  33.617  35.129  1.00  0.00     0.134 A 
ATOM     76  F   UNL A   1      37.887  30.372  35.998  1.00  0.00    -0.206 F 
ATOM     77  C   UNL A   1      37.784  32.418  37.149  1.00  0.00     0.040 A 
ATOM     78  C   UNL A   1      38.853  34.369  36.234  1.00  0.00     0.040 A 
ATOM     79  F   UNL A   1      39.956  34.240  34.171  1.00  0.00    -0.206 F 
ATOM     80  C   UNL A   1      38.111  33.770  37.248  1.00  0.00     0.006 A 
ENDBRANCH  52  73
BRANCH  64  81
ATOM     81  C   UNL A   1      44.271  27.809  34.269  1.00  0.00     0.057 A 
ATOM     82  C   UNL A   1      45.496  28.472  34.399  1.00  0.00     0.134 A 
ATOM     83  C   UNL A   1      44.056  26.680  35.068  1.00  0.00     0.134 A 
ATOM     84  F   UNL A   1      45.770  29.550  33.647  1.00  0.00    -0.206 F 
ATOM     85  C   UNL A   1      46.479  28.020  35.282  1.00  0.00     0.040 A 
ATOM     86  C   UNL A   1      45.024  26.229  35.967  1.00  0.00     0.040 A 
ATOM     87  F   UNL A   1      42.902  25.999  34.990  1.00  0.00    -0.206 F 
ATOM     88  C   UNL A   1      46.242  26.897  36.072  1.00  0.00     0.006 A 
ENDBRANCH  64  81
ENDBRANCH  38  39
ENDBRANCH  31  33
ENDBRANCH  30  31
ENDBRANCH  29  30
ENDBRANCH   1  29
TORSDOF 14
ENDMDL
MODEL 2
REMARK VINA RESULT:     -13.3      3.812      8.913
REMARK SMILES C[N@@H+]1CC[C@H]2CN(C(=O)c3csc(-c4ccncc4)n3)C[C@@]2(C(=O)OCCOC(=O)c2ccc(-c3c4nc(c(-c5c(F)cccc5F)c5ccc([nH]5)c(-c5c(F)cccc5F)c5nc(c(-c6c(F)cccc6F)c6ccc3[nH]6)C=C5)C=C4)cc2)C1
REMARK SMILES IDX 26 1 25 2 23 3 24 4 22 5 1 6 2 7 3 8 85 9 4 11 5 12 21 13
REMARK SMILES IDX 6 14 7 15 8 16 9 17 10 18 11 19 20 20 12 21 13 22 14 23
REMARK SMILES IDX 15 24 19 25 16 26 18 27 17 28 27 29 28 30 29 31 30 32 31 33
REMARK SMILES IDX 32 34 84 35 33 36 83 37 34 38 35 39 36 40 77 41 37 42 82 43
REMARK SMILES IDX 76 44 78 45 38 46 81 47 75 48 74 49 39 51 65 52 48 53 64 54
REMARK SMILES IDX 49 55 52 56 63 57 79 58 50 59 51 60 62 62 80 63 53 64 40 65
REMARK SMILES IDX 41 66 46 67 42 68 43 69 45 70 47 71 44 72 66 73 67 74 72 75
REMARK SMILES IDX 68 76 69 77 71 78 73 79 70 80 54 81 55 82 60 83 56 84 57 85
REMARK SMILES IDX 59 86 61 87 58 88
REMARK H PARENT 2 10 78 50 52 61
REMARK Flexibility Score: inf
ROOT
ATOM      1  C   UNL A   1      35.155  23.827  23.485  1.00  0.00     0.274 C 
ENDROOT
BRANCH   1   2
ATOM      2  O   UNL A   1      33.716  24.043  23.638  1.00  0.00    -0.461 OA
BRANCH   2   3
ATOM      3  C   UNL A   1      32.995  24.698  22.650  1.00  0.00     0.320 C 
ATOM      4  O   UNL A   1      33.290  24.679  21.466  1.00  0.00    -0.251 OA
BRANCH   3   5
ATOM      5  C   UNL A   1      31.769  25.405  23.294  1.00  0.00     0.139 C 
ATOM      6  C   UNL A   1      33.667  27.501  22.474  1.00  0.00     0.332 C 
ATOM      7  N   UNL A   1      32.215  27.622  22.213  1.00  0.00    -0.336 N 
ATOM      8  C   UNL A   1      31.688  28.547  23.207  1.00  0.00     0.262 C 
ATOM      9  C   UNL A   1      31.343  26.397  22.203  1.00  0.00     0.283 C 
ATOM     10  H   UNL A   1      32.169  27.921  21.240  1.00  0.00     0.347 HD
ATOM     11  C   UNL A   1      31.257  27.790  24.452  1.00  0.00     0.068 C 
ATOM     12  C   UNL A   1      31.772  26.315  24.598  1.00  0.00     0.039 C 
ATOM     13  C   UNL A   1      30.943  24.169  23.730  1.00  0.00     0.145 C 
ATOM     14  C   UNL A   1      30.743  25.681  25.536  1.00  0.00     0.125 C 
ATOM     15  N   UNL A   1      30.766  24.311  25.176  1.00  0.00    -0.336 N 
BRANCH  15  16
ATOM     16  C   UNL A   1      30.693  23.384  26.193  1.00  0.00     0.273 C 
ATOM     17  O   UNL A   1      29.954  23.562  27.163  1.00  0.00    -0.267 OA
BRANCH  16  18
ATOM     18  C   UNL A   1      31.640  22.273  26.180  1.00  0.00     0.139 A 
ATOM     19  C   UNL A   1      32.832  22.302  26.883  1.00  0.00     0.101 A 
ATOM     20  N   UNL A   1      31.525  21.207  25.285  1.00  0.00    -0.231 NA
ATOM     21  S   UNL A   1      33.818  20.979  26.440  1.00  0.00    -0.122 S 
ATOM     22  C   UNL A   1      32.631  20.494  25.292  1.00  0.00     0.124 A 
BRANCH  22  23
ATOM     23  C   UNL A   1      32.932  19.381  24.395  1.00  0.00     0.013 A 
ATOM     24  C   UNL A   1      33.998  18.517  24.665  1.00  0.00     0.031 A 
ATOM     25  C   UNL A   1      32.147  19.152  23.264  1.00  0.00     0.031 A 
ATOM     26  C   UNL A   1      34.215  17.453  23.805  1.00  0.00     0.111 A 
ATOM     27  C   UNL A   1      32.449  18.065  22.463  1.00  0.00     0.111 A 
ATOM     28  N   UNL A   1      33.460  17.205  22.714  1.00  0.00    -0.265 NA
ENDBRANCH  22  23
ENDBRANCH  16  18
ENDBRANCH  15  16
ENDBRANCH   3   5
ENDBRANCH   2   3
ENDBRANCH   1   2
BRANCH   1  29
ATOM     29  C   UNL A   1      35.552  22.343  23.813  1.00  0.00     0.275 C 
BRANCH  29  30
ATOM     30  O   UNL A   1      36.993  22.152  23.918  1.00  0.00    -0.458 OA
BRANCH  30  31
ATOM     31  C   UNL A   1      37.490  21.531  25.043  1.00  0.00     0.338 C 
ATOM     32  O   UNL A   1      37.358  20.348  25.305  1.00  0.00    -0.246 OA
BRANCH  31  33
ATOM     33  C   UNL A   1      38.317  22.472  25.891  1.00  0.00     0.060 A 
ATOM     34  C   UNL A   1      37.868  23.757  26.109  1.00  0.00     0.016 A 
ATOM     35  C   UNL A   1      39.584  22.166  26.397  1.00  0.00     0.016 A 
ATOM     36  C   UNL A   1      38.738  24.778  26.507  1.00  0.00     0.010 A 
ATOM     37  C   UNL A   1      40.385  23.171  27.019  1.00  0.00     0.010 A 
ATOM     38  C   UNL A   1      40.012  24.532  27.021  1.00  0.00    -0.014 A 
BRANCH  38  39
ATOM     39  C   UNL A   1      40.905  25.676  27.493  1.00  0.00     0.031 A 
ATOM     40  C   UNL A   1      40.402  26.696  28.504  1.00  0.00     0.074 A 
ATOM     41  C   UNL A   1      42.203  25.826  27.117  1.00  0.00     0.049 A 
ATOM     42  N   UNL A   1      40.846  27.905  28.758  1.00  0.00    -0.248 NA
ATOM     43  C   UNL A   1      39.248  26.310  29.328  1.00  0.00     0.031 C 
ATOM     44  C   UNL A   1      42.959  24.941  26.231  1.00  0.00     0.029 A 
ATOM     45  N   UNL A   1      43.144  26.780  27.465  1.00  0.00    -0.354 N 
ATOM     46  C   UNL A   1      39.948  28.466  29.662  1.00  0.00     0.074 A 
ATOM     47  C   UNL A   1      38.964  27.444  29.954  1.00  0.00     0.031 C 
ATOM     48  C   UNL A   1      44.250  25.294  26.222  1.00  0.00     0.029 A 
ATOM     49  C   UNL A   1      44.390  26.566  26.912  1.00  0.00     0.049 A 
ATOM     50  H   UNL A   1      42.944  27.542  28.055  1.00  0.00     0.167 HD
ATOM     51  C   UNL A   1      39.930  29.722  30.179  1.00  0.00     0.037 A 
ATOM     52  C   UNL A   1      45.503  27.327  26.853  1.00  0.00     0.037 A 
ATOM     53  C   UNL A   1      40.977  30.698  29.998  1.00  0.00     0.049 A 
ATOM     54  C   UNL A   1      45.471  28.723  27.400  1.00  0.00     0.074 A 
ATOM     55  C   UNL A   1      41.029  32.010  30.443  1.00  0.00     0.029 A 
ATOM     56  N   UNL A   1      42.182  30.450  29.361  1.00  0.00    -0.354 N 
ATOM     57  N   UNL A   1      44.511  29.330  28.050  1.00  0.00    -0.248 NA
ATOM     58  C   UNL A   1      46.652  29.564  27.145  1.00  0.00     0.031 C 
ATOM     59  C   UNL A   1      42.258  32.561  30.058  1.00  0.00     0.029 A 
ATOM     60  C   UNL A   1      42.985  31.580  29.404  1.00  0.00     0.049 A 
ATOM     61  H   UNL A   1      42.431  29.597  28.938  1.00  0.00     0.167 HD
ATOM     62  C   UNL A   1      44.962  30.625  28.268  1.00  0.00     0.074 A 
ATOM     63  C   UNL A   1      46.297  30.708  27.713  1.00  0.00     0.031 C 
ATOM     64  C   UNL A   1      44.313  31.658  28.856  1.00  0.00     0.037 A 
BRANCH  51  65
ATOM     65  C   UNL A   1      38.692  30.147  30.921  1.00  0.00     0.057 A 
ATOM     66  C   UNL A   1      38.539  29.998  32.303  1.00  0.00     0.134 A 
ATOM     67  C   UNL A   1      37.631  30.735  30.216  1.00  0.00     0.134 A 
ATOM     68  F   UNL A   1      39.509  29.436  33.039  1.00  0.00    -0.206 F 
ATOM     69  C   UNL A   1      37.361  30.384  32.952  1.00  0.00     0.040 A 
ATOM     70  C   UNL A   1      36.461  31.149  30.855  1.00  0.00     0.040 A 
ATOM     71  F   UNL A   1      37.716  30.922  28.889  1.00  0.00    -0.206 F 
ATOM     72  C   UNL A   1      36.320  30.964  32.228  1.00  0.00     0.006 A 
ENDBRANCH  51  65
BRANCH  52  73
ATOM     73  C   UNL A   1      46.709  26.833  26.125  1.00  0.00     0.057 A 
ATOM     74  C   UNL A   1      46.918  27.131  24.774  1.00  0.00     0.134 A 
ATOM     75  C   UNL A   1      47.686  26.059  26.768  1.00  0.00     0.134 A 
ATOM     76  F   UNL A   1      46.002  27.830  24.087  1.00  0.00    -0.206 F 
ATOM     77  C   UNL A   1      48.058  26.693  24.096  1.00  0.00     0.040 A 
ATOM     78  C   UNL A   1      48.848  25.648  26.114  1.00  0.00     0.040 A 
ATOM     79  F   UNL A   1      47.542  25.722  28.058  1.00  0.00    -0.206 F 
ATOM     80  C   UNL A   1      49.036  25.963  24.771  1.00  0.00     0.006 A 
ENDBRANCH  52  73
BRANCH  64  81
ATOM     81  C   UNL A   1      45.050  32.959  28.954  1.00  0.00     0.057 A 
ATOM     82  C   UNL A   1      45.892  33.248  30.035  1.00  0.00     0.134 A 
ATOM     83  C   UNL A   1      44.929  33.927  27.950  1.00  0.00     0.134 A 
ATOM     84  F   UNL A   1      46.036  32.369  31.039  1.00  0.00    -0.206 F 
ATOM     85  C   UNL A   1      46.577  34.461  30.121  1.00  0.00     0.040 A 
ATOM     86  C   UNL A   1      45.622  35.136  28.015  1.00  0.00     0.040 A 
ATOM     87  F   UNL A   1      44.137  33.710  26.889  1.00  0.00    -0.206 F 
ATOM     88  C   UNL A   1      46.446  35.407  29.106  1.00  0.00     0.006 A 
ENDBRANCH  64  81
ENDBRANCH  38  39
ENDBRANCH  31  33
ENDBRANCH  30  31
ENDBRANCH  29  30
ENDBRANCH   1  29
TORSDOF 14
ENDMDL
MODEL 3
REMARK VINA RESULT:     -12.7      3.987      8.299
REMARK SMILES C[N@@H+]1CC[C@H]2CN(C(=O)c3csc(-c4ccncc4)n3)C[C@@]2(C(=O)OCCOC(=O)c2ccc(-c3c4nc(c(-c5c(F)cccc5F)c5ccc([nH]5)c(-c5c(F)cccc5F)c5nc(c(-c6c(F)cccc6F)c6ccc3[nH]6)C=C5)C=C4)cc2)C1
REMARK SMILES IDX 26 1 25 2 23 3 24 4 22 5 1 6 2 7 3 8 85 9 4 11 5 12 21 13
REMARK SMILES IDX 6 14 7 15 8 16 9 17 10 18 11 19 20 20 12 21 13 22 14 23
REMARK SMILES IDX 15 24 19 25 16 26 18 27 17 28 27 29 28 30 29 31 30 32 31 33
REMARK SMILES IDX 32 34 84 35 33 36 83 37 34 38 35 39 36 40 77 41 37 42 82 43
REMARK SMILES IDX 76 44 78 45 38 46 81 47 75 48 74 49 39 51 65 52 48 53 64 54
REMARK SMILES IDX 49 55 52 56 63 57 79 58 50 59 51 60 62 62 80 63 53 64 40 65
REMARK SMILES IDX 41 66 46 67 42 68 43 69 45 70 47 71 44 72 66 73 67 74 72 75
REMARK SMILES IDX 68 76 69 77 71 78 73 79 70 80 54 81 55 82 60 83 56 84 57 85
REMARK SMILES IDX 59 86 61 87 58 88
REMARK H PARENT 2 10 78 50 52 61
REMARK Flexibility Score: inf
ROOT
ATOM      1  C   UNL A   1      33.168  30.468  27.593  1.00  0.00     0.274 C 
ENDROOT
BRANCH   1   2
ATOM      2  O   UNL A   1      33.410  29.212  26.883  1.00  0.00    -0.461 OA
BRANCH   2   3
ATOM      3  C   UNL A   1      32.405  28.262  26.771  1.00  0.00     0.320 C 
ATOM      4  O   UNL A   1      31.485  28.148  27.564  1.00  0.00    -0.251 OA
BRANCH   3   5
ATOM      5  C   UNL A   1      32.633  27.425  25.481  1.00  0.00     0.139 C 
ATOM      6  C   UNL A   1      31.115  29.829  24.715  1.00  0.00     0.332 C 
ATOM      7  N   UNL A   1      32.264  29.347  23.915  1.00  0.00    -0.336 N 
ATOM      8  C   UNL A   1      31.707  28.675  22.748  1.00  0.00     0.262 C 
ATOM      9  C   UNL A   1      33.290  28.439  24.534  1.00  0.00     0.283 C 
ATOM     10  H   UNL A   1      32.807  30.192  23.742  1.00  0.00     0.347 HD
ATOM     11  C   UNL A   1      31.482  27.203  23.048  1.00  0.00     0.068 C 
ATOM     12  C   UNL A   1      31.514  26.774  24.558  1.00  0.00     0.039 C 
ATOM     13  C   UNL A   1      33.352  26.192  26.084  1.00  0.00     0.145 C 
ATOM     14  C   UNL A   1      31.862  25.287  24.487  1.00  0.00     0.125 C 
ATOM     15  N   UNL A   1      32.524  25.043  25.716  1.00  0.00    -0.336 N 
BRANCH  15  16
ATOM     16  C   UNL A   1      32.244  23.859  26.365  1.00  0.00     0.273 C 
ATOM     17  O   UNL A   1      31.396  23.809  27.258  1.00  0.00    -0.267 OA
BRANCH  16  18
ATOM     18  C   UNL A   1      33.098  22.706  26.091  1.00  0.00     0.139 A 
ATOM     19  C   UNL A   1      34.479  22.773  26.152  1.00  0.00     0.101 A 
ATOM     20  N   UNL A   1      32.601  21.529  25.529  1.00  0.00    -0.231 NA
ATOM     21  S   UNL A   1      35.172  21.346  25.518  1.00  0.00    -0.122 S 
ATOM     22  C   UNL A   1      33.598  20.764  25.137  1.00  0.00     0.124 A 
BRANCH  22  23
ATOM     23  C   UNL A   1      33.470  19.516  24.388  1.00  0.00     0.013 A 
ATOM     24  C   UNL A   1      32.422  19.335  23.481  1.00  0.00     0.031 A 
ATOM     25  C   UNL A   1      34.405  18.494  24.552  1.00  0.00     0.031 A 
ATOM     26  C   UNL A   1      32.370  18.151  22.764  1.00  0.00     0.111 A 
ATOM     27  C   UNL A   1      34.263  17.345  23.794  1.00  0.00     0.111 A 
ATOM     28  N   UNL A   1      33.271  17.154  22.898  1.00  0.00    -0.265 NA
ENDBRANCH  22  23
ENDBRANCH  16  18
ENDBRANCH  15  16
ENDBRANCH   3   5
ENDBRANCH   2   3
ENDBRANCH   1   2
BRANCH   1  29
ATOM     29  C   UNL A   1      34.510  31.122  28.080  1.00  0.00     0.275 C 
BRANCH  29  30
ATOM     30  O   UNL A   1      34.297  32.295  28.918  1.00  0.00    -0.458 OA
BRANCH  30  31
ATOM     31  C   UNL A   1      34.806  32.287  30.198  1.00  0.00     0.338 C 
ATOM     32  O   UNL A   1      34.181  32.585  31.201  1.00  0.00    -0.246 OA
BRANCH  31  33
ATOM     33  C   UNL A   1      36.225  31.765  30.241  1.00  0.00     0.060 A 
ATOM     34  C   UNL A   1      37.203  32.404  29.509  1.00  0.00     0.016 A 
ATOM     35  C   UNL A   1      36.612  30.593  30.898  1.00  0.00     0.016 A 
ATOM     36  C   UNL A   1      38.399  31.763  29.169  1.00  0.00     0.010 A 
ATOM     37  C   UNL A   1      37.926  30.060  30.729  1.00  0.00     0.010 A 
ATOM     38  C   UNL A   1      38.836  30.593  29.792  1.00  0.00    -0.014 A 
BRANCH  38  39
ATOM     39  C   UNL A   1      40.176  29.960  29.425  1.00  0.00     0.031 A 
ATOM     40  C   UNL A   1      41.472  30.747  29.537  1.00  0.00     0.074 A 
ATOM     41  C   UNL A   1      40.319  28.660  29.053  1.00  0.00     0.049 A 
ATOM     42  N   UNL A   1      42.630  30.532  28.957  1.00  0.00    -0.248 NA
ATOM     43  C   UNL A   1      41.462  31.933  30.405  1.00  0.00     0.031 C 
ATOM     44  C   UNL A   1      39.254  27.662  28.952  1.00  0.00     0.029 A 
ATOM     45  N   UNL A   1      41.448  27.932  28.714  1.00  0.00    -0.354 N 
ATOM     46  C   UNL A   1      43.434  31.622  29.279  1.00  0.00     0.074 A 
ATOM     47  C   UNL A   1      42.648  32.471  30.152  1.00  0.00     0.031 C 
ATOM     48  C   UNL A   1      39.780  26.451  28.730  1.00  0.00     0.029 A 
ATOM     49  C   UNL A   1      41.196  26.603  28.440  1.00  0.00     0.049 A 
ATOM     50  H   UNL A   1      42.348  28.326  28.673  1.00  0.00     0.167 HD
ATOM     51  C   UNL A   1      44.697  31.903  28.866  1.00  0.00     0.037 A 
ATOM     52  C   UNL A   1      41.959  25.621  27.915  1.00  0.00     0.037 A 
ATOM     53  C   UNL A   1      45.531  31.002  28.109  1.00  0.00     0.049 A 
ATOM     54  C   UNL A   1      43.344  25.941  27.435  1.00  0.00     0.074 A 
ATOM     55  C   UNL A   1      46.805  31.211  27.605  1.00  0.00     0.029 A 
ATOM     56  N   UNL A   1      45.193  29.696  27.792  1.00  0.00    -0.354 N 
ATOM     57  N   UNL A   1      44.010  27.063  27.532  1.00  0.00    -0.248 NA
ATOM     58  C   UNL A   1      44.057  24.878  26.709  1.00  0.00     0.031 C 
ATOM     59  C   UNL A   1      47.229  30.039  26.967  1.00  0.00     0.029 A 
ATOM     60  C   UNL A   1      46.233  29.088  27.105  1.00  0.00     0.049 A 
ATOM     61  H   UNL A   1      44.339  29.263  28.020  1.00  0.00     0.167 HD
ATOM     62  C   UNL A   1      45.210  26.850  26.869  1.00  0.00     0.074 A 
ATOM     63  C   UNL A   1      45.198  25.478  26.404  1.00  0.00     0.031 C 
ATOM     64  C   UNL A   1      46.221  27.724  26.648  1.00  0.00     0.037 A 
BRANCH  51  65
ATOM     65  C   UNL A   1      45.227  33.283  29.148  1.00  0.00     0.057 A 
ATOM     66  C   UNL A   1      44.997  34.377  28.308  1.00  0.00     0.134 A 
ATOM     67  C   UNL A   1      45.979  33.511  30.310  1.00  0.00     0.134 A 
ATOM     68  F   UNL A   1      44.294  34.230  27.175  1.00  0.00    -0.206 F 
ATOM     69  C   UNL A   1      45.528  35.639  28.593  1.00  0.00     0.040 A 
ATOM     70  C   UNL A   1      46.492  34.772  30.619  1.00  0.00     0.040 A 
ATOM     71  F   UNL A   1      46.225  32.510  31.169  1.00  0.00    -0.206 F 
ATOM     72  C   UNL A   1      46.275  35.839  29.753  1.00  0.00     0.006 A 
ENDBRANCH  51  65
BRANCH  52  73
ATOM     73  C   UNL A   1      41.380  24.265  27.688  1.00  0.00     0.057 A 
ATOM     74  C   UNL A   1      40.450  24.030  26.669  1.00  0.00     0.134 A 
ATOM     75  C   UNL A   1      41.752  23.168  28.479  1.00  0.00     0.134 A 
ATOM     76  F   UNL A   1      40.017  25.043  25.903  1.00  0.00    -0.206 F 
ATOM     77  C   UNL A   1      39.925  22.757  26.436  1.00  0.00     0.040 A 
ATOM     78  C   UNL A   1      41.265  21.883  28.233  1.00  0.00     0.040 A 
ATOM     79  F   UNL A   1      42.626  23.323  29.484  1.00  0.00    -0.206 F 
ATOM     80  C   UNL A   1      40.345  21.675  27.209  1.00  0.00     0.006 A 
ENDBRANCH  52  73
BRANCH  64  81
ATOM     81  C   UNL A   1      47.410  27.213  25.892  1.00  0.00     0.057 A 
ATOM     82  C   UNL A   1      48.476  26.577  26.540  1.00  0.00     0.134 A 
ATOM     83  C   UNL A   1      47.483  27.346  24.501  1.00  0.00     0.134 A 
ATOM     84  F   UNL A   1      48.475  26.436  27.875  1.00  0.00    -0.206 F 
ATOM     85  C   UNL A   1      49.581  26.103  25.831  1.00  0.00     0.040 A 
ATOM     86  C   UNL A   1      48.574  26.860  23.779  1.00  0.00     0.040 A 
ATOM     87  F   UNL A   1      46.494  27.947  23.822  1.00  0.00    -0.206 F 
ATOM     88  C   UNL A   1      49.629  26.241  24.445  1.00  0.00     0.006 A 
ENDBRANCH  64  81
ENDBRANCH  38  39
ENDBRANCH  31  33
ENDBRANCH  30  31
ENDBRANCH  29  30
ENDBRANCH   1  29
TORSDOF 14
ENDMDL
