MODEL 1
REMARK VINA RESULT:     -10.8      0.000      0.000
REMARK SMILES O=C(Cn1cccc1C(=O)OCCOC(=O)c1ccc(-c2c3nc(c(-c4c(F)cccc4F)c4ccc([nH]4)c(-c4c(F)cccc4F)c4nc(c(-c5c(F)cccc5F)c5ccc2[nH]5)C=C4)C=C3)cc1)NCC1CCCC1
REMARK SMILES IDX 12 1 11 2 9 3 10 4 8 5 4 6 5 7 6 8 7 9 3 10 2 11 1 12 71 13
REMARK SMILES IDX 72 15 73 16 74 17 77 18 75 19 76 20 13 21 14 22 15 23 16 24
REMARK SMILES IDX 17 25 18 26 70 27 19 28 69 29 20 30 21 31 22 32 63 33 23 34
REMARK SMILES IDX 68 35 62 36 64 37 24 38 67 39 61 40 60 41 25 43 51 44 34 45
REMARK SMILES IDX 50 46 35 47 38 48 49 49 65 50 36 51 37 52 48 54 66 55 39 56
REMARK SMILES IDX 26 57 27 58 32 59 28 60 29 61 31 62 33 63 30 64 52 65 53 66
REMARK SMILES IDX 58 67 54 68 55 69 57 70 59 71 56 72 40 73 41 74 46 75 42 76
REMARK SMILES IDX 43 77 45 78 47 79 44 80
REMARK H PARENT 71 14 64 42 38 53
REMARK Flexibility Score: inf
ROOT
ATOM      1  C   UNL A   1      31.885  30.191  25.708  1.00  0.00     0.275 C 
ENDROOT
BRANCH   1   2
ATOM      2  O   UNL A   1      33.152  29.687  25.240  1.00  0.00    -0.457 OA
BRANCH   2   3
ATOM      3  C   UNL A   1      33.087  28.819  24.194  1.00  0.00     0.355 C 
ATOM      4  O   UNL A   1      33.307  29.143  23.030  1.00  0.00    -0.244 OA
BRANCH   3   5
ATOM      5  C   UNL A   1      32.888  27.439  24.621  1.00  0.00     0.128 A 
ATOM      6  N   UNL A   1      31.919  26.501  24.281  1.00  0.00    -0.333 N 
ATOM      7  C   UNL A   1      32.149  25.338  24.997  1.00  0.00     0.087 A 
ATOM      8  C   UNL A   1      33.230  25.523  25.820  1.00  0.00     0.020 A 
ATOM      9  C   UNL A   1      33.690  26.831  25.587  1.00  0.00     0.035 A 
BRANCH   6  10
ATOM     10  C   UNL A   1      30.947  26.528  23.185  1.00  0.00     0.222 C 
BRANCH  10  11
ATOM     11  C   UNL A   1      29.592  27.152  23.438  1.00  0.00     0.239 C 
ATOM     12  O   UNL A   1      28.755  26.554  24.120  1.00  0.00    -0.273 OA
ATOM     13  N   UNL A   1      29.363  28.426  22.954  1.00  0.00    -0.354 N 
ATOM     14  H   UNL A   1      30.116  29.019  22.732  1.00  0.00     0.163 HD
BRANCH  13  15
ATOM     15  C   UNL A   1      27.996  28.874  22.779  1.00  0.00     0.119 C 
BRANCH  15  16
ATOM     16  C   UNL A   1      27.736  30.365  22.671  1.00  0.00     0.008 C 
ATOM     17  C   UNL A   1      28.711  31.113  23.589  1.00  0.00     0.005 C 
ATOM     18  C   UNL A   1      28.015  30.997  21.317  1.00  0.00     0.005 C 
ATOM     19  C   UNL A   1      28.698  32.546  23.086  1.00  0.00     0.000 C 
ATOM     20  C   UNL A   1      28.216  32.477  21.638  1.00  0.00     0.000 C 
ENDBRANCH  15  16
ENDBRANCH  13  15
ENDBRANCH  10  11
ENDBRANCH   6  10
ENDBRANCH   3   5
ENDBRANCH   2   3
ENDBRANCH   1   2
BRANCH   1  21
ATOM     21  C   UNL A   1      31.989  31.263  26.810  1.00  0.00     0.275 C 
BRANCH  21  22
ATOM     22  O   UNL A   1      33.303  31.774  27.080  1.00  0.00    -0.458 OA
BRANCH  22  23
ATOM     23  C   UNL A   1      33.285  32.903  27.813  1.00  0.00     0.338 C 
ATOM     24  O   UNL A   1      32.556  33.871  27.669  1.00  0.00    -0.246 OA
BRANCH  23  25
ATOM     25  C   UNL A   1      34.397  33.058  28.728  1.00  0.00     0.060 A 
ATOM     26  C   UNL A   1      35.597  33.482  28.141  1.00  0.00     0.016 A 
ATOM     27  C   UNL A   1      34.355  32.376  29.946  1.00  0.00     0.016 A 
ATOM     28  C   UNL A   1      36.789  33.142  28.738  1.00  0.00     0.010 A 
ATOM     29  C   UNL A   1      35.554  32.029  30.543  1.00  0.00     0.010 A 
ATOM     30  C   UNL A   1      36.758  32.394  29.919  1.00  0.00    -0.014 A 
BRANCH  30  31
ATOM     31  C   UNL A   1      38.044  32.127  30.572  1.00  0.00     0.031 A 
ATOM     32  C   UNL A   1      38.748  30.929  29.936  1.00  0.00     0.074 A 
ATOM     33  C   UNL A   1      38.358  32.943  31.619  1.00  0.00     0.049 A 
ATOM     34  N   UNL A   1      39.704  30.180  30.390  1.00  0.00    -0.248 NA
ATOM     35  C   UNL A   1      38.275  30.455  28.601  1.00  0.00     0.031 C 
ATOM     36  C   UNL A   1      37.506  34.051  32.099  1.00  0.00     0.029 A 
ATOM     37  N   UNL A   1      39.420  33.013  32.493  1.00  0.00    -0.354 N 
ATOM     38  C   UNL A   1      40.087  29.327  29.338  1.00  0.00     0.074 A 
ATOM     39  C   UNL A   1      39.098  29.449  28.314  1.00  0.00     0.031 C 
ATOM     40  C   UNL A   1      38.041  34.625  33.195  1.00  0.00     0.029 A 
ATOM     41  C   UNL A   1      39.293  33.976  33.527  1.00  0.00     0.049 A 
ATOM     42  H   UNL A   1      40.212  32.435  32.406  1.00  0.00     0.167 HD
ATOM     43  C   UNL A   1      41.276  28.665  29.296  1.00  0.00     0.037 A 
ATOM     44  C   UNL A   1      40.124  34.209  34.591  1.00  0.00     0.037 A 
ATOM     45  C   UNL A   1      42.015  28.862  30.494  1.00  0.00     0.049 A 
ATOM     46  C   UNL A   1      41.305  33.361  34.348  1.00  0.00     0.074 A 
ATOM     47  C   UNL A   1      41.896  28.335  31.752  1.00  0.00     0.029 A 
ATOM     48  N   UNL A   1      42.840  29.959  30.551  1.00  0.00    -0.354 N 
ATOM     49  N   UNL A   1      42.191  33.579  33.422  1.00  0.00    -0.248 NA
ATOM     50  C   UNL A   1      41.464  32.121  35.116  1.00  0.00     0.031 C 
ATOM     51  C   UNL A   1      42.351  29.362  32.609  1.00  0.00     0.029 A 
ATOM     52  C   UNL A   1      42.815  30.435  31.842  1.00  0.00     0.049 A 
ATOM     53  H   UNL A   1      43.356  30.336  29.801  1.00  0.00     0.167 HD
ATOM     54  C   UNL A   1      42.798  32.352  33.283  1.00  0.00     0.074 A 
ATOM     55  C   UNL A   1      42.536  31.625  34.504  1.00  0.00     0.031 C 
ATOM     56  C   UNL A   1      43.042  31.851  32.045  1.00  0.00     0.037 A 
BRANCH  43  57
ATOM     57  C   UNL A   1      41.940  27.972  28.148  1.00  0.00     0.057 A 
ATOM     58  C   UNL A   1      42.486  28.752  27.109  1.00  0.00     0.134 A 
ATOM     59  C   UNL A   1      41.805  26.603  27.887  1.00  0.00     0.134 A 
ATOM     60  F   UNL A   1      42.682  30.070  27.266  1.00  0.00    -0.206 F 
ATOM     61  C   UNL A   1      42.796  28.218  25.856  1.00  0.00     0.040 A 
ATOM     62  C   UNL A   1      42.150  26.050  26.647  1.00  0.00     0.040 A 
ATOM     63  F   UNL A   1      41.257  25.772  28.783  1.00  0.00    -0.206 F 
ATOM     64  C   UNL A   1      42.615  26.863  25.617  1.00  0.00     0.006 A 
ENDBRANCH  43  57
BRANCH  44  65
ATOM     65  C   UNL A   1      40.102  35.004  35.878  1.00  0.00     0.057 A 
ATOM     66  C   UNL A   1      39.286  34.765  36.990  1.00  0.00     0.134 A 
ATOM     67  C   UNL A   1      41.034  36.060  36.081  1.00  0.00     0.134 A 
ATOM     68  F   UNL A   1      38.281  33.887  36.951  1.00  0.00    -0.206 F 
ATOM     69  C   UNL A   1      39.453  35.434  38.220  1.00  0.00     0.040 A 
ATOM     70  C   UNL A   1      41.236  36.708  37.305  1.00  0.00     0.040 A 
ATOM     71  F   UNL A   1      41.814  36.516  35.091  1.00  0.00    -0.206 F 
ATOM     72  C   UNL A   1      40.453  36.381  38.394  1.00  0.00     0.006 A 
ENDBRANCH  44  65
BRANCH  56  73
ATOM     73  C   UNL A   1      43.098  32.912  30.960  1.00  0.00     0.057 A 
ATOM     74  C   UNL A   1      44.194  33.780  30.872  1.00  0.00     0.134 A 
ATOM     75  C   UNL A   1      42.041  33.189  30.081  1.00  0.00     0.134 A 
ATOM     76  F   UNL A   1      45.264  33.597  31.660  1.00  0.00    -0.206 F 
ATOM     77  C   UNL A   1      44.218  34.865  29.982  1.00  0.00     0.040 A 
ATOM     78  C   UNL A   1      42.049  34.259  29.180  1.00  0.00     0.040 A 
ATOM     79  F   UNL A   1      40.954  32.424  30.061  1.00  0.00    -0.206 F 
ATOM     80  C   UNL A   1      43.141  35.112  29.135  1.00  0.00     0.006 A 
ENDBRANCH  56  73
ENDBRANCH  30  31
ENDBRANCH  23  25
ENDBRANCH  22  23
ENDBRANCH  21  22
ENDBRANCH   1  21
TORSDOF 15
ENDMDL
MODEL 2
REMARK VINA RESULT:     -10.6      1.741      2.422
REMARK SMILES O=C(Cn1cccc1C(=O)OCCOC(=O)c1ccc(-c2c3nc(c(-c4c(F)cccc4F)c4ccc([nH]4)c(-c4c(F)cccc4F)c4nc(c(-c5c(F)cccc5F)c5ccc2[nH]5)C=C4)C=C3)cc1)NCC1CCCC1
REMARK SMILES IDX 12 1 11 2 9 3 10 4 8 5 4 6 5 7 6 8 7 9 3 10 2 11 1 12 71 13
REMARK SMILES IDX 72 15 73 16 74 17 77 18 75 19 76 20 13 21 14 22 15 23 16 24
REMARK SMILES IDX 17 25 18 26 70 27 19 28 69 29 20 30 21 31 22 32 63 33 23 34
REMARK SMILES IDX 68 35 62 36 64 37 24 38 67 39 61 40 60 41 25 43 51 44 34 45
REMARK SMILES IDX 50 46 35 47 38 48 49 49 65 50 36 51 37 52 48 54 66 55 39 56
REMARK SMILES IDX 26 57 27 58 32 59 28 60 29 61 31 62 33 63 30 64 52 65 53 66
REMARK SMILES IDX 58 67 54 68 55 69 57 70 59 71 56 72 40 73 41 74 46 75 42 76
REMARK SMILES IDX 43 77 45 78 47 79 44 80
REMARK H PARENT 71 14 64 42 38 53
REMARK Flexibility Score: inf
ROOT
ATOM      1  C   UNL A   1      33.392  28.361  25.111  1.00  0.00     0.275 C 
ENDROOT
BRANCH   1   2
ATOM      2  O   UNL A   1      33.639  27.402  26.160  1.00  0.00    -0.457 OA
BRANCH   2   3
ATOM      3  C   UNL A   1      32.847  26.297  26.143  1.00  0.00     0.355 C 
ATOM      4  O   UNL A   1      31.775  26.223  26.738  1.00  0.00    -0.244 OA
BRANCH   3   5
ATOM      5  C   UNL A   1      33.325  25.277  25.217  1.00  0.00     0.128 A 
ATOM      6  N   UNL A   1      32.709  24.650  24.140  1.00  0.00    -0.333 N 
ATOM      7  C   UNL A   1      33.582  23.717  23.604  1.00  0.00     0.087 A 
ATOM      8  C   UNL A   1      34.738  23.709  24.341  1.00  0.00     0.020 A 
ATOM      9  C   UNL A   1      34.579  24.679  25.345  1.00  0.00     0.035 A 
BRANCH   6  10
ATOM     10  C   UNL A   1      31.472  25.010  23.440  1.00  0.00     0.222 C 
BRANCH  10  11
ATOM     11  C   UNL A   1      31.445  26.292  22.638  1.00  0.00     0.239 C 
ATOM     12  O   UNL A   1      32.240  26.454  21.708  1.00  0.00    -0.273 OA
ATOM     13  N   UNL A   1      30.463  27.219  22.927  1.00  0.00    -0.354 N 
ATOM     14  H   UNL A   1      29.645  26.949  23.402  1.00  0.00     0.163 HD
BRANCH  13  15
ATOM     15  C   UNL A   1      30.657  28.596  22.520  1.00  0.00     0.119 C 
BRANCH  15  16
ATOM     16  C   UNL A   1      29.444  29.506  22.457  1.00  0.00     0.008 C 
ATOM     17  C   UNL A   1      28.191  28.698  22.817  1.00  0.00     0.005 C 
ATOM     18  C   UNL A   1      29.402  30.637  23.470  1.00  0.00     0.005 C 
ATOM     19  C   UNL A   1      27.144  29.739  23.172  1.00  0.00     0.000 C 
ATOM     20  C   UNL A   1      27.921  30.997  23.558  1.00  0.00     0.000 C 
ENDBRANCH  15  16
ENDBRANCH  13  15
ENDBRANCH  10  11
ENDBRANCH   6  10
ENDBRANCH   3   5
ENDBRANCH   2   3
ENDBRANCH   1   2
BRANCH   1  21
ATOM     21  C   UNL A   1      32.745  29.677  25.584  1.00  0.00     0.275 C 
BRANCH  21  22
ATOM     22  O   UNL A   1      32.727  29.904  27.002  1.00  0.00    -0.458 OA
BRANCH  22  23
ATOM     23  C   UNL A   1      33.354  31.042  27.357  1.00  0.00     0.338 C 
ATOM     24  O   UNL A   1      32.935  32.183  27.257  1.00  0.00    -0.246 OA
BRANCH  23  25
ATOM     25  C   UNL A   1      34.755  30.891  27.691  1.00  0.00     0.060 A 
ATOM     26  C   UNL A   1      35.091  29.686  28.324  1.00  0.00     0.016 A 
ATOM     27  C   UNL A   1      35.540  32.041  27.799  1.00  0.00     0.016 A 
ATOM     28  C   UNL A   1      36.187  29.650  29.154  1.00  0.00     0.010 A 
ATOM     29  C   UNL A   1      36.639  32.007  28.638  1.00  0.00     0.010 A 
ATOM     30  C   UNL A   1      36.936  30.819  29.326  1.00  0.00    -0.014 A 
BRANCH  30  31
ATOM     31  C   UNL A   1      38.147  30.719  30.147  1.00  0.00     0.031 A 
ATOM     32  C   UNL A   1      39.222  29.888  29.446  1.00  0.00     0.074 A 
ATOM     33  C   UNL A   1      38.091  31.330  31.365  1.00  0.00     0.049 A 
ATOM     34  N   UNL A   1      40.273  29.299  29.926  1.00  0.00    -0.248 NA
ATOM     35  C   UNL A   1      39.074  29.627  27.983  1.00  0.00     0.031 C 
ATOM     36  C   UNL A   1      36.920  32.076  31.872  1.00  0.00     0.029 A 
ATOM     37  N   UNL A   1      38.970  31.448  32.419  1.00  0.00    -0.354 N 
ATOM     38  C   UNL A   1      41.005  28.814  28.825  1.00  0.00     0.074 A 
ATOM     39  C   UNL A   1      40.164  28.929  27.675  1.00  0.00     0.031 C 
ATOM     40  C   UNL A   1      37.132  32.499  33.134  1.00  0.00     0.029 A 
ATOM     41  C   UNL A   1      38.456  32.100  33.569  1.00  0.00     0.049 A 
ATOM     42  H   UNL A   1      39.891  31.103  32.377  1.00  0.00     0.167 HD
ATOM     43  C   UNL A   1      42.321  28.472  28.884  1.00  0.00     0.037 A 
ATOM     44  C   UNL A   1      39.045  32.276  34.792  1.00  0.00     0.037 A 
ATOM     45  C   UNL A   1      42.815  28.563  30.215  1.00  0.00     0.049 A 
ATOM     46  C   UNL A   1      40.430  31.800  34.623  1.00  0.00     0.074 A 
ATOM     47  C   UNL A   1      42.672  27.756  31.312  1.00  0.00     0.029 A 
ATOM     48  N   UNL A   1      43.304  29.780  30.622  1.00  0.00    -0.354 N 
ATOM     49  N   UNL A   1      41.342  32.417  33.933  1.00  0.00    -0.248 NA
ATOM     50  C   UNL A   1      40.808  30.491  35.169  1.00  0.00     0.031 C 
ATOM     51  C   UNL A   1      42.720  28.642  32.410  1.00  0.00     0.029 A 
ATOM     52  C   UNL A   1      42.982  29.937  31.951  1.00  0.00     0.049 A 
ATOM     53  H   UNL A   1      43.797  30.424  30.062  1.00  0.00     0.167 HD
ATOM     54  C   UNL A   1      42.265  31.428  33.688  1.00  0.00     0.074 A 
ATOM     55  C   UNL A   1      42.044  30.407  34.686  1.00  0.00     0.031 C 
ATOM     56  C   UNL A   1      42.796  31.285  32.446  1.00  0.00     0.037 A 
BRANCH  43  57
ATOM     57  C   UNL A   1      43.292  28.226  27.774  1.00  0.00     0.057 A 
ATOM     58  C   UNL A   1      43.642  26.898  27.460  1.00  0.00     0.134 A 
ATOM     59  C   UNL A   1      44.100  29.225  27.217  1.00  0.00     0.134 A 
ATOM     60  F   UNL A   1      42.918  25.866  27.922  1.00  0.00    -0.206 F 
ATOM     61  C   UNL A   1      44.777  26.579  26.710  1.00  0.00     0.040 A 
ATOM     62  C   UNL A   1      45.218  28.918  26.431  1.00  0.00     0.040 A 
ATOM     63  F   UNL A   1      43.890  30.521  27.482  1.00  0.00    -0.206 F 
ATOM     64  C   UNL A   1      45.578  27.593  26.203  1.00  0.00     0.006 A 
ENDBRANCH  43  57
BRANCH  44  65
ATOM     65  C   UNL A   1      38.642  32.737  36.176  1.00  0.00     0.057 A 
ATOM     66  C   UNL A   1      38.073  31.948  37.183  1.00  0.00     0.134 A 
ATOM     67  C   UNL A   1      38.916  34.070  36.593  1.00  0.00     0.134 A 
ATOM     68  F   UNL A   1      37.649  30.704  36.949  1.00  0.00    -0.206 F 
ATOM     69  C   UNL A   1      37.896  32.405  38.505  1.00  0.00     0.040 A 
ATOM     70  C   UNL A   1      38.779  34.528  37.909  1.00  0.00     0.040 A 
ATOM     71  F   UNL A   1      39.346  35.005  35.735  1.00  0.00    -0.206 F 
ATOM     72  C   UNL A   1      38.283  33.684  38.882  1.00  0.00     0.006 A 
ENDBRANCH  44  65
BRANCH  56  73
ATOM     73  C   UNL A   1      42.714  32.545  31.602  1.00  0.00     0.057 A 
ATOM     74  C   UNL A   1      43.515  33.655  31.902  1.00  0.00     0.134 A 
ATOM     75  C   UNL A   1      41.772  32.743  30.582  1.00  0.00     0.134 A 
ATOM     76  F   UNL A   1      44.457  33.568  32.854  1.00  0.00    -0.206 F 
ATOM     77  C   UNL A   1      43.365  34.884  31.243  1.00  0.00     0.040 A 
ATOM     78  C   UNL A   1      41.613  33.958  29.906  1.00  0.00     0.040 A 
ATOM     79  F   UNL A   1      40.967  31.758  30.199  1.00  0.00    -0.206 F 
ATOM     80  C   UNL A   1      42.407  35.041  30.245  1.00  0.00     0.006 A 
ENDBRANCH  56  73
ENDBRANCH  30  31
ENDBRANCH  23  25
ENDBRANCH  22  23
ENDBRANCH  21  22
ENDBRANCH   1  21
TORSDOF 15
ENDMDL
MODEL 3
REMARK VINA RESULT:     -10.6      4.288      9.905
REMARK SMILES O=C(Cn1cccc1C(=O)OCCOC(=O)c1ccc(-c2c3nc(c(-c4c(F)cccc4F)c4ccc([nH]4)c(-c4c(F)cccc4F)c4nc(c(-c5c(F)cccc5F)c5ccc2[nH]5)C=C4)C=C3)cc1)NCC1CCCC1
REMARK SMILES IDX 12 1 11 2 9 3 10 4 8 5 4 6 5 7 6 8 7 9 3 10 2 11 1 12 71 13
REMARK SMILES IDX 72 15 73 16 74 17 77 18 75 19 76 20 13 21 14 22 15 23 16 24
REMARK SMILES IDX 17 25 18 26 70 27 19 28 69 29 20 30 21 31 22 32 63 33 23 34
REMARK SMILES IDX 68 35 62 36 64 37 24 38 67 39 61 40 60 41 25 43 51 44 34 45
REMARK SMILES IDX 50 46 35 47 38 48 49 49 65 50 36 51 37 52 48 54 66 55 39 56
REMARK SMILES IDX 26 57 27 58 32 59 28 60 29 61 31 62 33 63 30 64 52 65 53 66
REMARK SMILES IDX 58 67 54 68 55 69 57 70 59 71 56 72 40 73 41 74 46 75 42 76
REMARK SMILES IDX 43 77 45 78 47 79 44 80
REMARK H PARENT 71 14 64 42 38 53
REMARK Flexibility Score: inf
ROOT
ATOM      1  C   UNL A   1      33.805  34.490  28.338  1.00  0.00     0.275 C 
ENDROOT
BRANCH   1   2
ATOM      2  O   UNL A   1      32.923  35.033  29.342  1.00  0.00    -0.457 OA
BRANCH   2   3
ATOM      3  C   UNL A   1      33.132  36.338  29.663  1.00  0.00     0.355 C 
ATOM      4  O   UNL A   1      32.939  37.267  28.884  1.00  0.00    -0.244 OA
BRANCH   3   5
ATOM      5  C   UNL A   1      33.455  36.524  31.073  1.00  0.00     0.128 A 
ATOM      6  N   UNL A   1      33.890  35.628  32.044  1.00  0.00    -0.333 N 
ATOM      7  C   UNL A   1      34.016  36.298  33.250  1.00  0.00     0.087 A 
ATOM      8  C   UNL A   1      33.634  37.604  33.080  1.00  0.00     0.020 A 
ATOM      9  C   UNL A   1      33.284  37.745  31.726  1.00  0.00     0.035 A 
BRANCH   6  10
ATOM     10  C   UNL A   1      34.411  34.267  31.884  1.00  0.00     0.222 C 
BRANCH  10  11
ATOM     11  C   UNL A   1      35.907  34.077  31.762  1.00  0.00     0.239 C 
ATOM     12  O   UNL A   1      36.404  33.778  30.673  1.00  0.00    -0.273 OA
ATOM     13  N   UNL A   1      36.686  34.328  32.875  1.00  0.00    -0.354 N 
ATOM     14  H   UNL A   1      36.345  34.889  33.608  1.00  0.00     0.163 HD
BRANCH  13  15
ATOM     15  C   UNL A   1      38.014  33.752  32.945  1.00  0.00     0.119 C 
BRANCH  15  16
ATOM     16  C   UNL A   1      38.232  32.555  33.852  1.00  0.00     0.008 C 
ATOM     17  C   UNL A   1      37.666  31.301  33.175  1.00  0.00     0.005 C 
ATOM     18  C   UNL A   1      39.678  32.162  34.105  1.00  0.00     0.005 C 
ATOM     19  C   UNL A   1      38.316  30.137  33.902  1.00  0.00     0.000 C 
ATOM     20  C   UNL A   1      39.592  30.697  34.530  1.00  0.00     0.000 C 
ENDBRANCH  15  16
ENDBRANCH  13  15
ENDBRANCH  10  11
ENDBRANCH   6  10
ENDBRANCH   3   5
ENDBRANCH   2   3
ENDBRANCH   1   2
BRANCH   1  21
ATOM     21  C   UNL A   1      33.592  32.994  28.038  1.00  0.00     0.275 C 
BRANCH  21  22
ATOM     22  O   UNL A   1      34.447  32.076  28.737  1.00  0.00    -0.458 OA
BRANCH  22  23
ATOM     23  C   UNL A   1      34.393  30.827  28.236  1.00  0.00     0.338 C 
ATOM     24  O   UNL A   1      33.402  30.214  27.876  1.00  0.00    -0.246 OA
BRANCH  23  25
ATOM     25  C   UNL A   1      35.623  30.069  28.344  1.00  0.00     0.060 A 
ATOM     26  C   UNL A   1      36.043  29.800  29.654  1.00  0.00     0.016 A 
ATOM     27  C   UNL A   1      36.500  30.067  27.258  1.00  0.00     0.016 A 
ATOM     28  C   UNL A   1      37.383  29.609  29.900  1.00  0.00     0.010 A 
ATOM     29  C   UNL A   1      37.848  29.882  27.505  1.00  0.00     0.010 A 
ATOM     30  C   UNL A   1      38.278  29.680  28.828  1.00  0.00    -0.014 A 
BRANCH  30  31
ATOM     31  C   UNL A   1      39.685  29.384  29.115  1.00  0.00     0.031 A 
ATOM     32  C   UNL A   1      40.421  30.628  29.611  1.00  0.00     0.074 A 
ATOM     33  C   UNL A   1      40.086  28.105  28.861  1.00  0.00     0.049 A 
ATOM     34  N   UNL A   1      41.690  30.886  29.665  1.00  0.00    -0.248 NA
ATOM     35  C   UNL A   1      39.610  31.794  30.075  1.00  0.00     0.031 C 
ATOM     36  C   UNL A   1      39.201  27.039  28.347  1.00  0.00     0.029 A 
ATOM     37  N   UNL A   1      41.288  27.441  28.962  1.00  0.00    -0.354 N 
ATOM     38  C   UNL A   1      41.828  32.105  30.358  1.00  0.00     0.074 A 
ATOM     39  C   UNL A   1      40.524  32.676  30.470  1.00  0.00     0.031 C 
ATOM     40  C   UNL A   1      39.897  25.907  28.121  1.00  0.00     0.029 A 
ATOM     41  C   UNL A   1      41.286  26.106  28.482  1.00  0.00     0.049 A 
ATOM     42  H   UNL A   1      42.093  27.863  29.340  1.00  0.00     0.167 HD
ATOM     43  C   UNL A   1      42.990  32.520  30.933  1.00  0.00     0.037 A 
ATOM     44  C   UNL A   1      42.337  25.237  28.357  1.00  0.00     0.037 A 
ATOM     45  C   UNL A   1      44.055  31.622  30.644  1.00  0.00     0.049 A 
ATOM     46  C   UNL A   1      43.475  25.914  29.004  1.00  0.00     0.074 A 
ATOM     47  C   UNL A   1      44.815  31.417  29.524  1.00  0.00     0.029 A 
ATOM     48  N   UNL A   1      44.229  30.559  31.497  1.00  0.00    -0.354 N 
ATOM     49  N   UNL A   1      43.591  26.098  30.286  1.00  0.00    -0.248 NA
ATOM     50  C   UNL A   1      44.512  26.528  28.167  1.00  0.00     0.031 C 
ATOM     51  C   UNL A   1      45.136  30.042  29.562  1.00  0.00     0.029 A 
ATOM     52  C   UNL A   1      44.642  29.483  30.744  1.00  0.00     0.049 A 
ATOM     53  H   UNL A   1      44.084  30.567  32.471  1.00  0.00     0.167 HD
ATOM     54  C   UNL A   1      44.511  27.118  30.369  1.00  0.00     0.074 A 
ATOM     55  C   UNL A   1      45.232  27.120  29.116  1.00  0.00     0.031 C 
ATOM     56  C   UNL A   1      44.300  28.157  31.216  1.00  0.00     0.037 A 
BRANCH  43  57
ATOM     57  C   UNL A   1      43.224  33.614  31.925  1.00  0.00     0.057 A 
ATOM     58  C   UNL A   1      42.988  33.355  33.290  1.00  0.00     0.134 A 
ATOM     59  C   UNL A   1      43.381  34.960  31.571  1.00  0.00     0.134 A 
ATOM     60  F   UNL A   1      42.849  32.097  33.739  1.00  0.00    -0.206 F 
ATOM     61  C   UNL A   1      42.829  34.376  34.229  1.00  0.00     0.040 A 
ATOM     62  C   UNL A   1      43.263  35.990  32.513  1.00  0.00     0.040 A 
ATOM     63  F   UNL A   1      43.565  35.330  30.297  1.00  0.00    -0.206 F 
ATOM     64  C   UNL A   1      42.954  35.702  33.839  1.00  0.00     0.006 A 
ENDBRANCH  43  57
BRANCH  44  65
ATOM     65  C   UNL A   1      42.613  23.894  27.715  1.00  0.00     0.057 A 
ATOM     66  C   UNL A   1      42.769  22.671  28.378  1.00  0.00     0.134 A 
ATOM     67  C   UNL A   1      42.645  23.774  26.297  1.00  0.00     0.134 A 
ATOM     68  F   UNL A   1      42.873  22.598  29.707  1.00  0.00    -0.206 F 
ATOM     69  C   UNL A   1      42.839  21.437  27.700  1.00  0.00     0.040 A 
ATOM     70  C   UNL A   1      42.678  22.554  25.611  1.00  0.00     0.040 A 
ATOM     71  F   UNL A   1      42.634  24.848  25.496  1.00  0.00    -0.206 F 
ATOM     72  C   UNL A   1      42.757  21.370  26.316  1.00  0.00     0.006 A 
ENDBRANCH  44  65
BRANCH  56  73
ATOM     73  C   UNL A   1      43.347  27.831  32.353  1.00  0.00     0.057 A 
ATOM     74  C   UNL A   1      43.737  26.960  33.378  1.00  0.00     0.134 A 
ATOM     75  C   UNL A   1      42.008  28.246  32.395  1.00  0.00     0.134 A 
ATOM     76  F   UNL A   1      45.000  26.512  33.438  1.00  0.00    -0.206 F 
ATOM     77  C   UNL A   1      42.841  26.517  34.363  1.00  0.00     0.040 A 
ATOM     78  C   UNL A   1      41.101  27.824  33.373  1.00  0.00     0.040 A 
ATOM     79  F   UNL A   1      41.527  29.085  31.483  1.00  0.00    -0.206 F 
ATOM     80  C   UNL A   1      41.516  26.944  34.360  1.00  0.00     0.006 A 
ENDBRANCH  56  73
ENDBRANCH  30  31
ENDBRANCH  23  25
ENDBRANCH  22  23
ENDBRANCH  21  22
ENDBRANCH   1  21
TORSDOF 15
ENDMDL
