MODEL 1
REMARK VINA RESULT:     -12.0      0.000      0.000
REMARK SMILES C[C@@H](C(=O)OCCOC(=O)c1ccc(-c2c3nc(c(-c4c(F)cccc4F)c4ccc([nH]4)c(-c4c(F)cccc4F)c4nc(c(-c5c(F)cccc5F)c5ccc2[nH]5)C=C4)C=C3)cc1)c1ccc2c(c1)[nH]c1ccc(Cl)cc12
REMARK SMILES IDX 7 1 6 2 5 3 3 4 4 5 2 6 1 7 65 8 66 9 70 10 67 11 69 12
REMARK SMILES IDX 68 13 71 14 78 15 72 16 77 18 73 19 75 20 74 21 76 22 8 23
REMARK SMILES IDX 9 24 10 25 11 26 12 27 64 28 13 29 63 30 14 31 15 32 16 33
REMARK SMILES IDX 57 34 17 35 62 36 56 37 58 38 18 39 61 40 55 41 54 42 19 44
REMARK SMILES IDX 45 45 28 46 44 47 29 48 32 49 43 50 59 51 30 52 31 53 42 55
REMARK SMILES IDX 60 56 33 57 20 58 21 59 26 60 22 61 23 62 25 63 27 64 24 65
REMARK SMILES IDX 46 66 47 67 52 68 48 69 49 70 51 71 53 72 50 73 34 74 35 75
REMARK SMILES IDX 40 76 36 77 37 78 39 79 41 80 38 81
REMARK H PARENT 71 17 58 43 32 54
REMARK Flexibility Score: inf
ROOT
ATOM      1  C   UNL A   1      34.405  33.206  33.112  1.00  0.00     0.275 C 
ENDROOT
BRANCH   1   2
ATOM      2  C   UNL A   1      34.393  34.456  32.237  1.00  0.00     0.274 C 
BRANCH   2   3
ATOM      3  O   UNL A   1      33.481  34.284  31.134  1.00  0.00    -0.462 OA
BRANCH   3   4
ATOM      4  C   UNL A   1      33.371  35.322  30.261  1.00  0.00     0.313 C 
ATOM      5  O   UNL A   1      32.592  36.259  30.402  1.00  0.00    -0.252 OA
BRANCH   4   6
ATOM      6  C   UNL A   1      34.299  35.172  29.050  1.00  0.00     0.126 C 
ATOM      7  C   UNL A   1      34.189  36.317  28.038  1.00  0.00     0.025 C 
BRANCH   6   8
ATOM      8  C   UNL A   1      34.160  33.791  28.410  1.00  0.00    -0.032 A 
ATOM      9  C   UNL A   1      35.246  32.902  28.479  1.00  0.00     0.005 A 
ATOM     10  C   UNL A   1      32.963  33.366  27.805  1.00  0.00     0.031 A 
ATOM     11  C   UNL A   1      35.164  31.600  27.969  1.00  0.00     0.011 A 
ATOM     12  C   UNL A   1      32.903  32.062  27.289  1.00  0.00     0.047 A 
ATOM     13  C   UNL A   1      33.967  31.167  27.368  1.00  0.00     0.007 A 
ATOM     14  N   UNL A   1      31.869  31.401  26.667  1.00  0.00    -0.355 N 
ATOM     15  C   UNL A   1      33.529  29.923  26.813  1.00  0.00     0.009 A 
ATOM     16  C   UNL A   1      32.226  30.110  26.353  1.00  0.00     0.047 A 
ATOM     17  H   UNL A   1      30.990  31.799  26.474  1.00  0.00     0.167 HD
ATOM     18  C   UNL A   1      34.120  28.650  26.672  1.00  0.00     0.031 A 
ATOM     19  C   UNL A   1      31.497  29.101  25.717  1.00  0.00     0.028 A 
ATOM     20  C   UNL A   1      33.390  27.624  26.068  1.00  0.00     0.041 A 
ATOM     21  C   UNL A   1      32.106  27.848  25.584  1.00  0.00     0.022 A 
ATOM     22  Cl  UNL A   1      34.094  26.059  25.916  1.00  0.00    -0.084 Cl
ENDBRANCH   6   8
ENDBRANCH   4   6
ENDBRANCH   3   4
ENDBRANCH   2   3
ENDBRANCH   1   2
BRANCH   1  23
ATOM     23  O   UNL A   1      35.314  32.241  32.553  1.00  0.00    -0.458 OA
BRANCH  23  24
ATOM     24  C   UNL A   1      36.434  31.997  33.263  1.00  0.00     0.338 C 
ATOM     25  O   UNL A   1      36.664  32.298  34.427  1.00  0.00    -0.246 OA
BRANCH  24  26
ATOM     26  C   UNL A   1      37.407  31.284  32.423  1.00  0.00     0.060 A 
ATOM     27  C   UNL A   1      38.442  30.575  33.023  1.00  0.00     0.016 A 
ATOM     28  C   UNL A   1      37.369  31.429  31.035  1.00  0.00     0.016 A 
ATOM     29  C   UNL A   1      39.497  30.108  32.242  1.00  0.00     0.010 A 
ATOM     30  C   UNL A   1      38.388  30.876  30.248  1.00  0.00     0.010 A 
ATOM     31  C   UNL A   1      39.499  30.259  30.845  1.00  0.00    -0.014 A 
BRANCH  31  32
ATOM     32  C   UNL A   1      40.692  29.827  30.054  1.00  0.00     0.031 A 
ATOM     33  C   UNL A   1      40.794  28.423  29.502  1.00  0.00     0.074 A 
ATOM     34  C   UNL A   1      41.658  30.718  29.746  1.00  0.00     0.049 A 
ATOM     35  N   UNL A   1      41.754  27.879  28.792  1.00  0.00    -0.248 NA
ATOM     36  C   UNL A   1      39.676  27.506  29.780  1.00  0.00     0.031 C 
ATOM     37  C   UNL A   1      41.693  32.114  30.186  1.00  0.00     0.029 A 
ATOM     38  N   UNL A   1      42.783  30.593  28.966  1.00  0.00    -0.354 N 
ATOM     39  C   UNL A   1      41.342  26.581  28.518  1.00  0.00     0.074 A 
ATOM     40  C   UNL A   1      40.084  26.384  29.204  1.00  0.00     0.031 C 
ATOM     41  C   UNL A   1      42.743  32.728  29.623  1.00  0.00     0.029 A 
ATOM     42  C   UNL A   1      43.502  31.758  28.844  1.00  0.00     0.049 A 
ATOM     43  H   UNL A   1      43.049  29.747  28.537  1.00  0.00     0.167 HD
ATOM     44  C   UNL A   1      41.922  25.652  27.721  1.00  0.00     0.037 A 
ATOM     45  C   UNL A   1      44.656  32.019  28.201  1.00  0.00     0.037 A 
ATOM     46  C   UNL A   1      43.156  25.836  27.005  1.00  0.00     0.049 A 
ATOM     47  C   UNL A   1      45.368  30.917  27.475  1.00  0.00     0.074 A 
ATOM     48  C   UNL A   1      43.806  24.946  26.165  1.00  0.00     0.029 A 
ATOM     49  N   UNL A   1      43.924  26.987  27.038  1.00  0.00    -0.354 N 
ATOM     50  N   UNL A   1      44.982  29.684  27.265  1.00  0.00    -0.248 NA
ATOM     51  C   UNL A   1      46.695  31.235  26.927  1.00  0.00     0.031 C 
ATOM     52  C   UNL A   1      44.990  25.546  25.720  1.00  0.00     0.029 A 
ATOM     53  C   UNL A   1      45.062  26.817  26.265  1.00  0.00     0.049 A 
ATOM     54  H   UNL A   1      43.698  27.805  27.537  1.00  0.00     0.167 HD
ATOM     55  C   UNL A   1      46.010  29.081  26.556  1.00  0.00     0.074 A 
ATOM     56  C   UNL A   1      47.036  30.084  26.361  1.00  0.00     0.031 C 
ATOM     57  C   UNL A   1      46.095  27.806  26.108  1.00  0.00     0.037 A 
BRANCH  44  58
ATOM     58  C   UNL A   1      41.205  24.346  27.543  1.00  0.00     0.057 A 
ATOM     59  C   UNL A   1      40.131  24.223  26.651  1.00  0.00     0.134 A 
ATOM     60  C   UNL A   1      41.629  23.192  28.209  1.00  0.00     0.134 A 
ATOM     61  F   UNL A   1      39.673  25.293  25.985  1.00  0.00    -0.206 F 
ATOM     62  C   UNL A   1      39.500  22.999  26.433  1.00  0.00     0.040 A 
ATOM     63  C   UNL A   1      41.014  21.958  27.989  1.00  0.00     0.040 A 
ATOM     64  F   UNL A   1      42.656  23.243  29.070  1.00  0.00    -0.206 F 
ATOM     65  C   UNL A   1      39.946  21.860  27.098  1.00  0.00     0.006 A 
ENDBRANCH  44  58
BRANCH  45  66
ATOM     66  C   UNL A   1      45.240  33.383  28.260  1.00  0.00     0.057 A 
ATOM     67  C   UNL A   1      46.136  33.746  29.270  1.00  0.00     0.134 A 
ATOM     68  C   UNL A   1      44.915  34.353  27.304  1.00  0.00     0.134 A 
ATOM     69  F   UNL A   1      46.463  32.869  30.231  1.00  0.00    -0.206 F 
ATOM     70  C   UNL A   1      46.691  35.025  29.327  1.00  0.00     0.040 A 
ATOM     71  C   UNL A   1      45.481  35.628  27.334  1.00  0.00     0.040 A 
ATOM     72  F   UNL A   1      44.056  34.068  26.314  1.00  0.00    -0.206 F 
ATOM     73  C   UNL A   1      46.370  35.967  28.351  1.00  0.00     0.006 A 
ENDBRANCH  45  66
BRANCH  57  74
ATOM     74  C   UNL A   1      47.349  27.420  25.385  1.00  0.00     0.057 A 
ATOM     75  C   UNL A   1      48.426  26.832  26.062  1.00  0.00     0.134 A 
ATOM     76  C   UNL A   1      47.479  27.621  24.006  1.00  0.00     0.134 A 
ATOM     77  F   UNL A   1      48.366  26.629  27.387  1.00  0.00    -0.206 F 
ATOM     78  C   UNL A   1      49.596  26.472  25.393  1.00  0.00     0.040 A 
ATOM     79  C   UNL A   1      48.639  27.250  23.324  1.00  0.00     0.040 A 
ATOM     80  F   UNL A   1      46.483  28.176  23.301  1.00  0.00    -0.206 F 
ATOM     81  C   UNL A   1      49.703  26.677  24.019  1.00  0.00     0.006 A 
ENDBRANCH  57  74
ENDBRANCH  31  32
ENDBRANCH  24  26
ENDBRANCH  23  24
ENDBRANCH   1  23
TORSDOF 12
ENDMDL
MODEL 2
REMARK VINA RESULT:     -12.0      5.435     11.069
REMARK SMILES C[C@@H](C(=O)OCCOC(=O)c1ccc(-c2c3nc(c(-c4c(F)cccc4F)c4ccc([nH]4)c(-c4c(F)cccc4F)c4nc(c(-c5c(F)cccc5F)c5ccc2[nH]5)C=C4)C=C3)cc1)c1ccc2c(c1)[nH]c1ccc(Cl)cc12
REMARK SMILES IDX 7 1 6 2 5 3 3 4 4 5 2 6 1 7 65 8 66 9 70 10 67 11 69 12
REMARK SMILES IDX 68 13 71 14 78 15 72 16 77 18 73 19 75 20 74 21 76 22 8 23
REMARK SMILES IDX 9 24 10 25 11 26 12 27 64 28 13 29 63 30 14 31 15 32 16 33
REMARK SMILES IDX 57 34 17 35 62 36 56 37 58 38 18 39 61 40 55 41 54 42 19 44
REMARK SMILES IDX 45 45 28 46 44 47 29 48 32 49 43 50 59 51 30 52 31 53 42 55
REMARK SMILES IDX 60 56 33 57 20 58 21 59 26 60 22 61 23 62 25 63 27 64 24 65
REMARK SMILES IDX 46 66 47 67 52 68 48 69 49 70 51 71 53 72 50 73 34 74 35 75
REMARK SMILES IDX 40 76 36 77 37 78 39 79 41 80 38 81
REMARK H PARENT 71 17 58 43 32 54
REMARK Flexibility Score: inf
ROOT
ATOM      1  C   UNL A   1      44.153  22.613  24.484  1.00  0.00     0.275 C 
ENDROOT
BRANCH   1   2
ATOM      2  C   UNL A   1      43.746  21.737  25.666  1.00  0.00     0.274 C 
BRANCH   2   3
ATOM      3  O   UNL A   1      42.729  20.799  25.262  1.00  0.00    -0.462 OA
BRANCH   3   4
ATOM      4  C   UNL A   1      41.702  20.595  26.131  1.00  0.00     0.313 C 
ATOM      5  O   UNL A   1      41.140  19.517  26.292  1.00  0.00    -0.252 OA
BRANCH   4   6
ATOM      6  C   UNL A   1      41.290  21.878  26.864  1.00  0.00     0.126 C 
ATOM      7  C   UNL A   1      41.527  21.833  28.376  1.00  0.00     0.025 C 
BRANCH   6   8
ATOM      8  C   UNL A   1      39.867  22.297  26.492  1.00  0.00    -0.032 A 
ATOM      9  C   UNL A   1      39.423  23.579  26.858  1.00  0.00     0.005 A 
ATOM     10  C   UNL A   1      39.012  21.460  25.752  1.00  0.00     0.031 A 
ATOM     11  C   UNL A   1      38.154  24.049  26.496  1.00  0.00     0.011 A 
ATOM     12  C   UNL A   1      37.740  21.944  25.407  1.00  0.00     0.047 A 
ATOM     13  C   UNL A   1      37.297  23.219  25.749  1.00  0.00     0.007 A 
ATOM     14  N   UNL A   1      36.728  21.347  24.691  1.00  0.00    -0.355 N 
ATOM     15  C   UNL A   1      35.998  23.394  25.176  1.00  0.00     0.009 A 
ATOM     16  C   UNL A   1      35.656  22.196  24.550  1.00  0.00     0.047 A 
ATOM     17  H   UNL A   1      36.768  20.433  24.326  1.00  0.00     0.167 HD
ATOM     18  C   UNL A   1      35.087  24.470  25.123  1.00  0.00     0.031 A 
ATOM     19  C   UNL A   1      34.428  22.002  23.910  1.00  0.00     0.028 A 
ATOM     20  C   UNL A   1      33.870  24.299  24.457  1.00  0.00     0.041 A 
ATOM     21  C   UNL A   1      33.539  23.081  23.874  1.00  0.00     0.022 A 
ATOM     22  Cl  UNL A   1      32.763  25.616  24.365  1.00  0.00    -0.084 Cl
ENDBRANCH   6   8
ENDBRANCH   4   6
ENDBRANCH   3   4
ENDBRANCH   2   3
ENDBRANCH   1   2
BRANCH   1  23
ATOM     23  O   UNL A   1      43.530  23.904  24.610  1.00  0.00    -0.458 OA
BRANCH  23  24
ATOM     24  C   UNL A   1      44.309  24.899  25.079  1.00  0.00     0.338 C 
ATOM     25  O   UNL A   1      45.475  25.138  24.789  1.00  0.00    -0.246 OA
BRANCH  24  26
ATOM     26  C   UNL A   1      43.549  25.713  26.037  1.00  0.00     0.060 A 
ATOM     27  C   UNL A   1      43.861  27.059  26.194  1.00  0.00     0.016 A 
ATOM     28  C   UNL A   1      42.614  25.109  26.880  1.00  0.00     0.016 A 
ATOM     29  C   UNL A   1      43.320  27.771  27.262  1.00  0.00     0.010 A 
ATOM     30  C   UNL A   1      42.005  25.856  27.896  1.00  0.00     0.010 A 
ATOM     31  C   UNL A   1      42.394  27.183  28.141  1.00  0.00    -0.014 A 
BRANCH  31  32
ATOM     32  C   UNL A   1      41.909  27.950  29.329  1.00  0.00     0.031 A 
ATOM     33  C   UNL A   1      40.702  28.857  29.231  1.00  0.00     0.074 A 
ATOM     34  C   UNL A   1      42.492  27.772  30.533  1.00  0.00     0.049 A 
ATOM     35  N   UNL A   1      40.141  29.593  30.160  1.00  0.00    -0.248 NA
ATOM     36  C   UNL A   1      40.035  28.952  27.922  1.00  0.00     0.031 C 
ATOM     37  C   UNL A   1      43.651  26.917  30.794  1.00  0.00     0.029 A 
ATOM     38  N   UNL A   1      42.174  28.279  31.771  1.00  0.00    -0.354 N 
ATOM     39  C   UNL A   1      39.050  30.208  29.558  1.00  0.00     0.074 A 
ATOM     40  C   UNL A   1      39.069  29.828  28.163  1.00  0.00     0.031 C 
ATOM     41  C   UNL A   1      43.906  26.909  32.110  1.00  0.00     0.029 A 
ATOM     42  C   UNL A   1      42.983  27.816  32.781  1.00  0.00     0.049 A 
ATOM     43  H   UNL A   1      41.437  28.915  31.919  1.00  0.00     0.167 HD
ATOM     44  C   UNL A   1      38.083  30.971  30.120  1.00  0.00     0.037 A 
ATOM     45  C   UNL A   1      43.003  28.101  34.097  1.00  0.00     0.037 A 
ATOM     46  C   UNL A   1      38.027  31.336  31.511  1.00  0.00     0.049 A 
ATOM     47  C   UNL A   1      42.028  29.093  34.657  1.00  0.00     0.074 A 
ATOM     48  C   UNL A   1      37.072  32.099  32.164  1.00  0.00     0.029 A 
ATOM     49  N   UNL A   1      38.959  30.963  32.464  1.00  0.00    -0.354 N 
ATOM     50  N   UNL A   1      41.030  29.696  34.060  1.00  0.00    -0.248 NA
ATOM     51  C   UNL A   1      42.204  29.471  36.067  1.00  0.00     0.031 C 
ATOM     52  C   UNL A   1      37.448  32.220  33.506  1.00  0.00     0.029 A 
ATOM     53  C   UNL A   1      38.624  31.512  33.692  1.00  0.00     0.049 A 
ATOM     54  H   UNL A   1      39.745  30.394  32.295  1.00  0.00     0.167 HD
ATOM     55  C   UNL A   1      40.456  30.517  35.019  1.00  0.00     0.074 A 
ATOM     56  C   UNL A   1      41.209  30.330  36.242  1.00  0.00     0.031 C 
ATOM     57  C   UNL A   1      39.399  31.353  34.893  1.00  0.00     0.037 A 
BRANCH  44  58
ATOM     58  C   UNL A   1      36.968  31.440  29.235  1.00  0.00     0.057 A 
ATOM     59  C   UNL A   1      35.893  30.600  28.913  1.00  0.00     0.134 A 
ATOM     60  C   UNL A   1      36.927  32.754  28.757  1.00  0.00     0.134 A 
ATOM     61  F   UNL A   1      35.874  29.328  29.337  1.00  0.00    -0.206 F 
ATOM     62  C   UNL A   1      34.821  31.048  28.143  1.00  0.00     0.040 A 
ATOM     63  C   UNL A   1      35.852  33.219  27.996  1.00  0.00     0.040 A 
ATOM     64  F   UNL A   1      37.922  33.610  29.036  1.00  0.00    -0.206 F 
ATOM     65  C   UNL A   1      34.796  32.364  27.687  1.00  0.00     0.006 A 
ENDBRANCH  44  58
BRANCH  45  66
ATOM     66  C   UNL A   1      44.023  27.471  34.972  1.00  0.00     0.057 A 
ATOM     67  C   UNL A   1      45.268  28.070  35.184  1.00  0.00     0.134 A 
ATOM     68  C   UNL A   1      43.772  26.253  35.618  1.00  0.00     0.134 A 
ATOM     69  F   UNL A   1      45.577  29.222  34.570  1.00  0.00    -0.206 F 
ATOM     70  C   UNL A   1      46.228  27.483  36.010  1.00  0.00     0.040 A 
ATOM     71  C   UNL A   1      44.713  25.668  36.466  1.00  0.00     0.040 A 
ATOM     72  F   UNL A   1      42.599  25.625  35.449  1.00  0.00    -0.206 F 
ATOM     73  C   UNL A   1      45.947  26.283  36.660  1.00  0.00     0.006 A 
ENDBRANCH  45  66
BRANCH  57  74
ATOM     74  C   UNL A   1      39.010  32.146  36.104  1.00  0.00     0.057 A 
ATOM     75  C   UNL A   1      39.478  33.452  36.297  1.00  0.00     0.134 A 
ATOM     76  C   UNL A   1      38.154  31.611  37.073  1.00  0.00     0.134 A 
ATOM     77  F   UNL A   1      40.314  34.012  35.411  1.00  0.00    -0.206 F 
ATOM     78  C   UNL A   1      39.119  34.193  37.424  1.00  0.00     0.040 A 
ATOM     79  C   UNL A   1      37.775  32.350  38.196  1.00  0.00     0.040 A 
ATOM     80  F   UNL A   1      37.668  30.368  36.943  1.00  0.00    -0.206 F 
ATOM     81  C   UNL A   1      38.262  33.644  38.375  1.00  0.00     0.006 A 
ENDBRANCH  57  74
ENDBRANCH  31  32
ENDBRANCH  24  26
ENDBRANCH  23  24
ENDBRANCH   1  23
TORSDOF 12
ENDMDL
MODEL 3
REMARK VINA RESULT:     -11.9      5.559     11.517
REMARK SMILES C[C@@H](C(=O)OCCOC(=O)c1ccc(-c2c3nc(c(-c4c(F)cccc4F)c4ccc([nH]4)c(-c4c(F)cccc4F)c4nc(c(-c5c(F)cccc5F)c5ccc2[nH]5)C=C4)C=C3)cc1)c1ccc2c(c1)[nH]c1ccc(Cl)cc12
REMARK SMILES IDX 7 1 6 2 5 3 3 4 4 5 2 6 1 7 65 8 66 9 70 10 67 11 69 12
REMARK SMILES IDX 68 13 71 14 78 15 72 16 77 18 73 19 75 20 74 21 76 22 8 23
REMARK SMILES IDX 9 24 10 25 11 26 12 27 64 28 13 29 63 30 14 31 15 32 16 33
REMARK SMILES IDX 57 34 17 35 62 36 56 37 58 38 18 39 61 40 55 41 54 42 19 44
REMARK SMILES IDX 45 45 28 46 44 47 29 48 32 49 43 50 59 51 30 52 31 53 42 55
REMARK SMILES IDX 60 56 33 57 20 58 21 59 26 60 22 61 23 62 25 63 27 64 24 65
REMARK SMILES IDX 46 66 47 67 52 68 48 69 49 70 51 71 53 72 50 73 34 74 35 75
REMARK SMILES IDX 40 76 36 77 37 78 39 79 41 80 38 81
REMARK H PARENT 71 17 58 43 32 54
REMARK Flexibility Score: inf
ROOT
ATOM      1  C   UNL A   1      44.446  22.421  24.110  1.00  0.00     0.275 C 
ENDROOT
BRANCH   1   2
ATOM      2  C   UNL A   1      44.540  21.194  25.012  1.00  0.00     0.274 C 
BRANCH   2   3
ATOM      3  O   UNL A   1      43.495  20.255  24.686  1.00  0.00    -0.462 OA
BRANCH   3   4
ATOM      4  C   UNL A   1      43.251  19.269  25.592  1.00  0.00     0.313 C 
ATOM      5  O   UNL A   1      43.647  18.115  25.476  1.00  0.00    -0.252 OA
BRANCH   4   6
ATOM      6  C   UNL A   1      42.382  19.749  26.762  1.00  0.00     0.126 C 
ATOM      7  C   UNL A   1      42.297  18.752  27.921  1.00  0.00     0.025 C 
BRANCH   6   8
ATOM      8  C   UNL A   1      41.012  20.224  26.278  1.00  0.00    -0.032 A 
ATOM      9  C   UNL A   1      40.116  19.279  25.752  1.00  0.00     0.005 A 
ATOM     10  C   UNL A   1      40.604  21.566  26.394  1.00  0.00     0.031 A 
ATOM     11  C   UNL A   1      38.823  19.635  25.348  1.00  0.00     0.011 A 
ATOM     12  C   UNL A   1      39.308  21.907  25.974  1.00  0.00     0.047 A 
ATOM     13  C   UNL A   1      38.407  20.974  25.467  1.00  0.00     0.007 A 
ATOM     14  N   UNL A   1      38.663  23.122  25.986  1.00  0.00    -0.355 N 
ATOM     15  C   UNL A   1      37.174  21.656  25.215  1.00  0.00     0.009 A 
ATOM     16  C   UNL A   1      37.376  23.002  25.517  1.00  0.00     0.047 A 
ATOM     17  H   UNL A   1      39.070  23.965  26.292  1.00  0.00     0.167 HD
ATOM     18  C   UNL A   1      35.900  21.246  24.769  1.00  0.00     0.031 A 
ATOM     19  C   UNL A   1      36.381  23.971  25.352  1.00  0.00     0.028 A 
ATOM     20  C   UNL A   1      34.888  22.199  24.632  1.00  0.00     0.041 A 
ATOM     21  C   UNL A   1      35.127  23.541  24.904  1.00  0.00     0.022 A 
ATOM     22  Cl  UNL A   1      33.322  21.703  24.114  1.00  0.00    -0.084 Cl
ENDBRANCH   6   8
ENDBRANCH   4   6
ENDBRANCH   3   4
ENDBRANCH   2   3
ENDBRANCH   1   2
BRANCH   1  23
ATOM     23  O   UNL A   1      43.674  23.440  24.769  1.00  0.00    -0.458 OA
BRANCH  23  24
ATOM     24  C   UNL A   1      44.321  24.589  25.052  1.00  0.00     0.338 C 
ATOM     25  O   UNL A   1      45.400  24.968  24.616  1.00  0.00    -0.246 OA
BRANCH  24  26
ATOM     26  C   UNL A   1      43.531  25.379  26.007  1.00  0.00     0.060 A 
ATOM     27  C   UNL A   1      43.752  26.748  26.112  1.00  0.00     0.016 A 
ATOM     28  C   UNL A   1      42.664  24.739  26.895  1.00  0.00     0.016 A 
ATOM     29  C   UNL A   1      43.191  27.455  27.173  1.00  0.00     0.010 A 
ATOM     30  C   UNL A   1      42.031  25.476  27.904  1.00  0.00     0.010 A 
ATOM     31  C   UNL A   1      42.332  26.834  28.096  1.00  0.00    -0.014 A 
BRANCH  31  32
ATOM     32  C   UNL A   1      41.826  27.605  29.273  1.00  0.00     0.031 A 
ATOM     33  C   UNL A   1      42.576  27.605  30.585  1.00  0.00     0.074 A 
ATOM     34  C   UNL A   1      40.733  28.388  29.149  1.00  0.00     0.049 A 
ATOM     35  N   UNL A   1      42.284  28.219  31.707  1.00  0.00    -0.248 NA
ATOM     36  C   UNL A   1      43.815  26.813  30.654  1.00  0.00     0.031 C 
ATOM     37  C   UNL A   1      39.913  28.512  27.942  1.00  0.00     0.029 A 
ATOM     38  N   UNL A   1      40.138  29.251  30.038  1.00  0.00    -0.354 N 
ATOM     39  C   UNL A   1      43.310  27.913  32.593  1.00  0.00     0.074 A 
ATOM     40  C   UNL A   1      44.194  26.992  31.912  1.00  0.00     0.031 C 
ATOM     41  C   UNL A   1      38.966  29.439  28.145  1.00  0.00     0.029 A 
ATOM     42  C   UNL A   1      39.058  29.922  29.518  1.00  0.00     0.049 A 
ATOM     43  H   UNL A   1      40.456  29.375  30.962  1.00  0.00     0.167 HD
ATOM     44  C   UNL A   1      43.536  28.396  33.837  1.00  0.00     0.037 A 
ATOM     45  C   UNL A   1      38.215  30.809  30.080  1.00  0.00     0.037 A 
ATOM     46  C   UNL A   1      42.688  29.336  34.522  1.00  0.00     0.049 A 
ATOM     47  C   UNL A   1      38.387  31.187  31.521  1.00  0.00     0.074 A 
ATOM     48  C   UNL A   1      42.853  29.885  35.783  1.00  0.00     0.029 A 
ATOM     49  N   UNL A   1      41.520  29.869  34.004  1.00  0.00    -0.354 N 
ATOM     50  N   UNL A   1      39.341  30.852  32.353  1.00  0.00    -0.248 NA
ATOM     51  C   UNL A   1      37.344  32.039  32.111  1.00  0.00     0.031 C 
ATOM     52  C   UNL A   1      41.763  30.723  36.044  1.00  0.00     0.029 A 
ATOM     53  C   UNL A   1      40.934  30.712  34.936  1.00  0.00     0.049 A 
ATOM     54  H   UNL A   1      41.159  29.678  33.109  1.00  0.00     0.167 HD
ATOM     55  C   UNL A   1      39.020  31.456  33.560  1.00  0.00     0.074 A 
ATOM     56  C   UNL A   1      37.787  32.187  33.352  1.00  0.00     0.031 C 
ATOM     57  C   UNL A   1      39.689  31.404  34.735  1.00  0.00     0.037 A 
BRANCH  44  58
ATOM     58  C   UNL A   1      44.782  27.947  34.540  1.00  0.00     0.057 A 
ATOM     59  C   UNL A   1      45.970  28.685  34.457  1.00  0.00     0.134 A 
ATOM     60  C   UNL A   1      44.781  26.813  35.359  1.00  0.00     0.134 A 
ATOM     61  F   UNL A   1      46.038  29.780  33.685  1.00  0.00    -0.206 F 
ATOM     62  C   UNL A   1      47.115  28.309  35.157  1.00  0.00     0.040 A 
ATOM     63  C   UNL A   1      45.917  26.433  36.077  1.00  0.00     0.040 A 
ATOM     64  F   UNL A   1      43.674  26.067  35.487  1.00  0.00    -0.206 F 
ATOM     65  C   UNL A   1      47.088  27.183  35.976  1.00  0.00     0.006 A 
ENDBRANCH  44  58
BRANCH  45  66
ATOM     66  C   UNL A   1      37.092  31.365  29.284  1.00  0.00     0.057 A 
ATOM     67  C   UNL A   1      37.136  32.667  28.777  1.00  0.00     0.134 A 
ATOM     68  C   UNL A   1      35.948  30.603  29.012  1.00  0.00     0.134 A 
ATOM     69  F   UNL A   1      38.192  33.455  29.029  1.00  0.00    -0.206 F 
ATOM     70  C   UNL A   1      36.084  33.192  28.025  1.00  0.00     0.040 A 
ATOM     71  C   UNL A   1      34.901  31.107  28.241  1.00  0.00     0.040 A 
ATOM     72  F   UNL A   1      35.843  29.349  29.477  1.00  0.00    -0.206 F 
ATOM     73  C   UNL A   1      34.967  32.407  27.747  1.00  0.00     0.006 A 
ENDBRANCH  45  66
BRANCH  57  74
ATOM     74  C   UNL A   1      39.088  32.141  35.893  1.00  0.00     0.057 A 
ATOM     75  C   UNL A   1      39.355  33.500  36.106  1.00  0.00     0.134 A 
ATOM     76  C   UNL A   1      38.228  31.499  36.791  1.00  0.00     0.134 A 
ATOM     77  F   UNL A   1      40.184  34.166  35.288  1.00  0.00    -0.206 F 
ATOM     78  C   UNL A   1      38.797  34.191  37.183  1.00  0.00     0.040 A 
ATOM     79  C   UNL A   1      37.652  32.184  37.863  1.00  0.00     0.040 A 
ATOM     80  F   UNL A   1      37.930  30.200  36.639  1.00  0.00    -0.206 F 
ATOM     81  C   UNL A   1      37.940  33.533  38.063  1.00  0.00     0.006 A 
ENDBRANCH  57  74
ENDBRANCH  31  32
ENDBRANCH  24  26
ENDBRANCH  23  24
ENDBRANCH   1  23
TORSDOF 12
ENDMDL
