MODEL 1
REMARK VINA RESULT:     -11.6      0.000      0.000
REMARK SMILES N#Cc1ccc2c(c1)C=C(C(=O)OCCOC(=O)c1ccc(-c3c4nc(c(-c5c(F)cccc5F)c5ccc([nH]5)c(-c5c(F)cccc5F)c5nc(c(-c6c(F)cccc6F)c6ccc3[nH]6)C=C5)C=C4)cc1)[C@@H](C(F)(F)F)O2
REMARK SMILES IDX 15 1 14 2 13 3 11 4 12 5 10 6 3 7 4 8 8 9 5 10 7 11 6 12
REMARK SMILES IDX 9 13 78 14 73 15 2 16 1 17 74 18 75 19 76 20 77 21 16 22
REMARK SMILES IDX 17 23 18 24 19 25 20 26 72 27 21 28 71 29 22 30 23 31 24 32
REMARK SMILES IDX 65 33 25 34 70 35 64 36 66 37 26 38 69 39 63 40 62 41 27 43
REMARK SMILES IDX 53 44 36 45 52 46 37 47 40 48 51 49 67 50 38 51 39 52 50 54
REMARK SMILES IDX 68 55 41 56 28 57 29 58 34 59 30 60 31 61 33 62 35 63 32 64
REMARK SMILES IDX 54 65 55 66 60 67 56 68 57 69 59 70 61 71 58 72 42 73 43 74
REMARK SMILES IDX 48 75 44 76 45 77 47 78 49 79 46 80
REMARK H PARENT 66 42 40 53
REMARK Flexibility Score: inf
ROOT
ATOM      1  C   UNL A   1      36.330  20.816  25.307  1.00  0.00     0.275 C 
ENDROOT
BRANCH   1   2
ATOM      2  C   UNL A   1      35.214  21.595  26.010  1.00  0.00     0.275 C 
BRANCH   2   3
ATOM      3  O   UNL A   1      35.126  22.956  25.526  1.00  0.00    -0.459 OA
BRANCH   3   4
ATOM      4  C   UNL A   1      34.093  23.220  24.694  1.00  0.00     0.338 C 
ATOM      5  O   UNL A   1      33.780  22.579  23.703  1.00  0.00    -0.246 OA
BRANCH   4   6
ATOM      6  C   UNL A   1      33.336  24.407  25.146  1.00  0.00     0.087 C 
ATOM      7  C   UNL A   1      33.424  28.881  26.941  1.00  0.00     0.053 A 
ATOM      8  C   UNL A   1      32.064  28.781  27.250  1.00  0.00     0.023 A 
ATOM      9  C   UNL A   1      34.056  27.823  26.289  1.00  0.00     0.031 A 
ATOM     10  C   UNL A   1      31.343  27.629  26.904  1.00  0.00     0.048 A 
ATOM     11  C   UNL A   1      33.334  26.665  25.970  1.00  0.00     0.019 A 
ATOM     12  C   UNL A   1      31.979  26.563  26.268  1.00  0.00     0.128 A 
ATOM     13  C   UNL A   1      34.012  25.539  25.372  1.00  0.00     0.027 C 
ATOM     14  O   UNL A   1      31.222  25.468  25.964  1.00  0.00    -0.475 OA
ATOM     15  C   UNL A   1      31.884  24.252  25.494  1.00  0.00     0.316 C 
BRANCH   7  16
ATOM     16  C   UNL A   1      34.175  30.046  27.306  1.00  0.00     0.099 C 
ATOM     17  N   UNL A   1      34.794  30.981  27.610  1.00  0.00    -0.192 NA
ENDBRANCH   7  16
BRANCH  15  18
ATOM     18  C   UNL A   1      31.696  23.145  26.544  1.00  0.00     0.430 C 
ATOM     19  F   UNL A   1      30.506  23.260  27.177  1.00  0.00    -0.167 F 
ATOM     20  F   UNL A   1      31.718  21.913  25.981  1.00  0.00    -0.167 F 
ATOM     21  F   UNL A   1      32.665  23.174  27.488  1.00  0.00    -0.167 F 
ENDBRANCH  15  18
ENDBRANCH   4   6
ENDBRANCH   3   4
ENDBRANCH   2   3
ENDBRANCH   1   2
BRANCH   1  22
ATOM     22  O   UNL A   1      37.492  21.639  25.104  1.00  0.00    -0.458 OA
BRANCH  22  23
ATOM     23  C   UNL A   1      38.594  21.231  25.767  1.00  0.00     0.338 C 
ATOM     24  O   UNL A   1      39.109  20.125  25.751  1.00  0.00    -0.246 OA
BRANCH  23  25
ATOM     25  C   UNL A   1      39.222  22.376  26.430  1.00  0.00     0.060 A 
ATOM     26  C   UNL A   1      40.375  22.254  27.188  1.00  0.00     0.016 A 
ATOM     27  C   UNL A   1      38.724  23.633  26.124  1.00  0.00     0.016 A 
ATOM     28  C   UNL A   1      41.005  23.419  27.641  1.00  0.00     0.010 A 
ATOM     29  C   UNL A   1      39.461  24.775  26.387  1.00  0.00     0.010 A 
ATOM     30  C   UNL A   1      40.580  24.696  27.212  1.00  0.00    -0.014 A 
BRANCH  30  31
ATOM     31  C   UNL A   1      41.265  25.943  27.648  1.00  0.00     0.031 A 
ATOM     32  C   UNL A   1      42.687  26.241  27.216  1.00  0.00     0.074 A 
ATOM     33  C   UNL A   1      40.612  26.811  28.447  1.00  0.00     0.049 A 
ATOM     34  N   UNL A   1      43.417  27.303  27.454  1.00  0.00    -0.248 NA
ATOM     35  C   UNL A   1      43.402  25.200  26.455  1.00  0.00     0.031 C 
ATOM     36  C   UNL A   1      39.279  26.599  29.018  1.00  0.00     0.029 A 
ATOM     37  N   UNL A   1      40.967  28.056  28.896  1.00  0.00    -0.354 N 
ATOM     38  C   UNL A   1      44.659  27.049  26.879  1.00  0.00     0.074 A 
ATOM     39  C   UNL A   1      44.625  25.698  26.379  1.00  0.00     0.031 C 
ATOM     40  C   UNL A   1      38.891  27.712  29.658  1.00  0.00     0.029 A 
ATOM     41  C   UNL A   1      39.970  28.690  29.599  1.00  0.00     0.049 A 
ATOM     42  H   UNL A   1      41.851  28.458  28.731  1.00  0.00     0.167 HD
ATOM     43  C   UNL A   1      45.718  27.879  26.728  1.00  0.00     0.037 A 
ATOM     44  C   UNL A   1      39.929  29.927  30.128  1.00  0.00     0.037 A 
ATOM     45  C   UNL A   1      45.745  29.234  27.208  1.00  0.00     0.049 A 
ATOM     46  C   UNL A   1      41.126  30.824  29.966  1.00  0.00     0.074 A 
ATOM     47  C   UNL A   1      46.742  30.181  27.066  1.00  0.00     0.029 A 
ATOM     48  N   UNL A   1      44.723  29.828  27.932  1.00  0.00    -0.354 N 
ATOM     49  N   UNL A   1      42.251  30.599  29.331  1.00  0.00    -0.248 NA
ATOM     50  C   UNL A   1      41.042  32.148  30.592  1.00  0.00     0.031 C 
ATOM     51  C   UNL A   1      46.349  31.330  27.759  1.00  0.00     0.029 A 
ATOM     52  C   UNL A   1      45.078  31.122  28.270  1.00  0.00     0.049 A 
ATOM     53  H   UNL A   1      43.872  29.395  28.171  1.00  0.00     0.167 HD
ATOM     54  C   UNL A   1      42.998  31.763  29.461  1.00  0.00     0.074 A 
ATOM     55  C   UNL A   1      42.182  32.700  30.205  1.00  0.00     0.031 C 
ATOM     56  C   UNL A   1      44.248  32.036  29.011  1.00  0.00     0.037 A 
BRANCH  43  57
ATOM     57  C   UNL A   1      46.922  27.345  25.999  1.00  0.00     0.057 A 
ATOM     58  C   UNL A   1      47.967  26.725  26.693  1.00  0.00     0.134 A 
ATOM     59  C   UNL A   1      47.054  27.457  24.606  1.00  0.00     0.134 A 
ATOM     60  F   UNL A   1      47.917  26.592  28.027  1.00  0.00    -0.206 F 
ATOM     61  C   UNL A   1      49.096  26.233  26.032  1.00  0.00     0.040 A 
ATOM     62  C   UNL A   1      48.159  26.935  23.930  1.00  0.00     0.040 A 
ATOM     63  F   UNL A   1      46.087  28.030  23.874  1.00  0.00    -0.206 F 
ATOM     64  C   UNL A   1      49.187  26.327  24.645  1.00  0.00     0.006 A 
ENDBRANCH  43  57
BRANCH  44  65
ATOM     65  C   UNL A   1      38.716  30.404  30.844  1.00  0.00     0.057 A 
ATOM     66  C   UNL A   1      37.691  31.083  30.175  1.00  0.00     0.134 A 
ATOM     67  C   UNL A   1      38.535  30.154  32.211  1.00  0.00     0.134 A 
ATOM     68  F   UNL A   1      37.807  31.369  28.870  1.00  0.00    -0.206 F 
ATOM     69  C   UNL A   1      36.529  31.487  30.832  1.00  0.00     0.040 A 
ATOM     70  C   UNL A   1      37.362  30.520  32.873  1.00  0.00     0.040 A 
ATOM     71  F   UNL A   1      39.475  29.500  32.909  1.00  0.00    -0.206 F 
ATOM     72  C   UNL A   1      36.355  31.190  32.182  1.00  0.00     0.006 A 
ENDBRANCH  44  65
BRANCH  56  73
ATOM     73  C   UNL A   1      44.784  33.412  29.282  1.00  0.00     0.057 A 
ATOM     74  C   UNL A   1      45.528  33.669  30.442  1.00  0.00     0.134 A 
ATOM     75  C   UNL A   1      44.560  34.484  28.408  1.00  0.00     0.134 A 
ATOM     76  F   UNL A   1      45.767  32.692  31.329  1.00  0.00    -0.206 F 
ATOM     77  C   UNL A   1      46.033  34.940  30.718  1.00  0.00     0.040 A 
ATOM     78  C   UNL A   1      45.092  35.750  28.655  1.00  0.00     0.040 A 
ATOM     79  F   UNL A   1      43.864  34.304  27.274  1.00  0.00    -0.206 F 
ATOM     80  C   UNL A   1      45.827  35.981  29.816  1.00  0.00     0.006 A 
ENDBRANCH  56  73
ENDBRANCH  30  31
ENDBRANCH  23  25
ENDBRANCH  22  23
ENDBRANCH   1  22
TORSDOF 13
ENDMDL
MODEL 2
REMARK VINA RESULT:     -11.4      3.981      6.795
REMARK SMILES N#Cc1ccc2c(c1)C=C(C(=O)OCCOC(=O)c1ccc(-c3c4nc(c(-c5c(F)cccc5F)c5ccc([nH]5)c(-c5c(F)cccc5F)c5nc(c(-c6c(F)cccc6F)c6ccc3[nH]6)C=C5)C=C4)cc1)[C@@H](C(F)(F)F)O2
REMARK SMILES IDX 15 1 14 2 13 3 11 4 12 5 10 6 3 7 4 8 8 9 5 10 7 11 6 12
REMARK SMILES IDX 9 13 78 14 73 15 2 16 1 17 74 18 75 19 76 20 77 21 16 22
REMARK SMILES IDX 17 23 18 24 19 25 20 26 72 27 21 28 71 29 22 30 23 31 24 32
REMARK SMILES IDX 65 33 25 34 70 35 64 36 66 37 26 38 69 39 63 40 62 41 27 43
REMARK SMILES IDX 53 44 36 45 52 46 37 47 40 48 51 49 67 50 38 51 39 52 50 54
REMARK SMILES IDX 68 55 41 56 28 57 29 58 34 59 30 60 31 61 33 62 35 63 32 64
REMARK SMILES IDX 54 65 55 66 60 67 56 68 57 69 59 70 61 71 58 72 42 73 43 74
REMARK SMILES IDX 48 75 44 76 45 77 47 78 49 79 46 80
REMARK H PARENT 66 42 40 53
REMARK Flexibility Score: inf
ROOT
ATOM      1  C   UNL A   1      40.776  20.058  27.086  1.00  0.00     0.275 C 
ENDROOT
BRANCH   1   2
ATOM      2  C   UNL A   1      42.084  19.692  27.794  1.00  0.00     0.275 C 
BRANCH   2   3
ATOM      3  O   UNL A   1      43.024  19.067  26.888  1.00  0.00    -0.459 OA
BRANCH   3   4
ATOM      4  C   UNL A   1      43.129  19.633  25.665  1.00  0.00     0.338 C 
ATOM      5  O   UNL A   1      42.656  19.202  24.624  1.00  0.00    -0.246 OA
BRANCH   4   6
ATOM      6  C   UNL A   1      43.891  20.899  25.728  1.00  0.00     0.087 C 
ATOM      7  C   UNL A   1      43.952  25.679  25.095  1.00  0.00     0.053 A 
ATOM      8  C   UNL A   1      45.349  25.664  25.143  1.00  0.00     0.023 A 
ATOM      9  C   UNL A   1      43.250  24.489  25.283  1.00  0.00     0.031 A 
ATOM     10  C   UNL A   1      46.036  24.466  25.384  1.00  0.00     0.048 A 
ATOM     11  C   UNL A   1      43.945  23.291  25.496  1.00  0.00     0.019 A 
ATOM     12  C   UNL A   1      45.335  23.273  25.555  1.00  0.00     0.128 A 
ATOM     13  C   UNL A   1      43.218  22.048  25.606  1.00  0.00     0.027 C 
ATOM     14  O   UNL A   1      46.064  22.140  25.779  1.00  0.00    -0.475 OA
ATOM     15  C   UNL A   1      45.391  20.843  25.752  1.00  0.00     0.316 C 
BRANCH   7  16
ATOM     16  C   UNL A   1      43.239  26.894  24.831  1.00  0.00     0.099 C 
ATOM     17  N   UNL A   1      42.650  27.874  24.627  1.00  0.00    -0.192 NA
ENDBRANCH   7  16
BRANCH  15  18
ATOM     18  C   UNL A   1      45.920  20.032  24.557  1.00  0.00     0.430 C 
ATOM     19  F   UNL A   1      45.184  20.254  23.444  1.00  0.00    -0.167 F 
ATOM     20  F   UNL A   1      47.197  20.367  24.251  1.00  0.00    -0.167 F 
ATOM     21  F   UNL A   1      45.901  18.701  24.801  1.00  0.00    -0.167 F 
ENDBRANCH  15  18
ENDBRANCH   4   6
ENDBRANCH   3   4
ENDBRANCH   2   3
ENDBRANCH   1   2
BRANCH   1  22
ATOM     22  O   UNL A   1      40.192  21.245  27.651  1.00  0.00    -0.458 OA
BRANCH  22  23
ATOM     23  C   UNL A   1      39.710  22.121  26.745  1.00  0.00     0.338 C 
ATOM     24  O   UNL A   1      38.889  21.912  25.867  1.00  0.00    -0.246 OA
BRANCH  23  25
ATOM     25  C   UNL A   1      40.201  23.467  27.050  1.00  0.00     0.060 A 
ATOM     26  C   UNL A   1      39.685  24.601  26.445  1.00  0.00     0.016 A 
ATOM     27  C   UNL A   1      41.085  23.589  28.111  1.00  0.00     0.016 A 
ATOM     28  C   UNL A   1      40.089  25.855  26.918  1.00  0.00     0.010 A 
ATOM     29  C   UNL A   1      41.312  24.815  28.712  1.00  0.00     0.010 A 
ATOM     30  C   UNL A   1      40.875  25.979  28.085  1.00  0.00    -0.014 A 
BRANCH  30  31
ATOM     31  C   UNL A   1      41.276  27.306  28.627  1.00  0.00     0.031 A 
ATOM     32  C   UNL A   1      42.730  27.733  28.641  1.00  0.00     0.074 A 
ATOM     33  C   UNL A   1      40.331  28.130  29.122  1.00  0.00     0.049 A 
ATOM     34  N   UNL A   1      43.252  28.873  29.021  1.00  0.00    -0.248 NA
ATOM     35  C   UNL A   1      43.737  26.746  28.213  1.00  0.00     0.031 C 
ATOM     36  C   UNL A   1      38.909  27.802  29.262  1.00  0.00     0.029 A 
ATOM     37  N   UNL A   1      40.416  29.421  29.574  1.00  0.00    -0.354 N 
ATOM     38  C   UNL A   1      44.629  28.729  28.881  1.00  0.00     0.074 A 
ATOM     39  C   UNL A   1      44.873  27.364  28.488  1.00  0.00     0.031 C 
ATOM     40  C   UNL A   1      38.244  28.892  29.673  1.00  0.00     0.029 A 
ATOM     41  C   UNL A   1      39.196  29.974  29.887  1.00  0.00     0.049 A 
ATOM     42  H   UNL A   1      41.268  29.906  29.666  1.00  0.00     0.167 HD
ATOM     43  C   UNL A   1      45.606  29.658  29.012  1.00  0.00     0.037 A 
ATOM     44  C   UNL A   1      38.882  31.218  30.292  1.00  0.00     0.037 A 
ATOM     45  C   UNL A   1      45.361  31.025  29.384  1.00  0.00     0.049 A 
ATOM     46  C   UNL A   1      39.987  32.228  30.450  1.00  0.00     0.074 A 
ATOM     47  C   UNL A   1      46.266  32.065  29.495  1.00  0.00     0.029 A 
ATOM     48  N   UNL A   1      44.115  31.536  29.711  1.00  0.00    -0.354 N 
ATOM     49  N   UNL A   1      41.270  32.098  30.215  1.00  0.00    -0.248 NA
ATOM     50  C   UNL A   1      39.594  33.559  30.928  1.00  0.00     0.031 C 
ATOM     51  C   UNL A   1      45.575  33.192  29.953  1.00  0.00     0.029 A 
ATOM     52  C   UNL A   1      44.231  32.872  30.055  1.00  0.00     0.049 A 
ATOM     53  H   UNL A   1      43.273  31.026  29.702  1.00  0.00     0.167 HD
ATOM     54  C   UNL A   1      41.833  33.337  30.491  1.00  0.00     0.074 A 
ATOM     55  C   UNL A   1      40.745  34.211  30.880  1.00  0.00     0.031 C 
ATOM     56  C   UNL A   1      43.133  33.722  30.436  1.00  0.00     0.037 A 
BRANCH  43  57
ATOM     57  C   UNL A   1      47.020  29.225  28.732  1.00  0.00     0.057 A 
ATOM     58  C   UNL A   1      47.547  29.284  27.436  1.00  0.00     0.134 A 
ATOM     59  C   UNL A   1      47.859  28.738  29.745  1.00  0.00     0.134 A 
ATOM     60  F   UNL A   1      46.801  29.728  26.415  1.00  0.00    -0.206 F 
ATOM     61  C   UNL A   1      48.855  28.878  27.159  1.00  0.00     0.040 A 
ATOM     62  C   UNL A   1      49.180  28.365  29.487  1.00  0.00     0.040 A 
ATOM     63  F   UNL A   1      47.425  28.663  31.012  1.00  0.00    -0.206 F 
ATOM     64  C   UNL A   1      49.679  28.428  28.189  1.00  0.00     0.006 A 
ENDBRANCH  43  57
BRANCH  44  65
ATOM     65  C   UNL A   1      37.469  31.593  30.560  1.00  0.00     0.057 A 
ATOM     66  C   UNL A   1      36.928  31.528  31.850  1.00  0.00     0.134 A 
ATOM     67  C   UNL A   1      36.636  32.067  29.538  1.00  0.00     0.134 A 
ATOM     68  F   UNL A   1      37.664  31.068  32.872  1.00  0.00    -0.206 F 
ATOM     69  C   UNL A   1      35.617  31.928  32.115  1.00  0.00     0.040 A 
ATOM     70  C   UNL A   1      35.337  32.504  29.795  1.00  0.00     0.040 A 
ATOM     71  F   UNL A   1      37.097  32.163  28.281  1.00  0.00    -0.206 F 
ATOM     72  C   UNL A   1      34.823  32.434  31.089  1.00  0.00     0.006 A 
ENDBRANCH  44  65
BRANCH  56  73
ATOM     73  C   UNL A   1      43.434  35.155  30.767  1.00  0.00     0.057 A 
ATOM     74  C   UNL A   1      43.490  36.121  29.753  1.00  0.00     0.134 A 
ATOM     75  C   UNL A   1      43.679  35.581  32.079  1.00  0.00     0.134 A 
ATOM     76  F   UNL A   1      43.280  35.779  28.473  1.00  0.00    -0.206 F 
ATOM     77  C   UNL A   1      43.772  37.458  30.034  1.00  0.00     0.040 A 
ATOM     78  C   UNL A   1      43.924  36.922  32.377  1.00  0.00     0.040 A 
ATOM     79  F   UNL A   1      43.630  34.708  33.098  1.00  0.00    -0.206 F 
ATOM     80  C   UNL A   1      43.977  37.863  31.351  1.00  0.00     0.006 A 
ENDBRANCH  56  73
ENDBRANCH  30  31
ENDBRANCH  23  25
ENDBRANCH  22  23
ENDBRANCH   1  22
TORSDOF 13
ENDMDL
MODEL 3
REMARK VINA RESULT:     -11.4      3.988      8.770
REMARK SMILES N#Cc1ccc2c(c1)C=C(C(=O)OCCOC(=O)c1ccc(-c3c4nc(c(-c5c(F)cccc5F)c5ccc([nH]5)c(-c5c(F)cccc5F)c5nc(c(-c6c(F)cccc6F)c6ccc3[nH]6)C=C5)C=C4)cc1)[C@@H](C(F)(F)F)O2
REMARK SMILES IDX 15 1 14 2 13 3 11 4 12 5 10 6 3 7 4 8 8 9 5 10 7 11 6 12
REMARK SMILES IDX 9 13 78 14 73 15 2 16 1 17 74 18 75 19 76 20 77 21 16 22
REMARK SMILES IDX 17 23 18 24 19 25 20 26 72 27 21 28 71 29 22 30 23 31 24 32
REMARK SMILES IDX 65 33 25 34 70 35 64 36 66 37 26 38 69 39 63 40 62 41 27 43
REMARK SMILES IDX 53 44 36 45 52 46 37 47 40 48 51 49 67 50 38 51 39 52 50 54
REMARK SMILES IDX 68 55 41 56 28 57 29 58 34 59 30 60 31 61 33 62 35 63 32 64
REMARK SMILES IDX 54 65 55 66 60 67 56 68 57 69 59 70 61 71 58 72 42 73 43 74
REMARK SMILES IDX 48 75 44 76 45 77 47 78 49 79 46 80
REMARK H PARENT 66 42 40 53
REMARK Flexibility Score: inf
ROOT
ATOM      1  C   UNL A   1      31.796  30.290  25.647  1.00  0.00     0.275 C 
ENDROOT
BRANCH   1   2
ATOM      2  C   UNL A   1      32.446  29.312  24.662  1.00  0.00     0.275 C 
BRANCH   2   3
ATOM      3  O   UNL A   1      32.834  28.079  25.313  1.00  0.00    -0.459 OA
BRANCH   3   4
ATOM      4  C   UNL A   1      32.055  27.005  25.053  1.00  0.00     0.338 C 
ATOM      5  O   UNL A   1      30.839  26.953  25.146  1.00  0.00    -0.246 OA
BRANCH   4   6
ATOM      6  C   UNL A   1      32.868  25.855  24.602  1.00  0.00     0.087 C 
ATOM      7  C   UNL A   1      36.872  23.217  25.112  1.00  0.00     0.053 A 
ATOM      8  C   UNL A   1      36.643  22.634  23.862  1.00  0.00     0.023 A 
ATOM      9  C   UNL A   1      35.947  24.129  25.620  1.00  0.00     0.031 A 
ATOM     10  C   UNL A   1      35.493  22.960  23.129  1.00  0.00     0.048 A 
ATOM     11  C   UNL A   1      34.813  24.469  24.868  1.00  0.00     0.019 A 
ATOM     12  C   UNL A   1      34.577  23.885  23.628  1.00  0.00     0.128 A 
ATOM     13  C   UNL A   1      33.903  25.476  25.360  1.00  0.00     0.027 C 
ATOM     14  O   UNL A   1      33.481  24.163  22.862  1.00  0.00    -0.475 OA
ATOM     15  C   UNL A   1      32.610  25.273  23.241  1.00  0.00     0.316 C 
BRANCH   7  16
ATOM     16  C   UNL A   1      38.053  22.905  25.863  1.00  0.00     0.099 C 
ATOM     17  N   UNL A   1      39.018  22.663  26.462  1.00  0.00    -0.192 NA
ENDBRANCH   7  16
BRANCH  15  18
ATOM     18  C   UNL A   1      32.697  26.366  22.162  1.00  0.00     0.430 C 
ATOM     19  F   UNL A   1      33.725  27.213  22.397  1.00  0.00    -0.167 F 
ATOM     20  F   UNL A   1      32.903  25.838  20.932  1.00  0.00    -0.167 F 
ATOM     21  F   UNL A   1      31.565  27.105  22.099  1.00  0.00    -0.167 F 
ENDBRANCH  15  18
ENDBRANCH   4   6
ENDBRANCH   3   4
ENDBRANCH   2   3
ENDBRANCH   1   2
BRANCH   1  22
ATOM     22  O   UNL A   1      32.482  30.289  26.911  1.00  0.00    -0.458 OA
BRANCH  22  23
ATOM     23  C   UNL A   1      33.099  31.450  27.217  1.00  0.00     0.338 C 
ATOM     24  O   UNL A   1      32.615  32.570  27.241  1.00  0.00    -0.246 OA
BRANCH  23  25
ATOM     25  C   UNL A   1      34.458  31.176  27.691  1.00  0.00     0.060 A 
ATOM     26  C   UNL A   1      35.353  32.186  28.001  1.00  0.00     0.016 A 
ATOM     27  C   UNL A   1      34.765  29.859  27.997  1.00  0.00     0.016 A 
ATOM     28  C   UNL A   1      36.567  31.841  28.610  1.00  0.00     0.010 A 
ATOM     29  C   UNL A   1      35.858  29.548  28.787  1.00  0.00     0.010 A 
ATOM     30  C   UNL A   1      36.817  30.522  29.048  1.00  0.00    -0.014 A 
BRANCH  30  31
ATOM     31  C   UNL A   1      38.082  30.148  29.737  1.00  0.00     0.031 A 
ATOM     32  C   UNL A   1      38.362  30.608  31.153  1.00  0.00     0.074 A 
ATOM     33  C   UNL A   1      38.993  29.398  29.084  1.00  0.00     0.049 A 
ATOM     34  N   UNL A   1      39.383  30.329  31.926  1.00  0.00    -0.248 NA
ATOM     35  C   UNL A   1      37.398  31.535  31.774  1.00  0.00     0.031 C 
ATOM     36  C   UNL A   1      38.895  28.973  27.685  1.00  0.00     0.029 A 
ATOM     37  N   UNL A   1      40.166  28.837  29.516  1.00  0.00    -0.354 N 
ATOM     38  C   UNL A   1      39.179  31.044  33.103  1.00  0.00     0.074 A 
ATOM     39  C   UNL A   1      38.002  31.853  32.907  1.00  0.00     0.031 C 
ATOM     40  C   UNL A   1      39.909  28.142  27.404  1.00  0.00     0.029 A 
ATOM     41  C   UNL A   1      40.764  28.027  28.579  1.00  0.00     0.049 A 
ATOM     42  H   UNL A   1      40.545  28.998  30.410  1.00  0.00     0.167 HD
ATOM     43  C   UNL A   1      39.871  30.996  34.265  1.00  0.00     0.037 A 
ATOM     44  C   UNL A   1      41.872  27.269  28.663  1.00  0.00     0.037 A 
ATOM     45  C   UNL A   1      41.033  30.173  34.468  1.00  0.00     0.049 A 
ATOM     46  C   UNL A   1      42.637  27.248  29.959  1.00  0.00     0.074 A 
ATOM     47  C   UNL A   1      41.782  30.005  35.618  1.00  0.00     0.029 A 
ATOM     48  N   UNL A   1      41.615  29.386  33.488  1.00  0.00    -0.354 N 
ATOM     49  N   UNL A   1      42.370  27.853  31.091  1.00  0.00    -0.248 NA
ATOM     50  C   UNL A   1      43.858  26.433  29.985  1.00  0.00     0.031 C 
ATOM     51  C   UNL A   1      42.857  29.163  35.315  1.00  0.00     0.029 A 
ATOM     52  C   UNL A   1      42.734  28.750  33.998  1.00  0.00     0.049 A 
ATOM     53  H   UNL A   1      41.284  29.292  32.565  1.00  0.00     0.167 HD
ATOM     54  C   UNL A   1      43.374  27.471  31.971  1.00  0.00     0.074 A 
ATOM     55  C   UNL A   1      44.235  26.557  31.249  1.00  0.00     0.031 C 
ATOM     56  C   UNL A   1      43.574  27.844  33.260  1.00  0.00     0.037 A 
BRANCH  43  57
ATOM     57  C   UNL A   1      39.375  31.843  35.406  1.00  0.00     0.057 A 
ATOM     58  C   UNL A   1      39.835  33.153  35.582  1.00  0.00     0.134 A 
ATOM     59  C   UNL A   1      38.450  31.356  36.342  1.00  0.00     0.134 A 
ATOM     60  F   UNL A   1      40.729  33.683  34.734  1.00  0.00    -0.206 F 
ATOM     61  C   UNL A   1      39.391  33.949  36.642  1.00  0.00     0.040 A 
ATOM     62  C   UNL A   1      37.971  32.154  37.383  1.00  0.00     0.040 A 
ATOM     63  F   UNL A   1      37.958  30.113  36.231  1.00  0.00    -0.206 F 
ATOM     64  C   UNL A   1      38.447  33.453  37.539  1.00  0.00     0.006 A 
ENDBRANCH  43  57
BRANCH  44  65
ATOM     65  C   UNL A   1      42.323  26.454  27.504  1.00  0.00     0.057 A 
ATOM     66  C   UNL A   1      43.186  26.978  26.534  1.00  0.00     0.134 A 
ATOM     67  C   UNL A   1      41.933  25.116  27.362  1.00  0.00     0.134 A 
ATOM     68  F   UNL A   1      43.584  28.256  26.599  1.00  0.00    -0.206 F 
ATOM     69  C   UNL A   1      43.652  26.201  25.472  1.00  0.00     0.040 A 
ATOM     70  C   UNL A   1      42.420  24.317  26.327  1.00  0.00     0.040 A 
ATOM     71  F   UNL A   1      41.116  24.550  28.263  1.00  0.00    -0.206 F 
ATOM     72  C   UNL A   1      43.282  24.861  25.377  1.00  0.00     0.006 A 
ENDBRANCH  44  65
BRANCH  56  73
ATOM     73  C   UNL A   1      44.745  27.231  33.972  1.00  0.00     0.057 A 
ATOM     74  C   UNL A   1      44.608  26.007  34.641  1.00  0.00     0.134 A 
ATOM     75  C   UNL A   1      46.002  27.850  34.009  1.00  0.00     0.134 A 
ATOM     76  F   UNL A   1      43.429  25.367  34.659  1.00  0.00    -0.206 F 
ATOM     77  C   UNL A   1      45.679  25.420  35.314  1.00  0.00     0.040 A 
ATOM     78  C   UNL A   1      47.090  27.253  34.647  1.00  0.00     0.040 A 
ATOM     79  F   UNL A   1      46.203  29.018  33.380  1.00  0.00    -0.206 F 
ATOM     80  C   UNL A   1      46.928  26.037  35.306  1.00  0.00     0.006 A 
ENDBRANCH  56  73
ENDBRANCH  30  31
ENDBRANCH  23  25
ENDBRANCH  22  23
ENDBRANCH   1  22
TORSDOF 13
ENDMDL
