MODEL 1
REMARK VINA RESULT:     -10.9      0.000      0.000
REMARK SMILES Cc1cc(SCC(=O)OCCOC(=O)c2ccc(-c3c4nc(c(-c5c(F)cccc5F)c5ccc([nH]5)c(-c5c(F)cccc5F)c5nc(c(-c6c(F)cccc6F)c6ccc3[nH]6)C=C5)C=C4)cc2)c2cc(I)ccc2n1
REMARK SMILES IDX 10 1 9 2 7 3 8 4 6 5 5 6 4 7 1 8 2 9 3 10 76 11 75 12 69 13
REMARK SMILES IDX 74 14 70 15 73 16 71 17 72 18 11 19 12 20 13 21 14 22 15 23
REMARK SMILES IDX 16 24 68 25 17 26 67 27 18 28 19 29 20 30 61 31 21 32 66 33
REMARK SMILES IDX 60 34 62 35 22 36 65 37 59 38 58 39 23 41 49 42 32 43 48 44
REMARK SMILES IDX 33 45 36 46 47 47 63 48 34 49 35 50 46 52 64 53 37 54 24 55
REMARK SMILES IDX 25 56 30 57 26 58 27 59 29 60 31 61 28 62 50 63 51 64 56 65
REMARK SMILES IDX 52 66 53 67 55 68 57 69 54 70 38 71 39 72 44 73 40 74 41 75
REMARK SMILES IDX 43 76 45 77 42 78
REMARK H PARENT 62 40 36 51
REMARK Flexibility Score: inf
ROOT
ATOM      1  C   UNL A   1      31.732  31.514  26.505  1.00  0.00     0.274 C 
ENDROOT
BRANCH   1   2
ATOM      2  O   UNL A   1      32.621  30.654  27.244  1.00  0.00    -0.461 OA
BRANCH   2   3
ATOM      3  C   UNL A   1      32.596  29.339  26.917  1.00  0.00     0.316 C 
ATOM      4  O   UNL A   1      31.796  28.530  27.383  1.00  0.00    -0.251 OA
BRANCH   3   5
ATOM      5  C   UNL A   1      33.650  28.897  25.924  1.00  0.00     0.197 C 
BRANCH   5   6
ATOM      6  S   UNL A   1      33.149  28.869  24.178  1.00  0.00    -0.114 SA
BRANCH   6   7
ATOM      7  C   UNL A   1      31.775  27.698  24.044  1.00  0.00     0.019 A 
ATOM      8  C   UNL A   1      30.922  24.036  24.527  1.00  0.00     0.067 C 
ATOM      9  C   UNL A   1      30.811  25.500  24.223  1.00  0.00     0.039 A 
ATOM     10  C   UNL A   1      31.916  26.336  24.311  1.00  0.00     0.039 A 
ATOM     11  N   UNL A   1      29.583  25.954  23.908  1.00  0.00    -0.253 NA
ATOM     12  C   UNL A   1      29.425  27.257  23.651  1.00  0.00     0.072 A 
ATOM     13  C   UNL A   1      30.487  28.187  23.680  1.00  0.00     0.015 A 
ATOM     14  C   UNL A   1      28.142  27.687  23.344  1.00  0.00     0.030 A 
ATOM     15  C   UNL A   1      30.193  29.537  23.345  1.00  0.00     0.026 A 
ATOM     16  C   UNL A   1      27.864  29.017  23.031  1.00  0.00     0.017 A 
ATOM     17  C   UNL A   1      28.897  29.940  23.020  1.00  0.00     0.014 A 
ATOM     18  I   UNL A   1      28.520  31.918  22.517  1.00  0.00    -0.044 I 
ENDBRANCH   6   7
ENDBRANCH   5   6
ENDBRANCH   3   5
ENDBRANCH   2   3
ENDBRANCH   1   2
BRANCH   1  19
ATOM     19  C   UNL A   1      31.716  32.933  27.067  1.00  0.00     0.275 C 
BRANCH  19  20
ATOM     20  O   UNL A   1      33.056  33.446  27.186  1.00  0.00    -0.458 OA
BRANCH  20  21
ATOM     21  C   UNL A   1      33.310  34.109  28.333  1.00  0.00     0.338 C 
ATOM     22  O   UNL A   1      32.671  35.023  28.823  1.00  0.00    -0.246 OA
BRANCH  21  23
ATOM     23  C   UNL A   1      34.506  33.561  28.986  1.00  0.00     0.060 A 
ATOM     24  C   UNL A   1      34.390  32.389  29.732  1.00  0.00     0.016 A 
ATOM     25  C   UNL A   1      35.762  34.107  28.709  1.00  0.00     0.016 A 
ATOM     26  C   UNL A   1      35.542  31.771  30.220  1.00  0.00     0.010 A 
ATOM     27  C   UNL A   1      36.913  33.455  29.142  1.00  0.00     0.010 A 
ATOM     28  C   UNL A   1      36.811  32.294  29.919  1.00  0.00    -0.014 A 
BRANCH  28  29
ATOM     29  C   UNL A   1      38.027  31.650  30.467  1.00  0.00     0.031 A 
ATOM     30  C   UNL A   1      38.489  31.998  31.853  1.00  0.00     0.074 A 
ATOM     31  C   UNL A   1      38.711  30.753  29.733  1.00  0.00     0.049 A 
ATOM     32  N   UNL A   1      39.427  31.438  32.573  1.00  0.00    -0.248 NA
ATOM     33  C   UNL A   1      37.814  33.126  32.514  1.00  0.00     0.031 C 
ATOM     34  C   UNL A   1      38.406  30.376  28.352  1.00  0.00     0.029 A 
ATOM     35  N   UNL A   1      39.803  29.990  30.055  1.00  0.00    -0.354 N 
ATOM     36  C   UNL A   1      39.422  32.117  33.784  1.00  0.00     0.074 A 
ATOM     37  C   UNL A   1      38.452  33.183  33.672  1.00  0.00     0.031 C 
ATOM     38  C   UNL A   1      39.283  29.437  27.951  1.00  0.00     0.029 A 
ATOM     39  C   UNL A   1      40.198  29.141  29.050  1.00  0.00     0.049 A 
ATOM     40  H   UNL A   1      40.261  30.044  30.925  1.00  0.00     0.167 HD
ATOM     41  C   UNL A   1      40.130  31.849  34.906  1.00  0.00     0.037 A 
ATOM     42  C   UNL A   1      41.170  28.211  29.033  1.00  0.00     0.037 A 
ATOM     43  C   UNL A   1      41.107  30.803  35.018  1.00  0.00     0.049 A 
ATOM     44  C   UNL A   1      41.974  27.958  30.280  1.00  0.00     0.074 A 
ATOM     45  C   UNL A   1      41.852  30.426  36.121  1.00  0.00     0.029 A 
ATOM     46  N   UNL A   1      41.485  29.972  33.975  1.00  0.00    -0.354 N 
ATOM     47  N   UNL A   1      41.875  28.524  31.457  1.00  0.00    -0.248 NA
ATOM     48  C   UNL A   1      43.009  26.917  30.197  1.00  0.00     0.031 C 
ATOM     49  C   UNL A   1      42.700  29.381  35.737  1.00  0.00     0.029 A 
ATOM     50  C   UNL A   1      42.465  29.095  34.402  1.00  0.00     0.049 A 
ATOM     51  H   UNL A   1      41.111  30.002  33.065  1.00  0.00     0.167 HD
ATOM     52  C   UNL A   1      42.806  27.885  32.264  1.00  0.00     0.074 A 
ATOM     53  C   UNL A   1      43.460  26.887  31.443  1.00  0.00     0.031 C 
ATOM     54  C   UNL A   1      43.091  28.099  33.572  1.00  0.00     0.037 A 
BRANCH  41  55
ATOM     55  C   UNL A   1      39.828  32.689  36.107  1.00  0.00     0.057 A 
ATOM     56  C   UNL A   1      40.575  33.835  36.400  1.00  0.00     0.134 A 
ATOM     57  C   UNL A   1      38.776  32.358  36.973  1.00  0.00     0.134 A 
ATOM     58  F   UNL A   1      41.591  34.207  35.606  1.00  0.00    -0.206 F 
ATOM     59  C   UNL A   1      40.282  34.626  37.511  1.00  0.00     0.040 A 
ATOM     60  C   UNL A   1      38.463  33.151  38.076  1.00  0.00     0.040 A 
ATOM     61  F   UNL A   1      38.012  31.282  36.731  1.00  0.00    -0.206 F 
ATOM     62  C   UNL A   1      39.220  34.288  38.349  1.00  0.00     0.006 A 
ENDBRANCH  41  55
BRANCH  42  63
ATOM     63  C   UNL A   1      41.408  27.397  27.817  1.00  0.00     0.057 A 
ATOM     64  C   UNL A   1      40.778  26.162  27.634  1.00  0.00     0.134 A 
ATOM     65  C   UNL A   1      42.240  27.860  26.792  1.00  0.00     0.134 A 
ATOM     66  F   UNL A   1      39.969  25.667  28.581  1.00  0.00    -0.206 F 
ATOM     67  C   UNL A   1      40.960  25.418  26.466  1.00  0.00     0.040 A 
ATOM     68  C   UNL A   1      42.419  27.136  25.614  1.00  0.00     0.040 A 
ATOM     69  F   UNL A   1      42.853  29.048  26.906  1.00  0.00    -0.206 F 
ATOM     70  C   UNL A   1      41.776  25.910  25.448  1.00  0.00     0.006 A 
ENDBRANCH  42  63
BRANCH  54  71
ATOM     71  C   UNL A   1      44.127  27.218  34.196  1.00  0.00     0.057 A 
ATOM     72  C   UNL A   1      45.478  27.588  34.185  1.00  0.00     0.134 A 
ATOM     73  C   UNL A   1      43.793  25.991  34.780  1.00  0.00     0.134 A 
ATOM     74  F   UNL A   1      45.862  28.751  33.636  1.00  0.00    -0.206 F 
ATOM     75  C   UNL A   1      46.461  26.765  34.733  1.00  0.00     0.040 A 
ATOM     76  C   UNL A   1      44.765  25.168  35.348  1.00  0.00     0.040 A 
ATOM     77  F   UNL A   1      42.513  25.591  34.834  1.00  0.00    -0.206 F 
ATOM     78  C   UNL A   1      46.106  25.553  35.320  1.00  0.00     0.006 A 
ENDBRANCH  54  71
ENDBRANCH  28  29
ENDBRANCH  21  23
ENDBRANCH  20  21
ENDBRANCH  19  20
ENDBRANCH   1  19
TORSDOF 13
ENDMDL
MODEL 2
REMARK VINA RESULT:     -10.8      1.526      2.709
REMARK SMILES Cc1cc(SCC(=O)OCCOC(=O)c2ccc(-c3c4nc(c(-c5c(F)cccc5F)c5ccc([nH]5)c(-c5c(F)cccc5F)c5nc(c(-c6c(F)cccc6F)c6ccc3[nH]6)C=C5)C=C4)cc2)c2cc(I)ccc2n1
REMARK SMILES IDX 10 1 9 2 7 3 8 4 6 5 5 6 4 7 1 8 2 9 3 10 76 11 75 12 69 13
REMARK SMILES IDX 74 14 70 15 73 16 71 17 72 18 11 19 12 20 13 21 14 22 15 23
REMARK SMILES IDX 16 24 68 25 17 26 67 27 18 28 19 29 20 30 61 31 21 32 66 33
REMARK SMILES IDX 60 34 62 35 22 36 65 37 59 38 58 39 23 41 49 42 32 43 48 44
REMARK SMILES IDX 33 45 36 46 47 47 63 48 34 49 35 50 46 52 64 53 37 54 24 55
REMARK SMILES IDX 25 56 30 57 26 58 27 59 29 60 31 61 28 62 50 63 51 64 56 65
REMARK SMILES IDX 52 66 53 67 55 68 57 69 54 70 38 71 39 72 44 73 40 74 41 75
REMARK SMILES IDX 43 76 45 77 42 78
REMARK H PARENT 62 40 36 51
REMARK Flexibility Score: inf
ROOT
ATOM      1  C   UNL A   1      31.776  31.435  26.553  1.00  0.00     0.274 C 
ENDROOT
BRANCH   1   2
ATOM      2  O   UNL A   1      33.091  30.865  26.703  1.00  0.00    -0.461 OA
BRANCH   2   3
ATOM      3  C   UNL A   1      33.143  29.572  27.106  1.00  0.00     0.316 C 
ATOM      4  O   UNL A   1      34.184  28.980  27.386  1.00  0.00    -0.251 OA
BRANCH   3   5
ATOM      5  C   UNL A   1      31.808  28.863  27.184  1.00  0.00     0.197 C 
BRANCH   5   6
ATOM      6  S   UNL A   1      31.737  27.198  26.462  1.00  0.00    -0.114 SA
BRANCH   6   7
ATOM      7  C   UNL A   1      31.267  27.399  24.725  1.00  0.00     0.019 A 
ATOM      8  C   UNL A   1      29.198  29.600  22.432  1.00  0.00     0.067 C 
ATOM      9  C   UNL A   1      30.108  28.519  22.937  1.00  0.00     0.039 A 
ATOM     10  C   UNL A   1      30.398  28.400  24.290  1.00  0.00     0.039 A 
ATOM     11  N   UNL A   1      30.653  27.713  22.006  1.00  0.00    -0.253 NA
ATOM     12  C   UNL A   1      31.490  26.749  22.401  1.00  0.00     0.072 A 
ATOM     13  C   UNL A   1      31.827  26.520  23.753  1.00  0.00     0.015 A 
ATOM     14  C   UNL A   1      32.041  25.949  21.411  1.00  0.00     0.030 A 
ATOM     15  C   UNL A   1      32.696  25.432  24.044  1.00  0.00     0.026 A 
ATOM     16  C   UNL A   1      32.904  24.894  21.707  1.00  0.00     0.017 A 
ATOM     17  C   UNL A   1      33.220  24.630  23.030  1.00  0.00     0.014 A 
ATOM     18  I   UNL A   1      34.469  23.042  23.505  1.00  0.00    -0.044 I 
ENDBRANCH   6   7
ENDBRANCH   5   6
ENDBRANCH   3   5
ENDBRANCH   2   3
ENDBRANCH   1   2
BRANCH   1  19
ATOM     19  C   UNL A   1      31.762  32.926  26.882  1.00  0.00     0.275 C 
BRANCH  19  20
ATOM     20  O   UNL A   1      33.103  33.413  27.079  1.00  0.00    -0.458 OA
BRANCH  20  21
ATOM     21  C   UNL A   1      33.312  34.033  28.259  1.00  0.00     0.338 C 
ATOM     22  O   UNL A   1      32.649  34.921  28.764  1.00  0.00    -0.246 OA
BRANCH  21  23
ATOM     23  C   UNL A   1      34.493  33.470  28.928  1.00  0.00     0.060 A 
ATOM     24  C   UNL A   1      34.363  32.273  29.630  1.00  0.00     0.016 A 
ATOM     25  C   UNL A   1      35.753  34.033  28.706  1.00  0.00     0.016 A 
ATOM     26  C   UNL A   1      35.505  31.646  30.131  1.00  0.00     0.010 A 
ATOM     27  C   UNL A   1      36.895  33.373  29.151  1.00  0.00     0.010 A 
ATOM     28  C   UNL A   1      36.778  32.185  29.885  1.00  0.00    -0.014 A 
BRANCH  28  29
ATOM     29  C   UNL A   1      37.983  31.531  30.446  1.00  0.00     0.031 A 
ATOM     30  C   UNL A   1      38.396  31.826  31.860  1.00  0.00     0.074 A 
ATOM     31  C   UNL A   1      38.698  30.669  29.700  1.00  0.00     0.049 A 
ATOM     32  N   UNL A   1      39.315  31.246  32.587  1.00  0.00    -0.248 NA
ATOM     33  C   UNL A   1      37.688  32.921  32.542  1.00  0.00     0.031 C 
ATOM     34  C   UNL A   1      38.442  30.345  28.296  1.00  0.00     0.029 A 
ATOM     35  N   UNL A   1      39.787  29.903  30.028  1.00  0.00    -0.354 N 
ATOM     36  C   UNL A   1      39.264  31.875  33.823  1.00  0.00     0.074 A 
ATOM     37  C   UNL A   1      38.288  32.937  33.722  1.00  0.00     0.031 C 
ATOM     38  C   UNL A   1      39.341  29.431  27.887  1.00  0.00     0.029 A 
ATOM     39  C   UNL A   1      40.223  29.099  29.002  1.00  0.00     0.049 A 
ATOM     40  H   UNL A   1      40.216  29.926  30.913  1.00  0.00     0.167 HD
ATOM     41  C   UNL A   1      39.938  31.569  34.956  1.00  0.00     0.037 A 
ATOM     42  C   UNL A   1      41.204  28.179  28.980  1.00  0.00     0.037 A 
ATOM     43  C   UNL A   1      40.921  30.528  35.058  1.00  0.00     0.049 A 
ATOM     44  C   UNL A   1      41.969  27.882  30.242  1.00  0.00     0.074 A 
ATOM     45  C   UNL A   1      41.634  30.113  36.170  1.00  0.00     0.029 A 
ATOM     46  N   UNL A   1      41.341  29.743  33.996  1.00  0.00    -0.354 N 
ATOM     47  N   UNL A   1      41.827  28.400  31.437  1.00  0.00    -0.248 NA
ATOM     48  C   UNL A   1      43.017  26.854  30.151  1.00  0.00     0.031 C 
ATOM     49  C   UNL A   1      42.505  29.092  35.773  1.00  0.00     0.029 A 
ATOM     50  C   UNL A   1      42.315  28.857  34.420  1.00  0.00     0.049 A 
ATOM     51  H   UNL A   1      40.997  29.806  33.076  1.00  0.00     0.167 HD
ATOM     52  C   UNL A   1      42.737  27.737  32.248  1.00  0.00     0.074 A 
ATOM     53  C   UNL A   1      43.427  26.778  31.410  1.00  0.00     0.031 C 
ATOM     54  C   UNL A   1      42.978  27.901  33.572  1.00  0.00     0.037 A 
BRANCH  41  55
ATOM     55  C   UNL A   1      39.589  32.358  36.179  1.00  0.00     0.057 A 
ATOM     56  C   UNL A   1      38.525  31.986  37.006  1.00  0.00     0.134 A 
ATOM     57  C   UNL A   1      40.330  33.493  36.541  1.00  0.00     0.134 A 
ATOM     58  F   UNL A   1      37.782  30.907  36.717  1.00  0.00    -0.206 F 
ATOM     59  C   UNL A   1      38.211  32.714  38.155  1.00  0.00     0.040 A 
ATOM     60  C   UNL A   1      40.037  34.217  37.695  1.00  0.00     0.040 A 
ATOM     61  F   UNL A   1      41.375  33.886  35.797  1.00  0.00    -0.206 F 
ATOM     62  C   UNL A   1      38.972  33.829  38.505  1.00  0.00     0.006 A 
ENDBRANCH  41  55
BRANCH  42  63
ATOM     63  C   UNL A   1      41.489  27.416  27.742  1.00  0.00     0.057 A 
ATOM     64  C   UNL A   1      42.371  27.904  26.773  1.00  0.00     0.134 A 
ATOM     65  C   UNL A   1      40.915  26.158  27.523  1.00  0.00     0.134 A 
ATOM     66  F   UNL A   1      42.952  29.102  26.928  1.00  0.00    -0.206 F 
ATOM     67  C   UNL A   1      42.681  27.162  25.631  1.00  0.00     0.040 A 
ATOM     68  C   UNL A   1      41.227  25.400  26.395  1.00  0.00     0.040 A 
ATOM     69  F   UNL A   1      40.078  25.633  28.430  1.00  0.00    -0.206 F 
ATOM     70  C   UNL A   1      42.114  25.902  25.444  1.00  0.00     0.006 A 
ENDBRANCH  42  63
BRANCH  54  71
ATOM     71  C   UNL A   1      44.002  27.005  34.194  1.00  0.00     0.057 A 
ATOM     72  C   UNL A   1      43.626  25.784  34.767  1.00  0.00     0.134 A 
ATOM     73  C   UNL A   1      45.354  27.363  34.252  1.00  0.00     0.134 A 
ATOM     74  F   UNL A   1      42.344  25.387  34.746  1.00  0.00    -0.206 F 
ATOM     75  C   UNL A   1      44.561  24.950  35.379  1.00  0.00     0.040 A 
ATOM     76  C   UNL A   1      46.301  26.529  34.846  1.00  0.00     0.040 A 
ATOM     77  F   UNL A   1      45.776  28.513  33.706  1.00  0.00    -0.206 F 
ATOM     78  C   UNL A   1      45.904  25.320  35.416  1.00  0.00     0.006 A 
ENDBRANCH  54  71
ENDBRANCH  28  29
ENDBRANCH  21  23
ENDBRANCH  20  21
ENDBRANCH  19  20
ENDBRANCH   1  19
TORSDOF 13
ENDMDL
MODEL 3
REMARK VINA RESULT:     -10.8      4.681      9.185
REMARK SMILES Cc1cc(SCC(=O)OCCOC(=O)c2ccc(-c3c4nc(c(-c5c(F)cccc5F)c5ccc([nH]5)c(-c5c(F)cccc5F)c5nc(c(-c6c(F)cccc6F)c6ccc3[nH]6)C=C5)C=C4)cc2)c2cc(I)ccc2n1
REMARK SMILES IDX 10 1 9 2 7 3 8 4 6 5 5 6 4 7 1 8 2 9 3 10 76 11 75 12 69 13
REMARK SMILES IDX 74 14 70 15 73 16 71 17 72 18 11 19 12 20 13 21 14 22 15 23
REMARK SMILES IDX 16 24 68 25 17 26 67 27 18 28 19 29 20 30 61 31 21 32 66 33
REMARK SMILES IDX 60 34 62 35 22 36 65 37 59 38 58 39 23 41 49 42 32 43 48 44
REMARK SMILES IDX 33 45 36 46 47 47 63 48 34 49 35 50 46 52 64 53 37 54 24 55
REMARK SMILES IDX 25 56 30 57 26 58 27 59 29 60 31 61 28 62 50 63 51 64 56 65
REMARK SMILES IDX 52 66 53 67 55 68 57 69 54 70 38 71 39 72 44 73 40 74 41 75
REMARK SMILES IDX 43 76 45 77 42 78
REMARK H PARENT 62 40 36 51
REMARK Flexibility Score: inf
ROOT
ATOM      1  C   UNL A   1      42.288  20.895  26.933  1.00  0.00     0.274 C 
ENDROOT
BRANCH   1   2
ATOM      2  O   UNL A   1      40.916  21.315  27.064  1.00  0.00    -0.461 OA
BRANCH   2   3
ATOM      3  C   UNL A   1      40.017  20.693  26.261  1.00  0.00     0.316 C 
ATOM      4  O   UNL A   1      40.167  19.559  25.811  1.00  0.00    -0.251 OA
BRANCH   3   5
ATOM      5  C   UNL A   1      38.782  21.500  25.924  1.00  0.00     0.197 C 
BRANCH   5   6
ATOM      6  S   UNL A   1      37.635  20.755  24.730  1.00  0.00    -0.114 SA
BRANCH   6   7
ATOM      7  C   UNL A   1      36.036  21.573  24.956  1.00  0.00     0.019 A 
ATOM      8  C   UNL A   1      34.487  24.988  25.516  1.00  0.00     0.067 C 
ATOM      9  C   UNL A   1      34.654  23.513  25.305  1.00  0.00     0.039 A 
ATOM     10  C   UNL A   1      35.915  22.946  25.175  1.00  0.00     0.039 A 
ATOM     11  N   UNL A   1      33.521  22.791  25.207  1.00  0.00    -0.253 NA
ATOM     12  C   UNL A   1      33.614  21.475  24.995  1.00  0.00     0.072 A 
ATOM     13  C   UNL A   1      34.846  20.792  24.880  1.00  0.00     0.015 A 
ATOM     14  C   UNL A   1      32.425  20.769  24.886  1.00  0.00     0.030 A 
ATOM     15  C   UNL A   1      34.806  19.382  24.699  1.00  0.00     0.026 A 
ATOM     16  C   UNL A   1      32.400  19.388  24.694  1.00  0.00     0.017 A 
ATOM     17  C   UNL A   1      33.596  18.694  24.613  1.00  0.00     0.014 A 
ATOM     18  I   UNL A   1      33.590  16.633  24.369  1.00  0.00    -0.044 I 
ENDBRANCH   6   7
ENDBRANCH   5   6
ENDBRANCH   3   5
ENDBRANCH   2   3
ENDBRANCH   1   2
BRANCH   1  19
ATOM     19  C   UNL A   1      43.059  21.774  25.950  1.00  0.00     0.275 C 
BRANCH  19  20
ATOM     20  O   UNL A   1      42.317  22.971  25.652  1.00  0.00    -0.458 OA
BRANCH  20  21
ATOM     21  C   UNL A   1      43.064  24.089  25.549  1.00  0.00     0.338 C 
ATOM     22  O   UNL A   1      43.824  24.398  24.648  1.00  0.00    -0.246 OA
BRANCH  21  23
ATOM     23  C   UNL A   1      42.834  24.966  26.705  1.00  0.00     0.060 A 
ATOM     24  C   UNL A   1      43.496  26.191  26.764  1.00  0.00     0.016 A 
ATOM     25  C   UNL A   1      41.833  24.652  27.628  1.00  0.00     0.016 A 
ATOM     26  C   UNL A   1      43.165  27.101  27.769  1.00  0.00     0.010 A 
ATOM     27  C   UNL A   1      41.459  25.586  28.590  1.00  0.00     0.010 A 
ATOM     28  C   UNL A   1      42.137  26.809  28.681  1.00  0.00    -0.014 A 
BRANCH  28  29
ATOM     29  C   UNL A   1      41.812  27.766  29.764  1.00  0.00     0.031 A 
ATOM     30  C   UNL A   1      40.656  28.710  29.597  1.00  0.00     0.074 A 
ATOM     31  C   UNL A   1      42.540  27.785  30.896  1.00  0.00     0.049 A 
ATOM     32  N   UNL A   1      40.110  29.508  30.478  1.00  0.00    -0.248 NA
ATOM     33  C   UNL A   1      40.036  28.769  28.263  1.00  0.00     0.031 C 
ATOM     34  C   UNL A   1      43.726  26.968  31.157  1.00  0.00     0.029 A 
ATOM     35  N   UNL A   1      42.381  28.521  32.042  1.00  0.00    -0.354 N 
ATOM     36  C   UNL A   1      39.059  30.128  29.817  1.00  0.00     0.074 A 
ATOM     37  C   UNL A   1      39.096  29.682  28.442  1.00  0.00     0.031 C 
ATOM     38  C   UNL A   1      44.177  27.235  32.396  1.00  0.00     0.029 A 
ATOM     39  C   UNL A   1      43.306  28.230  33.016  1.00  0.00     0.049 A 
ATOM     40  H   UNL A   1      41.671  29.193  32.157  1.00  0.00     0.167 HD
ATOM     41  C   UNL A   1      38.119  30.962  30.320  1.00  0.00     0.037 A 
ATOM     42  C   UNL A   1      43.415  28.695  34.273  1.00  0.00     0.037 A 
ATOM     43  C   UNL A   1      38.088  31.422  31.680  1.00  0.00     0.049 A 
ATOM     44  C   UNL A   1      42.381  29.654  34.800  1.00  0.00     0.074 A 
ATOM     45  C   UNL A   1      37.157  32.239  32.298  1.00  0.00     0.029 A 
ATOM     46  N   UNL A   1      39.047  31.114  32.632  1.00  0.00    -0.354 N 
ATOM     47  N   UNL A   1      41.321  30.138  34.201  1.00  0.00    -0.248 NA
ATOM     48  C   UNL A   1      42.551  30.110  36.187  1.00  0.00     0.031 C 
ATOM     49  C   UNL A   1      37.568  32.444  33.620  1.00  0.00     0.029 A 
ATOM     50  C   UNL A   1      38.741  31.736  33.828  1.00  0.00     0.049 A 
ATOM     51  H   UNL A   1      39.829  30.537  32.478  1.00  0.00     0.167 HD
ATOM     52  C   UNL A   1      40.678  30.924  35.148  1.00  0.00     0.074 A 
ATOM     53  C   UNL A   1      41.466  30.852  36.360  1.00  0.00     0.031 C 
ATOM     54  C   UNL A   1      39.532  31.639  35.027  1.00  0.00     0.037 A 
BRANCH  41  55
ATOM     55  C   UNL A   1      37.029  31.387  29.386  1.00  0.00     0.057 A 
ATOM     56  C   UNL A   1      35.970  30.531  29.066  1.00  0.00     0.134 A 
ATOM     57  C   UNL A   1      37.031  32.666  28.811  1.00  0.00     0.134 A 
ATOM     58  F   UNL A   1      35.910  29.297  29.589  1.00  0.00    -0.206 F 
ATOM     59  C   UNL A   1      34.947  30.935  28.207  1.00  0.00     0.040 A 
ATOM     60  C   UNL A   1      36.005  33.086  27.966  1.00  0.00     0.040 A 
ATOM     61  F   UNL A   1      38.010  33.537  29.097  1.00  0.00    -0.206 F 
ATOM     62  C   UNL A   1      34.959  32.217  27.660  1.00  0.00     0.006 A 
ENDBRANCH  41  55
BRANCH  42  63
ATOM     63  C   UNL A   1      44.507  28.221  35.156  1.00  0.00     0.057 A 
ATOM     64  C   UNL A   1      45.750  28.860  35.185  1.00  0.00     0.134 A 
ATOM     65  C   UNL A   1      44.312  27.141  36.024  1.00  0.00     0.134 A 
ATOM     66  F   UNL A   1      45.994  29.902  34.377  1.00  0.00    -0.206 F 
ATOM     67  C   UNL A   1      46.761  28.448  36.054  1.00  0.00     0.040 A 
ATOM     68  C   UNL A   1      45.308  26.727  36.909  1.00  0.00     0.040 A 
ATOM     69  F   UNL A   1      43.132  26.504  36.053  1.00  0.00    -0.206 F 
ATOM     70  C   UNL A   1      46.538  27.382  36.926  1.00  0.00     0.006 A 
ENDBRANCH  42  63
BRANCH  54  71
ATOM     71  C   UNL A   1      39.052  32.365  36.244  1.00  0.00     0.057 A 
ATOM     72  C   UNL A   1      38.165  31.752  37.137  1.00  0.00     0.134 A 
ATOM     73  C   UNL A   1      39.443  33.682  36.515  1.00  0.00     0.134 A 
ATOM     74  F   UNL A   1      37.751  30.493  36.929  1.00  0.00    -0.206 F 
ATOM     75  C   UNL A   1      37.682  32.425  38.259  1.00  0.00     0.040 A 
ATOM     76  C   UNL A   1      38.981  34.358  37.643  1.00  0.00     0.040 A 
ATOM     77  F   UNL A   1      40.303  34.316  35.704  1.00  0.00    -0.206 F 
ATOM     78  C   UNL A   1      38.093  33.731  38.517  1.00  0.00     0.006 A 
ENDBRANCH  54  71
ENDBRANCH  28  29
ENDBRANCH  21  23
ENDBRANCH  20  21
ENDBRANCH  19  20
ENDBRANCH   1  19
TORSDOF 13
ENDMDL
