MODEL 1
REMARK VINA RESULT:      -8.9      0.000      0.000
REMARK SMILES Cc1nc2cc(SCC(=O)OCCOC(=O)c3ccc(-c4c5nc(c(-c6c(F)cccc6F)c6ccc([nH]6)c(-c6c(F)cccc6F)c6nc(c(-c7c(F)cccc7F)c7ccc4[nH]7)C=C6)C=C5)cc3)ccc2s1
REMARK SMILES IDX 12 1 11 2 9 3 10 4 8 5 7 6 6 7 1 8 2 9 3 10 74 11 4 12 73 13
REMARK SMILES IDX 5 14 72 15 71 16 13 17 14 18 15 19 16 20 17 21 18 22 70 23
REMARK SMILES IDX 19 24 69 25 20 26 21 27 22 28 63 29 23 30 68 31 62 32 64 33
REMARK SMILES IDX 24 34 67 35 61 36 60 37 25 39 51 40 34 41 50 42 35 43 38 44
REMARK SMILES IDX 49 45 65 46 36 47 37 48 48 50 66 51 39 52 26 53 27 54 32 55
REMARK SMILES IDX 28 56 29 57 31 58 33 59 30 60 52 61 53 62 58 63 54 64 55 65
REMARK SMILES IDX 57 66 59 67 56 68 40 69 41 70 46 71 42 72 43 73 45 74 47 75
REMARK SMILES IDX 44 76
REMARK H PARENT 64 38 38 49
REMARK Flexibility Score: inf
ROOT
ATOM      1  C   UNL A   1      32.754  36.262  31.330  1.00  0.00     0.274 C 
ENDROOT
BRANCH   1   2
ATOM      2  O   UNL A   1      34.147  36.448  31.653  1.00  0.00    -0.461 OA
BRANCH   2   3
ATOM      3  C   UNL A   1      34.505  36.172  32.933  1.00  0.00     0.316 C 
ATOM      4  O   UNL A   1      34.069  36.767  33.917  1.00  0.00    -0.251 OA
BRANCH   3   5
ATOM      5  C   UNL A   1      35.562  35.102  33.081  1.00  0.00     0.197 C 
BRANCH   5   6
ATOM      6  S   UNL A   1      35.323  33.912  34.433  1.00  0.00    -0.114 SA
BRANCH   6   7
ATOM      7  C   UNL A   1      36.887  33.061  34.621  1.00  0.00     0.010 A 
ATOM      8  C   UNL A   1      40.267  28.285  32.909  1.00  0.00     0.079 C 
ATOM      9  C   UNL A   1      39.678  29.521  33.494  1.00  0.00     0.091 A 
ATOM     10  N   UNL A   1      38.458  29.940  33.245  1.00  0.00    -0.241 NA
ATOM     11  S   UNL A   1      40.593  30.493  34.574  1.00  0.00    -0.119 S 
ATOM     12  C   UNL A   1      38.213  31.118  33.933  1.00  0.00     0.083 A 
ATOM     13  C   UNL A   1      39.273  31.590  34.704  1.00  0.00     0.055 A 
ATOM     14  C   UNL A   1      37.015  31.860  33.903  1.00  0.00     0.045 A 
ATOM     15  C   UNL A   1      39.177  32.787  35.427  1.00  0.00     0.022 A 
ATOM     16  C   UNL A   1      37.979  33.516  35.357  1.00  0.00     0.016 A 
ENDBRANCH   6   7
ENDBRANCH   5   6
ENDBRANCH   3   5
ENDBRANCH   2   3
ENDBRANCH   1   2
BRANCH   1  17
ATOM     17  C   UNL A   1      32.503  36.505  29.845  1.00  0.00     0.275 C 
BRANCH  17  18
ATOM     18  O   UNL A   1      33.606  35.997  29.078  1.00  0.00    -0.458 OA
BRANCH  18  19
ATOM     19  C   UNL A   1      33.484  34.720  28.653  1.00  0.00     0.338 C 
ATOM     20  O   UNL A   1      32.527  34.222  28.075  1.00  0.00    -0.246 OA
BRANCH  19  21
ATOM     21  C   UNL A   1      34.676  33.940  29.031  1.00  0.00     0.060 A 
ATOM     22  C   UNL A   1      34.669  33.056  30.113  1.00  0.00     0.016 A 
ATOM     23  C   UNL A   1      35.857  34.171  28.325  1.00  0.00     0.016 A 
ATOM     24  C   UNL A   1      35.856  32.446  30.526  1.00  0.00     0.010 A 
ATOM     25  C   UNL A   1      37.026  33.506  28.691  1.00  0.00     0.010 A 
ATOM     26  C   UNL A   1      37.044  32.655  29.809  1.00  0.00    -0.014 A 
BRANCH  26  27
ATOM     27  C   UNL A   1      38.317  31.993  30.194  1.00  0.00     0.031 A 
ATOM     28  C   UNL A   1      39.327  32.728  31.029  1.00  0.00     0.074 A 
ATOM     29  C   UNL A   1      38.601  30.761  29.731  1.00  0.00     0.049 A 
ATOM     30  N   UNL A   1      40.578  32.427  31.272  1.00  0.00    -0.248 NA
ATOM     31  C   UNL A   1      38.873  33.972  31.670  1.00  0.00     0.031 C 
ATOM     32  C   UNL A   1      37.703  29.926  28.934  1.00  0.00     0.029 A 
ATOM     33  N   UNL A   1      39.744  30.011  29.843  1.00  0.00    -0.354 N 
ATOM     34  C   UNL A   1      41.070  33.459  32.060  1.00  0.00     0.074 A 
ATOM     35  C   UNL A   1      39.984  34.397  32.257  1.00  0.00     0.031 C 
ATOM     36  C   UNL A   1      38.330  28.780  28.624  1.00  0.00     0.029 A 
ATOM     37  C   UNL A   1      39.693  28.831  29.140  1.00  0.00     0.049 A 
ATOM     38  H   UNL A   1      40.525  30.289  30.375  1.00  0.00     0.167 HD
ATOM     39  C   UNL A   1      42.316  33.612  32.568  1.00  0.00     0.037 A 
ATOM     40  C   UNL A   1      40.649  27.916  28.893  1.00  0.00     0.037 A 
ATOM     41  C   UNL A   1      43.389  32.669  32.393  1.00  0.00     0.049 A 
ATOM     42  C   UNL A   1      42.035  28.132  29.424  1.00  0.00     0.074 A 
ATOM     43  C   UNL A   1      44.680  32.729  32.889  1.00  0.00     0.029 A 
ATOM     44  N   UNL A   1      43.292  31.491  31.670  1.00  0.00    -0.354 N 
ATOM     45  N   UNL A   1      42.499  29.126  30.140  1.00  0.00    -0.248 NA
ATOM     46  C   UNL A   1      43.036  27.106  29.096  1.00  0.00     0.031 C 
ATOM     47  C   UNL A   1      45.374  31.599  32.442  1.00  0.00     0.029 A 
ATOM     48  C   UNL A   1      44.504  30.821  31.696  1.00  0.00     0.049 A 
ATOM     49  H   UNL A   1      42.482  31.178  31.207  1.00  0.00     0.167 HD
ATOM     50  C   UNL A   1      43.839  28.841  30.362  1.00  0.00     0.074 A 
ATOM     51  C   UNL A   1      44.113  27.576  29.710  1.00  0.00     0.031 C 
ATOM     52  C   UNL A   1      44.758  29.564  31.045  1.00  0.00     0.037 A 
BRANCH  39  53
ATOM     53  C   UNL A   1      42.598  34.860  33.349  1.00  0.00     0.057 A 
ATOM     54  C   UNL A   1      43.009  36.043  32.726  1.00  0.00     0.134 A 
ATOM     55  C   UNL A   1      42.403  34.889  34.736  1.00  0.00     0.134 A 
ATOM     56  F   UNL A   1      43.225  36.074  31.402  1.00  0.00    -0.206 F 
ATOM     57  C   UNL A   1      43.227  37.213  33.456  1.00  0.00     0.040 A 
ATOM     58  C   UNL A   1      42.601  36.057  35.474  1.00  0.00     0.040 A 
ATOM     59  F   UNL A   1      42.006  33.789  35.391  1.00  0.00    -0.206 F 
ATOM     60  C   UNL A   1      43.015  37.223  34.834  1.00  0.00     0.006 A 
ENDBRANCH  39  53
BRANCH  40  61
ATOM     61  C   UNL A   1      40.327  26.730  28.066  1.00  0.00     0.057 A 
ATOM     62  C   UNL A   1      39.512  25.708  28.560  1.00  0.00     0.134 A 
ATOM     63  C   UNL A   1      40.808  26.604  26.756  1.00  0.00     0.134 A 
ATOM     64  F   UNL A   1      39.041  25.767  29.814  1.00  0.00    -0.206 F 
ATOM     65  C   UNL A   1      39.185  24.597  27.781  1.00  0.00     0.040 A 
ATOM     66  C   UNL A   1      40.473  25.509  25.960  1.00  0.00     0.040 A 
ATOM     67  F   UNL A   1      41.592  27.555  26.228  1.00  0.00    -0.206 F 
ATOM     68  C   UNL A   1      39.660  24.500  26.473  1.00  0.00     0.006 A 
ENDBRANCH  40  61
BRANCH  52  69
ATOM     69  C   UNL A   1      46.136  28.987  31.148  1.00  0.00     0.057 A 
ATOM     70  C   UNL A   1      47.133  29.298  30.217  1.00  0.00     0.134 A 
ATOM     71  C   UNL A   1      46.477  28.141  32.211  1.00  0.00     0.134 A 
ATOM     72  F   UNL A   1      46.863  30.092  29.170  1.00  0.00    -0.206 F 
ATOM     73  C   UNL A   1      48.422  28.774  30.331  1.00  0.00     0.040 A 
ATOM     74  C   UNL A   1      47.765  27.624  32.345  1.00  0.00     0.040 A 
ATOM     75  F   UNL A   1      45.564  27.811  33.138  1.00  0.00    -0.206 F 
ATOM     76  C   UNL A   1      48.742  27.938  31.401  1.00  0.00     0.006 A 
ENDBRANCH  52  69
ENDBRANCH  26  27
ENDBRANCH  19  21
ENDBRANCH  18  19
ENDBRANCH  17  18
ENDBRANCH   1  17
TORSDOF 13
ENDMDL
MODEL 2
REMARK VINA RESULT:      -8.9      5.558     11.196
REMARK SMILES Cc1nc2cc(SCC(=O)OCCOC(=O)c3ccc(-c4c5nc(c(-c6c(F)cccc6F)c6ccc([nH]6)c(-c6c(F)cccc6F)c6nc(c(-c7c(F)cccc7F)c7ccc4[nH]7)C=C6)C=C5)cc3)ccc2s1
REMARK SMILES IDX 12 1 11 2 9 3 10 4 8 5 7 6 6 7 1 8 2 9 3 10 74 11 4 12 73 13
REMARK SMILES IDX 5 14 72 15 71 16 13 17 14 18 15 19 16 20 17 21 18 22 70 23
REMARK SMILES IDX 19 24 69 25 20 26 21 27 22 28 63 29 23 30 68 31 62 32 64 33
REMARK SMILES IDX 24 34 67 35 61 36 60 37 25 39 51 40 34 41 50 42 35 43 38 44
REMARK SMILES IDX 49 45 65 46 36 47 37 48 48 50 66 51 39 52 26 53 27 54 32 55
REMARK SMILES IDX 28 56 29 57 31 58 33 59 30 60 52 61 53 62 58 63 54 64 55 65
REMARK SMILES IDX 57 66 59 67 56 68 40 69 41 70 46 71 42 72 43 73 45 74 47 75
REMARK SMILES IDX 44 76
REMARK H PARENT 64 38 38 49
REMARK Flexibility Score: inf
ROOT
ATOM      1  C   UNL A   1      44.871  21.669  24.775  1.00  0.00     0.274 C 
ENDROOT
BRANCH   1   2
ATOM      2  O   UNL A   1      43.669  20.909  25.013  1.00  0.00    -0.461 OA
BRANCH   2   3
ATOM      3  C   UNL A   1      43.837  19.585  25.261  1.00  0.00     0.316 C 
ATOM      4  O   UNL A   1      44.875  18.967  25.036  1.00  0.00    -0.251 OA
BRANCH   3   5
ATOM      5  C   UNL A   1      42.609  18.874  25.781  1.00  0.00     0.197 C 
BRANCH   5   6
ATOM      6  S   UNL A   1      41.970  19.435  27.386  1.00  0.00    -0.114 SA
BRANCH   6   7
ATOM      7  C   UNL A   1      40.852  20.786  27.024  1.00  0.00     0.010 A 
ATOM      8  C   UNL A   1      35.850  22.517  23.998  1.00  0.00     0.079 C 
ATOM      9  C   UNL A   1      37.074  22.376  24.834  1.00  0.00     0.091 A 
ATOM     10  N   UNL A   1      37.784  21.273  24.915  1.00  0.00    -0.241 NA
ATOM     11  S   UNL A   1      37.649  23.700  25.764  1.00  0.00    -0.119 S 
ATOM     12  C   UNL A   1      38.853  21.460  25.776  1.00  0.00     0.083 A 
ATOM     13  C   UNL A   1      38.938  22.724  26.355  1.00  0.00     0.055 A 
ATOM     14  C   UNL A   1      39.823  20.494  26.112  1.00  0.00     0.045 A 
ATOM     15  C   UNL A   1      39.950  23.043  27.271  1.00  0.00     0.022 A 
ATOM     16  C   UNL A   1      40.888  22.052  27.605  1.00  0.00     0.016 A 
ENDBRANCH   6   7
ENDBRANCH   5   6
ENDBRANCH   3   5
ENDBRANCH   2   3
ENDBRANCH   1   2
BRANCH   1  17
ATOM     17  C   UNL A   1      44.550  23.001  24.107  1.00  0.00     0.275 C 
BRANCH  17  18
ATOM     18  O   UNL A   1      43.889  23.866  25.043  1.00  0.00    -0.458 OA
BRANCH  18  19
ATOM     19  C   UNL A   1      44.462  25.075  25.228  1.00  0.00     0.338 C 
ATOM     20  O   UNL A   1      45.424  25.538  24.628  1.00  0.00    -0.246 OA
BRANCH  19  21
ATOM     21  C   UNL A   1      43.796  25.793  26.330  1.00  0.00     0.060 A 
ATOM     22  C   UNL A   1      44.059  27.137  26.602  1.00  0.00     0.016 A 
ATOM     23  C   UNL A   1      42.944  25.065  27.162  1.00  0.00     0.016 A 
ATOM     24  C   UNL A   1      43.518  27.740  27.741  1.00  0.00     0.010 A 
ATOM     25  C   UNL A   1      42.345  25.686  28.256  1.00  0.00     0.010 A 
ATOM     26  C   UNL A   1      42.643  27.022  28.571  1.00  0.00    -0.014 A 
BRANCH  26  27
ATOM     27  C   UNL A   1      42.016  27.640  29.768  1.00  0.00     0.031 A 
ATOM     28  C   UNL A   1      40.784  28.487  29.622  1.00  0.00     0.074 A 
ATOM     29  C   UNL A   1      42.595  27.505  30.976  1.00  0.00     0.049 A 
ATOM     30  N   UNL A   1      40.227  29.296  30.487  1.00  0.00    -0.248 NA
ATOM     31  C   UNL A   1      40.090  28.424  28.326  1.00  0.00     0.031 C 
ATOM     32  C   UNL A   1      43.777  26.692  31.264  1.00  0.00     0.029 A 
ATOM     33  N   UNL A   1      42.280  28.076  32.182  1.00  0.00    -0.354 N 
ATOM     34  C   UNL A   1      39.143  29.865  29.832  1.00  0.00     0.074 A 
ATOM     35  C   UNL A   1      39.116  29.309  28.495  1.00  0.00     0.031 C 
ATOM     36  C   UNL A   1      44.091  26.820  32.563  1.00  0.00     0.029 A 
ATOM     37  C   UNL A   1      43.176  27.775  33.179  1.00  0.00     0.049 A 
ATOM     38  H   UNL A   1      41.489  28.647  32.322  1.00  0.00     0.167 HD
ATOM     39  C   UNL A   1      38.252  30.771  30.302  1.00  0.00     0.037 A 
ATOM     40  C   UNL A   1      43.285  28.252  34.433  1.00  0.00     0.037 A 
ATOM     41  C   UNL A   1      38.263  31.305  31.638  1.00  0.00     0.049 A 
ATOM     42  C   UNL A   1      42.319  29.293  34.916  1.00  0.00     0.074 A 
ATOM     43  C   UNL A   1      37.389  32.213  32.212  1.00  0.00     0.029 A 
ATOM     44  N   UNL A   1      39.192  30.975  32.612  1.00  0.00    -0.354 N 
ATOM     45  N   UNL A   1      41.317  29.848  34.279  1.00  0.00    -0.248 NA
ATOM     46  C   UNL A   1      42.510  29.788  36.287  1.00  0.00     0.031 C 
ATOM     47  C   UNL A   1      37.806  32.453  33.526  1.00  0.00     0.029 A 
ATOM     48  C   UNL A   1      38.921  31.670  33.779  1.00  0.00     0.049 A 
ATOM     49  H   UNL A   1      39.935  30.341  32.491  1.00  0.00     0.167 HD
ATOM     50  C   UNL A   1      40.748  30.745  35.173  1.00  0.00     0.074 A 
ATOM     51  C   UNL A   1      41.513  30.656  36.401  1.00  0.00     0.031 C 
ATOM     52  C   UNL A   1      39.689  31.567  34.991  1.00  0.00     0.037 A 
BRANCH  39  53
ATOM     53  C   UNL A   1      37.199  31.263  29.358  1.00  0.00     0.057 A 
ATOM     54  C   UNL A   1      36.079  30.489  29.033  1.00  0.00     0.134 A 
ATOM     55  C   UNL A   1      37.282  32.549  28.808  1.00  0.00     0.134 A 
ATOM     56  F   UNL A   1      35.950  29.245  29.517  1.00  0.00    -0.206 F 
ATOM     57  C   UNL A   1      35.081  30.973  28.186  1.00  0.00     0.040 A 
ATOM     58  C   UNL A   1      36.281  33.050  27.974  1.00  0.00     0.040 A 
ATOM     59  F   UNL A   1      38.328  33.341  29.084  1.00  0.00    -0.206 F 
ATOM     60  C   UNL A   1      35.177  32.261  27.660  1.00  0.00     0.006 A 
ENDBRANCH  39  53
BRANCH  40  61
ATOM     61  C   UNL A   1      44.383  27.771  35.304  1.00  0.00     0.057 A 
ATOM     62  C   UNL A   1      44.211  26.656  36.129  1.00  0.00     0.134 A 
ATOM     63  C   UNL A   1      45.634  28.401  35.314  1.00  0.00     0.134 A 
ATOM     64  F   UNL A   1      43.027  26.027  36.175  1.00  0.00    -0.206 F 
ATOM     65  C   UNL A   1      45.245  26.182  36.937  1.00  0.00     0.040 A 
ATOM     66  C   UNL A   1      46.682  27.926  36.100  1.00  0.00     0.040 A 
ATOM     67  F   UNL A   1      45.858  29.474  34.540  1.00  0.00    -0.206 F 
ATOM     68  C   UNL A   1      46.488  26.813  36.917  1.00  0.00     0.006 A 
ENDBRANCH  40  61
BRANCH  52  69
ATOM     69  C   UNL A   1      39.275  32.411  36.156  1.00  0.00     0.057 A 
ATOM     70  C   UNL A   1      38.332  31.964  37.088  1.00  0.00     0.134 A 
ATOM     71  C   UNL A   1      39.855  33.668  36.367  1.00  0.00     0.134 A 
ATOM     72  F   UNL A   1      37.733  30.774  36.932  1.00  0.00    -0.206 F 
ATOM     73  C   UNL A   1      37.967  32.747  38.184  1.00  0.00     0.040 A 
ATOM     74  C   UNL A   1      39.511  34.453  37.467  1.00  0.00     0.040 A 
ATOM     75  F   UNL A   1      40.770  34.148  35.510  1.00  0.00    -0.206 F 
ATOM     76  C   UNL A   1      38.562  33.994  38.379  1.00  0.00     0.006 A 
ENDBRANCH  52  69
ENDBRANCH  26  27
ENDBRANCH  19  21
ENDBRANCH  18  19
ENDBRANCH  17  18
ENDBRANCH   1  17
TORSDOF 13
ENDMDL
MODEL 3
REMARK VINA RESULT:      -8.9      6.185     10.274
REMARK SMILES Cc1nc2cc(SCC(=O)OCCOC(=O)c3ccc(-c4c5nc(c(-c6c(F)cccc6F)c6ccc([nH]6)c(-c6c(F)cccc6F)c6nc(c(-c7c(F)cccc7F)c7ccc4[nH]7)C=C6)C=C5)cc3)ccc2s1
REMARK SMILES IDX 12 1 11 2 9 3 10 4 8 5 7 6 6 7 1 8 2 9 3 10 74 11 4 12 73 13
REMARK SMILES IDX 5 14 72 15 71 16 13 17 14 18 15 19 16 20 17 21 18 22 70 23
REMARK SMILES IDX 19 24 69 25 20 26 21 27 22 28 63 29 23 30 68 31 62 32 64 33
REMARK SMILES IDX 24 34 67 35 61 36 60 37 25 39 51 40 34 41 50 42 35 43 38 44
REMARK SMILES IDX 49 45 65 46 36 47 37 48 48 50 66 51 39 52 26 53 27 54 32 55
REMARK SMILES IDX 28 56 29 57 31 58 33 59 30 60 52 61 53 62 58 63 54 64 55 65
REMARK SMILES IDX 57 66 59 67 56 68 40 69 41 70 46 71 42 72 43 73 45 74 47 75
REMARK SMILES IDX 44 76
REMARK H PARENT 64 38 38 49
REMARK Flexibility Score: inf
ROOT
ATOM      1  C   UNL A   1      35.807  22.553  23.739  1.00  0.00     0.274 C 
ENDROOT
BRANCH   1   2
ATOM      2  O   UNL A   1      35.432  23.793  24.370  1.00  0.00    -0.461 OA
BRANCH   2   3
ATOM      3  C   UNL A   1      34.328  24.407  23.872  1.00  0.00     0.316 C 
ATOM      4  O   UNL A   1      34.172  24.694  22.687  1.00  0.00    -0.251 OA
BRANCH   3   5
ATOM      5  C   UNL A   1      33.295  24.797  24.905  1.00  0.00     0.197 C 
BRANCH   5   6
ATOM      6  S   UNL A   1      31.657  24.030  24.738  1.00  0.00    -0.114 SA
BRANCH   6   7
ATOM      7  C   UNL A   1      31.949  22.379  24.111  1.00  0.00     0.010 A 
ATOM      8  C   UNL A   1      32.886  16.530  25.556  1.00  0.00     0.079 C 
ATOM      9  C   UNL A   1      32.678  17.862  24.923  1.00  0.00     0.091 A 
ATOM     10  N   UNL A   1      32.529  18.979  25.597  1.00  0.00    -0.241 NA
ATOM     11  S   UNL A   1      32.631  18.013  23.213  1.00  0.00    -0.119 S 
ATOM     12  C   UNL A   1      32.349  20.039  24.722  1.00  0.00     0.083 A 
ATOM     13  C   UNL A   1      32.356  19.705  23.370  1.00  0.00     0.055 A 
ATOM     14  C   UNL A   1      32.151  21.387  25.086  1.00  0.00     0.045 A 
ATOM     15  C   UNL A   1      32.153  20.671  22.376  1.00  0.00     0.022 A 
ATOM     16  C   UNL A   1      31.934  22.001  22.770  1.00  0.00     0.016 A 
ENDBRANCH   6   7
ENDBRANCH   5   6
ENDBRANCH   3   5
ENDBRANCH   2   3
ENDBRANCH   1   2
BRANCH   1  17
ATOM     17  C   UNL A   1      35.834  21.413  24.752  1.00  0.00     0.275 C 
BRANCH  17  18
ATOM     18  O   UNL A   1      36.690  21.763  25.852  1.00  0.00    -0.458 OA
BRANCH  18  19
ATOM     19  C   UNL A   1      37.978  21.373  25.737  1.00  0.00     0.338 C 
ATOM     20  O   UNL A   1      38.390  20.278  25.375  1.00  0.00    -0.246 OA
BRANCH  19  21
ATOM     21  C   UNL A   1      38.880  22.455  26.170  1.00  0.00     0.060 A 
ATOM     22  C   UNL A   1      40.031  22.203  26.920  1.00  0.00     0.016 A 
ATOM     23  C   UNL A   1      38.508  23.769  25.882  1.00  0.00     0.016 A 
ATOM     24  C   UNL A   1      40.779  23.265  27.433  1.00  0.00     0.010 A 
ATOM     25  C   UNL A   1      39.296  24.828  26.331  1.00  0.00     0.010 A 
ATOM     26  C   UNL A   1      40.425  24.589  27.130  1.00  0.00    -0.014 A 
BRANCH  26  27
ATOM     27  C   UNL A   1      41.219  25.744  27.624  1.00  0.00     0.031 A 
ATOM     28  C   UNL A   1      40.562  26.814  28.449  1.00  0.00     0.074 A 
ATOM     29  C   UNL A   1      42.512  25.873  27.268  1.00  0.00     0.049 A 
ATOM     30  N   UNL A   1      41.007  28.002  28.772  1.00  0.00    -0.248 NA
ATOM     31  C   UNL A   1      39.220  26.512  28.972  1.00  0.00     0.031 C 
ATOM     32  C   UNL A   1      43.280  24.898  26.495  1.00  0.00     0.029 A 
ATOM     33  N   UNL A   1      43.397  26.896  27.491  1.00  0.00    -0.354 N 
ATOM     34  C   UNL A   1      39.990  28.602  29.503  1.00  0.00     0.074 A 
ATOM     35  C   UNL A   1      38.903  27.649  29.577  1.00  0.00     0.031 C 
ATOM     36  C   UNL A   1      44.521  25.372  26.301  1.00  0.00     0.029 A 
ATOM     37  C   UNL A   1      44.612  26.709  26.877  1.00  0.00     0.049 A 
ATOM     38  H   UNL A   1      43.184  27.688  28.036  1.00  0.00     0.167 HD
ATOM     39  C   UNL A   1      39.965  29.838  30.057  1.00  0.00     0.037 A 
ATOM     40  C   UNL A   1      45.664  27.538  26.745  1.00  0.00     0.037 A 
ATOM     41  C   UNL A   1      41.055  30.776  30.005  1.00  0.00     0.049 A 
ATOM     42  C   UNL A   1      45.595  28.921  27.323  1.00  0.00     0.074 A 
ATOM     43  C   UNL A   1      41.129  32.044  30.555  1.00  0.00     0.029 A 
ATOM     44  N   UNL A   1      42.264  30.545  29.368  1.00  0.00    -0.354 N 
ATOM     45  N   UNL A   1      44.617  29.490  27.984  1.00  0.00    -0.248 NA
ATOM     46  C   UNL A   1      46.769  29.782  27.121  1.00  0.00     0.031 C 
ATOM     47  C   UNL A   1      42.375  32.592  30.228  1.00  0.00     0.029 A 
ATOM     48  C   UNL A   1      43.087  31.651  29.501  1.00  0.00     0.049 A 
ATOM     49  H   UNL A   1      42.502  29.717  28.892  1.00  0.00     0.167 HD
ATOM     50  C   UNL A   1      45.060  30.769  28.290  1.00  0.00     0.074 A 
ATOM     51  C   UNL A   1      46.399  30.891  27.749  1.00  0.00     0.031 C 
ATOM     52  C   UNL A   1      44.415  31.754  28.960  1.00  0.00     0.037 A 
BRANCH  39  53
ATOM     53  C   UNL A   1      38.708  30.260  30.754  1.00  0.00     0.057 A 
ATOM     54  C   UNL A   1      37.682  30.932  30.082  1.00  0.00     0.134 A 
ATOM     55  C   UNL A   1      38.502  29.941  32.103  1.00  0.00     0.134 A 
ATOM     56  F   UNL A   1      37.825  31.277  28.794  1.00  0.00    -0.206 F 
ATOM     57  C   UNL A   1      36.495  31.282  30.729  1.00  0.00     0.040 A 
ATOM     58  C   UNL A   1      37.313  30.271  32.755  1.00  0.00     0.040 A 
ATOM     59  F   UNL A   1      39.446  29.294  32.801  1.00  0.00    -0.206 F 
ATOM     60  C   UNL A   1      36.306  30.944  32.068  1.00  0.00     0.006 A 
ENDBRANCH  39  53
BRANCH  40  61
ATOM     61  C   UNL A   1      46.859  27.087  25.995  1.00  0.00     0.057 A 
ATOM     62  C   UNL A   1      47.895  26.401  26.635  1.00  0.00     0.134 A 
ATOM     63  C   UNL A   1      46.982  27.311  24.618  1.00  0.00     0.134 A 
ATOM     64  F   UNL A   1      47.839  26.178  27.956  1.00  0.00    -0.206 F 
ATOM     65  C   UNL A   1      49.015  25.953  25.934  1.00  0.00     0.040 A 
ATOM     66  C   UNL A   1      48.085  26.851  23.900  1.00  0.00     0.040 A 
ATOM     67  F   UNL A   1      46.018  27.961  23.949  1.00  0.00    -0.206 F 
ATOM     68  C   UNL A   1      49.108  26.171  24.560  1.00  0.00     0.006 A 
ENDBRANCH  40  61
BRANCH  52  69
ATOM     69  C   UNL A   1      45.162  33.034  29.171  1.00  0.00     0.057 A 
ATOM     70  C   UNL A   1      45.050  34.105  28.276  1.00  0.00     0.134 A 
ATOM     71  C   UNL A   1      45.970  33.210  30.301  1.00  0.00     0.134 A 
ATOM     72  F   UNL A   1      44.301  33.991  27.170  1.00  0.00    -0.206 F 
ATOM     73  C   UNL A   1      45.732  35.304  28.491  1.00  0.00     0.040 A 
ATOM     74  C   UNL A   1      46.644  34.408  30.534  1.00  0.00     0.040 A 
ATOM     75  F   UNL A   1      46.112  32.220  31.197  1.00  0.00    -0.206 F 
ATOM     76  C   UNL A   1      46.527  35.459  29.626  1.00  0.00     0.006 A 
ENDBRANCH  52  69
ENDBRANCH  26  27
ENDBRANCH  19  21
ENDBRANCH  18  19
ENDBRANCH  17  18
ENDBRANCH   1  17
TORSDOF 13
ENDMDL
