MODEL 1
REMARK VINA RESULT:      -9.4      0.000      0.000
REMARK SMILES Cc1c(Cl)cc2c(c1C)O[C@@H](C(F)(F)F)C(C(=O)OCCOC(=O)c1ccc(-c3c4nc(c(-c5c(F)cccc5F)c5ccc([nH]5)c(-c5c(F)cccc5F)c5nc(c(-c6c(F)cccc6F)c6ccc3[nH]6)C=C5)C=C4)cc1)=C2
REMARK SMILES IDX 21 1 20 2 19 3 17 4 18 5 16 6 1 7 2 8 3 9 8 10 4 11 5 12
REMARK SMILES IDX 7 13 9 14 6 15 10 16 79 17 11 18 12 19 13 20 14 21 15 22
REMARK SMILES IDX 22 23 23 24 24 25 25 26 26 27 78 28 27 29 77 30 28 31 29 32
REMARK SMILES IDX 30 33 71 34 31 35 76 36 70 37 72 38 32 39 75 40 69 41 68 42
REMARK SMILES IDX 33 44 59 45 42 46 58 47 43 48 46 49 57 50 73 51 44 52 45 53
REMARK SMILES IDX 56 55 74 56 47 57 34 58 35 59 40 60 36 61 37 62 39 63 41 64
REMARK SMILES IDX 38 65 60 66 61 67 66 68 62 69 63 70 65 71 67 72 64 73 48 74
REMARK SMILES IDX 49 75 54 76 50 77 51 78 53 79 55 80 52 81
REMARK H PARENT 72 43 46 54
REMARK Flexibility Score: inf
ROOT
ATOM      1  C   UNL A   1      45.518  23.375  24.796  1.00  0.00     0.275 C 
ENDROOT
BRANCH   1   2
ATOM      2  C   UNL A   1      46.670  24.374  24.701  1.00  0.00     0.275 C 
BRANCH   2   3
ATOM      3  O   UNL A   1      46.164  25.726  24.696  1.00  0.00    -0.459 OA
BRANCH   3   4
ATOM      4  C   UNL A   1      47.033  26.689  25.074  1.00  0.00     0.338 C 
ATOM      5  O   UNL A   1      47.939  27.147  24.402  1.00  0.00    -0.246 OA
BRANCH   4   6
ATOM      6  C   UNL A   1      46.687  27.197  26.415  1.00  0.00     0.087 C 
ATOM      7  C   UNL A   1      44.704  30.896  31.415  1.00  0.00     0.046 C 
ATOM      8  C   UNL A   1      44.909  30.093  30.154  1.00  0.00    -0.026 A 
ATOM      9  C   UNL A   1      44.030  30.219  29.059  1.00  0.00     0.045 A 
ATOM     10  C   UNL A   1      46.033  29.231  30.032  1.00  0.00    -0.004 A 
ATOM     11  Cl  UNL A   1      42.631  31.235  29.092  1.00  0.00    -0.084 Cl
ATOM     12  C   UNL A   1      44.274  29.538  27.867  1.00  0.00     0.032 A 
ATOM     13  C   UNL A   1      46.247  28.529  28.827  1.00  0.00     0.131 A 
ATOM     14  C   UNL A   1      47.031  29.040  31.148  1.00  0.00     0.049 C 
ATOM     15  C   UNL A   1      45.391  28.714  27.744  1.00  0.00     0.019 A 
ATOM     16  O   UNL A   1      47.360  27.729  28.743  1.00  0.00    -0.475 OA
ATOM     17  C   UNL A   1      45.724  28.126  26.463  1.00  0.00     0.027 C 
ATOM     18  C   UNL A   1      47.463  26.781  27.635  1.00  0.00     0.316 C 
BRANCH  18  19
ATOM     19  C   UNL A   1      47.171  25.356  28.138  1.00  0.00     0.430 C 
ATOM     20  F   UNL A   1      47.332  25.266  29.482  1.00  0.00    -0.167 F 
ATOM     21  F   UNL A   1      45.913  24.954  27.857  1.00  0.00    -0.167 F 
ATOM     22  F   UNL A   1      48.026  24.452  27.602  1.00  0.00    -0.167 F 
ENDBRANCH  18  19
ENDBRANCH   4   6
ENDBRANCH   3   4
ENDBRANCH   2   3
ENDBRANCH   1   2
BRANCH   1  23
ATOM     23  O   UNL A   1      44.274  24.064  24.575  1.00  0.00    -0.458 OA
BRANCH  23  24
ATOM     24  C   UNL A   1      43.185  23.524  25.167  1.00  0.00     0.338 C 
ATOM     25  O   UNL A   1      42.726  22.404  25.001  1.00  0.00    -0.246 OA
BRANCH  24  26
ATOM     26  C   UNL A   1      42.596  24.493  26.109  1.00  0.00     0.060 A 
ATOM     27  C   UNL A   1      42.818  25.854  25.926  1.00  0.00     0.016 A 
ATOM     28  C   UNL A   1      41.934  24.043  27.249  1.00  0.00     0.016 A 
ATOM     29  C   UNL A   1      42.491  26.758  26.936  1.00  0.00     0.010 A 
ATOM     30  C   UNL A   1      41.497  24.967  28.206  1.00  0.00     0.010 A 
ATOM     31  C   UNL A   1      41.812  26.333  28.087  1.00  0.00    -0.014 A 
BRANCH  31  32
ATOM     32  C   UNL A   1      41.467  27.298  29.174  1.00  0.00     0.031 A 
ATOM     33  C   UNL A   1      42.297  27.355  30.434  1.00  0.00     0.074 A 
ATOM     34  C   UNL A   1      40.427  28.146  29.040  1.00  0.00     0.049 A 
ATOM     35  N   UNL A   1      42.055  27.983  31.558  1.00  0.00    -0.248 NA
ATOM     36  C   UNL A   1      43.558  26.596  30.436  1.00  0.00     0.031 C 
ATOM     37  C   UNL A   1      39.560  28.251  27.865  1.00  0.00     0.029 A 
ATOM     38  N   UNL A   1      39.930  29.100  29.898  1.00  0.00    -0.354 N 
ATOM     39  C   UNL A   1      43.097  27.649  32.415  1.00  0.00     0.074 A 
ATOM     40  C   UNL A   1      43.973  26.759  31.685  1.00  0.00     0.031 C 
ATOM     41  C   UNL A   1      38.686  29.251  28.048  1.00  0.00     0.029 A 
ATOM     42  C   UNL A   1      38.858  29.794  29.390  1.00  0.00     0.049 A 
ATOM     43  H   UNL A   1      40.308  29.270  30.791  1.00  0.00     0.167 HD
ATOM     44  C   UNL A   1      43.307  28.049  33.692  1.00  0.00     0.037 A 
ATOM     45  C   UNL A   1      38.071  30.734  29.948  1.00  0.00     0.037 A 
ATOM     46  C   UNL A   1      42.474  28.987  34.399  1.00  0.00     0.049 A 
ATOM     47  C   UNL A   1      38.300  31.136  31.375  1.00  0.00     0.074 A 
ATOM     48  C   UNL A   1      42.610  29.452  35.697  1.00  0.00     0.029 A 
ATOM     49  N   UNL A   1      41.368  29.625  33.860  1.00  0.00    -0.354 N 
ATOM     50  N   UNL A   1      39.236  30.741  32.204  1.00  0.00    -0.248 NA
ATOM     51  C   UNL A   1      37.345  32.090  31.959  1.00  0.00     0.031 C 
ATOM     52  C   UNL A   1      41.569  30.351  35.951  1.00  0.00     0.029 A 
ATOM     53  C   UNL A   1      40.808  30.474  34.801  1.00  0.00     0.049 A 
ATOM     54  H   UNL A   1      41.030  29.494  32.945  1.00  0.00     0.167 HD
ATOM     55  C   UNL A   1      38.983  31.395  33.402  1.00  0.00     0.074 A 
ATOM     56  C   UNL A   1      37.822  32.232  33.187  1.00  0.00     0.031 C 
ATOM     57  C   UNL A   1      39.650  31.300  34.577  1.00  0.00     0.037 A 
BRANCH  44  58
ATOM     58  C   UNL A   1      44.477  27.461  34.428  1.00  0.00     0.057 A 
ATOM     59  C   UNL A   1      45.673  28.166  34.605  1.00  0.00     0.134 A 
ATOM     60  C   UNL A   1      44.379  26.194  35.017  1.00  0.00     0.134 A 
ATOM     61  F   UNL A   1      45.836  29.378  34.056  1.00  0.00    -0.206 F 
ATOM     62  C   UNL A   1      46.735  27.626  35.334  1.00  0.00     0.040 A 
ATOM     63  C   UNL A   1      45.424  25.654  35.768  1.00  0.00     0.040 A 
ATOM     64  F   UNL A   1      43.257  25.470  34.892  1.00  0.00    -0.206 F 
ATOM     65  C   UNL A   1      46.608  26.370  35.925  1.00  0.00     0.006 A 
ENDBRANCH  44  58
BRANCH  45  66
ATOM     66  C   UNL A   1      36.968  31.335  29.157  1.00  0.00     0.057 A 
ATOM     67  C   UNL A   1      35.809  30.606  28.872  1.00  0.00     0.134 A 
ATOM     68  C   UNL A   1      37.033  32.653  28.690  1.00  0.00     0.134 A 
ATOM     69  F   UNL A   1      35.698  29.329  29.269  1.00  0.00    -0.206 F 
ATOM     70  C   UNL A   1      34.750  31.168  28.155  1.00  0.00     0.040 A 
ATOM     71  C   UNL A   1      35.972  33.236  27.996  1.00  0.00     0.040 A 
ATOM     72  F   UNL A   1      38.117  33.404  28.930  1.00  0.00    -0.206 F 
ATOM     73  C   UNL A   1      34.826  32.491  27.725  1.00  0.00     0.006 A 
ENDBRANCH  45  66
BRANCH  57  74
ATOM     74  C   UNL A   1      39.151  32.127  35.721  1.00  0.00     0.057 A 
ATOM     75  C   UNL A   1      38.261  31.605  36.667  1.00  0.00     0.134 A 
ATOM     76  C   UNL A   1      39.606  33.437  35.910  1.00  0.00     0.134 A 
ATOM     77  F   UNL A   1      37.780  30.360  36.534  1.00  0.00    -0.206 F 
ATOM     78  C   UNL A   1      37.833  32.362  37.759  1.00  0.00     0.040 A 
ATOM     79  C   UNL A   1      39.201  34.198  37.009  1.00  0.00     0.040 A 
ATOM     80  F   UNL A   1      40.465  33.993  35.042  1.00  0.00    -0.206 F 
ATOM     81  C   UNL A   1      38.310  33.660  37.935  1.00  0.00     0.006 A 
ENDBRANCH  57  74
ENDBRANCH  31  32
ENDBRANCH  24  26
ENDBRANCH  23  24
ENDBRANCH   1  23
TORSDOF 12
ENDMDL
MODEL 2
REMARK VINA RESULT:      -9.3      4.824     10.428
REMARK SMILES Cc1c(Cl)cc2c(c1C)O[C@@H](C(F)(F)F)C(C(=O)OCCOC(=O)c1ccc(-c3c4nc(c(-c5c(F)cccc5F)c5ccc([nH]5)c(-c5c(F)cccc5F)c5nc(c(-c6c(F)cccc6F)c6ccc3[nH]6)C=C5)C=C4)cc1)=C2
REMARK SMILES IDX 21 1 20 2 19 3 17 4 18 5 16 6 1 7 2 8 3 9 8 10 4 11 5 12
REMARK SMILES IDX 7 13 9 14 6 15 10 16 79 17 11 18 12 19 13 20 14 21 15 22
REMARK SMILES IDX 22 23 23 24 24 25 25 26 26 27 78 28 27 29 77 30 28 31 29 32
REMARK SMILES IDX 30 33 71 34 31 35 76 36 70 37 72 38 32 39 75 40 69 41 68 42
REMARK SMILES IDX 33 44 59 45 42 46 58 47 43 48 46 49 57 50 73 51 44 52 45 53
REMARK SMILES IDX 56 55 74 56 47 57 34 58 35 59 40 60 36 61 37 62 39 63 41 64
REMARK SMILES IDX 38 65 60 66 61 67 66 68 62 69 63 70 65 71 67 72 64 73 48 74
REMARK SMILES IDX 49 75 54 76 50 77 51 78 53 79 55 80 52 81
REMARK H PARENT 72 43 46 54
REMARK Flexibility Score: inf
ROOT
ATOM      1  C   UNL A   1      36.412  20.859  24.617  1.00  0.00     0.275 C 
ENDROOT
BRANCH   1   2
ATOM      2  C   UNL A   1      35.023  20.356  25.001  1.00  0.00     0.275 C 
BRANCH   2   3
ATOM      3  O   UNL A   1      34.070  21.439  24.972  1.00  0.00    -0.459 OA
BRANCH   3   4
ATOM      4  C   UNL A   1      33.611  21.862  26.171  1.00  0.00     0.338 C 
ATOM      5  O   UNL A   1      33.653  21.242  27.218  1.00  0.00    -0.246 OA
BRANCH   4   6
ATOM      6  C   UNL A   1      33.115  23.248  26.072  1.00  0.00     0.087 C 
ATOM      7  C   UNL A   1      32.625  29.703  25.236  1.00  0.00     0.046 C 
ATOM      8  C   UNL A   1      32.846  28.212  25.171  1.00  0.00    -0.026 A 
ATOM      9  C   UNL A   1      33.657  27.638  24.172  1.00  0.00     0.045 A 
ATOM     10  C   UNL A   1      32.277  27.363  26.160  1.00  0.00    -0.004 A 
ATOM     11  Cl  UNL A   1      34.400  28.570  22.918  1.00  0.00    -0.084 Cl
ATOM     12  C   UNL A   1      33.925  26.270  24.169  1.00  0.00     0.032 A 
ATOM     13  C   UNL A   1      32.537  25.977  26.124  1.00  0.00     0.131 A 
ATOM     14  C   UNL A   1      31.403  27.889  27.272  1.00  0.00     0.049 C 
ATOM     15  C   UNL A   1      33.386  25.446  25.156  1.00  0.00     0.019 A 
ATOM     16  O   UNL A   1      31.991  25.198  27.115  1.00  0.00    -0.475 OA
ATOM     17  C   UNL A   1      33.784  24.056  25.239  1.00  0.00     0.027 C 
ATOM     18  C   UNL A   1      32.002  23.746  26.954  1.00  0.00     0.316 C 
BRANCH  18  19
ATOM     19  C   UNL A   1      30.596  23.251  26.569  1.00  0.00     0.430 C 
ATOM     20  F   UNL A   1      30.015  22.578  27.595  1.00  0.00    -0.167 F 
ATOM     21  F   UNL A   1      29.766  24.261  26.230  1.00  0.00    -0.167 F 
ATOM     22  F   UNL A   1      30.638  22.381  25.532  1.00  0.00    -0.167 F 
ENDBRANCH  18  19
ENDBRANCH   4   6
ENDBRANCH   3   4
ENDBRANCH   2   3
ENDBRANCH   1   2
BRANCH   1  23
ATOM     23  O   UNL A   1      37.068  21.382  25.787  1.00  0.00    -0.458 OA
BRANCH  23  24
ATOM     24  C   UNL A   1      38.410  21.233  25.830  1.00  0.00     0.338 C 
ATOM     25  O   UNL A   1      39.067  20.281  25.433  1.00  0.00    -0.246 OA
BRANCH  24  26
ATOM     26  C   UNL A   1      39.028  22.431  26.424  1.00  0.00     0.060 A 
ATOM     27  C   UNL A   1      38.511  23.690  26.131  1.00  0.00     0.016 A 
ATOM     28  C   UNL A   1      40.202  22.317  27.165  1.00  0.00     0.016 A 
ATOM     29  C   UNL A   1      39.227  24.837  26.469  1.00  0.00     0.010 A 
ATOM     30  C   UNL A   1      40.855  23.472  27.609  1.00  0.00     0.010 A 
ATOM     31  C   UNL A   1      40.405  24.749  27.227  1.00  0.00    -0.014 A 
BRANCH  31  32
ATOM     32  C   UNL A   1      41.178  25.976  27.586  1.00  0.00     0.031 A 
ATOM     33  C   UNL A   1      40.558  27.040  28.460  1.00  0.00     0.074 A 
ATOM     34  C   UNL A   1      42.446  26.144  27.157  1.00  0.00     0.049 A 
ATOM     35  N   UNL A   1      40.990  28.247  28.729  1.00  0.00    -0.248 NA
ATOM     36  C   UNL A   1      39.278  26.708  29.107  1.00  0.00     0.031 C 
ATOM     37  C   UNL A   1      43.204  25.187  26.348  1.00  0.00     0.029 A 
ATOM     38  N   UNL A   1      43.331  27.177  27.355  1.00  0.00    -0.354 N 
ATOM     39  C   UNL A   1      40.011  28.836  29.523  1.00  0.00     0.074 A 
ATOM     40  C   UNL A   1      38.960  27.855  29.689  1.00  0.00     0.031 C 
ATOM     41  C   UNL A   1      44.452  25.645  26.176  1.00  0.00     0.029 A 
ATOM     42  C   UNL A   1      44.559  26.972  26.772  1.00  0.00     0.049 A 
ATOM     43  H   UNL A   1      43.107  27.987  27.868  1.00  0.00     0.167 HD
ATOM     44  C   UNL A   1      39.991  30.077  30.064  1.00  0.00     0.037 A 
ATOM     45  C   UNL A   1      45.639  27.771  26.685  1.00  0.00     0.037 A 
ATOM     46  C   UNL A   1      41.065  31.030  29.956  1.00  0.00     0.049 A 
ATOM     47  C   UNL A   1      45.582  29.155  27.261  1.00  0.00     0.074 A 
ATOM     48  C   UNL A   1      41.133  32.313  30.473  1.00  0.00     0.029 A 
ATOM     49  N   UNL A   1      42.268  30.796  29.309  1.00  0.00    -0.354 N 
ATOM     50  N   UNL A   1      44.613  29.731  27.930  1.00  0.00    -0.248 NA
ATOM     51  C   UNL A   1      46.756  30.015  27.044  1.00  0.00     0.031 C 
ATOM     52  C   UNL A   1      42.368  32.865  30.116  1.00  0.00     0.029 A 
ATOM     53  C   UNL A   1      43.083  31.912  29.409  1.00  0.00     0.049 A 
ATOM     54  H   UNL A   1      42.509  29.960  28.848  1.00  0.00     0.167 HD
ATOM     55  C   UNL A   1      45.057  31.015  28.212  1.00  0.00     0.074 A 
ATOM     56  C   UNL A   1      46.393  31.128  27.665  1.00  0.00     0.031 C 
ATOM     57  C   UNL A   1      44.409  32.014  28.858  1.00  0.00     0.037 A 
BRANCH  44  58
ATOM     58  C   UNL A   1      38.759  30.495  30.814  1.00  0.00     0.057 A 
ATOM     59  C   UNL A   1      37.687  31.134  30.183  1.00  0.00     0.134 A 
ATOM     60  C   UNL A   1      38.623  30.195  32.176  1.00  0.00     0.134 A 
ATOM     61  F   UNL A   1      37.758  31.460  28.884  1.00  0.00    -0.206 F 
ATOM     62  C   UNL A   1      36.526  31.473  30.882  1.00  0.00     0.040 A 
ATOM     63  C   UNL A   1      37.459  30.507  32.881  1.00  0.00     0.040 A 
ATOM     64  F   UNL A   1      39.610  29.575  32.840  1.00  0.00    -0.206 F 
ATOM     65  C   UNL A   1      36.408  31.151  32.233  1.00  0.00     0.006 A 
ENDBRANCH  44  58
BRANCH  45  66
ATOM     66  C   UNL A   1      46.859  27.287  25.991  1.00  0.00     0.057 A 
ATOM     67  C   UNL A   1      47.877  26.635  26.696  1.00  0.00     0.134 A 
ATOM     68  C   UNL A   1      47.027  27.439  24.609  1.00  0.00     0.134 A 
ATOM     69  F   UNL A   1      47.786  26.483  28.026  1.00  0.00    -0.206 F 
ATOM     70  C   UNL A   1      49.015  26.147  26.052  1.00  0.00     0.040 A 
ATOM     71  C   UNL A   1      48.147  26.932  23.948  1.00  0.00     0.040 A 
ATOM     72  F   UNL A   1      46.088  28.055  23.876  1.00  0.00    -0.206 F 
ATOM     73  C   UNL A   1      49.147  26.286  24.671  1.00  0.00     0.006 A 
ENDBRANCH  45  66
BRANCH  57  74
ATOM     74  C   UNL A   1      45.134  33.314  29.021  1.00  0.00     0.057 A 
ATOM     75  C   UNL A   1      45.983  33.545  30.110  1.00  0.00     0.134 A 
ATOM     76  C   UNL A   1      45.027  34.320  28.055  1.00  0.00     0.134 A 
ATOM     77  F   UNL A   1      46.118  32.624  31.075  1.00  0.00    -0.206 F 
ATOM     78  C   UNL A   1      46.695  34.739  30.236  1.00  0.00     0.040 A 
ATOM     79  C   UNL A   1      45.749  35.511  28.159  1.00  0.00     0.040 A 
ATOM     80  F   UNL A   1      44.235  34.157  26.984  1.00  0.00    -0.206 F 
ATOM     81  C   UNL A   1      46.584  35.723  29.254  1.00  0.00     0.006 A 
ENDBRANCH  57  74
ENDBRANCH  31  32
ENDBRANCH  24  26
ENDBRANCH  23  24
ENDBRANCH   1  23
TORSDOF 12
ENDMDL
MODEL 3
REMARK VINA RESULT:      -9.3      4.898     10.242
REMARK SMILES Cc1c(Cl)cc2c(c1C)O[C@@H](C(F)(F)F)C(C(=O)OCCOC(=O)c1ccc(-c3c4nc(c(-c5c(F)cccc5F)c5ccc([nH]5)c(-c5c(F)cccc5F)c5nc(c(-c6c(F)cccc6F)c6ccc3[nH]6)C=C5)C=C4)cc1)=C2
REMARK SMILES IDX 21 1 20 2 19 3 17 4 18 5 16 6 1 7 2 8 3 9 8 10 4 11 5 12
REMARK SMILES IDX 7 13 9 14 6 15 10 16 79 17 11 18 12 19 13 20 14 21 15 22
REMARK SMILES IDX 22 23 23 24 24 25 25 26 26 27 78 28 27 29 77 30 28 31 29 32
REMARK SMILES IDX 30 33 71 34 31 35 76 36 70 37 72 38 32 39 75 40 69 41 68 42
REMARK SMILES IDX 33 44 59 45 42 46 58 47 43 48 46 49 57 50 73 51 44 52 45 53
REMARK SMILES IDX 56 55 74 56 47 57 34 58 35 59 40 60 36 61 37 62 39 63 41 64
REMARK SMILES IDX 38 65 60 66 61 67 66 68 62 69 63 70 65 71 67 72 64 73 48 74
REMARK SMILES IDX 49 75 54 76 50 77 51 78 53 79 55 80 52 81
REMARK H PARENT 72 43 46 54
REMARK Flexibility Score: inf
ROOT
ATOM      1  C   UNL A   1      31.815  29.938  25.343  1.00  0.00     0.275 C 
ENDROOT
BRANCH   1   2
ATOM      2  C   UNL A   1      32.740  28.987  24.587  1.00  0.00     0.275 C 
BRANCH   2   3
ATOM      3  O   UNL A   1      32.759  27.692  25.223  1.00  0.00    -0.459 OA
BRANCH   3   4
ATOM      4  C   UNL A   1      31.986  26.739  24.658  1.00  0.00     0.338 C 
ATOM      5  O   UNL A   1      30.981  26.924  23.996  1.00  0.00    -0.246 OA
BRANCH   4   6
ATOM      6  C   UNL A   1      32.575  25.403  24.874  1.00  0.00     0.087 C 
ATOM      7  C   UNL A   1      36.571  20.243  25.001  1.00  0.00     0.046 C 
ATOM      8  C   UNL A   1      35.858  21.569  25.098  1.00  0.00    -0.026 A 
ATOM      9  C   UNL A   1      36.557  22.751  25.411  1.00  0.00     0.045 A 
ATOM     10  C   UNL A   1      34.466  21.653  24.820  1.00  0.00    -0.004 A 
ATOM     11  Cl  UNL A   1      38.249  22.773  25.770  1.00  0.00    -0.084 Cl
ATOM     12  C   UNL A   1      35.908  23.985  25.416  1.00  0.00     0.032 A 
ATOM     13  C   UNL A   1      33.820  22.906  24.856  1.00  0.00     0.131 A 
ATOM     14  C   UNL A   1      33.637  20.441  24.467  1.00  0.00     0.049 C 
ATOM     15  C   UNL A   1      34.548  24.064  25.116  1.00  0.00     0.019 A 
ATOM     16  O   UNL A   1      32.481  22.945  24.553  1.00  0.00    -0.475 OA
ATOM     17  C   UNL A   1      33.909  25.357  24.976  1.00  0.00     0.027 C 
ATOM     18  C   UNL A   1      31.727  24.160  24.852  1.00  0.00     0.316 C 
BRANCH  18  19
ATOM     19  C   UNL A   1      30.860  23.942  26.105  1.00  0.00     0.430 C 
ATOM     20  F   UNL A   1      30.299  22.707  26.105  1.00  0.00    -0.167 F 
ATOM     21  F   UNL A   1      31.564  24.063  27.251  1.00  0.00    -0.167 F 
ATOM     22  F   UNL A   1      29.827  24.818  26.157  1.00  0.00    -0.167 F 
ENDBRANCH  18  19
ENDBRANCH   4   6
ENDBRANCH   3   4
ENDBRANCH   2   3
ENDBRANCH   1   2
BRANCH   1  23
ATOM     23  O   UNL A   1      32.256  30.042  26.710  1.00  0.00    -0.458 OA
BRANCH  23  24
ATOM     24  C   UNL A   1      32.862  31.201  27.051  1.00  0.00     0.338 C 
ATOM     25  O   UNL A   1      32.407  32.332  26.965  1.00  0.00    -0.246 OA
BRANCH  24  26
ATOM     26  C   UNL A   1      34.204  30.923  27.592  1.00  0.00     0.060 A 
ATOM     27  C   UNL A   1      34.608  29.607  27.790  1.00  0.00     0.016 A 
ATOM     28  C   UNL A   1      35.011  31.972  28.027  1.00  0.00     0.016 A 
ATOM     29  C   UNL A   1      35.757  29.331  28.531  1.00  0.00     0.010 A 
ATOM     30  C   UNL A   1      36.225  31.692  28.664  1.00  0.00     0.010 A 
ATOM     31  C   UNL A   1      36.594  30.368  28.968  1.00  0.00    -0.014 A 
BRANCH  31  32
ATOM     32  C   UNL A   1      37.821  30.077  29.769  1.00  0.00     0.031 A 
ATOM     33  C   UNL A   1      38.942  29.259  29.173  1.00  0.00     0.074 A 
ATOM     34  C   UNL A   1      37.959  30.556  31.022  1.00  0.00     0.049 A 
ATOM     35  N   UNL A   1      39.995  28.746  29.760  1.00  0.00    -0.248 NA
ATOM     36  C   UNL A   1      38.863  28.969  27.732  1.00  0.00     0.031 C 
ATOM     37  C   UNL A   1      36.990  31.403  31.720  1.00  0.00     0.029 A 
ATOM     38  N   UNL A   1      38.981  30.413  31.930  1.00  0.00    -0.354 N 
ATOM     39  C   UNL A   1      40.668  28.027  28.778  1.00  0.00     0.074 A 
ATOM     40  C   UNL A   1      39.903  28.166  27.558  1.00  0.00     0.031 C 
ATOM     41  C   UNL A   1      37.490  31.755  32.914  1.00  0.00     0.029 A 
ATOM     42  C   UNL A   1      38.767  31.080  33.112  1.00  0.00     0.049 A 
ATOM     43  H   UNL A   1      39.792  29.882  31.750  1.00  0.00     0.167 HD
ATOM     44  C   UNL A   1      41.818  27.319  28.882  1.00  0.00     0.037 A 
ATOM     45  C   UNL A   1      39.490  31.118  34.248  1.00  0.00     0.037 A 
ATOM     46  C   UNL A   1      42.616  27.234  30.078  1.00  0.00     0.049 A 
ATOM     47  C   UNL A   1      40.743  30.298  34.354  1.00  0.00     0.074 A 
ATOM     48  C   UNL A   1      43.798  26.539  30.276  1.00  0.00     0.029 A 
ATOM     49  N   UNL A   1      42.331  27.885  31.267  1.00  0.00    -0.354 N 
ATOM     50  N   UNL A   1      41.317  29.548  33.445  1.00  0.00    -0.248 NA
ATOM     51  C   UNL A   1      41.431  30.300  35.653  1.00  0.00     0.031 C 
ATOM     52  C   UNL A   1      44.213  26.750  31.596  1.00  0.00     0.029 A 
ATOM     53  C   UNL A   1      43.310  27.604  32.206  1.00  0.00     0.049 A 
ATOM     54  H   UNL A   1      41.549  28.463  31.422  1.00  0.00     0.167 HD
ATOM     55  C   UNL A   1      42.430  28.992  34.059  1.00  0.00     0.074 A 
ATOM     56  C   UNL A   1      42.466  29.508  35.411  1.00  0.00     0.031 C 
ATOM     57  C   UNL A   1      43.334  28.122  33.549  1.00  0.00     0.037 A 
BRANCH  44  58
ATOM     58  C   UNL A   1      42.283  26.556  27.676  1.00  0.00     0.057 A 
ATOM     59  C   UNL A   1      41.895  25.233  27.439  1.00  0.00     0.134 A 
ATOM     60  C   UNL A   1      43.083  27.179  26.708  1.00  0.00     0.134 A 
ATOM     61  F   UNL A   1      41.141  24.574  28.331  1.00  0.00    -0.206 F 
ATOM     62  C   UNL A   1      42.295  24.552  26.287  1.00  0.00     0.040 A 
ATOM     63  C   UNL A   1      43.469  26.517  25.542  1.00  0.00     0.040 A 
ATOM     64  F   UNL A   1      43.482  28.449  26.870  1.00  0.00    -0.206 F 
ATOM     65  C   UNL A   1      43.078  25.197  25.331  1.00  0.00     0.006 A 
ENDBRANCH  44  58
BRANCH  45  66
ATOM     66  C   UNL A   1      39.023  31.941  35.392  1.00  0.00     0.057 A 
ATOM     67  C   UNL A   1      39.306  33.310  35.455  1.00  0.00     0.134 A 
ATOM     68  C   UNL A   1      38.263  31.390  36.431  1.00  0.00     0.134 A 
ATOM     69  F   UNL A   1      40.052  33.890  34.503  1.00  0.00    -0.206 F 
ATOM     70  C   UNL A   1      38.847  34.103  36.509  1.00  0.00     0.040 A 
ATOM     71  C   UNL A   1      37.775  32.176  37.476  1.00  0.00     0.040 A 
ATOM     72  F   UNL A   1      37.958  30.085  36.428  1.00  0.00    -0.206 F 
ATOM     73  C   UNL A   1      38.069  33.537  37.517  1.00  0.00     0.006 A 
ENDBRANCH  45  66
BRANCH  57  74
ATOM     74  C   UNL A   1      44.447  27.678  34.448  1.00  0.00     0.057 A 
ATOM     75  C   UNL A   1      45.633  28.414  34.560  1.00  0.00     0.134 A 
ATOM     76  C   UNL A   1      44.310  26.539  35.249  1.00  0.00     0.134 A 
ATOM     77  F   UNL A   1      45.828  29.508  33.809  1.00  0.00    -0.206 F 
ATOM     78  C   UNL A   1      46.650  28.025  35.432  1.00  0.00     0.040 A 
ATOM     79  C   UNL A   1      45.312  26.151  36.141  1.00  0.00     0.040 A 
ATOM     80  F   UNL A   1      43.195  25.796  35.193  1.00  0.00    -0.206 F 
ATOM     81  C   UNL A   1      46.487  26.894  36.232  1.00  0.00     0.006 A 
ENDBRANCH  57  74
ENDBRANCH  31  32
ENDBRANCH  24  26
ENDBRANCH  23  24
ENDBRANCH   1  23
TORSDOF 12
ENDMDL
