MODEL 1
REMARK VINA RESULT:     -11.9      0.000      0.000
REMARK SMILES NS(=O)(=O)c1ccc(-n2nc(C(=O)OCCOC(=O)c3ccc(-c4c5nc(c(-c6c(F)cccc6F)c6ccc([nH]6)c(-c6c(F)cccc6F)c6nc(c(-c7c(F)cccc7F)c7ccc4[nH]7)C=C6)C=C5)cc3)cc2-c2ccc(Cl)s2)cc1
REMARK SMILES IDX 15 1 14 2 12 3 13 4 11 5 9 6 10 7 75 8 74 9 8 10 5 11 6 12
REMARK SMILES IDX 83 13 7 14 82 15 2 16 3 17 4 18 1 19 76 22 77 23 81 24 78 25
REMARK SMILES IDX 79 26 80 27 16 28 17 29 18 30 19 31 20 32 21 33 73 34 22 35
REMARK SMILES IDX 72 36 23 37 24 38 25 39 66 40 26 41 71 42 65 43 67 44 27 45
REMARK SMILES IDX 70 46 64 47 63 48 28 50 54 51 37 52 53 53 38 54 41 55 52 56
REMARK SMILES IDX 68 57 39 58 40 59 51 61 69 62 42 63 29 64 30 65 35 66 31 67
REMARK SMILES IDX 32 68 34 69 36 70 33 71 55 72 56 73 61 74 57 75 58 76 60 77
REMARK SMILES IDX 62 78 59 79 43 80 44 81 49 82 45 83 46 84 48 85 50 86 47 87
REMARK H PARENT 1 20 1 21 67 49 41 60
REMARK Flexibility Score: inf
ROOT
ATOM      1  C   UNL A   1      41.202  20.426  27.112  1.00  0.00     0.275 C 
ENDROOT
BRANCH   1   2
ATOM      2  O   UNL A   1      40.106  20.570  26.194  1.00  0.00    -0.457 OA
BRANCH   2   3
ATOM      3  C   UNL A   1      39.542  21.819  26.120  1.00  0.00     0.358 C 
ATOM      4  O   UNL A   1      40.147  22.859  26.358  1.00  0.00    -0.244 OA
BRANCH   3   5
ATOM      5  C   UNL A   1      38.140  21.757  25.684  1.00  0.00     0.171 A 
ATOM      6  N   UNL A   1      36.136  22.373  25.245  1.00  0.00    -0.231 N 
ATOM      7  N   UNL A   1      37.371  22.853  25.527  1.00  0.00    -0.160 NA
ATOM      8  C   UNL A   1      36.130  20.995  25.103  1.00  0.00     0.085 A 
ATOM      9  C   UNL A   1      37.420  20.585  25.347  1.00  0.00     0.068 A 
BRANCH   6  10
ATOM     10  C   UNL A   1      35.021  23.244  25.295  1.00  0.00     0.065 A 
ATOM     11  C   UNL A   1      32.790  24.896  25.398  1.00  0.00     0.082 A 
ATOM     12  C   UNL A   1      33.153  24.159  26.527  1.00  0.00     0.024 A 
ATOM     13  C   UNL A   1      33.548  24.825  24.221  1.00  0.00     0.024 A 
ATOM     14  C   UNL A   1      34.262  23.318  26.471  1.00  0.00     0.030 A 
ATOM     15  C   UNL A   1      34.690  24.019  24.178  1.00  0.00     0.030 A 
BRANCH  11  16
ATOM     16  S   UNL A   1      31.349  25.920  25.413  1.00  0.00     0.238 S 
ATOM     17  O   UNL A   1      31.511  26.955  24.423  1.00  0.00    -0.207 OA
ATOM     18  O   UNL A   1      30.995  26.192  26.788  1.00  0.00    -0.207 OA
BRANCH  16  19
ATOM     19  N   UNL A   1      30.120  24.933  24.820  1.00  0.00    -0.225 NA
ATOM     20  H   UNL A   1      29.580  25.445  24.122  1.00  0.00     0.137 HD
ATOM     21  H   UNL A   1      29.507  24.655  25.587  1.00  0.00     0.137 HD
ENDBRANCH  16  19
ENDBRANCH  11  16
ENDBRANCH   6  10
BRANCH   8  22
ATOM     22  C   UNL A   1      35.001  20.182  24.766  1.00  0.00     0.054 A 
ATOM     23  C   UNL A   1      33.716  20.634  24.534  1.00  0.00     0.024 A 
ATOM     24  S   UNL A   1      35.104  18.475  24.633  1.00  0.00    -0.122 S 
ATOM     25  C   UNL A   1      32.827  19.575  24.187  1.00  0.00     0.033 A 
ATOM     26  C   UNL A   1      33.470  18.364  24.206  1.00  0.00     0.094 A 
ATOM     27  Cl  UNL A   1      32.780  16.834  23.849  1.00  0.00    -0.072 Cl
ENDBRANCH   8  22
ENDBRANCH   3   5
ENDBRANCH   2   3
ENDBRANCH   1   2
BRANCH   1  28
ATOM     28  C   UNL A   1      42.394  19.751  26.449  1.00  0.00     0.275 C 
BRANCH  28  29
ATOM     29  O   UNL A   1      42.814  20.476  25.295  1.00  0.00    -0.458 OA
BRANCH  29  30
ATOM     30  C   UNL A   1      44.132  20.774  25.244  1.00  0.00     0.338 C 
ATOM     31  O   UNL A   1      45.063  19.986  25.216  1.00  0.00    -0.246 OA
BRANCH  30  32
ATOM     32  C   UNL A   1      44.294  22.212  25.476  1.00  0.00     0.060 A 
ATOM     33  C   UNL A   1      45.093  22.607  26.551  1.00  0.00     0.016 A 
ATOM     34  C   UNL A   1      43.408  23.097  24.843  1.00  0.00     0.016 A 
ATOM     35  C   UNL A   1      44.852  23.839  27.121  1.00  0.00     0.010 A 
ATOM     36  C   UNL A   1      43.152  24.311  25.426  1.00  0.00     0.010 A 
ATOM     37  C   UNL A   1      43.819  24.630  26.603  1.00  0.00    -0.014 A 
BRANCH  37  38
ATOM     38  C   UNL A   1      43.509  25.878  27.260  1.00  0.00     0.031 A 
ATOM     39  C   UNL A   1      44.475  26.945  26.927  1.00  0.00     0.074 A 
ATOM     40  C   UNL A   1      42.387  26.070  27.977  1.00  0.00     0.049 A 
ATOM     41  N   UNL A   1      45.376  27.457  27.696  1.00  0.00    -0.248 NA
ATOM     42  C   UNL A   1      44.576  27.356  25.518  1.00  0.00     0.031 C 
ATOM     43  C   UNL A   1      41.218  25.196  28.104  1.00  0.00     0.029 A 
ATOM     44  N   UNL A   1      42.027  27.165  28.696  1.00  0.00    -0.354 N 
ATOM     45  C   UNL A   1      46.016  28.417  26.921  1.00  0.00     0.074 A 
ATOM     46  C   UNL A   1      45.638  28.161  25.558  1.00  0.00     0.031 C 
ATOM     47  C   UNL A   1      40.201  25.891  28.670  1.00  0.00     0.029 A 
ATOM     48  C   UNL A   1      40.691  27.198  29.071  1.00  0.00     0.049 A 
ATOM     49  H   UNL A   1      42.663  27.878  28.932  1.00  0.00     0.167 HD
ATOM     50  C   UNL A   1      46.574  29.514  27.498  1.00  0.00     0.037 A 
ATOM     51  C   UNL A   1      40.049  28.266  29.609  1.00  0.00     0.037 A 
ATOM     52  C   UNL A   1      46.782  29.309  28.911  1.00  0.00     0.049 A 
ATOM     53  C   UNL A   1      41.087  29.186  30.144  1.00  0.00     0.074 A 
ATOM     54  C   UNL A   1      47.507  28.411  29.669  1.00  0.00     0.029 A 
ATOM     55  N   UNL A   1      45.873  29.872  29.772  1.00  0.00    -0.354 N 
ATOM     56  N   UNL A   1      41.846  28.909  31.167  1.00  0.00    -0.248 NA
ATOM     57  C   UNL A   1      41.599  30.214  29.249  1.00  0.00     0.031 C 
ATOM     58  C   UNL A   1      46.689  28.138  30.805  1.00  0.00     0.029 A 
ATOM     59  C   UNL A   1      45.543  28.929  30.709  1.00  0.00     0.049 A 
ATOM     60  H   UNL A   1      45.520  30.791  29.724  1.00  0.00     0.167 HD
ATOM     61  C   UNL A   1      43.100  29.393  30.822  1.00  0.00     0.074 A 
ATOM     62  C   UNL A   1      42.867  30.256  29.665  1.00  0.00     0.031 C 
ATOM     63  C   UNL A   1      44.238  28.825  31.319  1.00  0.00     0.037 A 
BRANCH  50  64
ATOM     64  C   UNL A   1      46.533  30.890  26.880  1.00  0.00     0.057 A 
ATOM     65  C   UNL A   1      47.710  31.656  26.857  1.00  0.00     0.134 A 
ATOM     66  C   UNL A   1      45.351  31.602  26.586  1.00  0.00     0.134 A 
ATOM     67  F   UNL A   1      48.900  31.099  27.131  1.00  0.00    -0.206 F 
ATOM     68  C   UNL A   1      47.700  33.040  26.644  1.00  0.00     0.040 A 
ATOM     69  C   UNL A   1      45.336  32.973  26.319  1.00  0.00     0.040 A 
ATOM     70  F   UNL A   1      44.134  31.049  26.643  1.00  0.00    -0.206 F 
ATOM     71  C   UNL A   1      46.509  33.704  26.383  1.00  0.00     0.006 A 
ENDBRANCH  50  64
BRANCH  51  72
ATOM     72  C   UNL A   1      38.659  28.719  29.366  1.00  0.00     0.057 A 
ATOM     73  C   UNL A   1      37.744  28.843  30.422  1.00  0.00     0.134 A 
ATOM     74  C   UNL A   1      38.286  29.322  28.152  1.00  0.00     0.134 A 
ATOM     75  F   UNL A   1      38.029  28.341  31.633  1.00  0.00    -0.206 F 
ATOM     76  C   UNL A   1      36.538  29.547  30.285  1.00  0.00     0.040 A 
ATOM     77  C   UNL A   1      37.085  30.024  28.002  1.00  0.00     0.040 A 
ATOM     78  F   UNL A   1      39.117  29.330  27.101  1.00  0.00    -0.206 F 
ATOM     79  C   UNL A   1      36.213  30.152  29.075  1.00  0.00     0.006 A 
ENDBRANCH  51  72
BRANCH  63  80
ATOM     80  C   UNL A   1      44.093  27.837  32.446  1.00  0.00     0.057 A 
ATOM     81  C   UNL A   1      43.956  26.451  32.272  1.00  0.00     0.134 A 
ATOM     82  C   UNL A   1      44.246  28.296  33.759  1.00  0.00     0.134 A 
ATOM     83  F   UNL A   1      43.898  25.907  31.050  1.00  0.00    -0.206 F 
ATOM     84  C   UNL A   1      43.934  25.569  33.358  1.00  0.00     0.040 A 
ATOM     85  C   UNL A   1      44.259  27.423  34.850  1.00  0.00     0.040 A 
ATOM     86  F   UNL A   1      44.435  29.602  34.001  1.00  0.00    -0.206 F 
ATOM     87  C   UNL A   1      44.093  26.055  34.652  1.00  0.00     0.006 A 
ENDBRANCH  63  80
ENDBRANCH  37  38
ENDBRANCH  30  32
ENDBRANCH  29  30
ENDBRANCH  28  29
ENDBRANCH   1  28
TORSDOF 15
ENDMDL
MODEL 2
REMARK VINA RESULT:     -11.6      5.657     10.616
REMARK SMILES NS(=O)(=O)c1ccc(-n2nc(C(=O)OCCOC(=O)c3ccc(-c4c5nc(c(-c6c(F)cccc6F)c6ccc([nH]6)c(-c6c(F)cccc6F)c6nc(c(-c7c(F)cccc7F)c7ccc4[nH]7)C=C6)C=C5)cc3)cc2-c2ccc(Cl)s2)cc1
REMARK SMILES IDX 15 1 14 2 12 3 13 4 11 5 9 6 10 7 75 8 74 9 8 10 5 11 6 12
REMARK SMILES IDX 83 13 7 14 82 15 2 16 3 17 4 18 1 19 76 22 77 23 81 24 78 25
REMARK SMILES IDX 79 26 80 27 16 28 17 29 18 30 19 31 20 32 21 33 73 34 22 35
REMARK SMILES IDX 72 36 23 37 24 38 25 39 66 40 26 41 71 42 65 43 67 44 27 45
REMARK SMILES IDX 70 46 64 47 63 48 28 50 54 51 37 52 53 53 38 54 41 55 52 56
REMARK SMILES IDX 68 57 39 58 40 59 51 61 69 62 42 63 29 64 30 65 35 66 31 67
REMARK SMILES IDX 32 68 34 69 36 70 33 71 55 72 56 73 61 74 57 75 58 76 60 77
REMARK SMILES IDX 62 78 59 79 43 80 44 81 49 82 45 83 46 84 48 85 50 86 47 87
REMARK H PARENT 1 20 1 21 67 49 41 60
REMARK Flexibility Score: inf
ROOT
ATOM      1  C   UNL A   1      32.875  33.211  27.634  1.00  0.00     0.275 C 
ENDROOT
BRANCH   1   2
ATOM      2  O   UNL A   1      33.226  33.552  28.985  1.00  0.00    -0.457 OA
BRANCH   2   3
ATOM      3  C   UNL A   1      34.192  34.516  29.131  1.00  0.00     0.358 C 
ATOM      4  O   UNL A   1      34.046  35.688  28.801  1.00  0.00    -0.244 OA
BRANCH   3   5
ATOM      5  C   UNL A   1      35.404  33.978  29.766  1.00  0.00     0.171 A 
ATOM      6  N   UNL A   1      36.706  33.164  31.260  1.00  0.00    -0.231 N 
ATOM      7  N   UNL A   1      35.402  33.409  30.988  1.00  0.00    -0.160 NA
ATOM      8  C   UNL A   1      37.528  33.459  30.184  1.00  0.00     0.085 A 
ATOM      9  C   UNL A   1      36.702  33.951  29.201  1.00  0.00     0.068 A 
BRANCH   6  10
ATOM     10  C   UNL A   1      37.092  32.824  32.578  1.00  0.00     0.065 A 
ATOM     11  C   UNL A   1      37.786  32.123  35.175  1.00  0.00     0.082 A 
ATOM     12  C   UNL A   1      37.683  31.130  34.199  1.00  0.00     0.024 A 
ATOM     13  C   UNL A   1      37.562  33.469  34.856  1.00  0.00     0.024 A 
ATOM     14  C   UNL A   1      37.318  31.479  32.900  1.00  0.00     0.030 A 
ATOM     15  C   UNL A   1      37.243  33.827  33.541  1.00  0.00     0.030 A 
BRANCH  11  16
ATOM     16  S   UNL A   1      38.179  31.708  36.848  1.00  0.00     0.238 S 
ATOM     17  O   UNL A   1      37.265  32.402  37.720  1.00  0.00    -0.207 OA
ATOM     18  O   UNL A   1      39.615  31.762  37.007  1.00  0.00    -0.207 OA
BRANCH  16  19
ATOM     19  N   UNL A   1      37.772  30.080  36.989  1.00  0.00    -0.225 NA
ATOM     20  H   UNL A   1      38.584  29.506  36.758  1.00  0.00     0.137 HD
ATOM     21  H   UNL A   1      37.009  29.863  36.347  1.00  0.00     0.137 HD
ENDBRANCH  16  19
ENDBRANCH  11  16
ENDBRANCH   6  10
BRANCH   8  22
ATOM     22  C   UNL A   1      38.947  33.277  30.126  1.00  0.00     0.054 A 
ATOM     23  C   UNL A   1      39.619  32.082  30.295  1.00  0.00     0.024 A 
ATOM     24  S   UNL A   1      40.032  34.578  29.859  1.00  0.00    -0.122 S 
ATOM     25  C   UNL A   1      41.029  32.230  30.144  1.00  0.00     0.033 A 
ATOM     26  C   UNL A   1      41.364  33.537  29.903  1.00  0.00     0.094 A 
ATOM     27  Cl  UNL A   1      42.945  34.158  29.657  1.00  0.00    -0.072 Cl
ENDBRANCH   8  22
ENDBRANCH   3   5
ENDBRANCH   2   3
ENDBRANCH   1   2
BRANCH   1  28
ATOM     28  C   UNL A   1      33.241  31.767  27.315  1.00  0.00     0.275 C 
BRANCH  28  29
ATOM     29  O   UNL A   1      34.241  31.286  28.210  1.00  0.00    -0.458 OA
BRANCH  29  30
ATOM     30  C   UNL A   1      34.772  30.082  27.896  1.00  0.00     0.338 C 
ATOM     31  O   UNL A   1      34.178  29.108  27.464  1.00  0.00    -0.246 OA
BRANCH  30  32
ATOM     32  C   UNL A   1      36.152  30.039  28.388  1.00  0.00     0.060 A 
ATOM     33  C   UNL A   1      37.177  30.079  27.440  1.00  0.00     0.016 A 
ATOM     34  C   UNL A   1      36.379  29.638  29.712  1.00  0.00     0.016 A 
ATOM     35  C   UNL A   1      38.392  29.520  27.774  1.00  0.00     0.010 A 
ATOM     36  C   UNL A   1      37.580  29.060  30.036  1.00  0.00     0.010 A 
ATOM     37  C   UNL A   1      38.540  28.936  29.039  1.00  0.00    -0.014 A 
BRANCH  37  38
ATOM     38  C   UNL A   1      39.782  28.269  29.351  1.00  0.00     0.031 A 
ATOM     39  C   UNL A   1      40.088  28.295  30.796  1.00  0.00     0.074 A 
ATOM     40  C   UNL A   1      40.497  27.586  28.438  1.00  0.00     0.049 A 
ATOM     41  N   UNL A   1      41.002  28.982  31.394  1.00  0.00    -0.248 NA
ATOM     42  C   UNL A   1      39.142  27.626  31.703  1.00  0.00     0.031 C 
ATOM     43  C   UNL A   1      40.130  27.226  27.067  1.00  0.00     0.029 A 
ATOM     44  N   UNL A   1      41.707  26.988  28.596  1.00  0.00    -0.354 N 
ATOM     45  C   UNL A   1      40.883  28.657  32.740  1.00  0.00     0.074 A 
ATOM     46  C   UNL A   1      39.611  28.004  32.892  1.00  0.00     0.031 C 
ATOM     47  C   UNL A   1      40.997  26.293  26.603  1.00  0.00     0.029 A 
ATOM     48  C   UNL A   1      42.051  26.102  27.585  1.00  0.00     0.049 A 
ATOM     49  H   UNL A   1      42.292  27.169  29.367  1.00  0.00     0.167 HD
ATOM     50  C   UNL A   1      41.966  28.697  33.560  1.00  0.00     0.037 A 
ATOM     51  C   UNL A   1      43.097  25.239  27.614  1.00  0.00     0.037 A 
ATOM     52  C   UNL A   1      43.025  29.489  32.984  1.00  0.00     0.049 A 
ATOM     53  C   UNL A   1      44.042  25.721  28.656  1.00  0.00     0.074 A 
ATOM     54  C   UNL A   1      43.150  30.804  32.582  1.00  0.00     0.029 A 
ATOM     55  N   UNL A   1      44.064  28.818  32.387  1.00  0.00    -0.354 N 
ATOM     56  N   UNL A   1      44.732  26.823  28.557  1.00  0.00    -0.248 NA
ATOM     57  C   UNL A   1      43.863  25.218  30.010  1.00  0.00     0.031 C 
ATOM     58  C   UNL A   1      43.951  30.757  31.403  1.00  0.00     0.029 A 
ATOM     59  C   UNL A   1      44.323  29.429  31.189  1.00  0.00     0.049 A 
ATOM     60  H   UNL A   1      44.537  28.036  32.755  1.00  0.00     0.167 HD
ATOM     61  C   UNL A   1      44.700  27.378  29.829  1.00  0.00     0.074 A 
ATOM     62  C   UNL A   1      44.219  26.305  30.698  1.00  0.00     0.031 C 
ATOM     63  C   UNL A   1      44.786  28.728  30.013  1.00  0.00     0.037 A 
BRANCH  50  64
ATOM     64  C   UNL A   1      42.216  27.690  34.656  1.00  0.00     0.057 A 
ATOM     65  C   UNL A   1      42.620  26.392  34.302  1.00  0.00     0.134 A 
ATOM     66  C   UNL A   1      41.795  27.840  35.995  1.00  0.00     0.134 A 
ATOM     67  F   UNL A   1      43.031  26.115  33.056  1.00  0.00    -0.206 F 
ATOM     68  C   UNL A   1      42.530  25.311  35.188  1.00  0.00     0.040 A 
ATOM     69  C   UNL A   1      41.752  26.779  36.901  1.00  0.00     0.040 A 
ATOM     70  F   UNL A   1      41.302  28.986  36.479  1.00  0.00    -0.206 F 
ATOM     71  C   UNL A   1      42.086  25.501  36.489  1.00  0.00     0.006 A 
ENDBRANCH  50  64
BRANCH  51  72
ATOM     72  C   UNL A   1      43.162  23.856  27.086  1.00  0.00     0.057 A 
ATOM     73  C   UNL A   1      42.399  22.827  27.658  1.00  0.00     0.134 A 
ATOM     74  C   UNL A   1      43.736  23.576  25.834  1.00  0.00     0.134 A 
ATOM     75  F   UNL A   1      41.773  23.013  28.829  1.00  0.00    -0.206 F 
ATOM     76  C   UNL A   1      42.199  21.599  27.009  1.00  0.00     0.040 A 
ATOM     77  C   UNL A   1      43.548  22.355  25.179  1.00  0.00     0.040 A 
ATOM     78  F   UNL A   1      44.420  24.513  25.162  1.00  0.00    -0.206 F 
ATOM     79  C   UNL A   1      42.764  21.365  25.759  1.00  0.00     0.006 A 
ENDBRANCH  51  72
BRANCH  63  80
ATOM     80  C   UNL A   1      45.177  29.573  28.830  1.00  0.00     0.057 A 
ATOM     81  C   UNL A   1      44.264  30.150  27.933  1.00  0.00     0.134 A 
ATOM     82  C   UNL A   1      46.521  29.935  28.683  1.00  0.00     0.134 A 
ATOM     83  F   UNL A   1      42.947  29.940  28.051  1.00  0.00    -0.206 F 
ATOM     84  C   UNL A   1      44.678  31.015  26.914  1.00  0.00     0.040 A 
ATOM     85  C   UNL A   1      46.942  30.823  27.691  1.00  0.00     0.040 A 
ATOM     86  F   UNL A   1      47.444  29.465  29.536  1.00  0.00    -0.206 F 
ATOM     87  C   UNL A   1      46.021  31.360  26.796  1.00  0.00     0.006 A 
ENDBRANCH  63  80
ENDBRANCH  37  38
ENDBRANCH  30  32
ENDBRANCH  29  30
ENDBRANCH  28  29
ENDBRANCH   1  28
TORSDOF 15
ENDMDL
MODEL 3
REMARK VINA RESULT:     -11.4      3.576      8.581
REMARK SMILES NS(=O)(=O)c1ccc(-n2nc(C(=O)OCCOC(=O)c3ccc(-c4c5nc(c(-c6c(F)cccc6F)c6ccc([nH]6)c(-c6c(F)cccc6F)c6nc(c(-c7c(F)cccc7F)c7ccc4[nH]7)C=C6)C=C5)cc3)cc2-c2ccc(Cl)s2)cc1
REMARK SMILES IDX 15 1 14 2 12 3 13 4 11 5 9 6 10 7 75 8 74 9 8 10 5 11 6 12
REMARK SMILES IDX 83 13 7 14 82 15 2 16 3 17 4 18 1 19 76 22 77 23 81 24 78 25
REMARK SMILES IDX 79 26 80 27 16 28 17 29 18 30 19 31 20 32 21 33 73 34 22 35
REMARK SMILES IDX 72 36 23 37 24 38 25 39 66 40 26 41 71 42 65 43 67 44 27 45
REMARK SMILES IDX 70 46 64 47 63 48 28 50 54 51 37 52 53 53 38 54 41 55 52 56
REMARK SMILES IDX 68 57 39 58 40 59 51 61 69 62 42 63 29 64 30 65 35 66 31 67
REMARK SMILES IDX 32 68 34 69 36 70 33 71 55 72 56 73 61 74 57 75 58 76 60 77
REMARK SMILES IDX 62 78 59 79 43 80 44 81 49 82 45 83 46 84 48 85 50 86 47 87
REMARK H PARENT 1 20 1 21 67 49 41 60
REMARK Flexibility Score: inf
ROOT
ATOM      1  C   UNL A   1      34.359  33.209  28.391  1.00  0.00     0.275 C 
ENDROOT
BRANCH   1   2
ATOM      2  O   UNL A   1      33.717  31.956  28.102  1.00  0.00    -0.457 OA
BRANCH   2   3
ATOM      3  C   UNL A   1      34.480  31.026  27.442  1.00  0.00     0.358 C 
ATOM      4  O   UNL A   1      35.701  30.954  27.532  1.00  0.00    -0.244 OA
BRANCH   3   5
ATOM      5  C   UNL A   1      33.651  30.108  26.648  1.00  0.00     0.171 A 
ATOM      6  N   UNL A   1      33.047  28.357  25.572  1.00  0.00    -0.231 N 
ATOM      7  N   UNL A   1      33.981  28.818  26.438  1.00  0.00    -0.160 NA
ATOM      8  C   UNL A   1      32.061  29.297  25.318  1.00  0.00     0.085 A 
ATOM      9  C   UNL A   1      32.416  30.418  26.031  1.00  0.00     0.068 A 
BRANCH   6  10
ATOM     10  C   UNL A   1      33.250  27.116  24.922  1.00  0.00     0.065 A 
ATOM     11  C   UNL A   1      33.708  24.671  23.686  1.00  0.00     0.082 A 
ATOM     12  C   UNL A   1      33.316  24.702  25.027  1.00  0.00     0.024 A 
ATOM     13  C   UNL A   1      33.855  25.857  22.954  1.00  0.00     0.024 A 
ATOM     14  C   UNL A   1      33.103  25.929  25.651  1.00  0.00     0.030 A 
ATOM     15  C   UNL A   1      33.593  27.087  23.566  1.00  0.00     0.030 A 
BRANCH  11  16
ATOM     16  S   UNL A   1      34.054  23.135  22.882  1.00  0.00     0.238 S 
ATOM     17  O   UNL A   1      33.346  22.085  23.571  1.00  0.00    -0.207 OA
ATOM     18  O   UNL A   1      35.470  23.076  22.599  1.00  0.00    -0.207 OA
BRANCH  16  19
ATOM     19  N   UNL A   1      33.301  23.262  21.381  1.00  0.00    -0.225 NA
ATOM     20  H   UNL A   1      33.506  24.175  20.974  1.00  0.00     0.137 HD
ATOM     21  H   UNL A   1      32.292  23.162  21.497  1.00  0.00     0.137 HD
ENDBRANCH  16  19
ENDBRANCH  11  16
ENDBRANCH   6  10
BRANCH   8  22
ATOM     22  C   UNL A   1      30.911  29.116  24.484  1.00  0.00     0.054 A 
ATOM     23  C   UNL A   1      30.355  27.905  24.121  1.00  0.00     0.024 A 
ATOM     24  S   UNL A   1      30.069  30.434  23.780  1.00  0.00    -0.122 S 
ATOM     25  C   UNL A   1      29.194  28.067  23.308  1.00  0.00     0.033 A 
ATOM     26  C   UNL A   1      28.946  29.392  23.063  1.00  0.00     0.094 A 
ATOM     27  Cl  UNL A   1      27.652  30.035  22.137  1.00  0.00    -0.072 Cl
ENDBRANCH   8  22
ENDBRANCH   3   5
ENDBRANCH   2   3
ENDBRANCH   1   2
BRANCH   1  28
ATOM     28  C   UNL A   1      34.392  33.480  29.890  1.00  0.00     0.275 C 
BRANCH  28  29
ATOM     29  O   UNL A   1      34.469  32.263  30.627  1.00  0.00    -0.458 OA
BRANCH  29  30
ATOM     30  C   UNL A   1      35.567  32.123  31.405  1.00  0.00     0.338 C 
ATOM     31  O   UNL A   1      35.799  32.697  32.456  1.00  0.00    -0.246 OA
BRANCH  30  32
ATOM     32  C   UNL A   1      36.567  31.349  30.666  1.00  0.00     0.060 A 
ATOM     33  C   UNL A   1      36.497  29.956  30.750  1.00  0.00     0.016 A 
ATOM     34  C   UNL A   1      37.711  32.009  30.193  1.00  0.00     0.016 A 
ATOM     35  C   UNL A   1      37.654  29.235  30.548  1.00  0.00     0.010 A 
ATOM     36  C   UNL A   1      38.867  31.293  30.017  1.00  0.00     0.010 A 
ATOM     37  C   UNL A   1      38.842  29.928  30.277  1.00  0.00    -0.014 A 
BRANCH  37  38
ATOM     38  C   UNL A   1      40.069  29.176  30.160  1.00  0.00     0.031 A 
ATOM     39  C   UNL A   1      40.756  29.014  31.457  1.00  0.00     0.074 A 
ATOM     40  C   UNL A   1      40.456  28.577  29.019  1.00  0.00     0.049 A 
ATOM     41  N   UNL A   1      41.847  29.584  31.845  1.00  0.00    -0.248 NA
ATOM     42  C   UNL A   1      40.046  28.282  32.517  1.00  0.00     0.031 C 
ATOM     43  C   UNL A   1      39.703  28.401  27.774  1.00  0.00     0.029 A 
ATOM     44  N   UNL A   1      41.614  27.913  28.770  1.00  0.00    -0.354 N 
ATOM     45  C   UNL A   1      42.075  29.104  33.129  1.00  0.00     0.074 A 
ATOM     46  C   UNL A   1      40.847  28.494  33.561  1.00  0.00     0.031 C 
ATOM     47  C   UNL A   1      40.339  27.495  26.993  1.00  0.00     0.029 A 
ATOM     48  C   UNL A   1      41.603  27.142  27.617  1.00  0.00     0.049 A 
ATOM     49  H   UNL A   1      42.398  27.974  29.362  1.00  0.00     0.167 HD
ATOM     50  C   UNL A   1      43.340  28.998  33.615  1.00  0.00     0.037 A 
ATOM     51  C   UNL A   1      42.551  26.237  27.264  1.00  0.00     0.037 A 
ATOM     52  C   UNL A   1      44.259  29.808  32.852  1.00  0.00     0.049 A 
ATOM     53  C   UNL A   1      43.776  26.549  28.045  1.00  0.00     0.074 A 
ATOM     54  C   UNL A   1      44.367  31.155  32.570  1.00  0.00     0.029 A 
ATOM     55  N   UNL A   1      45.043  29.169  31.923  1.00  0.00    -0.354 N 
ATOM     56  N   UNL A   1      44.494  27.624  27.873  1.00  0.00    -0.248 NA
ATOM     57  C   UNL A   1      43.935  25.894  29.335  1.00  0.00     0.031 C 
ATOM     58  C   UNL A   1      44.813  31.216  31.216  1.00  0.00     0.029 A 
ATOM     59  C   UNL A   1      45.011  29.909  30.771  1.00  0.00     0.049 A 
ATOM     60  H   UNL A   1      45.539  28.329  32.061  1.00  0.00     0.167 HD
ATOM     61  C   UNL A   1      44.851  28.022  29.154  1.00  0.00     0.074 A 
ATOM     62  C   UNL A   1      44.545  26.874  30.006  1.00  0.00     0.031 C 
ATOM     63  C   UNL A   1      45.084  29.335  29.446  1.00  0.00     0.037 A 
BRANCH  50  64
ATOM     64  C   UNL A   1      43.802  27.857  34.487  1.00  0.00     0.057 A 
ATOM     65  C   UNL A   1      44.418  28.151  35.715  1.00  0.00     0.134 A 
ATOM     66  C   UNL A   1      43.944  26.521  34.053  1.00  0.00     0.134 A 
ATOM     67  F   UNL A   1      44.366  29.388  36.232  1.00  0.00    -0.206 F 
ATOM     68  C   UNL A   1      45.187  27.211  36.413  1.00  0.00     0.040 A 
ATOM     69  C   UNL A   1      44.664  25.562  34.768  1.00  0.00     0.040 A 
ATOM     70  F   UNL A   1      43.492  26.089  32.871  1.00  0.00    -0.206 F 
ATOM     71  C   UNL A   1      45.319  25.915  35.935  1.00  0.00     0.006 A 
ENDBRANCH  50  64
BRANCH  51  72
ATOM     72  C   UNL A   1      42.365  24.926  26.598  1.00  0.00     0.057 A 
ATOM     73  C   UNL A   1      43.113  24.578  25.463  1.00  0.00     0.134 A 
ATOM     74  C   UNL A   1      41.676  23.875  27.228  1.00  0.00     0.134 A 
ATOM     75  F   UNL A   1      43.842  25.502  24.818  1.00  0.00    -0.206 F 
ATOM     76  C   UNL A   1      43.190  23.258  24.996  1.00  0.00     0.040 A 
ATOM     77  C   UNL A   1      41.742  22.555  26.771  1.00  0.00     0.040 A 
ATOM     78  F   UNL A   1      40.994  24.079  28.364  1.00  0.00    -0.206 F 
ATOM     79  C   UNL A   1      42.513  22.239  25.660  1.00  0.00     0.006 A 
ENDBRANCH  51  72
BRANCH  63  80
ATOM     80  C   UNL A   1      45.201  30.299  28.296  1.00  0.00     0.057 A 
ATOM     81  C   UNL A   1      44.116  30.973  27.714  1.00  0.00     0.134 A 
ATOM     82  C   UNL A   1      46.479  30.667  27.860  1.00  0.00     0.134 A 
ATOM     83  F   UNL A   1      42.861  30.759  28.130  1.00  0.00    -0.206 F 
ATOM     84  C   UNL A   1      44.295  31.939  26.718  1.00  0.00     0.040 A 
ATOM     85  C   UNL A   1      46.673  31.653  26.890  1.00  0.00     0.040 A 
ATOM     86  F   UNL A   1      47.567  30.104  28.407  1.00  0.00    -0.206 F 
ATOM     87  C   UNL A   1      45.578  32.287  26.309  1.00  0.00     0.006 A 
ENDBRANCH  63  80
ENDBRANCH  37  38
ENDBRANCH  30  32
ENDBRANCH  29  30
ENDBRANCH  28  29
ENDBRANCH   1  28
TORSDOF 15
ENDMDL
