MODEL 1
REMARK VINA RESULT:     -12.1      0.000      0.000
REMARK SMILES Cc1ccc2oc(C(=O)N[C@@H]3C=C[C@H](C(=O)OCCOC(=O)c4ccc(-c5c6nc(c(-c7c(F)cccc7F)c7ccc([nH]7)c(-c7c(F)cccc7F)c7nc(c(-c8c(F)cccc8F)c8ccc5[nH]8)C=C7)C=C6)cc4)C3)cc2c1
REMARK SMILES IDX 18 1 17 2 15 3 16 4 14 5 11 6 12 7 77 8 13 9 10 10 8 11 9 12
REMARK SMILES IDX 7 14 1 15 2 16 3 17 80 18 4 19 79 20 5 21 78 22 6 23 19 24
REMARK SMILES IDX 20 25 21 26 22 27 23 28 24 29 76 30 25 31 75 32 26 33 27 34
REMARK SMILES IDX 28 35 69 36 29 37 74 38 68 39 70 40 30 41 73 42 67 43 66 44
REMARK SMILES IDX 31 46 57 47 40 48 56 49 41 50 44 51 55 52 71 53 42 54 43 55
REMARK SMILES IDX 54 57 72 58 45 59 32 60 33 61 38 62 34 63 35 64 37 65 39 66
REMARK SMILES IDX 36 67 58 68 59 69 64 70 60 71 61 72 63 73 65 74 62 75 46 76
REMARK SMILES IDX 47 77 52 78 48 79 49 80 51 81 53 82 50 83
REMARK H PARENT 10 13 70 45 44 56
REMARK Flexibility Score: inf
ROOT
ATOM      1  C   UNL A   1      32.574  29.277  24.999  1.00  0.00     0.274 C 
ENDROOT
BRANCH   1   2
ATOM      2  O   UNL A   1      32.569  27.974  25.637  1.00  0.00    -0.462 OA
BRANCH   2   3
ATOM      3  C   UNL A   1      31.436  27.256  25.408  1.00  0.00     0.312 C 
ATOM      4  O   UNL A   1      30.841  26.649  26.291  1.00  0.00    -0.252 OA
BRANCH   3   5
ATOM      5  C   UNL A   1      30.996  27.229  23.934  1.00  0.00     0.124 C 
ATOM      6  C   UNL A   1      30.261  24.912  23.498  1.00  0.00     0.106 C 
ATOM      7  C   UNL A   1      31.542  25.207  22.812  1.00  0.00    -0.006 C 
ATOM      8  C   UNL A   1      29.752  26.333  23.798  1.00  0.00     0.048 C 
ATOM      9  C   UNL A   1      31.916  26.491  22.990  1.00  0.00    -0.014 C 
BRANCH   6  10
ATOM     10  N   UNL A   1      30.278  23.972  24.629  1.00  0.00    -0.343 N 
ATOM     11  C   UNL A   1      31.125  23.291  25.489  1.00  0.00     0.287 C 
ATOM     12  O   UNL A   1      30.533  22.583  26.312  1.00  0.00    -0.266 OA
ATOM     13  H   UNL A   1      29.349  23.743  24.860  1.00  0.00     0.164 HD
BRANCH  11  14
ATOM     14  C   UNL A   1      32.575  23.357  25.435  1.00  0.00     0.192 A 
ATOM     15  C   UNL A   1      38.494  24.025  26.126  1.00  0.00     0.044 C 
ATOM     16  C   UNL A   1      37.163  23.615  25.574  1.00  0.00    -0.050 A 
ATOM     17  C   UNL A   1      36.994  22.949  24.347  1.00  0.00     0.007 A 
ATOM     18  C   UNL A   1      36.043  23.948  26.327  1.00  0.00     0.015 A 
ATOM     19  C   UNL A   1      35.716  22.612  23.838  1.00  0.00     0.048 A 
ATOM     20  C   UNL A   1      34.784  23.635  25.819  1.00  0.00     0.021 A 
ATOM     21  C   UNL A   1      34.622  22.988  24.613  1.00  0.00     0.135 A 
ATOM     22  C   UNL A   1      33.508  23.833  26.312  1.00  0.00     0.065 A 
ATOM     23  O   UNL A   1      33.278  22.807  24.363  1.00  0.00    -0.451 OA
ENDBRANCH  11  14
ENDBRANCH   6  10
ENDBRANCH   3   5
ENDBRANCH   2   3
ENDBRANCH   1   2
BRANCH   1  24
ATOM     24  C   UNL A   1      31.762  30.320  25.776  1.00  0.00     0.275 C 
BRANCH  24  25
ATOM     25  O   UNL A   1      32.272  30.497  27.112  1.00  0.00    -0.458 OA
BRANCH  25  26
ATOM     26  C   UNL A   1      33.013  31.613  27.310  1.00  0.00     0.338 C 
ATOM     27  O   UNL A   1      32.611  32.765  27.321  1.00  0.00    -0.246 OA
BRANCH  26  28
ATOM     28  C   UNL A   1      34.419  31.282  27.627  1.00  0.00     0.060 A 
ATOM     29  C   UNL A   1      34.788  29.965  27.855  1.00  0.00     0.016 A 
ATOM     30  C   UNL A   1      35.321  32.301  27.929  1.00  0.00     0.016 A 
ATOM     31  C   UNL A   1      35.944  29.677  28.574  1.00  0.00     0.010 A 
ATOM     32  C   UNL A   1      36.565  31.989  28.498  1.00  0.00     0.010 A 
ATOM     33  C   UNL A   1      36.867  30.677  28.899  1.00  0.00    -0.014 A 
BRANCH  33  34
ATOM     34  C   UNL A   1      38.093  30.358  29.697  1.00  0.00     0.031 A 
ATOM     35  C   UNL A   1      39.196  29.520  29.093  1.00  0.00     0.074 A 
ATOM     36  C   UNL A   1      38.260  30.837  30.949  1.00  0.00     0.049 A 
ATOM     37  N   UNL A   1      40.191  28.908  29.684  1.00  0.00    -0.248 NA
ATOM     38  C   UNL A   1      39.163  29.326  27.634  1.00  0.00     0.031 C 
ATOM     39  C   UNL A   1      37.334  31.722  31.660  1.00  0.00     0.029 A 
ATOM     40  N   UNL A   1      39.283  30.652  31.850  1.00  0.00    -0.354 N 
ATOM     41  C   UNL A   1      40.840  28.184  28.689  1.00  0.00     0.074 A 
ATOM     42  C   UNL A   1      40.139  28.447  27.451  1.00  0.00     0.031 C 
ATOM     43  C   UNL A   1      37.858  32.056  32.846  1.00  0.00     0.029 A 
ATOM     44  C   UNL A   1      39.084  31.298  33.048  1.00  0.00     0.049 A 
ATOM     45  H   UNL A   1      40.081  30.110  31.656  1.00  0.00     0.167 HD
ATOM     46  C   UNL A   1      41.916  27.366  28.804  1.00  0.00     0.037 A 
ATOM     47  C   UNL A   1      39.759  31.236  34.210  1.00  0.00     0.037 A 
ATOM     48  C   UNL A   1      42.663  27.179  30.021  1.00  0.00     0.049 A 
ATOM     49  C   UNL A   1      40.927  30.304  34.327  1.00  0.00     0.074 A 
ATOM     50  C   UNL A   1      43.772  26.381  30.240  1.00  0.00     0.029 A 
ATOM     51  N   UNL A   1      42.393  27.824  31.218  1.00  0.00    -0.354 N 
ATOM     52  N   UNL A   1      41.459  29.532  33.412  1.00  0.00    -0.248 NA
ATOM     53  C   UNL A   1      41.562  30.204  35.647  1.00  0.00     0.031 C 
ATOM     54  C   UNL A   1      44.156  26.521  31.578  1.00  0.00     0.029 A 
ATOM     55  C   UNL A   1      43.310  27.437  32.181  1.00  0.00     0.049 A 
ATOM     56  H   UNL A   1      41.658  28.463  31.363  1.00  0.00     0.167 HD
ATOM     57  C   UNL A   1      42.495  28.857  34.043  1.00  0.00     0.074 A 
ATOM     58  C   UNL A   1      42.531  29.330  35.412  1.00  0.00     0.031 C 
ATOM     59  C   UNL A   1      43.334  27.923  33.536  1.00  0.00     0.037 A 
BRANCH  46  60
ATOM     60  C   UNL A   1      42.324  26.574  27.594  1.00  0.00     0.057 A 
ATOM     61  C   UNL A   1      43.222  27.063  26.639  1.00  0.00     0.134 A 
ATOM     62  C   UNL A   1      41.829  25.275  27.408  1.00  0.00     0.134 A 
ATOM     63  F   UNL A   1      43.723  28.302  26.748  1.00  0.00    -0.206 F 
ATOM     64  C   UNL A   1      43.597  26.298  25.531  1.00  0.00     0.040 A 
ATOM     65  C   UNL A   1      42.215  24.491  26.319  1.00  0.00     0.040 A 
ATOM     66  F   UNL A   1      40.969  24.741  28.290  1.00  0.00    -0.206 F 
ATOM     67  C   UNL A   1      43.098  25.005  25.373  1.00  0.00     0.006 A 
ENDBRANCH  46  60
BRANCH  47  68
ATOM     68  C   UNL A   1      39.292  32.026  35.379  1.00  0.00     0.057 A 
ATOM     69  C   UNL A   1      39.728  33.338  35.587  1.00  0.00     0.134 A 
ATOM     70  C   UNL A   1      38.384  31.493  36.306  1.00  0.00     0.134 A 
ATOM     71  F   UNL A   1      40.617  33.894  34.752  1.00  0.00    -0.206 F 
ATOM     72  C   UNL A   1      39.278  34.093  36.672  1.00  0.00     0.040 A 
ATOM     73  C   UNL A   1      37.902  32.247  37.376  1.00  0.00     0.040 A 
ATOM     74  F   UNL A   1      37.929  30.240  36.164  1.00  0.00    -0.206 F 
ATOM     75  C   UNL A   1      38.354  33.551  37.563  1.00  0.00     0.006 A 
ENDBRANCH  47  68
BRANCH  59  76
ATOM     76  C   UNL A   1      44.381  27.381  34.462  1.00  0.00     0.057 A 
ATOM     77  C   UNL A   1      45.620  28.011  34.622  1.00  0.00     0.134 A 
ATOM     78  C   UNL A   1      44.135  26.225  35.213  1.00  0.00     0.134 A 
ATOM     79  F   UNL A   1      45.920  29.112  33.917  1.00  0.00    -0.206 F 
ATOM     80  C   UNL A   1      46.591  27.496  35.483  1.00  0.00     0.040 A 
ATOM     81  C   UNL A   1      45.089  25.714  36.093  1.00  0.00     0.040 A 
ATOM     82  F   UNL A   1      42.964  25.579  35.107  1.00  0.00    -0.206 F 
ATOM     83  C   UNL A   1      46.324  26.347  36.225  1.00  0.00     0.006 A 
ENDBRANCH  59  76
ENDBRANCH  33  34
ENDBRANCH  26  28
ENDBRANCH  25  26
ENDBRANCH  24  25
ENDBRANCH   1  24
TORSDOF 13
ENDMDL
MODEL 2
REMARK VINA RESULT:     -12.1      3.731      8.821
REMARK SMILES Cc1ccc2oc(C(=O)N[C@@H]3C=C[C@H](C(=O)OCCOC(=O)c4ccc(-c5c6nc(c(-c7c(F)cccc7F)c7ccc([nH]7)c(-c7c(F)cccc7F)c7nc(c(-c8c(F)cccc8F)c8ccc5[nH]8)C=C7)C=C6)cc4)C3)cc2c1
REMARK SMILES IDX 18 1 17 2 15 3 16 4 14 5 11 6 12 7 77 8 13 9 10 10 8 11 9 12
REMARK SMILES IDX 7 14 1 15 2 16 3 17 80 18 4 19 79 20 5 21 78 22 6 23 19 24
REMARK SMILES IDX 20 25 21 26 22 27 23 28 24 29 76 30 25 31 75 32 26 33 27 34
REMARK SMILES IDX 28 35 69 36 29 37 74 38 68 39 70 40 30 41 73 42 67 43 66 44
REMARK SMILES IDX 31 46 57 47 40 48 56 49 41 50 44 51 55 52 71 53 42 54 43 55
REMARK SMILES IDX 54 57 72 58 45 59 32 60 33 61 38 62 34 63 35 64 37 65 39 66
REMARK SMILES IDX 36 67 58 68 59 69 64 70 60 71 61 72 63 73 65 74 62 75 46 76
REMARK SMILES IDX 47 77 52 78 48 79 49 80 51 81 53 82 50 83
REMARK H PARENT 10 13 70 45 44 56
REMARK Flexibility Score: inf
ROOT
ATOM      1  C   UNL A   1      35.474  21.098  25.674  1.00  0.00     0.274 C 
ENDROOT
BRANCH   1   2
ATOM      2  O   UNL A   1      35.314  22.453  25.179  1.00  0.00    -0.462 OA
BRANCH   2   3
ATOM      3  C   UNL A   1      34.434  22.557  24.146  1.00  0.00     0.312 C 
ATOM      4  O   UNL A   1      34.746  23.006  23.049  1.00  0.00    -0.252 OA
BRANCH   3   5
ATOM      5  C   UNL A   1      33.002  22.112  24.490  1.00  0.00     0.124 C 
ATOM      6  C   UNL A   1      31.522  23.417  23.007  1.00  0.00     0.106 C 
ATOM      7  C   UNL A   1      31.411  23.874  24.413  1.00  0.00    -0.006 C 
ATOM      8  C   UNL A   1      32.175  22.036  23.195  1.00  0.00     0.048 C 
ATOM      9  C   UNL A   1      32.166  23.123  25.240  1.00  0.00    -0.014 C 
BRANCH   6  10
ATOM     10  N   UNL A   1      32.160  24.315  22.033  1.00  0.00    -0.343 N 
ATOM     11  C   UNL A   1      32.720  25.574  21.889  1.00  0.00     0.287 C 
ATOM     12  O   UNL A   1      33.131  25.809  20.746  1.00  0.00    -0.266 OA
ATOM     13  H   UNL A   1      32.207  23.852  21.165  1.00  0.00     0.164 HD
BRANCH  11  14
ATOM     14  C   UNL A   1      32.804  26.560  22.953  1.00  0.00     0.192 A 
ATOM     15  C   UNL A   1      34.050  30.235  27.524  1.00  0.00     0.044 C 
ATOM     16  C   UNL A   1      33.378  29.622  26.333  1.00  0.00    -0.050 A 
ATOM     17  C   UNL A   1      32.149  30.063  25.812  1.00  0.00     0.007 A 
ATOM     18  C   UNL A   1      34.016  28.536  25.745  1.00  0.00     0.015 A 
ATOM     19  C   UNL A   1      31.525  29.433  24.707  1.00  0.00     0.048 A 
ATOM     20  C   UNL A   1      33.395  27.902  24.672  1.00  0.00     0.021 A 
ATOM     21  C   UNL A   1      32.186  28.334  24.167  1.00  0.00     0.135 A 
ATOM     22  C   UNL A   1      33.760  26.820  23.893  1.00  0.00     0.065 A 
ATOM     23  O   UNL A   1      31.812  27.527  23.114  1.00  0.00    -0.451 OA
ENDBRANCH  11  14
ENDBRANCH   6  10
ENDBRANCH   3   5
ENDBRANCH   2   3
ENDBRANCH   1   2
BRANCH   1  24
ATOM     24  C   UNL A   1      36.618  20.346  24.984  1.00  0.00     0.275 C 
BRANCH  24  25
ATOM     25  O   UNL A   1      37.781  21.182  24.830  1.00  0.00    -0.458 OA
BRANCH  25  26
ATOM     26  C   UNL A   1      38.826  20.881  25.636  1.00  0.00     0.338 C 
ATOM     27  O   UNL A   1      39.422  19.817  25.694  1.00  0.00    -0.246 OA
BRANCH  26  28
ATOM     28  C   UNL A   1      39.269  22.057  26.415  1.00  0.00     0.060 A 
ATOM     29  C   UNL A   1      38.763  23.315  26.122  1.00  0.00     0.016 A 
ATOM     30  C   UNL A   1      40.358  21.950  27.279  1.00  0.00     0.016 A 
ATOM     31  C   UNL A   1      39.463  24.457  26.502  1.00  0.00     0.010 A 
ATOM     32  C   UNL A   1      40.955  23.106  27.801  1.00  0.00     0.010 A 
ATOM     33  C   UNL A   1      40.563  24.382  27.361  1.00  0.00    -0.014 A 
BRANCH  33  34
ATOM     34  C   UNL A   1      41.323  25.615  27.742  1.00  0.00     0.031 A 
ATOM     35  C   UNL A   1      40.680  26.664  28.618  1.00  0.00     0.074 A 
ATOM     36  C   UNL A   1      42.602  25.801  27.345  1.00  0.00     0.049 A 
ATOM     37  N   UNL A   1      41.046  27.903  28.835  1.00  0.00    -0.248 NA
ATOM     38  C   UNL A   1      39.450  26.276  29.329  1.00  0.00     0.031 C 
ATOM     39  C   UNL A   1      43.402  24.859  26.560  1.00  0.00     0.029 A 
ATOM     40  N   UNL A   1      43.462  26.853  27.561  1.00  0.00    -0.354 N 
ATOM     41  C   UNL A   1      40.047  28.465  29.623  1.00  0.00     0.074 A 
ATOM     42  C   UNL A   1      39.067  27.428  29.864  1.00  0.00     0.031 C 
ATOM     43  C   UNL A   1      44.646  25.338  26.421  1.00  0.00     0.029 A 
ATOM     44  C   UNL A   1      44.695  26.683  26.975  1.00  0.00     0.049 A 
ATOM     45  H   UNL A   1      43.219  27.650  28.084  1.00  0.00     0.167 HD
ATOM     46  C   UNL A   1      39.953  29.734  30.090  1.00  0.00     0.037 A 
ATOM     47  C   UNL A   1      45.729  27.532  26.826  1.00  0.00     0.037 A 
ATOM     48  C   UNL A   1      40.974  30.736  29.922  1.00  0.00     0.049 A 
ATOM     49  C   UNL A   1      45.594  28.939  27.323  1.00  0.00     0.074 A 
ATOM     50  C   UNL A   1      40.981  32.047  30.364  1.00  0.00     0.029 A 
ATOM     51  N   UNL A   1      42.187  30.525  29.283  1.00  0.00    -0.354 N 
ATOM     52  N   UNL A   1      44.595  29.497  27.962  1.00  0.00    -0.248 NA
ATOM     53  C   UNL A   1      46.714  29.848  27.043  1.00  0.00     0.031 C 
ATOM     54  C   UNL A   1      42.185  32.639  29.967  1.00  0.00     0.029 A 
ATOM     55  C   UNL A   1      42.945  31.683  29.313  1.00  0.00     0.049 A 
ATOM     56  H   UNL A   1      42.467  29.677  28.868  1.00  0.00     0.167 HD
ATOM     57  C   UNL A   1      44.966  30.818  28.165  1.00  0.00     0.074 A 
ATOM     58  C   UNL A   1      46.292  30.973  27.603  1.00  0.00     0.031 C 
ATOM     59  C   UNL A   1      44.265  31.817  28.755  1.00  0.00     0.037 A 
BRANCH  46  60
ATOM     60  C   UNL A   1      38.683  30.130  30.789  1.00  0.00     0.057 A 
ATOM     61  C   UNL A   1      38.519  30.021  32.174  1.00  0.00     0.134 A 
ATOM     62  C   UNL A   1      37.617  30.667  30.054  1.00  0.00     0.134 A 
ATOM     63  F   UNL A   1      39.493  29.501  32.936  1.00  0.00    -0.206 F 
ATOM     64  C   UNL A   1      37.332  30.411  32.801  1.00  0.00     0.040 A 
ATOM     65  C   UNL A   1      36.436  31.085  30.671  1.00  0.00     0.040 A 
ATOM     66  F   UNL A   1      37.710  30.807  28.722  1.00  0.00    -0.206 F 
ATOM     67  C   UNL A   1      36.289  30.951  32.050  1.00  0.00     0.006 A 
ENDBRANCH  46  60
BRANCH  47  68
ATOM     68  C   UNL A   1      46.949  27.089  26.104  1.00  0.00     0.057 A 
ATOM     69  C   UNL A   1      47.081  27.277  24.724  1.00  0.00     0.134 A 
ATOM     70  C   UNL A   1      48.019  26.485  26.778  1.00  0.00     0.134 A 
ATOM     71  F   UNL A   1      46.081  27.824  24.018  1.00  0.00    -0.206 F 
ATOM     72  C   UNL A   1      48.233  26.883  24.041  1.00  0.00     0.040 A 
ATOM     73  C   UNL A   1      49.189  26.115  26.113  1.00  0.00     0.040 A 
ATOM     74  F   UNL A   1      47.955  26.275  28.101  1.00  0.00    -0.206 F 
ATOM     75  C   UNL A   1      49.295  26.310  24.738  1.00  0.00     0.006 A 
ENDBRANCH  47  68
BRANCH  59  76
ATOM     76  C   UNL A   1      44.941  33.151  28.850  1.00  0.00     0.057 A 
ATOM     77  C   UNL A   1      45.785  33.474  29.918  1.00  0.00     0.134 A 
ATOM     78  C   UNL A   1      44.756  34.114  27.850  1.00  0.00     0.134 A 
ATOM     79  F   UNL A   1      45.988  32.599  30.915  1.00  0.00    -0.206 F 
ATOM     80  C   UNL A   1      46.406  34.722  30.001  1.00  0.00     0.040 A 
ATOM     81  C   UNL A   1      45.389  35.355  27.911  1.00  0.00     0.040 A 
ATOM     82  F   UNL A   1      43.962  33.861  26.798  1.00  0.00    -0.206 F 
ATOM     83  C   UNL A   1      46.212  35.664  28.993  1.00  0.00     0.006 A 
ENDBRANCH  59  76
ENDBRANCH  33  34
ENDBRANCH  26  28
ENDBRANCH  25  26
ENDBRANCH  24  25
ENDBRANCH   1  24
TORSDOF 13
ENDMDL
MODEL 3
REMARK VINA RESULT:     -12.1      1.240      3.535
REMARK SMILES Cc1ccc2oc(C(=O)N[C@@H]3C=C[C@H](C(=O)OCCOC(=O)c4ccc(-c5c6nc(c(-c7c(F)cccc7F)c7ccc([nH]7)c(-c7c(F)cccc7F)c7nc(c(-c8c(F)cccc8F)c8ccc5[nH]8)C=C7)C=C6)cc4)C3)cc2c1
REMARK SMILES IDX 18 1 17 2 15 3 16 4 14 5 11 6 12 7 77 8 13 9 10 10 8 11 9 12
REMARK SMILES IDX 7 14 1 15 2 16 3 17 80 18 4 19 79 20 5 21 78 22 6 23 19 24
REMARK SMILES IDX 20 25 21 26 22 27 23 28 24 29 76 30 25 31 75 32 26 33 27 34
REMARK SMILES IDX 28 35 69 36 29 37 74 38 68 39 70 40 30 41 73 42 67 43 66 44
REMARK SMILES IDX 31 46 57 47 40 48 56 49 41 50 44 51 55 52 71 53 42 54 43 55
REMARK SMILES IDX 54 57 72 58 45 59 32 60 33 61 38 62 34 63 35 64 37 65 39 66
REMARK SMILES IDX 36 67 58 68 59 69 64 70 60 71 61 72 63 73 65 74 62 75 46 76
REMARK SMILES IDX 47 77 52 78 48 79 49 80 51 81 53 82 50 83
REMARK H PARENT 10 13 70 45 44 56
REMARK Flexibility Score: inf
ROOT
ATOM      1  C   UNL A   1      32.412  29.406  24.926  1.00  0.00     0.274 C 
ENDROOT
BRANCH   1   2
ATOM      2  O   UNL A   1      32.360  28.048  25.435  1.00  0.00    -0.462 OA
BRANCH   2   3
ATOM      3  C   UNL A   1      33.463  27.309  25.135  1.00  0.00     0.312 C 
ATOM      4  O   UNL A   1      34.229  27.596  24.223  1.00  0.00    -0.252 OA
BRANCH   3   5
ATOM      5  C   UNL A   1      33.635  26.053  26.007  1.00  0.00     0.124 C 
ATOM      6  C   UNL A   1      33.697  24.151  24.433  1.00  0.00     0.106 C 
ATOM      7  C   UNL A   1      32.433  24.166  25.209  1.00  0.00    -0.006 C 
ATOM      8  C   UNL A   1      34.581  25.072  25.293  1.00  0.00     0.048 C 
ATOM      9  C   UNL A   1      32.419  25.162  26.117  1.00  0.00    -0.014 C 
BRANCH   6  10
ATOM     10  N   UNL A   1      33.635  24.459  22.997  1.00  0.00    -0.343 N 
ATOM     11  C   UNL A   1      32.946  25.203  22.053  1.00  0.00     0.287 C 
ATOM     12  O   UNL A   1      33.367  25.057  20.899  1.00  0.00    -0.266 OA
ATOM     13  H   UNL A   1      34.342  23.951  22.537  1.00  0.00     0.164 HD
BRANCH  11  14
ATOM     14  C   UNL A   1      31.812  26.060  22.353  1.00  0.00     0.192 A 
ATOM     15  C   UNL A   1      27.594  30.269  23.021  1.00  0.00     0.044 C 
ATOM     16  C   UNL A   1      28.314  28.956  23.068  1.00  0.00    -0.050 A 
ATOM     17  C   UNL A   1      27.821  27.814  23.723  1.00  0.00     0.007 A 
ATOM     18  C   UNL A   1      29.553  28.899  22.441  1.00  0.00     0.015 A 
ATOM     19  C   UNL A   1      28.549  26.599  23.779  1.00  0.00     0.048 A 
ATOM     20  C   UNL A   1      30.279  27.712  22.511  1.00  0.00     0.021 A 
ATOM     21  C   UNL A   1      29.796  26.596  23.160  1.00  0.00     0.135 A 
ATOM     22  C   UNL A   1      31.514  27.347  22.008  1.00  0.00     0.065 A 
ATOM     23  O   UNL A   1      30.718  25.575  23.071  1.00  0.00    -0.451 OA
ENDBRANCH  11  14
ENDBRANCH   6  10
ENDBRANCH   3   5
ENDBRANCH   2   3
ENDBRANCH   1   2
BRANCH   1  24
ATOM     24  C   UNL A   1      31.607  30.391  25.782  1.00  0.00     0.275 C 
BRANCH  24  25
ATOM     25  O   UNL A   1      32.182  30.541  27.094  1.00  0.00    -0.458 OA
BRANCH  25  26
ATOM     26  C   UNL A   1      32.930  31.654  27.280  1.00  0.00     0.338 C 
ATOM     27  O   UNL A   1      32.534  32.808  27.286  1.00  0.00    -0.246 OA
BRANCH  26  28
ATOM     28  C   UNL A   1      34.337  31.319  27.588  1.00  0.00     0.060 A 
ATOM     29  C   UNL A   1      34.698  30.003  27.839  1.00  0.00     0.016 A 
ATOM     30  C   UNL A   1      35.250  32.336  27.860  1.00  0.00     0.016 A 
ATOM     31  C   UNL A   1      35.859  29.720  28.552  1.00  0.00     0.010 A 
ATOM     32  C   UNL A   1      36.497  32.025  28.422  1.00  0.00     0.010 A 
ATOM     33  C   UNL A   1      36.793  30.719  28.847  1.00  0.00    -0.014 A 
BRANCH  33  34
ATOM     34  C   UNL A   1      38.025  30.407  29.638  1.00  0.00     0.031 A 
ATOM     35  C   UNL A   1      39.127  29.571  29.029  1.00  0.00     0.074 A 
ATOM     36  C   UNL A   1      38.198  30.890  30.888  1.00  0.00     0.049 A 
ATOM     37  N   UNL A   1      40.129  28.964  29.616  1.00  0.00    -0.248 NA
ATOM     38  C   UNL A   1      39.086  29.373  27.571  1.00  0.00     0.031 C 
ATOM     39  C   UNL A   1      37.273  31.773  31.602  1.00  0.00     0.029 A 
ATOM     40  N   UNL A   1      39.227  30.711  31.783  1.00  0.00    -0.354 N 
ATOM     41  C   UNL A   1      40.774  28.240  28.619  1.00  0.00     0.074 A 
ATOM     42  C   UNL A   1      40.064  28.498  27.385  1.00  0.00     0.031 C 
ATOM     43  C   UNL A   1      37.803  32.112  32.784  1.00  0.00     0.029 A 
ATOM     44  C   UNL A   1      39.033  31.359  32.980  1.00  0.00     0.049 A 
ATOM     45  H   UNL A   1      40.026  30.171  31.585  1.00  0.00     0.167 HD
ATOM     46  C   UNL A   1      41.853  27.426  28.729  1.00  0.00     0.037 A 
ATOM     47  C   UNL A   1      39.715  31.302  34.139  1.00  0.00     0.037 A 
ATOM     48  C   UNL A   1      42.609  27.245  29.942  1.00  0.00     0.049 A 
ATOM     49  C   UNL A   1      40.887  30.374  34.250  1.00  0.00     0.074 A 
ATOM     50  C   UNL A   1      43.721  26.451  30.157  1.00  0.00     0.029 A 
ATOM     51  N   UNL A   1      42.344  27.892  31.140  1.00  0.00    -0.354 N 
ATOM     52  N   UNL A   1      41.417  29.602  33.335  1.00  0.00    -0.248 NA
ATOM     53  C   UNL A   1      41.531  30.280  35.568  1.00  0.00     0.031 C 
ATOM     54  C   UNL A   1      44.113  26.595  31.492  1.00  0.00     0.029 A 
ATOM     55  C   UNL A   1      43.267  27.511  32.098  1.00  0.00     0.049 A 
ATOM     56  H   UNL A   1      41.607  28.528  31.287  1.00  0.00     0.167 HD
ATOM     57  C   UNL A   1      42.459  28.932  33.961  1.00  0.00     0.074 A 
ATOM     58  C   UNL A   1      42.501  29.408  35.328  1.00  0.00     0.031 C 
ATOM     59  C   UNL A   1      43.298  27.999  33.451  1.00  0.00     0.037 A 
BRANCH  46  60
ATOM     60  C   UNL A   1      42.256  26.632  27.519  1.00  0.00     0.057 A 
ATOM     61  C   UNL A   1      41.763  25.348  27.260  1.00  0.00     0.134 A 
ATOM     62  C   UNL A   1      43.132  27.188  26.576  1.00  0.00     0.134 A 
ATOM     63  F   UNL A   1      40.933  24.750  28.128  1.00  0.00    -0.206 F 
ATOM     64  C   UNL A   1      42.144  24.637  26.119  1.00  0.00     0.040 A 
ATOM     65  C   UNL A   1      43.499  26.498  25.419  1.00  0.00     0.040 A 
ATOM     66  F   UNL A   1      43.637  28.419  26.758  1.00  0.00    -0.206 F 
ATOM     67  C   UNL A   1      43.009  25.215  25.191  1.00  0.00     0.006 A 
ENDBRANCH  46  60
BRANCH  47  68
ATOM     68  C   UNL A   1      39.253  32.093  35.308  1.00  0.00     0.057 A 
ATOM     69  C   UNL A   1      39.647  33.423  35.485  1.00  0.00     0.134 A 
ATOM     70  C   UNL A   1      38.391  31.543  36.268  1.00  0.00     0.134 A 
ATOM     71  F   UNL A   1      40.493  33.997  34.617  1.00  0.00    -0.206 F 
ATOM     72  C   UNL A   1      39.201  34.179  36.570  1.00  0.00     0.040 A 
ATOM     73  C   UNL A   1      37.911  32.297  37.340  1.00  0.00     0.040 A 
ATOM     74  F   UNL A   1      37.976  30.273  36.157  1.00  0.00    -0.206 F 
ATOM     75  C   UNL A   1      38.321  33.619  37.495  1.00  0.00     0.006 A 
ENDBRANCH  47  68
BRANCH  59  76
ATOM     76  C   UNL A   1      44.352  27.464  34.372  1.00  0.00     0.057 A 
ATOM     77  C   UNL A   1      44.156  26.294  35.116  1.00  0.00     0.134 A 
ATOM     78  C   UNL A   1      45.583  28.119  34.501  1.00  0.00     0.134 A 
ATOM     79  F   UNL A   1      42.991  25.632  35.047  1.00  0.00    -0.206 F 
ATOM     80  C   UNL A   1      45.141  25.806  35.975  1.00  0.00     0.040 A 
ATOM     81  C   UNL A   1      46.583  27.628  35.340  1.00  0.00     0.040 A 
ATOM     82  F   UNL A   1      45.833  29.242  33.810  1.00  0.00    -0.206 F 
ATOM     83  C   UNL A   1      46.361  26.472  36.085  1.00  0.00     0.006 A 
ENDBRANCH  59  76
ENDBRANCH  33  34
ENDBRANCH  26  28
ENDBRANCH  25  26
ENDBRANCH  24  25
ENDBRANCH   1  24
TORSDOF 13
ENDMDL
