MODEL 1
REMARK VINA RESULT:     -10.5      0.000      0.000
REMARK SMILES Cc1ccc(OCC(=O)N[C@H](C)C(=O)OCCOC(=O)c2ccc(-c3c4nc(c(-c5c(F)cccc5F)c5ccc([nH]5)c(-c5c(F)cccc5F)c5nc(c(-c6c(F)cccc6F)c6ccc3[nH]6)C=C5)C=C4)cc2)c(Br)c1
REMARK SMILES IDX 16 1 15 2 13 3 14 4 11 5 12 6 10 7 8 8 9 9 7 11 6 12 5 13
REMARK SMILES IDX 1 14 2 15 3 16 77 17 4 18 75 19 76 20 17 21 18 22 19 23
REMARK SMILES IDX 20 24 21 25 22 26 74 27 23 28 73 29 24 30 25 31 26 32 67 33
REMARK SMILES IDX 27 34 72 35 66 36 68 37 28 38 71 39 65 40 64 41 29 43 55 44
REMARK SMILES IDX 38 45 54 46 39 47 42 48 53 49 69 50 40 51 41 52 52 54 70 55
REMARK SMILES IDX 43 56 30 57 31 58 36 59 32 60 33 61 35 62 37 63 34 64 56 65
REMARK SMILES IDX 57 66 62 67 58 68 59 69 61 70 63 71 60 72 44 73 45 74 50 75
REMARK SMILES IDX 46 76 47 77 49 78 51 79 48 80
REMARK H PARENT 10 10 68 42 42 53
REMARK Flexibility Score: inf
ROOT
ATOM      1  C   UNL A   1      44.847  22.002  25.225  1.00  0.00     0.274 C 
ENDROOT
BRANCH   1   2
ATOM      2  O   UNL A   1      46.108  21.339  25.454  1.00  0.00    -0.461 OA
BRANCH   2   3
ATOM      3  C   UNL A   1      46.319  20.133  24.875  1.00  0.00     0.328 C 
ATOM      4  O   UNL A   1      47.424  19.648  24.654  1.00  0.00    -0.250 OA
BRANCH   3   5
ATOM      5  C   UNL A   1      45.008  19.485  24.394  1.00  0.00     0.189 C 
ATOM      6  C   UNL A   1      44.924  19.128  22.914  1.00  0.00     0.043 C 
BRANCH   5   7
ATOM      7  N   UNL A   1      44.483  18.425  25.263  1.00  0.00    -0.340 N 
ATOM      8  C   UNL A   1      43.390  18.400  26.078  1.00  0.00     0.258 C 
ATOM      9  O   UNL A   1      43.277  17.458  26.866  1.00  0.00    -0.271 OA
ATOM     10  H   UNL A   1      45.009  17.593  25.256  1.00  0.00     0.164 HD
BRANCH   8  11
ATOM     11  C   UNL A   1      42.284  19.452  25.949  1.00  0.00     0.329 C 
BRANCH  11  12
ATOM     12  O   UNL A   1      41.977  20.151  27.144  1.00  0.00    -0.483 OA
BRANCH  12  13
ATOM     13  C   UNL A   1      41.118  21.213  27.084  1.00  0.00     0.134 A 
ATOM     14  C   UNL A   1      38.628  24.735  26.947  1.00  0.00     0.044 C 
ATOM     15  C   UNL A   1      39.468  23.499  27.002  1.00  0.00    -0.050 A 
ATOM     16  C   UNL A   1      39.125  22.351  26.289  1.00  0.00     0.007 A 
ATOM     17  C   UNL A   1      40.633  23.499  27.766  1.00  0.00     0.023 A 
ATOM     18  C   UNL A   1      39.942  21.218  26.331  1.00  0.00     0.048 A 
ATOM     19  C   UNL A   1      41.452  22.370  27.808  1.00  0.00     0.060 A 
ATOM     20  Br  UNL A   1      42.994  22.529  28.897  1.00  0.00    -0.047 Br
ENDBRANCH  12  13
ENDBRANCH  11  12
ENDBRANCH   8  11
ENDBRANCH   5   7
ENDBRANCH   3   5
ENDBRANCH   2   3
ENDBRANCH   1   2
BRANCH   1  21
ATOM     21  C   UNL A   1      45.053  23.170  24.261  1.00  0.00     0.275 C 
BRANCH  21  22
ATOM     22  O   UNL A   1      44.392  24.327  24.788  1.00  0.00    -0.458 OA
BRANCH  22  23
ATOM     23  C   UNL A   1      45.221  25.339  25.144  1.00  0.00     0.338 C 
ATOM     24  O   UNL A   1      46.261  25.682  24.623  1.00  0.00    -0.246 OA
BRANCH  23  25
ATOM     25  C   UNL A   1      44.496  26.144  26.135  1.00  0.00     0.060 A 
ATOM     26  C   UNL A   1      44.670  27.533  26.110  1.00  0.00     0.016 A 
ATOM     27  C   UNL A   1      43.628  25.537  27.040  1.00  0.00     0.016 A 
ATOM     28  C   UNL A   1      43.964  28.332  26.995  1.00  0.00     0.010 A 
ATOM     29  C   UNL A   1      42.936  26.334  27.941  1.00  0.00     0.010 A 
ATOM     30  C   UNL A   1      43.119  27.728  27.929  1.00  0.00    -0.014 A 
BRANCH  30  31
ATOM     31  C   UNL A   1      42.548  28.529  29.021  1.00  0.00     0.031 A 
ATOM     32  C   UNL A   1      43.324  28.620  30.297  1.00  0.00     0.074 A 
ATOM     33  C   UNL A   1      41.359  29.131  28.864  1.00  0.00     0.049 A 
ATOM     34  N   UNL A   1      42.975  29.132  31.446  1.00  0.00    -0.248 NA
ATOM     35  C   UNL A   1      44.678  28.039  30.278  1.00  0.00     0.031 C 
ATOM     36  C   UNL A   1      40.568  29.132  27.634  1.00  0.00     0.029 A 
ATOM     37  N   UNL A   1      40.606  29.844  29.755  1.00  0.00    -0.354 N 
ATOM     38  C   UNL A   1      44.055  28.914  32.290  1.00  0.00     0.074 A 
ATOM     39  C   UNL A   1      45.058  28.198  31.535  1.00  0.00     0.031 C 
ATOM     40  C   UNL A   1      39.428  29.807  27.853  1.00  0.00     0.029 A 
ATOM     41  C   UNL A   1      39.394  30.238  29.247  1.00  0.00     0.049 A 
ATOM     42  H   UNL A   1      40.904  30.053  30.670  1.00  0.00     0.167 HD
ATOM     43  C   UNL A   1      44.190  29.287  33.584  1.00  0.00     0.037 A 
ATOM     44  C   UNL A   1      38.368  30.850  29.865  1.00  0.00     0.037 A 
ATOM     45  C   UNL A   1      43.167  29.994  34.309  1.00  0.00     0.049 A 
ATOM     46  C   UNL A   1      38.511  31.189  31.324  1.00  0.00     0.074 A 
ATOM     47  C   UNL A   1      43.178  30.426  35.621  1.00  0.00     0.029 A 
ATOM     48  N   UNL A   1      41.941  30.365  33.772  1.00  0.00    -0.354 N 
ATOM     49  N   UNL A   1      39.529  30.981  32.127  1.00  0.00    -0.248 NA
ATOM     50  C   UNL A   1      37.365  31.844  31.964  1.00  0.00     0.031 C 
ATOM     51  C   UNL A   1      41.939  31.016  35.892  1.00  0.00     0.029 A 
ATOM     52  C   UNL A   1      41.178  31.005  34.732  1.00  0.00     0.049 A 
ATOM     53  H   UNL A   1      41.657  30.197  32.843  1.00  0.00     0.167 HD
ATOM     54  C   UNL A   1      39.160  31.507  33.357  1.00  0.00     0.074 A 
ATOM     55  C   UNL A   1      37.828  32.055  33.187  1.00  0.00     0.031 C 
ATOM     56  C   UNL A   1      39.856  31.541  34.523  1.00  0.00     0.037 A 
BRANCH  43  57
ATOM     57  C   UNL A   1      45.460  28.900  34.282  1.00  0.00     0.057 A 
ATOM     58  C   UNL A   1      46.608  29.704  34.244  1.00  0.00     0.134 A 
ATOM     59  C   UNL A   1      45.544  27.694  34.990  1.00  0.00     0.134 A 
ATOM     60  F   UNL A   1      46.604  30.861  33.563  1.00  0.00    -0.206 F 
ATOM     61  C   UNL A   1      47.799  29.310  34.857  1.00  0.00     0.040 A 
ATOM     62  C   UNL A   1      46.720  27.304  35.633  1.00  0.00     0.040 A 
ATOM     63  F   UNL A   1      44.486  26.872  35.066  1.00  0.00    -0.206 F 
ATOM     64  C   UNL A   1      47.855  28.108  35.558  1.00  0.00     0.006 A 
ENDBRANCH  43  57
BRANCH  44  65
ATOM     65  C   UNL A   1      37.130  31.173  29.112  1.00  0.00     0.057 A 
ATOM     66  C   UNL A   1      36.149  30.201  28.886  1.00  0.00     0.134 A 
ATOM     67  C   UNL A   1      36.893  32.457  28.605  1.00  0.00     0.134 A 
ATOM     68  F   UNL A   1      36.326  28.948  29.333  1.00  0.00    -0.206 F 
ATOM     69  C   UNL A   1      34.985  30.487  28.170  1.00  0.00     0.040 A 
ATOM     70  C   UNL A   1      35.721  32.765  27.910  1.00  0.00     0.040 A 
ATOM     71  F   UNL A   1      37.790  33.437  28.791  1.00  0.00    -0.206 F 
ATOM     72  C   UNL A   1      34.766  31.775  27.685  1.00  0.00     0.006 A 
ENDBRANCH  44  65
BRANCH  56  73
ATOM     73  C   UNL A   1      39.199  32.232  35.681  1.00  0.00     0.057 A 
ATOM     74  C   UNL A   1      38.353  31.555  36.568  1.00  0.00     0.134 A 
ATOM     75  C   UNL A   1      39.448  33.588  35.929  1.00  0.00     0.134 A 
ATOM     76  F   UNL A   1      38.065  30.258  36.379  1.00  0.00    -0.206 F 
ATOM     77  C   UNL A   1      37.752  32.211  37.643  1.00  0.00     0.040 A 
ATOM     78  C   UNL A   1      38.879  34.246  37.019  1.00  0.00     0.040 A 
ATOM     79  F   UNL A   1      40.259  34.291  35.124  1.00  0.00    -0.206 F 
ATOM     80  C   UNL A   1      38.021  33.558  37.875  1.00  0.00     0.006 A 
ENDBRANCH  56  73
ENDBRANCH  30  31
ENDBRANCH  23  25
ENDBRANCH  22  23
ENDBRANCH  21  22
ENDBRANCH   1  21
TORSDOF 15
ENDMDL
MODEL 2
REMARK VINA RESULT:     -10.5      6.014     11.843
REMARK SMILES Cc1ccc(OCC(=O)N[C@H](C)C(=O)OCCOC(=O)c2ccc(-c3c4nc(c(-c5c(F)cccc5F)c5ccc([nH]5)c(-c5c(F)cccc5F)c5nc(c(-c6c(F)cccc6F)c6ccc3[nH]6)C=C5)C=C4)cc2)c(Br)c1
REMARK SMILES IDX 16 1 15 2 13 3 14 4 11 5 12 6 10 7 8 8 9 9 7 11 6 12 5 13
REMARK SMILES IDX 1 14 2 15 3 16 77 17 4 18 75 19 76 20 17 21 18 22 19 23
REMARK SMILES IDX 20 24 21 25 22 26 74 27 23 28 73 29 24 30 25 31 26 32 67 33
REMARK SMILES IDX 27 34 72 35 66 36 68 37 28 38 71 39 65 40 64 41 29 43 55 44
REMARK SMILES IDX 38 45 54 46 39 47 42 48 53 49 69 50 40 51 41 52 52 54 70 55
REMARK SMILES IDX 43 56 30 57 31 58 36 59 32 60 33 61 35 62 37 63 34 64 56 65
REMARK SMILES IDX 57 66 62 67 58 68 59 69 61 70 63 71 60 72 44 73 45 74 50 75
REMARK SMILES IDX 46 76 47 77 49 78 51 79 48 80
REMARK H PARENT 10 10 68 42 42 53
REMARK Flexibility Score: inf
ROOT
ATOM      1  C   UNL A   1      34.139  34.552  32.163  1.00  0.00     0.274 C 
ENDROOT
BRANCH   1   2
ATOM      2  O   UNL A   1      33.261  34.680  31.026  1.00  0.00    -0.461 OA
BRANCH   2   3
ATOM      3  C   UNL A   1      33.033  35.917  30.522  1.00  0.00     0.328 C 
ATOM      4  O   UNL A   1      32.427  36.809  31.105  1.00  0.00    -0.250 OA
BRANCH   3   5
ATOM      5  C   UNL A   1      33.506  36.042  29.061  1.00  0.00     0.189 C 
ATOM      6  C   UNL A   1      33.492  37.441  28.456  1.00  0.00     0.043 C 
BRANCH   5   7
ATOM      7  N   UNL A   1      34.727  35.297  28.738  1.00  0.00    -0.340 N 
ATOM      8  C   UNL A   1      34.905  34.000  28.356  1.00  0.00     0.258 C 
ATOM      9  O   UNL A   1      36.056  33.554  28.341  1.00  0.00    -0.271 OA
ATOM     10  H   UNL A   1      35.557  35.822  28.807  1.00  0.00     0.164 HD
BRANCH   8  11
ATOM     11  C   UNL A   1      33.729  33.152  27.863  1.00  0.00     0.329 C 
BRANCH  11  12
ATOM     12  O   UNL A   1      33.732  31.804  28.306  1.00  0.00    -0.483 OA
BRANCH  12  13
ATOM     13  C   UNL A   1      33.415  30.818  27.415  1.00  0.00     0.134 A 
ATOM     14  C   UNL A   1      32.597  27.535  24.735  1.00  0.00     0.044 C 
ATOM     15  C   UNL A   1      32.872  28.691  25.643  1.00  0.00    -0.050 A 
ATOM     16  C   UNL A   1      31.911  29.671  25.891  1.00  0.00     0.007 A 
ATOM     17  C   UNL A   1      34.111  28.782  26.275  1.00  0.00     0.023 A 
ATOM     18  C   UNL A   1      32.180  30.724  26.767  1.00  0.00     0.048 A 
ATOM     19  C   UNL A   1      34.382  29.832  27.152  1.00  0.00     0.060 A 
ATOM     20  Br  UNL A   1      36.113  29.817  27.923  1.00  0.00    -0.047 Br
ENDBRANCH  12  13
ENDBRANCH  11  12
ENDBRANCH   8  11
ENDBRANCH   5   7
ENDBRANCH   3   5
ENDBRANCH   2   3
ENDBRANCH   1   2
BRANCH   1  21
ATOM     21  C   UNL A   1      34.195  33.088  32.601  1.00  0.00     0.275 C 
BRANCH  21  22
ATOM     22  O   UNL A   1      35.370  32.484  32.044  1.00  0.00    -0.458 OA
BRANCH  22  23
ATOM     23  C   UNL A   1      36.389  32.315  32.923  1.00  0.00     0.338 C 
ATOM     24  O   UNL A   1      36.380  32.455  34.127  1.00  0.00    -0.246 OA
BRANCH  23  25
ATOM     25  C   UNL A   1      37.473  31.657  32.183  1.00  0.00     0.060 A 
ATOM     26  C   UNL A   1      38.241  30.698  32.854  1.00  0.00     0.016 A 
ATOM     27  C   UNL A   1      37.692  31.951  30.839  1.00  0.00     0.016 A 
ATOM     28  C   UNL A   1      39.240  30.017  32.176  1.00  0.00     0.010 A 
ATOM     29  C   UNL A   1      38.706  31.286  30.164  1.00  0.00     0.010 A 
ATOM     30  C   UNL A   1      39.489  30.334  30.839  1.00  0.00    -0.014 A 
BRANCH  30  31
ATOM     31  C   UNL A   1      40.687  29.799  30.174  1.00  0.00     0.031 A 
ATOM     32  C   UNL A   1      41.856  30.718  30.001  1.00  0.00     0.074 A 
ATOM     33  C   UNL A   1      40.701  28.534  29.728  1.00  0.00     0.049 A 
ATOM     34  N   UNL A   1      42.957  30.540  29.324  1.00  0.00    -0.248 NA
ATOM     35  C   UNL A   1      41.759  32.026  30.671  1.00  0.00     0.031 C 
ATOM     36  C   UNL A   1      39.623  27.562  29.907  1.00  0.00     0.029 A 
ATOM     37  N   UNL A   1      41.655  27.859  29.018  1.00  0.00    -0.354 N 
ATOM     38  C   UNL A   1      43.674  31.720  29.469  1.00  0.00     0.074 A 
ATOM     39  C   UNL A   1      42.872  32.618  30.269  1.00  0.00     0.031 C 
ATOM     40  C   UNL A   1      39.973  26.412  29.307  1.00  0.00     0.029 A 
ATOM     41  C   UNL A   1      41.272  26.589  28.666  1.00  0.00     0.049 A 
ATOM     42  H   UNL A   1      42.528  28.246  28.782  1.00  0.00     0.167 HD
ATOM     43  C   UNL A   1      44.898  32.018  28.975  1.00  0.00     0.037 A 
ATOM     44  C   UNL A   1      41.900  25.694  27.883  1.00  0.00     0.037 A 
ATOM     45  C   UNL A   1      45.667  31.102  28.176  1.00  0.00     0.049 A 
ATOM     46  C   UNL A   1      43.227  26.074  27.284  1.00  0.00     0.074 A 
ATOM     47  C   UNL A   1      46.916  31.281  27.614  1.00  0.00     0.029 A 
ATOM     48  N   UNL A   1      45.244  29.826  27.821  1.00  0.00    -0.354 N 
ATOM     49  N   UNL A   1      43.905  27.191  27.416  1.00  0.00    -0.248 NA
ATOM     50  C   UNL A   1      43.873  25.075  26.427  1.00  0.00     0.031 C 
ATOM     51  C   UNL A   1      47.228  30.132  26.878  1.00  0.00     0.029 A 
ATOM     52  C   UNL A   1      46.200  29.214  27.031  1.00  0.00     0.049 A 
ATOM     53  H   UNL A   1      44.390  29.418  28.093  1.00  0.00     0.167 HD
ATOM     54  C   UNL A   1      45.073  27.017  26.685  1.00  0.00     0.074 A 
ATOM     55  C   UNL A   1      45.012  25.681  26.125  1.00  0.00     0.031 C 
ATOM     56  C   UNL A   1      46.105  27.878  26.495  1.00  0.00     0.037 A 
BRANCH  43  57
ATOM     57  C   UNL A   1      45.439  33.388  29.259  1.00  0.00     0.057 A 
ATOM     58  C   UNL A   1      45.187  34.479  28.415  1.00  0.00     0.134 A 
ATOM     59  C   UNL A   1      46.240  33.618  30.385  1.00  0.00     0.134 A 
ATOM     60  F   UNL A   1      44.447  34.324  27.306  1.00  0.00    -0.206 F 
ATOM     61  C   UNL A   1      45.736  35.739  28.664  1.00  0.00     0.040 A 
ATOM     62  C   UNL A   1      46.769  34.879  30.660  1.00  0.00     0.040 A 
ATOM     63  F   UNL A   1      46.526  32.619  31.234  1.00  0.00    -0.206 F 
ATOM     64  C   UNL A   1      46.526  35.942  29.793  1.00  0.00     0.006 A 
ENDBRANCH  43  57
BRANCH  44  65
ATOM     65  C   UNL A   1      41.285  24.368  27.625  1.00  0.00     0.057 A 
ATOM     66  C   UNL A   1      40.258  24.220  26.686  1.00  0.00     0.134 A 
ATOM     67  C   UNL A   1      41.707  23.217  28.303  1.00  0.00     0.134 A 
ATOM     68  F   UNL A   1      39.798  25.288  26.016  1.00  0.00    -0.206 F 
ATOM     69  C   UNL A   1      39.662  22.981  26.441  1.00  0.00     0.040 A 
ATOM     70  C   UNL A   1      41.140  21.967  28.049  1.00  0.00     0.040 A 
ATOM     71  F   UNL A   1      42.691  23.288  29.212  1.00  0.00    -0.206 F 
ATOM     72  C   UNL A   1      40.108  21.849  27.119  1.00  0.00     0.006 A 
ENDBRANCH  44  65
BRANCH  56  73
ATOM     73  C   UNL A   1      47.263  27.375  25.684  1.00  0.00     0.057 A 
ATOM     74  C   UNL A   1      48.324  26.667  26.263  1.00  0.00     0.134 A 
ATOM     75  C   UNL A   1      47.296  27.574  24.298  1.00  0.00     0.134 A 
ATOM     76  F   UNL A   1      48.358  26.455  27.588  1.00  0.00    -0.206 F 
ATOM     77  C   UNL A   1      49.393  26.203  25.496  1.00  0.00     0.040 A 
ATOM     78  C   UNL A   1      48.342  27.085  23.516  1.00  0.00     0.040 A 
ATOM     79  F   UNL A   1      46.304  28.233  23.680  1.00  0.00    -0.206 F 
ATOM     80  C   UNL A   1      49.399  26.405  24.117  1.00  0.00     0.006 A 
ENDBRANCH  56  73
ENDBRANCH  30  31
ENDBRANCH  23  25
ENDBRANCH  22  23
ENDBRANCH  21  22
ENDBRANCH   1  21
TORSDOF 15
ENDMDL
MODEL 3
REMARK VINA RESULT:     -10.4      1.463      2.335
REMARK SMILES Cc1ccc(OCC(=O)N[C@H](C)C(=O)OCCOC(=O)c2ccc(-c3c4nc(c(-c5c(F)cccc5F)c5ccc([nH]5)c(-c5c(F)cccc5F)c5nc(c(-c6c(F)cccc6F)c6ccc3[nH]6)C=C5)C=C4)cc2)c(Br)c1
REMARK SMILES IDX 16 1 15 2 13 3 14 4 11 5 12 6 10 7 8 8 9 9 7 11 6 12 5 13
REMARK SMILES IDX 1 14 2 15 3 16 77 17 4 18 75 19 76 20 17 21 18 22 19 23
REMARK SMILES IDX 20 24 21 25 22 26 74 27 23 28 73 29 24 30 25 31 26 32 67 33
REMARK SMILES IDX 27 34 72 35 66 36 68 37 28 38 71 39 65 40 64 41 29 43 55 44
REMARK SMILES IDX 38 45 54 46 39 47 42 48 53 49 69 50 40 51 41 52 52 54 70 55
REMARK SMILES IDX 43 56 30 57 31 58 36 59 32 60 33 61 35 62 37 63 34 64 56 65
REMARK SMILES IDX 57 66 62 67 58 68 59 69 61 70 63 71 60 72 44 73 45 74 50 75
REMARK SMILES IDX 46 76 47 77 49 78 51 79 48 80
REMARK H PARENT 10 10 68 42 42 53
REMARK Flexibility Score: inf
ROOT
ATOM      1  C   UNL A   1      45.730  21.504  25.082  1.00  0.00     0.274 C 
ENDROOT
BRANCH   1   2
ATOM      2  O   UNL A   1      45.234  20.236  25.559  1.00  0.00    -0.461 OA
BRANCH   2   3
ATOM      3  C   UNL A   1      44.231  19.635  24.876  1.00  0.00     0.328 C 
ATOM      4  O   UNL A   1      44.227  19.445  23.664  1.00  0.00    -0.250 OA
BRANCH   3   5
ATOM      5  C   UNL A   1      43.019  19.331  25.775  1.00  0.00     0.189 C 
ATOM      6  C   UNL A   1      42.838  17.882  26.212  1.00  0.00     0.043 C 
BRANCH   5   7
ATOM      7  N   UNL A   1      42.803  20.284  26.870  1.00  0.00    -0.340 N 
ATOM      8  C   UNL A   1      41.700  21.007  27.218  1.00  0.00     0.258 C 
ATOM      9  O   UNL A   1      41.834  21.898  28.061  1.00  0.00    -0.271 OA
ATOM     10  H   UNL A   1      43.586  20.426  27.450  1.00  0.00     0.164 HD
BRANCH   8  11
ATOM     11  C   UNL A   1      40.317  20.657  26.660  1.00  0.00     0.329 C 
BRANCH  11  12
ATOM     12  O   UNL A   1      39.824  21.550  25.674  1.00  0.00    -0.483 OA
BRANCH  12  13
ATOM     13  C   UNL A   1      38.474  21.732  25.567  1.00  0.00     0.134 A 
ATOM     14  C   UNL A   1      34.258  22.589  25.221  1.00  0.00     0.044 C 
ATOM     15  C   UNL A   1      35.713  22.267  25.355  1.00  0.00    -0.050 A 
ATOM     16  C   UNL A   1      36.236  21.052  24.914  1.00  0.00     0.007 A 
ATOM     17  C   UNL A   1      36.571  23.212  25.914  1.00  0.00     0.023 A 
ATOM     18  C   UNL A   1      37.603  20.787  25.020  1.00  0.00     0.048 A 
ATOM     19  C   UNL A   1      37.937  22.950  26.019  1.00  0.00     0.060 A 
ATOM     20  Br  UNL A   1      38.967  24.332  26.808  1.00  0.00    -0.047 Br
ENDBRANCH  12  13
ENDBRANCH  11  12
ENDBRANCH   8  11
ENDBRANCH   5   7
ENDBRANCH   3   5
ENDBRANCH   2   3
ENDBRANCH   1   2
BRANCH   1  21
ATOM     21  C   UNL A   1      45.665  22.534  26.210  1.00  0.00     0.275 C 
BRANCH  21  22
ATOM     22  O   UNL A   1      44.371  23.149  26.200  1.00  0.00    -0.458 OA
BRANCH  22  23
ATOM     23  C   UNL A   1      44.329  24.369  25.609  1.00  0.00     0.338 C 
ATOM     24  O   UNL A   1      44.545  24.655  24.451  1.00  0.00    -0.246 OA
BRANCH  23  25
ATOM     25  C   UNL A   1      43.701  25.279  26.575  1.00  0.00     0.060 A 
ATOM     26  C   UNL A   1      44.062  26.631  26.535  1.00  0.00     0.016 A 
ATOM     27  C   UNL A   1      42.742  24.810  27.469  1.00  0.00     0.016 A 
ATOM     28  C   UNL A   1      43.454  27.533  27.395  1.00  0.00     0.010 A 
ATOM     29  C   UNL A   1      42.148  25.707  28.346  1.00  0.00     0.010 A 
ATOM     30  C   UNL A   1      42.518  27.062  28.319  1.00  0.00    -0.014 A 
BRANCH  30  31
ATOM     31  C   UNL A   1      42.040  27.950  29.390  1.00  0.00     0.031 A 
ATOM     32  C   UNL A   1      42.781  27.935  30.689  1.00  0.00     0.074 A 
ATOM     33  C   UNL A   1      40.961  28.722  29.191  1.00  0.00     0.049 A 
ATOM     34  N   UNL A   1      42.477  28.504  31.824  1.00  0.00    -0.248 NA
ATOM     35  C   UNL A   1      44.032  27.157  30.716  1.00  0.00     0.031 C 
ATOM     36  C   UNL A   1      40.218  28.832  27.937  1.00  0.00     0.029 A 
ATOM     37  N   UNL A   1      40.296  29.549  30.054  1.00  0.00    -0.354 N 
ATOM     38  C   UNL A   1      43.485  28.134  32.704  1.00  0.00     0.074 A 
ATOM     39  C   UNL A   1      44.391  27.268  31.984  1.00  0.00     0.031 C 
ATOM     40  C   UNL A   1      39.186  29.673  28.116  1.00  0.00     0.029 A 
ATOM     41  C   UNL A   1      39.174  30.116  29.507  1.00  0.00     0.049 A 
ATOM     42  H   UNL A   1      40.594  29.719  30.977  1.00  0.00     0.167 HD
ATOM     43  C   UNL A   1      43.634  28.494  34.000  1.00  0.00     0.037 A 
ATOM     44  C   UNL A   1      38.233  30.880  30.088  1.00  0.00     0.037 A 
ATOM     45  C   UNL A   1      42.707  29.353  34.688  1.00  0.00     0.049 A 
ATOM     46  C   UNL A   1      38.380  31.208  31.550  1.00  0.00     0.074 A 
ATOM     47  C   UNL A   1      42.742  29.791  35.998  1.00  0.00     0.029 A 
ATOM     48  N   UNL A   1      41.568  29.900  34.110  1.00  0.00    -0.354 N 
ATOM     49  N   UNL A   1      39.329  30.857  32.385  1.00  0.00    -0.248 NA
ATOM     50  C   UNL A   1      37.325  32.033  32.149  1.00  0.00     0.031 C 
ATOM     51  C   UNL A   1      41.598  30.563  36.226  1.00  0.00     0.029 A 
ATOM     52  C   UNL A   1      40.881  30.655  35.042  1.00  0.00     0.049 A 
ATOM     53  H   UNL A   1      41.291  29.768  33.174  1.00  0.00     0.167 HD
ATOM     54  C   UNL A   1      39.006  31.443  33.601  1.00  0.00     0.074 A 
ATOM     55  C   UNL A   1      37.777  32.184  33.386  1.00  0.00     0.031 C 
ATOM     56  C   UNL A   1      39.661  31.383  34.788  1.00  0.00     0.037 A 
BRANCH  43  57
ATOM     57  C   UNL A   1      44.809  27.927  34.740  1.00  0.00     0.057 A 
ATOM     58  C   UNL A   1      44.736  26.714  35.440  1.00  0.00     0.134 A 
ATOM     59  C   UNL A   1      46.031  28.613  34.769  1.00  0.00     0.134 A 
ATOM     60  F   UNL A   1      43.589  26.018  35.474  1.00  0.00    -0.206 F 
ATOM     61  C   UNL A   1      45.823  26.221  36.165  1.00  0.00     0.040 A 
ATOM     62  C   UNL A   1      47.132  28.115  35.466  1.00  0.00     0.040 A 
ATOM     63  F   UNL A   1      46.172  29.781  34.125  1.00  0.00    -0.206 F 
ATOM     64  C   UNL A   1      47.027  26.921  36.175  1.00  0.00     0.006 A 
ENDBRANCH  43  57
BRANCH  44  65
ATOM     65  C   UNL A   1      37.082  31.379  29.294  1.00  0.00     0.057 A 
ATOM     66  C   UNL A   1      37.075  32.677  28.771  1.00  0.00     0.134 A 
ATOM     67  C   UNL A   1      35.965  30.575  29.034  1.00  0.00     0.134 A 
ATOM     68  F   UNL A   1      38.109  33.502  29.000  1.00  0.00    -0.206 F 
ATOM     69  C   UNL A   1      35.995  33.164  28.032  1.00  0.00     0.040 A 
ATOM     70  C   UNL A   1      34.889  31.039  28.274  1.00  0.00     0.040 A 
ATOM     71  F   UNL A   1      35.909  29.319  29.501  1.00  0.00    -0.206 F 
ATOM     72  C   UNL A   1      34.901  32.341  27.777  1.00  0.00     0.006 A 
ENDBRANCH  44  65
BRANCH  56  73
ATOM     73  C   UNL A   1      39.080  32.175  35.922  1.00  0.00     0.057 A 
ATOM     74  C   UNL A   1      38.188  31.611  36.842  1.00  0.00     0.134 A 
ATOM     75  C   UNL A   1      39.450  33.513  36.112  1.00  0.00     0.134 A 
ATOM     76  F   UNL A   1      37.785  30.338  36.708  1.00  0.00    -0.206 F 
ATOM     77  C   UNL A   1      37.659  32.360  37.894  1.00  0.00     0.040 A 
ATOM     78  C   UNL A   1      38.953  34.261  37.178  1.00  0.00     0.040 A 
ATOM     79  F   UNL A   1      40.311  34.108  35.274  1.00  0.00    -0.206 F 
ATOM     80  C   UNL A   1      38.047  33.687  38.068  1.00  0.00     0.006 A 
ENDBRANCH  56  73
ENDBRANCH  30  31
ENDBRANCH  23  25
ENDBRANCH  22  23
ENDBRANCH  21  22
ENDBRANCH   1  21
TORSDOF 15
ENDMDL
