MODEL 1
REMARK VINA RESULT:     -10.6      0.000      0.000
REMARK SMILES Cc1ccc(-c2nn(CCC(=O)OCCOC(=O)c3ccc(-c4c5nc(c(-c6c(F)cccc6F)c6ccc([nH]6)c(-c6c(F)cccc6F)c6nc(c(-c7c(F)cccc7F)c7ccc4[nH]7)C=C6)C=C5)cc3)c(=O)c3noc(C)c23)cc1C
REMARK SMILES IDX 14 1 13 2 11 3 12 4 10 5 9 6 8 7 6 8 7 9 80 10 75 11 78 12
REMARK SMILES IDX 73 13 76 14 77 15 79 16 74 17 5 18 1 19 2 20 3 21 82 22 4 23
REMARK SMILES IDX 81 24 83 25 15 26 16 27 17 28 18 29 19 30 20 31 72 32 21 33
REMARK SMILES IDX 71 34 22 35 23 36 24 37 65 38 25 39 70 40 64 41 66 42 26 43
REMARK SMILES IDX 69 44 63 45 62 46 27 48 53 49 36 50 52 51 37 52 40 53 51 54
REMARK SMILES IDX 67 55 38 56 39 57 50 59 68 60 41 61 28 62 29 63 34 64 30 65
REMARK SMILES IDX 31 66 33 67 35 68 32 69 54 70 55 71 60 72 56 73 57 74 59 75
REMARK SMILES IDX 61 76 58 77 42 78 43 79 48 80 44 81 45 82 47 83 49 84 46 85
REMARK H PARENT 66 47 40 58
REMARK Flexibility Score: inf
ROOT
ATOM      1  C   UNL A   1      41.342  25.821  36.586  1.00  0.00     0.274 C 
ENDROOT
BRANCH   1   2
ATOM      2  O   UNL A   1      41.201  26.337  35.250  1.00  0.00    -0.462 OA
BRANCH   2   3
ATOM      3  C   UNL A   1      41.711  27.566  35.010  1.00  0.00     0.307 C 
ATOM      4  O   UNL A   1      42.608  28.096  35.652  1.00  0.00    -0.252 OA
BRANCH   3   5
ATOM      5  C   UNL A   1      41.007  28.256  33.869  1.00  0.00     0.146 C 
BRANCH   5   6
ATOM      6  C   UNL A   1      41.254  29.763  33.806  1.00  0.00     0.160 C 
BRANCH   6   7
ATOM      7  N   UNL A   1      40.033  30.539  34.023  1.00  0.00    -0.227 N 
ATOM      8  C   UNL A   1      38.478  31.958  32.976  1.00  0.00     0.104 A 
ATOM      9  N   UNL A   1      39.512  31.169  32.883  1.00  0.00    -0.169 NA
ATOM     10  C   UNL A   1      37.921  32.253  34.267  1.00  0.00     0.078 A 
ATOM     11  C   UNL A   1      38.386  31.563  35.396  1.00  0.00     0.183 A 
ATOM     12  C   UNL A   1      36.946  33.089  34.757  1.00  0.00     0.143 A 
ATOM     13  C   UNL A   1      39.432  30.577  35.297  1.00  0.00     0.296 A 
ATOM     14  N   UNL A   1      37.765  31.948  36.515  1.00  0.00    -0.074 NA
ATOM     15  O   UNL A   1      36.861  32.914  36.110  1.00  0.00    -0.360 OA
ATOM     16  C   UNL A   1      36.017  34.086  34.201  1.00  0.00     0.091 C 
ATOM     17  O   UNL A   1      39.764  29.873  36.251  1.00  0.00    -0.265 OA
BRANCH   8  18
ATOM     18  C   UNL A   1      37.836  32.455  31.753  1.00  0.00     0.003 A 
ATOM     19  C   UNL A   1      36.185  33.780  28.009  1.00  0.00     0.044 C 
ATOM     20  C   UNL A   1      36.724  33.322  29.338  1.00  0.00    -0.048 A 
ATOM     21  C   UNL A   1      38.084  33.538  29.617  1.00  0.00     0.004 A 
ATOM     22  C   UNL A   1      35.908  32.688  30.299  1.00  0.00    -0.048 A 
ATOM     23  C   UNL A   1      38.639  33.108  30.820  1.00  0.00     0.011 A 
ATOM     24  C   UNL A   1      36.475  32.271  31.516  1.00  0.00     0.014 A 
ATOM     25  C   UNL A   1      34.445  32.413  30.083  1.00  0.00     0.044 C 
ENDBRANCH   8  18
ENDBRANCH   6   7
ENDBRANCH   5   6
ENDBRANCH   3   5
ENDBRANCH   2   3
ENDBRANCH   1   2
BRANCH   1  26
ATOM     26  C   UNL A   1      42.518  24.850  36.706  1.00  0.00     0.275 C 
BRANCH  26  27
ATOM     27  O   UNL A   1      42.487  23.872  35.647  1.00  0.00    -0.458 OA
BRANCH  27  28
ATOM     28  C   UNL A   1      43.687  23.608  35.091  1.00  0.00     0.338 C 
ATOM     29  O   UNL A   1      44.563  22.864  35.508  1.00  0.00    -0.246 OA
BRANCH  28  30
ATOM     30  C   UNL A   1      43.929  24.405  33.888  1.00  0.00     0.060 A 
ATOM     31  C   UNL A   1      43.797  23.886  32.596  1.00  0.00     0.016 A 
ATOM     32  C   UNL A   1      44.513  25.651  34.105  1.00  0.00     0.016 A 
ATOM     33  C   UNL A   1      44.286  24.621  31.510  1.00  0.00     0.010 A 
ATOM     34  C   UNL A   1      44.995  26.377  33.027  1.00  0.00     0.010 A 
ATOM     35  C   UNL A   1      44.887  25.871  31.723  1.00  0.00    -0.014 A 
BRANCH  35  36
ATOM     36  C   UNL A   1      45.324  26.701  30.581  1.00  0.00     0.031 A 
ATOM     37  C   UNL A   1      45.375  25.958  29.288  1.00  0.00     0.074 A 
ATOM     38  C   UNL A   1      45.138  28.037  30.522  1.00  0.00     0.049 A 
ATOM     39  N   UNL A   1      44.298  25.713  28.601  1.00  0.00    -0.248 NA
ATOM     40  C   UNL A   1      46.549  25.214  28.838  1.00  0.00     0.031 C 
ATOM     41  C   UNL A   1      44.204  28.778  31.374  1.00  0.00     0.029 A 
ATOM     42  N   UNL A   1      45.531  28.955  29.570  1.00  0.00    -0.354 N 
ATOM     43  C   UNL A   1      44.605  24.710  27.710  1.00  0.00     0.074 A 
ATOM     44  C   UNL A   1      46.026  24.472  27.847  1.00  0.00     0.031 C 
ATOM     45  C   UNL A   1      43.950  29.972  30.799  1.00  0.00     0.029 A 
ATOM     46  C   UNL A   1      44.811  30.150  29.631  1.00  0.00     0.049 A 
ATOM     47  H   UNL A   1      46.246  28.786  28.915  1.00  0.00     0.167 HD
ATOM     48  C   UNL A   1      43.662  24.092  26.954  1.00  0.00     0.037 A 
ATOM     49  C   UNL A   1      44.461  30.924  28.566  1.00  0.00     0.037 A 
ATOM     50  C   UNL A   1      42.306  24.491  27.176  1.00  0.00     0.049 A 
ATOM     51  C   UNL A   1      43.596  29.998  27.753  1.00  0.00     0.074 A 
ATOM     52  C   UNL A   1      41.252  24.069  27.960  1.00  0.00     0.029 A 
ATOM     53  N   UNL A   1      41.849  25.632  26.561  1.00  0.00    -0.354 N 
ATOM     54  N   UNL A   1      42.334  29.738  27.952  1.00  0.00    -0.248 NA
ATOM     55  C   UNL A   1      44.272  29.093  26.822  1.00  0.00     0.031 C 
ATOM     56  C   UNL A   1      40.409  25.212  28.121  1.00  0.00     0.029 A 
ATOM     57  C   UNL A   1      41.039  26.269  27.468  1.00  0.00     0.049 A 
ATOM     58  H   UNL A   1      42.063  25.932  25.648  1.00  0.00     0.167 HD
ATOM     59  C   UNL A   1      42.123  28.485  27.375  1.00  0.00     0.074 A 
ATOM     60  C   UNL A   1      43.343  28.164  26.664  1.00  0.00     0.031 C 
ATOM     61  C   UNL A   1      41.045  27.700  27.658  1.00  0.00     0.037 A 
BRANCH  48  62
ATOM     62  C   UNL A   1      43.973  23.142  25.879  1.00  0.00     0.057 A 
ATOM     63  C   UNL A   1      43.672  21.792  26.084  1.00  0.00     0.134 A 
ATOM     64  C   UNL A   1      44.724  23.490  24.758  1.00  0.00     0.134 A 
ATOM     65  F   UNL A   1      42.974  21.415  27.169  1.00  0.00    -0.206 F 
ATOM     66  C   UNL A   1      44.131  20.806  25.218  1.00  0.00     0.040 A 
ATOM     67  C   UNL A   1      45.188  22.511  23.878  1.00  0.00     0.040 A 
ATOM     68  F   UNL A   1      45.055  24.769  24.526  1.00  0.00    -0.206 F 
ATOM     69  C   UNL A   1      44.901  21.164  24.114  1.00  0.00     0.006 A 
ENDBRANCH  48  62
BRANCH  49  70
ATOM     70  C   UNL A   1      45.533  31.753  27.924  1.00  0.00     0.057 A 
ATOM     71  C   UNL A   1      45.238  33.045  27.453  1.00  0.00     0.134 A 
ATOM     72  C   UNL A   1      46.843  31.308  27.688  1.00  0.00     0.134 A 
ATOM     73  F   UNL A   1      43.988  33.529  27.518  1.00  0.00    -0.206 F 
ATOM     74  C   UNL A   1      46.210  33.879  26.886  1.00  0.00     0.040 A 
ATOM     75  C   UNL A   1      47.832  32.138  27.146  1.00  0.00     0.040 A 
ATOM     76  F   UNL A   1      47.214  30.053  27.977  1.00  0.00    -0.206 F 
ATOM     77  C   UNL A   1      47.520  33.434  26.756  1.00  0.00     0.006 A 
ENDBRANCH  49  70
BRANCH  61  78
ATOM     78  C   UNL A   1      39.961  28.346  28.448  1.00  0.00     0.057 A 
ATOM     79  C   UNL A   1      38.987  29.114  27.806  1.00  0.00     0.134 A 
ATOM     80  C   UNL A   1      39.847  28.172  29.833  1.00  0.00     0.134 A 
ATOM     81  F   UNL A   1      39.037  29.310  26.478  1.00  0.00    -0.206 F 
ATOM     82  C   UNL A   1      37.917  29.669  28.512  1.00  0.00     0.040 A 
ATOM     83  C   UNL A   1      38.774  28.708  30.547  1.00  0.00     0.040 A 
ATOM     84  F   UNL A   1      40.755  27.455  30.513  1.00  0.00    -0.206 F 
ATOM     85  C   UNL A   1      37.803  29.457  29.885  1.00  0.00     0.006 A 
ENDBRANCH  61  78
ENDBRANCH  35  36
ENDBRANCH  28  30
ENDBRANCH  27  28
ENDBRANCH  26  27
ENDBRANCH   1  26
TORSDOF 14
ENDMDL
MODEL 2
REMARK VINA RESULT:     -10.3      4.770      9.445
REMARK SMILES Cc1ccc(-c2nn(CCC(=O)OCCOC(=O)c3ccc(-c4c5nc(c(-c6c(F)cccc6F)c6ccc([nH]6)c(-c6c(F)cccc6F)c6nc(c(-c7c(F)cccc7F)c7ccc4[nH]7)C=C6)C=C5)cc3)c(=O)c3noc(C)c23)cc1C
REMARK SMILES IDX 14 1 13 2 11 3 12 4 10 5 9 6 8 7 6 8 7 9 80 10 75 11 78 12
REMARK SMILES IDX 73 13 76 14 77 15 79 16 74 17 5 18 1 19 2 20 3 21 82 22 4 23
REMARK SMILES IDX 81 24 83 25 15 26 16 27 17 28 18 29 19 30 20 31 72 32 21 33
REMARK SMILES IDX 71 34 22 35 23 36 24 37 65 38 25 39 70 40 64 41 66 42 26 43
REMARK SMILES IDX 69 44 63 45 62 46 27 48 53 49 36 50 52 51 37 52 40 53 51 54
REMARK SMILES IDX 67 55 38 56 39 57 50 59 68 60 41 61 28 62 29 63 34 64 30 65
REMARK SMILES IDX 31 66 33 67 35 68 32 69 54 70 55 71 60 72 56 73 57 74 59 75
REMARK SMILES IDX 61 76 58 77 42 78 43 79 48 80 44 81 45 82 47 83 49 84 46 85
REMARK H PARENT 66 47 40 58
REMARK Flexibility Score: inf
ROOT
ATOM      1  C   UNL A   1      36.240  31.749  30.157  1.00  0.00     0.274 C 
ENDROOT
BRANCH   1   2
ATOM      2  O   UNL A   1      35.848  30.829  29.123  1.00  0.00    -0.462 OA
BRANCH   2   3
ATOM      3  C   UNL A   1      35.053  31.311  28.141  1.00  0.00     0.307 C 
ATOM      4  O   UNL A   1      34.836  32.498  27.927  1.00  0.00    -0.252 OA
BRANCH   3   5
ATOM      5  C   UNL A   1      34.404  30.208  27.345  1.00  0.00     0.146 C 
BRANCH   5   6
ATOM      6  C   UNL A   1      32.976  30.518  26.901  1.00  0.00     0.160 C 
BRANCH   6   7
ATOM      7  N   UNL A   1      32.455  29.527  25.959  1.00  0.00    -0.227 N 
ATOM      8  C   UNL A   1      32.708  27.315  25.203  1.00  0.00     0.104 A 
ATOM      9  N   UNL A   1      33.032  28.251  26.051  1.00  0.00    -0.169 NA
ATOM     10  C   UNL A   1      31.820  27.616  24.115  1.00  0.00     0.078 A 
ATOM     11  C   UNL A   1      31.178  28.862  24.068  1.00  0.00     0.183 A 
ATOM     12  C   UNL A   1      31.353  26.952  23.006  1.00  0.00     0.143 A 
ATOM     13  C   UNL A   1      31.410  29.865  25.077  1.00  0.00     0.296 A 
ATOM     14  N   UNL A   1      30.384  28.983  23.001  1.00  0.00    -0.074 NA
ATOM     15  O   UNL A   1      30.499  27.778  22.330  1.00  0.00    -0.360 OA
ATOM     16  C   UNL A   1      31.546  25.627  22.395  1.00  0.00     0.091 C 
ATOM     17  O   UNL A   1      30.763  30.912  25.123  1.00  0.00    -0.265 OA
BRANCH   8  18
ATOM     18  C   UNL A   1      33.177  25.942  25.429  1.00  0.00     0.003 A 
ATOM     19  C   UNL A   1      34.824  22.041  26.179  1.00  0.00     0.044 C 
ATOM     20  C   UNL A   1      34.207  23.389  25.918  1.00  0.00    -0.048 A 
ATOM     21  C   UNL A   1      34.931  24.317  25.152  1.00  0.00     0.004 A 
ATOM     22  C   UNL A   1      32.936  23.742  26.421  1.00  0.00    -0.048 A 
ATOM     23  C   UNL A   1      34.420  25.589  24.905  1.00  0.00     0.011 A 
ATOM     24  C   UNL A   1      32.422  25.023  26.154  1.00  0.00     0.014 A 
ATOM     25  C   UNL A   1      32.095  22.814  27.254  1.00  0.00     0.044 C 
ENDBRANCH   8  18
ENDBRANCH   6   7
ENDBRANCH   5   6
ENDBRANCH   3   5
ENDBRANCH   2   3
ENDBRANCH   1   2
BRANCH   1  26
ATOM     26  C   UNL A   1      36.306  31.076  31.530  1.00  0.00     0.275 C 
BRANCH  26  27
ATOM     27  O   UNL A   1      36.274  29.641  31.401  1.00  0.00    -0.458 OA
BRANCH  27  28
ATOM     28  C   UNL A   1      37.378  29.012  31.854  1.00  0.00     0.338 C 
ATOM     29  O   UNL A   1      37.669  28.741  33.011  1.00  0.00    -0.246 OA
BRANCH  28  30
ATOM     30  C   UNL A   1      38.331  28.721  30.783  1.00  0.00     0.060 A 
ATOM     31  C   UNL A   1      37.933  28.419  29.476  1.00  0.00     0.016 A 
ATOM     32  C   UNL A   1      39.652  28.545  31.189  1.00  0.00     0.016 A 
ATOM     33  C   UNL A   1      38.873  27.906  28.576  1.00  0.00     0.010 A 
ATOM     34  C   UNL A   1      40.580  28.038  30.295  1.00  0.00     0.010 A 
ATOM     35  C   UNL A   1      40.202  27.713  28.983  1.00  0.00    -0.014 A 
BRANCH  35  36
ATOM     36  C   UNL A   1      41.227  27.261  28.020  1.00  0.00     0.031 A 
ATOM     37  C   UNL A   1      42.134  28.352  27.558  1.00  0.00     0.074 A 
ATOM     38  C   UNL A   1      41.708  25.999  27.986  1.00  0.00     0.049 A 
ATOM     39  N   UNL A   1      43.119  28.776  28.295  1.00  0.00    -0.248 NA
ATOM     40  C   UNL A   1      41.836  29.210  26.414  1.00  0.00     0.031 C 
ATOM     41  C   UNL A   1      41.555  25.029  29.074  1.00  0.00     0.029 A 
ATOM     42  N   UNL A   1      42.611  25.407  27.128  1.00  0.00    -0.354 N 
ATOM     43  C   UNL A   1      43.502  30.001  27.796  1.00  0.00     0.074 A 
ATOM     44  C   UNL A   1      42.722  30.204  26.593  1.00  0.00     0.031 C 
ATOM     45  C   UNL A   1      42.475  24.055  28.916  1.00  0.00     0.029 A 
ATOM     46  C   UNL A   1      43.174  24.240  27.645  1.00  0.00     0.049 A 
ATOM     47  H   UNL A   1      42.835  25.770  26.241  1.00  0.00     0.167 HD
ATOM     48  C   UNL A   1      44.392  30.803  28.433  1.00  0.00     0.037 A 
ATOM     49  C   UNL A   1      44.449  23.809  27.434  1.00  0.00     0.037 A 
ATOM     50  C   UNL A   1      44.874  30.340  29.699  1.00  0.00     0.049 A 
ATOM     51  C   UNL A   1      45.276  24.923  28.019  1.00  0.00     0.074 A 
ATOM     52  C   UNL A   1      44.525  30.500  31.024  1.00  0.00     0.029 A 
ATOM     53  N   UNL A   1      45.900  29.426  29.715  1.00  0.00    -0.354 N 
ATOM     54  N   UNL A   1      45.566  25.098  29.279  1.00  0.00    -0.248 NA
ATOM     55  C   UNL A   1      45.563  26.070  27.156  1.00  0.00     0.031 C 
ATOM     56  C   UNL A   1      45.040  29.350  31.699  1.00  0.00     0.029 A 
ATOM     57  C   UNL A   1      45.620  28.540  30.725  1.00  0.00     0.049 A 
ATOM     58  H   UNL A   1      46.682  29.410  29.117  1.00  0.00     0.167 HD
ATOM     59  C   UNL A   1      45.826  26.463  29.408  1.00  0.00     0.074 A 
ATOM     60  C   UNL A   1      45.847  26.994  28.061  1.00  0.00     0.031 C 
ATOM     61  C   UNL A   1      45.828  27.117  30.604  1.00  0.00     0.037 A 
BRANCH  48  62
ATOM     62  C   UNL A   1      44.946  32.030  27.849  1.00  0.00     0.057 A 
ATOM     63  C   UNL A   1      46.120  31.930  27.094  1.00  0.00     0.134 A 
ATOM     64  C   UNL A   1      44.474  33.301  28.173  1.00  0.00     0.134 A 
ATOM     65  F   UNL A   1      46.620  30.721  26.786  1.00  0.00    -0.206 F 
ATOM     66  C   UNL A   1      46.825  33.059  26.696  1.00  0.00     0.040 A 
ATOM     67  C   UNL A   1      45.170  34.443  27.776  1.00  0.00     0.040 A 
ATOM     68  F   UNL A   1      43.364  33.450  28.911  1.00  0.00    -0.206 F 
ATOM     69  C   UNL A   1      46.355  34.323  27.046  1.00  0.00     0.006 A 
ENDBRANCH  48  62
BRANCH  49  70
ATOM     70  C   UNL A   1      44.774  23.219  26.095  1.00  0.00     0.057 A 
ATOM     71  C   UNL A   1      46.112  23.127  25.670  1.00  0.00     0.134 A 
ATOM     72  C   UNL A   1      43.814  22.788  25.166  1.00  0.00     0.134 A 
ATOM     73  F   UNL A   1      47.105  23.618  26.427  1.00  0.00    -0.206 F 
ATOM     74  C   UNL A   1      46.475  22.545  24.450  1.00  0.00     0.040 A 
ATOM     75  C   UNL A   1      44.163  22.181  23.953  1.00  0.00     0.040 A 
ATOM     76  F   UNL A   1      42.503  22.938  25.399  1.00  0.00    -0.206 F 
ATOM     77  C   UNL A   1      45.498  22.045  23.597  1.00  0.00     0.006 A 
ENDBRANCH  49  70
BRANCH  61  78
ATOM     78  C   UNL A   1      45.766  26.254  31.815  1.00  0.00     0.057 A 
ATOM     79  C   UNL A   1      44.533  25.820  32.307  1.00  0.00     0.134 A 
ATOM     80  C   UNL A   1      46.922  25.808  32.469  1.00  0.00     0.134 A 
ATOM     81  F   UNL A   1      43.390  26.206  31.717  1.00  0.00    -0.206 F 
ATOM     82  C   UNL A   1      44.449  24.949  33.395  1.00  0.00     0.040 A 
ATOM     83  C   UNL A   1      46.852  24.925  33.548  1.00  0.00     0.040 A 
ATOM     84  F   UNL A   1      48.139  26.195  32.056  1.00  0.00    -0.206 F 
ATOM     85  C   UNL A   1      45.612  24.490  34.011  1.00  0.00     0.006 A 
ENDBRANCH  61  78
ENDBRANCH  35  36
ENDBRANCH  28  30
ENDBRANCH  27  28
ENDBRANCH  26  27
ENDBRANCH   1  26
TORSDOF 14
ENDMDL
MODEL 3
REMARK VINA RESULT:     -10.2     12.159     18.314
REMARK SMILES Cc1ccc(-c2nn(CCC(=O)OCCOC(=O)c3ccc(-c4c5nc(c(-c6c(F)cccc6F)c6ccc([nH]6)c(-c6c(F)cccc6F)c6nc(c(-c7c(F)cccc7F)c7ccc4[nH]7)C=C6)C=C5)cc3)c(=O)c3noc(C)c23)cc1C
REMARK SMILES IDX 14 1 13 2 11 3 12 4 10 5 9 6 8 7 6 8 7 9 80 10 75 11 78 12
REMARK SMILES IDX 73 13 76 14 77 15 79 16 74 17 5 18 1 19 2 20 3 21 82 22 4 23
REMARK SMILES IDX 81 24 83 25 15 26 16 27 17 28 18 29 19 30 20 31 72 32 21 33
REMARK SMILES IDX 71 34 22 35 23 36 24 37 65 38 25 39 70 40 64 41 66 42 26 43
REMARK SMILES IDX 69 44 63 45 62 46 27 48 53 49 36 50 52 51 37 52 40 53 51 54
REMARK SMILES IDX 67 55 38 56 39 57 50 59 68 60 41 61 28 62 29 63 34 64 30 65
REMARK SMILES IDX 31 66 33 67 35 68 32 69 54 70 55 71 60 72 56 73 57 74 59 75
REMARK SMILES IDX 61 76 58 77 42 78 43 79 48 80 44 81 45 82 47 83 49 84 46 85
REMARK H PARENT 66 47 40 58
REMARK Flexibility Score: inf
ROOT
ATOM      1  C   UNL A   1      42.346  42.784  20.118  1.00  0.00     0.274 C 
ENDROOT
BRANCH   1   2
ATOM      2  O   UNL A   1      41.766  44.088  19.937  1.00  0.00    -0.462 OA
BRANCH   2   3
ATOM      3  C   UNL A   1      41.014  44.277  18.829  1.00  0.00     0.307 C 
ATOM      4  O   UNL A   1      39.821  44.017  18.733  1.00  0.00    -0.252 OA
BRANCH   3   5
ATOM      5  C   UNL A   1      41.829  44.808  17.677  1.00  0.00     0.146 C 
BRANCH   5   6
ATOM      6  C   UNL A   1      41.538  46.267  17.328  1.00  0.00     0.160 C 
BRANCH   6   7
ATOM      7  N   UNL A   1      42.705  47.129  17.513  1.00  0.00    -0.227 N 
ATOM      8  C   UNL A   1      44.698  47.386  18.733  1.00  0.00     0.104 A 
ATOM      9  N   UNL A   1      43.662  46.657  18.425  1.00  0.00    -0.169 NA
ATOM     10  C   UNL A   1      44.818  48.715  18.204  1.00  0.00     0.078 A 
ATOM     11  C   UNL A   1      43.910  49.158  17.231  1.00  0.00     0.183 A 
ATOM     12  C   UNL A   1      45.671  49.778  18.379  1.00  0.00     0.143 A 
ATOM     13  C   UNL A   1      42.837  48.316  16.765  1.00  0.00     0.296 A 
ATOM     14  N   UNL A   1      44.159  50.411  16.838  1.00  0.00    -0.074 NA
ATOM     15  O   UNL A   1      45.268  50.801  17.568  1.00  0.00    -0.360 OA
ATOM     16  C   UNL A   1      46.859  50.069  19.199  1.00  0.00     0.091 C 
ATOM     17  O   UNL A   1      42.109  48.638  15.825  1.00  0.00    -0.265 OA
BRANCH   8  18
ATOM     18  C   UNL A   1      45.778  46.801  19.539  1.00  0.00     0.003 A 
ATOM     19  C   UNL A   1      48.722  44.973  22.085  1.00  0.00     0.044 C 
ATOM     20  C   UNL A   1      47.721  45.615  21.162  1.00  0.00    -0.048 A 
ATOM     21  C   UNL A   1      46.695  46.391  21.726  1.00  0.00     0.004 A 
ATOM     22  C   UNL A   1      47.786  45.458  19.761  1.00  0.00    -0.048 A 
ATOM     23  C   UNL A   1      45.727  46.984  20.919  1.00  0.00     0.011 A 
ATOM     24  C   UNL A   1      46.812  46.073  18.954  1.00  0.00     0.014 A 
ATOM     25  C   UNL A   1      48.846  44.642  19.073  1.00  0.00     0.044 C 
ENDBRANCH   8  18
ENDBRANCH   6   7
ENDBRANCH   5   6
ENDBRANCH   3   5
ENDBRANCH   2   3
ENDBRANCH   1   2
BRANCH   1  26
ATOM     26  C   UNL A   1      43.645  42.840  20.925  1.00  0.00     0.275 C 
BRANCH  26  27
ATOM     27  O   UNL A   1      43.708  44.044  21.714  1.00  0.00    -0.458 OA
BRANCH  27  28
ATOM     28  C   UNL A   1      43.237  43.917  22.972  1.00  0.00     0.338 C 
ATOM     29  O   UNL A   1      42.127  44.210  23.393  1.00  0.00    -0.246 OA
BRANCH  28  30
ATOM     30  C   UNL A   1      44.259  43.437  23.902  1.00  0.00     0.060 A 
ATOM     31  C   UNL A   1      45.612  43.769  23.779  1.00  0.00     0.016 A 
ATOM     32  C   UNL A   1      43.841  42.449  24.791  1.00  0.00     0.016 A 
ATOM     33  C   UNL A   1      46.559  43.077  24.542  1.00  0.00     0.010 A 
ATOM     34  C   UNL A   1      44.781  41.767  25.546  1.00  0.00     0.010 A 
ATOM     35  C   UNL A   1      46.146  42.072  25.429  1.00  0.00    -0.014 A 
BRANCH  35  36
ATOM     36  C   UNL A   1      47.121  41.396  26.310  1.00  0.00     0.031 A 
ATOM     37  C   UNL A   1      47.126  41.919  27.707  1.00  0.00     0.074 A 
ATOM     38  C   UNL A   1      47.531  40.122  26.123  1.00  0.00     0.049 A 
ATOM     39  N   UNL A   1      46.217  41.568  28.569  1.00  0.00    -0.248 NA
ATOM     40  C   UNL A   1      47.943  43.052  28.135  1.00  0.00     0.031 C 
ATOM     41  C   UNL A   1      46.838  39.150  25.273  1.00  0.00     0.029 A 
ATOM     42  N   UNL A   1      48.463  39.372  26.808  1.00  0.00    -0.354 N 
ATOM     43  C   UNL A   1      46.254  42.485  29.594  1.00  0.00     0.074 A 
ATOM     44  C   UNL A   1      47.379  43.352  29.316  1.00  0.00     0.031 C 
ATOM     45  C   UNL A   1      47.237  37.910  25.625  1.00  0.00     0.029 A 
ATOM     46  C   UNL A   1      48.317  37.999  26.606  1.00  0.00     0.049 A 
ATOM     47  H   UNL A   1      49.161  39.764  27.381  1.00  0.00     0.167 HD
ATOM     48  C   UNL A   1      45.321  42.516  30.580  1.00  0.00     0.037 A 
ATOM     49  C   UNL A   1      48.558  37.027  27.529  1.00  0.00     0.037 A 
ATOM     50  C   UNL A   1      44.244  41.579  30.467  1.00  0.00     0.049 A 
ATOM     51  C   UNL A   1      47.577  37.358  28.622  1.00  0.00     0.074 A 
ATOM     52  C   UNL A   1      42.972  41.573  29.935  1.00  0.00     0.029 A 
ATOM     53  N   UNL A   1      44.450  40.290  30.896  1.00  0.00    -0.354 N 
ATOM     54  N   UNL A   1      46.312  37.044  28.653  1.00  0.00    -0.248 NA
ATOM     55  C   UNL A   1      47.989  38.351  29.616  1.00  0.00     0.031 C 
ATOM     56  C   UNL A   1      42.675  40.201  29.662  1.00  0.00     0.029 A 
ATOM     57  C   UNL A   1      43.813  39.471  29.997  1.00  0.00     0.049 A 
ATOM     58  H   UNL A   1      44.957  40.010  31.692  1.00  0.00     0.167 HD
ATOM     59  C   UNL A   1      45.720  37.988  29.493  1.00  0.00     0.074 A 
ATOM     60  C   UNL A   1      46.811  38.735  30.083  1.00  0.00     0.031 C 
ATOM     61  C   UNL A   1      44.379  38.231  29.524  1.00  0.00     0.037 A 
BRANCH  48  62
ATOM     62  C   UNL A   1      45.422  43.366  31.772  1.00  0.00     0.057 A 
ATOM     63  C   UNL A   1      46.223  42.923  32.831  1.00  0.00     0.134 A 
ATOM     64  C   UNL A   1      44.614  44.482  31.975  1.00  0.00     0.134 A 
ATOM     65  F   UNL A   1      46.994  41.833  32.681  1.00  0.00    -0.206 F 
ATOM     66  C   UNL A   1      46.199  43.551  34.071  1.00  0.00     0.040 A 
ATOM     67  C   UNL A   1      44.584  45.125  33.214  1.00  0.00     0.040 A 
ATOM     68  F   UNL A   1      43.815  44.935  30.998  1.00  0.00    -0.206 F 
ATOM     69  C   UNL A   1      45.369  44.652  34.268  1.00  0.00     0.006 A 
ENDBRANCH  48  62
BRANCH  49  70
ATOM     70  C   UNL A   1      49.988  36.699  27.840  1.00  0.00     0.057 A 
ATOM     71  C   UNL A   1      51.002  37.017  26.918  1.00  0.00     0.134 A 
ATOM     72  C   UNL A   1      50.411  36.019  28.992  1.00  0.00     0.134 A 
ATOM     73  F   UNL A   1      50.699  37.562  25.729  1.00  0.00    -0.206 F 
ATOM     74  C   UNL A   1      52.356  36.775  27.176  1.00  0.00     0.040 A 
ATOM     75  C   UNL A   1      51.764  35.791  29.276  1.00  0.00     0.040 A 
ATOM     76  F   UNL A   1      49.531  35.551  29.887  1.00  0.00    -0.206 F 
ATOM     77  C   UNL A   1      52.743  36.182  28.372  1.00  0.00     0.006 A 
ENDBRANCH  49  70
BRANCH  61  78
ATOM     78  C   UNL A   1      43.528  37.267  28.773  1.00  0.00     0.057 A 
ATOM     79  C   UNL A   1      42.898  36.217  29.444  1.00  0.00     0.134 A 
ATOM     80  C   UNL A   1      43.288  37.402  27.400  1.00  0.00     0.134 A 
ATOM     81  F   UNL A   1      43.083  36.041  30.763  1.00  0.00    -0.206 F 
ATOM     82  C   UNL A   1      42.035  35.343  28.780  1.00  0.00     0.040 A 
ATOM     83  C   UNL A   1      42.415  36.545  26.728  1.00  0.00     0.040 A 
ATOM     84  F   UNL A   1      43.870  38.382  26.692  1.00  0.00    -0.206 F 
ATOM     85  C   UNL A   1      41.782  35.513  27.419  1.00  0.00     0.006 A 
ENDBRANCH  61  78
ENDBRANCH  35  36
ENDBRANCH  28  30
ENDBRANCH  27  28
ENDBRANCH  26  27
ENDBRANCH   1  26
TORSDOF 14
ENDMDL
