MODEL 1
REMARK VINA RESULT:     -11.9      0.000      0.000
REMARK SMILES O=C(OCCOC(=O)c1c(S(=O)(=O)N2CCO[C@@H](CCO)C2)sc2c1CC[NH2+]C2)c1ccc(-c2c3nc(c(-c4c(F)cccc4F)c4ccc([nH]4)c(-c4c(F)cccc4F)c4nc(c(-c5c(F)cccc5F)c5ccc2[nH]5)C=C4)C=C3)cc1
REMARK SMILES IDX 6 1 5 2 4 3 3 4 2 5 1 6 30 7 31 8 83 9 32 10 82 11 33 12
REMARK SMILES IDX 34 13 35 14 76 15 36 16 81 17 75 18 77 19 37 20 80 21 74 22
REMARK SMILES IDX 73 23 38 25 64 26 47 27 63 28 48 29 51 30 62 31 78 32 49 33
REMARK SMILES IDX 50 34 61 36 79 37 52 38 39 39 40 40 45 41 41 42 42 43 44 44
REMARK SMILES IDX 46 45 43 46 65 47 66 48 71 49 67 50 68 51 70 52 72 53 69 54
REMARK SMILES IDX 53 55 54 56 59 57 55 58 56 59 58 60 60 61 57 62 7 63 8 64
REMARK SMILES IDX 9 65 10 66 25 67 23 68 24 69 26 70 29 71 27 72 28 73 11 76
REMARK SMILES IDX 12 77 13 78 14 79 15 80 22 81 16 82 18 83 17 84 19 85 20 86
REMARK SMILES IDX 21 87
REMARK H PARENT 77 24 51 35 28 74 28 75 21 88
REMARK Flexibility Score: inf
ROOT
ATOM      1  O   UNL A   1      32.237  29.622  25.577  1.00  0.00    -0.458 OA
ENDROOT
BRANCH   1   2
ATOM      2  C   UNL A   1      33.395  29.774  26.415  1.00  0.00     0.275 C 
BRANCH   2   3
ATOM      3  C   UNL A   1      33.263  31.051  27.253  1.00  0.00     0.275 C 
BRANCH   3   4
ATOM      4  O   UNL A   1      34.441  31.858  27.443  1.00  0.00    -0.458 OA
BRANCH   4   5
ATOM      5  C   UNL A   1      34.923  32.007  28.690  1.00  0.00     0.338 C 
ATOM      6  O   UNL A   1      34.296  32.465  29.631  1.00  0.00    -0.246 OA
BRANCH   5   7
ATOM      7  C   UNL A   1      36.228  31.338  28.853  1.00  0.00     0.060 A 
ATOM      8  C   UNL A   1      37.393  32.006  29.247  1.00  0.00     0.016 A 
ATOM      9  C   UNL A   1      36.238  29.956  28.682  1.00  0.00     0.016 A 
ATOM     10  C   UNL A   1      38.578  31.291  29.413  1.00  0.00     0.010 A 
ATOM     11  C   UNL A   1      37.396  29.241  28.935  1.00  0.00     0.010 A 
ATOM     12  C   UNL A   1      38.590  29.902  29.235  1.00  0.00    -0.014 A 
BRANCH  12  13
ATOM     13  C   UNL A   1      39.833  29.145  29.453  1.00  0.00     0.031 A 
ATOM     14  C   UNL A   1      40.264  28.935  30.877  1.00  0.00     0.074 A 
ATOM     15  C   UNL A   1      40.462  28.470  28.467  1.00  0.00     0.049 A 
ATOM     16  N   UNL A   1      41.397  29.182  31.453  1.00  0.00    -0.248 NA
ATOM     17  C   UNL A   1      39.261  28.400  31.800  1.00  0.00     0.031 C 
ATOM     18  C   UNL A   1      40.079  28.311  27.057  1.00  0.00     0.029 A 
ATOM     19  N   UNL A   1      41.567  27.679  28.559  1.00  0.00    -0.354 N 
ATOM     20  C   UNL A   1      41.297  28.692  32.762  1.00  0.00     0.074 A 
ATOM     21  C   UNL A   1      39.931  28.287  32.944  1.00  0.00     0.031 C 
ATOM     22  C   UNL A   1      40.791  27.307  26.501  1.00  0.00     0.029 A 
ATOM     23  C   UNL A   1      41.804  26.885  27.446  1.00  0.00     0.049 A 
ATOM     24  H   UNL A   1      42.150  27.672  29.352  1.00  0.00     0.167 HD
ATOM     25  C   UNL A   1      42.381  28.519  33.570  1.00  0.00     0.037 A 
ATOM     26  C   UNL A   1      42.769  25.946  27.301  1.00  0.00     0.037 A 
ATOM     27  C   UNL A   1      43.488  29.323  33.133  1.00  0.00     0.049 A 
ATOM     28  C   UNL A   1      43.814  26.229  28.311  1.00  0.00     0.074 A 
ATOM     29  C   UNL A   1      43.673  30.683  32.966  1.00  0.00     0.029 A 
ATOM     30  N   UNL A   1      44.487  28.729  32.406  1.00  0.00    -0.354 N 
ATOM     31  N   UNL A   1      44.577  27.285  28.288  1.00  0.00    -0.248 NA
ATOM     32  C   UNL A   1      43.704  25.562  29.598  1.00  0.00     0.031 C 
ATOM     33  C   UNL A   1      44.378  30.794  31.732  1.00  0.00     0.029 A 
ATOM     34  C   UNL A   1      44.650  29.501  31.283  1.00  0.00     0.049 A 
ATOM     35  H   UNL A   1      44.986  27.913  32.641  1.00  0.00     0.167 HD
ATOM     36  C   UNL A   1      44.697  27.664  29.615  1.00  0.00     0.074 A 
ATOM     37  C   UNL A   1      44.210  26.517  30.382  1.00  0.00     0.031 C 
ATOM     38  C   UNL A   1      44.919  28.965  29.969  1.00  0.00     0.037 A 
BRANCH  25  39
ATOM     39  C   UNL A   1      42.529  27.412  34.583  1.00  0.00     0.057 A 
ATOM     40  C   UNL A   1      42.934  26.129  34.169  1.00  0.00     0.134 A 
ATOM     41  C   UNL A   1      42.011  27.481  35.891  1.00  0.00     0.134 A 
ATOM     42  F   UNL A   1      43.434  25.928  32.940  1.00  0.00    -0.206 F 
ATOM     43  C   UNL A   1      42.768  24.991  34.971  1.00  0.00     0.040 A 
ATOM     44  C   UNL A   1      41.880  26.360  36.716  1.00  0.00     0.040 A 
ATOM     45  F   UNL A   1      41.519  28.619  36.401  1.00  0.00    -0.206 F 
ATOM     46  C   UNL A   1      42.230  25.104  36.247  1.00  0.00     0.006 A 
ENDBRANCH  25  39
BRANCH  26  47
ATOM     47  C   UNL A   1      42.729  24.691  26.523  1.00  0.00     0.057 A 
ATOM     48  C   UNL A   1      43.577  24.482  25.430  1.00  0.00     0.134 A 
ATOM     49  C   UNL A   1      42.049  23.559  27.007  1.00  0.00     0.134 A 
ATOM     50  F   UNL A   1      44.294  25.496  24.922  1.00  0.00    -0.206 F 
ATOM     51  C   UNL A   1      43.761  23.214  24.863  1.00  0.00     0.040 A 
ATOM     52  C   UNL A   1      42.221  22.289  26.449  1.00  0.00     0.040 A 
ATOM     53  F   UNL A   1      41.264  23.635  28.092  1.00  0.00    -0.206 F 
ATOM     54  C   UNL A   1      43.092  22.110  25.381  1.00  0.00     0.006 A 
ENDBRANCH  26  47
BRANCH  38  55
ATOM     55  C   UNL A   1      45.216  29.962  28.880  1.00  0.00     0.057 A 
ATOM     56  C   UNL A   1      46.484  30.149  28.305  1.00  0.00     0.134 A 
ATOM     57  C   UNL A   1      44.152  30.635  28.270  1.00  0.00     0.134 A 
ATOM     58  F   UNL A   1      47.551  29.473  28.739  1.00  0.00    -0.206 F 
ATOM     59  C   UNL A   1      46.688  30.993  27.209  1.00  0.00     0.040 A 
ATOM     60  C   UNL A   1      44.337  31.454  27.153  1.00  0.00     0.040 A 
ATOM     61  F   UNL A   1      42.899  30.462  28.719  1.00  0.00    -0.206 F 
ATOM     62  C   UNL A   1      45.610  31.645  26.624  1.00  0.00     0.006 A 
ENDBRANCH  38  55
ENDBRANCH  12  13
ENDBRANCH   5   7
ENDBRANCH   4   5
ENDBRANCH   3   4
ENDBRANCH   2   3
ENDBRANCH   1   2
BRANCH   1  63
ATOM     63  C   UNL A   1      32.262  28.698  24.573  1.00  0.00     0.340 C 
ATOM     64  O   UNL A   1      33.259  28.224  24.043  1.00  0.00    -0.246 OA
BRANCH  63  65
ATOM     65  C   UNL A   1      30.903  28.294  24.270  1.00  0.00     0.095 A 
ATOM     66  C   UNL A   1      30.404  27.099  24.777  1.00  0.00     0.150 A 
ATOM     67  C   UNL A   1      29.862  28.984  23.547  1.00  0.00    -0.007 A 
ATOM     68  S   UNL A   1      29.143  26.562  23.767  1.00  0.00    -0.120 S 
ATOM     69  C   UNL A   1      28.745  28.180  23.434  1.00  0.00     0.064 A 
ATOM     70  C   UNL A   1      29.835  30.360  22.957  1.00  0.00     0.099 C 
ATOM     71  C   UNL A   1      27.393  28.645  23.012  1.00  0.00     0.308 C 
ATOM     72  C   UNL A   1      28.424  30.774  22.439  1.00  0.00     0.265 C 
ATOM     73  N   UNL A   1      27.512  29.699  21.999  1.00  0.00    -0.342 N 
ATOM     74  H   UNL A   1      27.872  29.291  21.137  1.00  0.00     0.346 HD
ATOM     75  H   UNL A   1      26.588  30.106  21.850  1.00  0.00     0.346 HD
BRANCH  66  76
ATOM     76  S   UNL A   1      30.894  26.082  26.146  1.00  0.00     0.253 S 
ATOM     77  O   UNL A   1      31.532  26.983  27.079  1.00  0.00    -0.206 OA
ATOM     78  O   UNL A   1      29.670  25.389  26.495  1.00  0.00    -0.206 OA
BRANCH  76  79
ATOM     79  N   UNL A   1      32.003  24.895  25.669  1.00  0.00    -0.192 NA
ATOM     80  C   UNL A   1      33.413  24.930  26.121  1.00  0.00     0.131 C 
ATOM     81  C   UNL A   1      31.859  24.247  24.338  1.00  0.00     0.134 C 
ATOM     82  C   UNL A   1      34.396  25.367  25.020  1.00  0.00     0.177 C 
ATOM     83  C   UNL A   1      32.755  24.975  23.327  1.00  0.00     0.135 C 
ATOM     84  O   UNL A   1      34.133  24.812  23.718  1.00  0.00    -0.375 OA
BRANCH  83  85
ATOM     85  C   UNL A   1      32.583  24.552  21.867  1.00  0.00     0.061 C 
BRANCH  85  86
ATOM     86  C   UNL A   1      32.617  25.721  20.889  1.00  0.00     0.159 C 
BRANCH  86  87
ATOM     87  O   UNL A   1      33.373  26.788  21.445  1.00  0.00    -0.396 OA
ATOM     88  H   UNL A   1      33.564  26.598  22.376  1.00  0.00     0.210 HD
ENDBRANCH  86  87
ENDBRANCH  85  86
ENDBRANCH  83  85
ENDBRANCH  76  79
ENDBRANCH  66  76
ENDBRANCH  63  65
ENDBRANCH   1  63
TORSDOF 16
ENDMDL
MODEL 2
REMARK VINA RESULT:     -11.8      3.374      8.385
REMARK SMILES O=C(OCCOC(=O)c1c(S(=O)(=O)N2CCO[C@@H](CCO)C2)sc2c1CC[NH2+]C2)c1ccc(-c2c3nc(c(-c4c(F)cccc4F)c4ccc([nH]4)c(-c4c(F)cccc4F)c4nc(c(-c5c(F)cccc5F)c5ccc2[nH]5)C=C4)C=C3)cc1
REMARK SMILES IDX 6 1 5 2 4 3 3 4 2 5 1 6 30 7 31 8 83 9 32 10 82 11 33 12
REMARK SMILES IDX 34 13 35 14 76 15 36 16 81 17 75 18 77 19 37 20 80 21 74 22
REMARK SMILES IDX 73 23 38 25 64 26 47 27 63 28 48 29 51 30 62 31 78 32 49 33
REMARK SMILES IDX 50 34 61 36 79 37 52 38 39 39 40 40 45 41 41 42 42 43 44 44
REMARK SMILES IDX 46 45 43 46 65 47 66 48 71 49 67 50 68 51 70 52 72 53 69 54
REMARK SMILES IDX 53 55 54 56 59 57 55 58 56 59 58 60 60 61 57 62 7 63 8 64
REMARK SMILES IDX 9 65 10 66 25 67 23 68 24 69 26 70 29 71 27 72 28 73 11 76
REMARK SMILES IDX 12 77 13 78 14 79 15 80 22 81 16 82 18 83 17 84 19 85 20 86
REMARK SMILES IDX 21 87
REMARK H PARENT 77 24 51 35 28 74 28 75 21 88
REMARK Flexibility Score: inf
ROOT
ATOM      1  O   UNL A   1      36.687  20.772  25.100  1.00  0.00    -0.458 OA
ENDROOT
BRANCH   1   2
ATOM      2  C   UNL A   1      37.737  21.749  25.005  1.00  0.00     0.275 C 
BRANCH   2   3
ATOM      3  C   UNL A   1      38.986  21.237  25.733  1.00  0.00     0.275 C 
BRANCH   3   4
ATOM      4  O   UNL A   1      39.532  22.050  26.789  1.00  0.00    -0.458 OA
BRANCH   4   5
ATOM      5  C   UNL A   1      40.727  22.637  26.596  1.00  0.00     0.338 C 
ATOM      6  O   UNL A   1      41.580  22.244  25.817  1.00  0.00    -0.246 OA
BRANCH   5   7
ATOM      7  C   UNL A   1      40.804  23.949  27.265  1.00  0.00     0.060 A 
ATOM      8  C   UNL A   1      41.844  24.317  28.125  1.00  0.00     0.016 A 
ATOM      9  C   UNL A   1      39.818  24.873  26.927  1.00  0.00     0.016 A 
ATOM     10  C   UNL A   1      41.860  25.592  28.688  1.00  0.00     0.010 A 
ATOM     11  C   UNL A   1      39.888  26.165  27.418  1.00  0.00     0.010 A 
ATOM     12  C   UNL A   1      40.865  26.518  28.353  1.00  0.00    -0.014 A 
BRANCH  12  13
ATOM     13  C   UNL A   1      40.909  27.877  28.915  1.00  0.00     0.031 A 
ATOM     14  C   UNL A   1      41.982  28.795  28.402  1.00  0.00     0.074 A 
ATOM     15  C   UNL A   1      39.921  28.383  29.687  1.00  0.00     0.049 A 
ATOM     16  N   UNL A   1      42.864  29.492  29.045  1.00  0.00    -0.248 NA
ATOM     17  C   UNL A   1      42.106  28.921  26.949  1.00  0.00     0.031 C 
ATOM     18  C   UNL A   1      38.652  27.766  30.097  1.00  0.00     0.029 A 
ATOM     19  N   UNL A   1      39.813  29.640  30.200  1.00  0.00    -0.354 N 
ATOM     20  C   UNL A   1      43.545  30.257  28.089  1.00  0.00     0.074 A 
ATOM     21  C   UNL A   1      43.087  29.809  26.804  1.00  0.00     0.031 C 
ATOM     22  C   UNL A   1      37.821  28.713  30.583  1.00  0.00     0.029 A 
ATOM     23  C   UNL A   1      38.557  29.955  30.698  1.00  0.00     0.049 A 
ATOM     24  H   UNL A   1      40.566  30.274  30.215  1.00  0.00     0.167 HD
ATOM     25  C   UNL A   1      44.343  31.311  28.420  1.00  0.00     0.037 A 
ATOM     26  C   UNL A   1      38.143  31.151  31.179  1.00  0.00     0.037 A 
ATOM     27  C   UNL A   1      44.776  31.226  29.786  1.00  0.00     0.049 A 
ATOM     28  C   UNL A   1      39.354  31.926  31.533  1.00  0.00     0.074 A 
ATOM     29  C   UNL A   1      45.502  30.293  30.501  1.00  0.00     0.029 A 
ATOM     30  N   UNL A   1      44.131  31.985  30.730  1.00  0.00    -0.354 N 
ATOM     31  N   UNL A   1      40.162  31.604  32.504  1.00  0.00    -0.248 NA
ATOM     32  C   UNL A   1      39.911  32.805  30.518  1.00  0.00     0.031 C 
ATOM     33  C   UNL A   1      44.812  30.186  31.745  1.00  0.00     0.029 A 
ATOM     34  C   UNL A   1      43.775  31.120  31.734  1.00  0.00     0.049 A 
ATOM     35  H   UNL A   1      43.958  32.954  30.694  1.00  0.00     0.167 HD
ATOM     36  C   UNL A   1      41.429  31.877  32.015  1.00  0.00     0.074 A 
ATOM     37  C   UNL A   1      41.207  32.695  30.822  1.00  0.00     0.031 C 
ATOM     38  C   UNL A   1      42.527  31.195  32.456  1.00  0.00     0.037 A 
BRANCH  25  39
ATOM     39  C   UNL A   1      44.498  32.564  27.593  1.00  0.00     0.057 A 
ATOM     40  C   UNL A   1      45.571  32.681  26.690  1.00  0.00     0.134 A 
ATOM     41  C   UNL A   1      43.810  33.763  27.863  1.00  0.00     0.134 A 
ATOM     42  F   UNL A   1      46.313  31.613  26.359  1.00  0.00    -0.206 F 
ATOM     43  C   UNL A   1      45.971  33.912  26.152  1.00  0.00     0.040 A 
ATOM     44  C   UNL A   1      44.174  34.990  27.300  1.00  0.00     0.040 A 
ATOM     45  F   UNL A   1      42.814  33.825  28.756  1.00  0.00    -0.206 F 
ATOM     46  C   UNL A   1      45.277  35.075  26.465  1.00  0.00     0.006 A 
ENDBRANCH  25  39
BRANCH  26  47
ATOM     47  C   UNL A   1      36.797  31.756  31.120  1.00  0.00     0.057 A 
ATOM     48  C   UNL A   1      36.048  31.984  32.280  1.00  0.00     0.134 A 
ATOM     49  C   UNL A   1      36.330  32.377  29.947  1.00  0.00     0.134 A 
ATOM     50  F   UNL A   1      36.436  31.462  33.453  1.00  0.00    -0.206 F 
ATOM     51  C   UNL A   1      34.913  32.805  32.284  1.00  0.00     0.040 A 
ATOM     52  C   UNL A   1      35.197  33.196  29.936  1.00  0.00     0.040 A 
ATOM     53  F   UNL A   1      37.010  32.279  28.795  1.00  0.00    -0.206 F 
ATOM     54  C   UNL A   1      34.492  33.425  31.111  1.00  0.00     0.006 A 
ENDBRANCH  26  47
BRANCH  38  55
ATOM     55  C   UNL A   1      42.365  30.258  33.625  1.00  0.00     0.057 A 
ATOM     56  C   UNL A   1      42.385  30.663  34.970  1.00  0.00     0.134 A 
ATOM     57  C   UNL A   1      42.004  28.929  33.381  1.00  0.00     0.134 A 
ATOM     58  F   UNL A   1      42.611  31.935  35.310  1.00  0.00    -0.206 F 
ATOM     59  C   UNL A   1      42.102  29.781  36.018  1.00  0.00     0.040 A 
ATOM     60  C   UNL A   1      41.685  28.046  34.417  1.00  0.00     0.040 A 
ATOM     61  F   UNL A   1      41.900  28.478  32.122  1.00  0.00    -0.206 F 
ATOM     62  C   UNL A   1      41.744  28.468  35.742  1.00  0.00     0.006 A 
ENDBRANCH  38  55
ENDBRANCH  12  13
ENDBRANCH   5   7
ENDBRANCH   4   5
ENDBRANCH   3   4
ENDBRANCH   2   3
ENDBRANCH   1   2
BRANCH   1  63
ATOM     63  C   UNL A   1      35.476  21.148  25.606  1.00  0.00     0.340 C 
ATOM     64  O   UNL A   1      35.284  21.850  26.591  1.00  0.00    -0.246 OA
BRANCH  63  65
ATOM     65  C   UNL A   1      34.427  20.646  24.742  1.00  0.00     0.095 A 
ATOM     66  C   UNL A   1      33.642  21.533  24.011  1.00  0.00     0.150 A 
ATOM     67  C   UNL A   1      34.058  19.290  24.408  1.00  0.00    -0.007 A 
ATOM     68  S   UNL A   1      32.151  20.787  23.669  1.00  0.00    -0.120 S 
ATOM     69  C   UNL A   1      32.938  19.283  23.603  1.00  0.00     0.064 A 
ATOM     70  C   UNL A   1      34.695  17.988  24.788  1.00  0.00     0.099 C 
ATOM     71  C   UNL A   1      32.441  18.106  22.835  1.00  0.00     0.308 C 
ATOM     72  C   UNL A   1      34.083  16.769  24.035  1.00  0.00     0.265 C 
ATOM     73  N   UNL A   1      32.679  16.871  23.590  1.00  0.00    -0.342 N 
ATOM     74  H   UNL A   1      32.070  16.859  24.408  1.00  0.00     0.346 HD
ATOM     75  H   UNL A   1      32.479  16.078  22.978  1.00  0.00     0.346 HD
BRANCH  66  76
ATOM     76  S   UNL A   1      33.895  23.213  23.503  1.00  0.00     0.253 S 
ATOM     77  O   UNL A   1      35.261  23.266  23.032  1.00  0.00    -0.206 OA
ATOM     78  O   UNL A   1      32.785  23.454  22.603  1.00  0.00    -0.206 OA
BRANCH  76  79
ATOM     79  N   UNL A   1      33.709  24.287  24.798  1.00  0.00    -0.192 NA
ATOM     80  C   UNL A   1      32.480  24.294  25.625  1.00  0.00     0.131 C 
ATOM     81  C   UNL A   1      34.351  25.627  24.739  1.00  0.00     0.134 C 
ATOM     82  C   UNL A   1      31.562  25.497  25.343  1.00  0.00     0.177 C 
ATOM     83  C   UNL A   1      33.330  26.648  24.219  1.00  0.00     0.135 C 
ATOM     84  O   UNL A   1      32.246  26.751  25.163  1.00  0.00    -0.375 OA
BRANCH  83  85
ATOM     85  C   UNL A   1      33.883  28.043  23.920  1.00  0.00     0.061 C 
BRANCH  85  86
ATOM     86  C   UNL A   1      33.324  28.656  22.640  1.00  0.00     0.159 C 
BRANCH  86  87
ATOM     87  O   UNL A   1      33.999  28.110  21.515  1.00  0.00    -0.396 OA
ATOM     88  H   UNL A   1      34.523  27.342  21.793  1.00  0.00     0.210 HD
ENDBRANCH  86  87
ENDBRANCH  85  86
ENDBRANCH  83  85
ENDBRANCH  76  79
ENDBRANCH  66  76
ENDBRANCH  63  65
ENDBRANCH   1  63
TORSDOF 16
ENDMDL
MODEL 3
REMARK VINA RESULT:     -11.5      3.117      8.091
REMARK SMILES O=C(OCCOC(=O)c1c(S(=O)(=O)N2CCO[C@@H](CCO)C2)sc2c1CC[NH2+]C2)c1ccc(-c2c3nc(c(-c4c(F)cccc4F)c4ccc([nH]4)c(-c4c(F)cccc4F)c4nc(c(-c5c(F)cccc5F)c5ccc2[nH]5)C=C4)C=C3)cc1
REMARK SMILES IDX 6 1 5 2 4 3 3 4 2 5 1 6 30 7 31 8 83 9 32 10 82 11 33 12
REMARK SMILES IDX 34 13 35 14 76 15 36 16 81 17 75 18 77 19 37 20 80 21 74 22
REMARK SMILES IDX 73 23 38 25 64 26 47 27 63 28 48 29 51 30 62 31 78 32 49 33
REMARK SMILES IDX 50 34 61 36 79 37 52 38 39 39 40 40 45 41 41 42 42 43 44 44
REMARK SMILES IDX 46 45 43 46 65 47 66 48 71 49 67 50 68 51 70 52 72 53 69 54
REMARK SMILES IDX 53 55 54 56 59 57 55 58 56 59 58 60 60 61 57 62 7 63 8 64
REMARK SMILES IDX 9 65 10 66 25 67 23 68 24 69 26 70 29 71 27 72 28 73 11 76
REMARK SMILES IDX 12 77 13 78 14 79 15 80 22 81 16 82 18 83 17 84 19 85 20 86
REMARK SMILES IDX 21 87
REMARK H PARENT 77 24 51 35 28 74 28 75 21 88
REMARK Flexibility Score: inf
ROOT
ATOM      1  O   UNL A   1      35.612  22.239  25.432  1.00  0.00    -0.458 OA
ENDROOT
BRANCH   1   2
ATOM      2  C   UNL A   1      36.473  21.117  25.690  1.00  0.00     0.275 C 
BRANCH   2   3
ATOM      3  C   UNL A   1      37.900  21.444  25.231  1.00  0.00     0.275 C 
BRANCH   3   4
ATOM      4  O   UNL A   1      38.528  22.624  25.767  1.00  0.00    -0.458 OA
BRANCH   4   5
ATOM      5  C   UNL A   1      39.591  22.474  26.577  1.00  0.00     0.338 C 
ATOM      6  O   UNL A   1      40.316  21.493  26.603  1.00  0.00    -0.246 OA
BRANCH   5   7
ATOM      7  C   UNL A   1      39.925  23.730  27.275  1.00  0.00     0.060 A 
ATOM      8  C   UNL A   1      41.132  23.938  27.952  1.00  0.00     0.016 A 
ATOM      9  C   UNL A   1      39.004  24.767  27.155  1.00  0.00     0.016 A 
ATOM     10  C   UNL A   1      41.384  25.169  28.556  1.00  0.00     0.010 A 
ATOM     11  C   UNL A   1      39.299  26.013  27.679  1.00  0.00     0.010 A 
ATOM     12  C   UNL A   1      40.454  26.209  28.441  1.00  0.00    -0.014 A 
BRANCH  12  13
ATOM     13  C   UNL A   1      40.743  27.521  29.042  1.00  0.00     0.031 A 
ATOM     14  C   UNL A   1      41.941  28.263  28.521  1.00  0.00     0.074 A 
ATOM     15  C   UNL A   1      39.878  28.157  29.863  1.00  0.00     0.049 A 
ATOM     16  N   UNL A   1      42.946  28.779  29.153  1.00  0.00    -0.248 NA
ATOM     17  C   UNL A   1      42.042  28.418  27.069  1.00  0.00     0.031 C 
ATOM     18  C   UNL A   1      38.536  27.748  30.297  1.00  0.00     0.029 A 
ATOM     19  N   UNL A   1      39.998  29.395  30.417  1.00  0.00    -0.354 N 
ATOM     20  C   UNL A   1      43.719  29.452  28.198  1.00  0.00     0.074 A 
ATOM     21  C   UNL A   1      43.154  29.134  26.917  1.00  0.00     0.031 C 
ATOM     22  C   UNL A   1      37.890  28.802  30.840  1.00  0.00     0.029 A 
ATOM     23  C   UNL A   1      38.828  29.898  30.967  1.00  0.00     0.049 A 
ATOM     24  H   UNL A   1      40.847  29.893  30.426  1.00  0.00     0.167 HD
ATOM     25  C   UNL A   1      44.692  30.345  28.534  1.00  0.00     0.037 A 
ATOM     26  C   UNL A   1      38.637  31.129  31.498  1.00  0.00     0.037 A 
ATOM     27  C   UNL A   1      45.144  30.140  29.881  1.00  0.00     0.049 A 
ATOM     28  C   UNL A   1      39.971  31.677  31.834  1.00  0.00     0.074 A 
ATOM     29  C   UNL A   1      45.722  29.073  30.542  1.00  0.00     0.029 A 
ATOM     30  N   UNL A   1      44.664  30.962  30.869  1.00  0.00    -0.354 N 
ATOM     31  N   UNL A   1      40.740  31.190  32.766  1.00  0.00    -0.248 NA
ATOM     32  C   UNL A   1      40.639  32.485  30.827  1.00  0.00     0.031 C 
ATOM     33  C   UNL A   1      45.060  29.039  31.804  1.00  0.00     0.029 A 
ATOM     34  C   UNL A   1      44.196  30.134  31.858  1.00  0.00     0.049 A 
ATOM     35  H   UNL A   1      44.655  31.947  30.868  1.00  0.00     0.167 HD
ATOM     36  C   UNL A   1      42.021  31.263  32.242  1.00  0.00     0.074 A 
ATOM     37  C   UNL A   1      41.905  32.148  31.083  1.00  0.00     0.031 C 
ATOM     38  C   UNL A   1      43.000  30.391  32.625  1.00  0.00     0.037 A 
BRANCH  25  39
ATOM     39  C   UNL A   1      45.032  31.583  27.740  1.00  0.00     0.057 A 
ATOM     40  C   UNL A   1      46.273  31.677  27.084  1.00  0.00     0.134 A 
ATOM     41  C   UNL A   1      44.316  32.792  27.840  1.00  0.00     0.134 A 
ATOM     42  F   UNL A   1      47.057  30.599  26.933  1.00  0.00    -0.206 F 
ATOM     43  C   UNL A   1      46.792  32.896  26.625  1.00  0.00     0.040 A 
ATOM     44  C   UNL A   1      44.804  34.006  27.349  1.00  0.00     0.040 A 
ATOM     45  F   UNL A   1      43.153  32.875  28.501  1.00  0.00    -0.206 F 
ATOM     46  C   UNL A   1      46.060  34.069  26.766  1.00  0.00     0.006 A 
ENDBRANCH  25  39
BRANCH  26  47
ATOM     47  C   UNL A   1      37.410  31.953  31.505  1.00  0.00     0.057 A 
ATOM     48  C   UNL A   1      36.917  32.536  30.332  1.00  0.00     0.134 A 
ATOM     49  C   UNL A   1      36.544  31.956  32.612  1.00  0.00     0.134 A 
ATOM     50  F   UNL A   1      37.659  32.548  29.214  1.00  0.00    -0.206 F 
ATOM     51  C   UNL A   1      35.624  33.071  30.254  1.00  0.00     0.040 A 
ATOM     52  C   UNL A   1      35.253  32.489  32.549  1.00  0.00     0.040 A 
ATOM     53  F   UNL A   1      36.891  31.363  33.764  1.00  0.00    -0.206 F 
ATOM     54  C   UNL A   1      34.783  33.036  31.361  1.00  0.00     0.006 A 
ENDBRANCH  26  47
BRANCH  38  55
ATOM     55  C   UNL A   1      42.717  29.454  33.769  1.00  0.00     0.057 A 
ATOM     56  C   UNL A   1      42.172  28.168  33.621  1.00  0.00     0.134 A 
ATOM     57  C   UNL A   1      43.170  29.793  35.049  1.00  0.00     0.134 A 
ATOM     58  F   UNL A   1      41.807  27.701  32.424  1.00  0.00    -0.206 F 
ATOM     59  C   UNL A   1      42.045  27.283  34.697  1.00  0.00     0.040 A 
ATOM     60  C   UNL A   1      43.082  28.905  36.125  1.00  0.00     0.040 A 
ATOM     61  F   UNL A   1      43.761  30.979  35.263  1.00  0.00    -0.206 F 
ATOM     62  C   UNL A   1      42.508  27.649  35.955  1.00  0.00     0.006 A 
ENDBRANCH  38  55
ENDBRANCH  12  13
ENDBRANCH   5   7
ENDBRANCH   4   5
ENDBRANCH   3   4
ENDBRANCH   2   3
ENDBRANCH   1   2
BRANCH   1  63
ATOM     63  C   UNL A   1      34.282  22.134  25.720  1.00  0.00     0.340 C 
ATOM     64  O   UNL A   1      33.714  22.582  26.707  1.00  0.00    -0.246 OA
BRANCH  63  65
ATOM     65  C   UNL A   1      33.613  21.465  24.623  1.00  0.00     0.095 A 
ATOM     66  C   UNL A   1      33.274  22.176  23.476  1.00  0.00     0.150 A 
ATOM     67  C   UNL A   1      33.270  20.073  24.446  1.00  0.00    -0.007 A 
ATOM     68  S   UNL A   1      31.970  21.391  22.713  1.00  0.00    -0.120 S 
ATOM     69  C   UNL A   1      32.562  19.900  23.274  1.00  0.00     0.064 A 
ATOM     70  C   UNL A   1      33.569  18.881  25.302  1.00  0.00     0.099 C 
ATOM     71  C   UNL A   1      32.291  18.587  22.621  1.00  0.00     0.308 C 
ATOM     72  C   UNL A   1      33.183  17.532  24.625  1.00  0.00     0.265 C 
ATOM     73  N   UNL A   1      32.086  17.549  23.637  1.00  0.00    -0.342 N 
ATOM     74  H   UNL A   1      31.206  17.728  24.121  1.00  0.00     0.346 HD
ATOM     75  H   UNL A   1      32.064  16.643  23.168  1.00  0.00     0.346 HD
BRANCH  66  76
ATOM     76  S   UNL A   1      33.876  23.697  22.790  1.00  0.00     0.253 S 
ATOM     77  O   UNL A   1      35.290  23.715  23.089  1.00  0.00    -0.206 OA
ATOM     78  O   UNL A   1      33.402  23.650  21.422  1.00  0.00    -0.206 OA
BRANCH  76  79
ATOM     79  N   UNL A   1      33.136  25.037  23.513  1.00  0.00    -0.192 NA
ATOM     80  C   UNL A   1      33.911  25.998  24.332  1.00  0.00     0.131 C 
ATOM     81  C   UNL A   1      31.718  24.946  23.950  1.00  0.00     0.134 C 
ATOM     82  C   UNL A   1      33.652  25.859  25.843  1.00  0.00     0.177 C 
ATOM     83  C   UNL A   1      31.675  24.577  25.439  1.00  0.00     0.135 C 
ATOM     84  O   UNL A   1      32.276  25.641  26.204  1.00  0.00    -0.375 OA
BRANCH  83  85
ATOM     85  C   UNL A   1      30.290  24.259  26.003  1.00  0.00     0.061 C 
BRANCH  85  86
ATOM     86  C   UNL A   1      30.262  23.013  26.881  1.00  0.00     0.159 C 
BRANCH  86  87
ATOM     87  O   UNL A   1      30.642  21.879  26.113  1.00  0.00    -0.396 OA
ATOM     88  H   UNL A   1      31.000  22.171  25.261  1.00  0.00     0.210 HD
ENDBRANCH  86  87
ENDBRANCH  85  86
ENDBRANCH  83  85
ENDBRANCH  76  79
ENDBRANCH  66  76
ENDBRANCH  63  65
ENDBRANCH   1  63
TORSDOF 16
ENDMDL
