MODEL 1
REMARK VINA RESULT:      -7.9      0.000      0.000
REMARK SMILES CCCC[C@H](C(=O)OCCOC(=O)c1ccc(-c2c3nc(c(-c4c(F)cccc4F)c4ccc([nH]4)c(-c4c(F)cccc4F)c4nc(c(-c5c(F)cccc5F)c5ccc2[nH]5)C=C4)C=C3)cc1)[C@H](C)O
REMARK SMILES IDX 9 1 8 2 6 3 7 4 5 5 4 6 3 7 2 8 1 9 68 10 69 11 70 12 10 14
REMARK SMILES IDX 11 15 12 16 13 17 14 18 15 19 67 20 16 21 66 22 17 23 18 24
REMARK SMILES IDX 19 25 60 26 20 27 65 28 59 29 61 30 21 31 64 32 58 33 57 34
REMARK SMILES IDX 22 36 48 37 31 38 47 39 32 40 35 41 46 42 62 43 33 44 34 45
REMARK SMILES IDX 45 47 63 48 36 49 23 50 24 51 29 52 25 53 26 54 28 55 30 56
REMARK SMILES IDX 27 57 49 58 50 59 55 60 51 61 52 62 54 63 56 64 53 65 37 66
REMARK SMILES IDX 38 67 43 68 39 69 40 70 42 71 44 72 41 73
REMARK H PARENT 70 13 61 35 35 46
REMARK Flexibility Score: inf
ROOT
ATOM      1  C   UNL A   1      34.107  34.410  29.071  1.00  0.00     0.274 C 
ENDROOT
BRANCH   1   2
ATOM      2  O   UNL A   1      35.278  34.039  29.824  1.00  0.00    -0.462 OA
BRANCH   2   3
ATOM      3  C   UNL A   1      35.048  33.695  31.120  1.00  0.00     0.311 C 
ATOM      4  O   UNL A   1      33.937  33.525  31.607  1.00  0.00    -0.252 OA
BRANCH   3   5
ATOM      5  C   UNL A   1      36.347  33.555  31.904  1.00  0.00     0.127 C 
BRANCH   5   6
ATOM      6  C   UNL A   1      37.526  33.562  30.901  1.00  0.00     0.018 C 
BRANCH   6   7
ATOM      7  C   UNL A   1      38.599  34.626  31.197  1.00  0.00     0.001 C 
BRANCH   7   8
ATOM      8  C   UNL A   1      39.763  34.222  32.102  1.00  0.00    -0.003 C 
ATOM      9  C   UNL A   1      41.106  34.159  31.392  1.00  0.00     0.004 C 
ENDBRANCH   7   8
ENDBRANCH   6   7
ENDBRANCH   5   6
BRANCH   5  10
ATOM     10  C   UNL A   1      36.356  34.658  32.992  1.00  0.00     0.125 C 
ATOM     11  C   UNL A   1      35.932  34.263  34.403  1.00  0.00     0.039 C 
BRANCH  10  12
ATOM     12  O   UNL A   1      35.505  35.732  32.566  1.00  0.00    -0.393 OA
ATOM     13  H   UNL A   1      35.009  35.458  31.779  1.00  0.00     0.210 HD
ENDBRANCH  10  12
ENDBRANCH   5  10
ENDBRANCH   3   5
ENDBRANCH   2   3
ENDBRANCH   1   2
BRANCH   1  14
ATOM     14  C   UNL A   1      33.683  33.307  28.102  1.00  0.00     0.275 C 
BRANCH  14  15
ATOM     15  O   UNL A   1      34.834  32.565  27.662  1.00  0.00    -0.458 OA
BRANCH  15  16
ATOM     16  C   UNL A   1      34.771  31.226  27.834  1.00  0.00     0.338 C 
ATOM     17  O   UNL A   1      33.851  30.481  27.548  1.00  0.00    -0.246 OA
BRANCH  16  18
ATOM     18  C   UNL A   1      36.009  30.748  28.475  1.00  0.00     0.060 A 
ATOM     19  C   UNL A   1      37.252  31.248  28.084  1.00  0.00     0.016 A 
ATOM     20  C   UNL A   1      35.933  29.703  29.395  1.00  0.00     0.016 A 
ATOM     21  C   UNL A   1      38.422  30.661  28.553  1.00  0.00     0.010 A 
ATOM     22  C   UNL A   1      37.107  29.171  29.933  1.00  0.00     0.010 A 
ATOM     23  C   UNL A   1      38.362  29.628  29.496  1.00  0.00    -0.014 A 
BRANCH  23  24
ATOM     24  C   UNL A   1      39.611  29.017  30.015  1.00  0.00     0.031 A 
ATOM     25  C   UNL A   1      40.242  29.545  31.270  1.00  0.00     0.074 A 
ATOM     26  C   UNL A   1      40.170  27.982  29.361  1.00  0.00     0.049 A 
ATOM     27  N   UNL A   1      41.414  29.271  31.784  1.00  0.00    -0.248 NA
ATOM     28  C   UNL A   1      39.458  30.517  32.048  1.00  0.00     0.031 C 
ATOM     29  C   UNL A   1      39.626  27.343  28.160  1.00  0.00     0.029 A 
ATOM     30  N   UNL A   1      41.323  27.283  29.615  1.00  0.00    -0.354 N 
ATOM     31  C   UNL A   1      41.528  30.069  32.915  1.00  0.00     0.074 A 
ATOM     32  C   UNL A   1      40.305  30.836  33.017  1.00  0.00     0.031 C 
ATOM     33  C   UNL A   1      40.428  26.331  27.799  1.00  0.00     0.029 A 
ATOM     34  C   UNL A   1      41.582  26.301  28.690  1.00  0.00     0.049 A 
ATOM     35  H   UNL A   1      41.906  27.465  30.386  1.00  0.00     0.167 HD
ATOM     36  C   UNL A   1      42.564  30.156  33.781  1.00  0.00     0.037 A 
ATOM     37  C   UNL A   1      42.651  25.497  28.546  1.00  0.00     0.037 A 
ATOM     38  C   UNL A   1      43.760  29.360  33.695  1.00  0.00     0.049 A 
ATOM     39  C   UNL A   1      43.804  25.640  29.496  1.00  0.00     0.074 A 
ATOM     40  C   UNL A   1      44.865  29.365  34.529  1.00  0.00     0.029 A 
ATOM     41  N   UNL A   1      44.001  28.406  32.718  1.00  0.00    -0.354 N 
ATOM     42  N   UNL A   1      43.930  26.444  30.524  1.00  0.00    -0.248 NA
ATOM     43  C   UNL A   1      44.974  24.789  29.248  1.00  0.00     0.031 C 
ATOM     44  C   UNL A   1      45.786  28.432  34.040  1.00  0.00     0.029 A 
ATOM     45  C   UNL A   1      45.242  27.824  32.920  1.00  0.00     0.049 A 
ATOM     46  H   UNL A   1      43.381  28.175  31.990  1.00  0.00     0.167 HD
ATOM     47  C   UNL A   1      45.192  26.200  31.043  1.00  0.00     0.074 A 
ATOM     48  C   UNL A   1      45.782  25.154  30.233  1.00  0.00     0.031 C 
ATOM     49  C   UNL A   1      45.812  26.794  32.091  1.00  0.00     0.037 A 
BRANCH  36  50
ATOM     50  C   UNL A   1      42.464  31.175  34.877  1.00  0.00     0.057 A 
ATOM     51  C   UNL A   1      42.005  30.847  36.158  1.00  0.00     0.134 A 
ATOM     52  C   UNL A   1      42.864  32.498  34.650  1.00  0.00     0.134 A 
ATOM     53  F   UNL A   1      41.593  29.601  36.433  1.00  0.00    -0.206 F 
ATOM     54  C   UNL A   1      41.930  31.805  37.172  1.00  0.00     0.040 A 
ATOM     55  C   UNL A   1      42.812  33.459  35.661  1.00  0.00     0.040 A 
ATOM     56  F   UNL A   1      43.316  32.876  33.445  1.00  0.00    -0.206 F 
ATOM     57  C   UNL A   1      42.340  33.114  36.925  1.00  0.00     0.006 A 
ENDBRANCH  36  50
BRANCH  37  58
ATOM     58  C   UNL A   1      42.697  24.528  27.425  1.00  0.00     0.057 A 
ATOM     59  C   UNL A   1      42.223  23.221  27.580  1.00  0.00     0.134 A 
ATOM     60  C   UNL A   1      43.193  24.892  26.167  1.00  0.00     0.134 A 
ATOM     61  F   UNL A   1      41.757  22.809  28.768  1.00  0.00    -0.206 F 
ATOM     62  C   UNL A   1      42.241  22.310  26.524  1.00  0.00     0.040 A 
ATOM     63  C   UNL A   1      43.195  23.999  25.096  1.00  0.00     0.040 A 
ATOM     64  F   UNL A   1      43.661  26.131  25.956  1.00  0.00    -0.206 F 
ATOM     65  C   UNL A   1      42.719  22.701  25.274  1.00  0.00     0.006 A 
ENDBRANCH  37  58
BRANCH  49  66
ATOM     66  C   UNL A   1      47.196  26.322  32.411  1.00  0.00     0.057 A 
ATOM     67  C   UNL A   1      47.420  25.281  33.319  1.00  0.00     0.134 A 
ATOM     68  C   UNL A   1      48.311  26.901  31.793  1.00  0.00     0.134 A 
ATOM     69  F   UNL A   1      46.392  24.699  33.954  1.00  0.00    -0.206 F 
ATOM     70  C   UNL A   1      48.710  24.840  33.614  1.00  0.00     0.040 A 
ATOM     71  C   UNL A   1      49.604  26.457  32.067  1.00  0.00     0.040 A 
ATOM     72  F   UNL A   1      48.158  27.901  30.911  1.00  0.00    -0.206 F 
ATOM     73  C   UNL A   1      49.807  25.428  32.984  1.00  0.00     0.006 A 
ENDBRANCH  49  66
ENDBRANCH  23  24
ENDBRANCH  16  18
ENDBRANCH  15  16
ENDBRANCH  14  15
ENDBRANCH   1  14
TORSDOF 16
ENDMDL
MODEL 2
REMARK VINA RESULT:      -7.9      4.519      9.903
REMARK SMILES CCCC[C@H](C(=O)OCCOC(=O)c1ccc(-c2c3nc(c(-c4c(F)cccc4F)c4ccc([nH]4)c(-c4c(F)cccc4F)c4nc(c(-c5c(F)cccc5F)c5ccc2[nH]5)C=C4)C=C3)cc1)[C@H](C)O
REMARK SMILES IDX 9 1 8 2 6 3 7 4 5 5 4 6 3 7 2 8 1 9 68 10 69 11 70 12 10 14
REMARK SMILES IDX 11 15 12 16 13 17 14 18 15 19 67 20 16 21 66 22 17 23 18 24
REMARK SMILES IDX 19 25 60 26 20 27 65 28 59 29 61 30 21 31 64 32 58 33 57 34
REMARK SMILES IDX 22 36 48 37 31 38 47 39 32 40 35 41 46 42 62 43 33 44 34 45
REMARK SMILES IDX 45 47 63 48 36 49 23 50 24 51 29 52 25 53 26 54 28 55 30 56
REMARK SMILES IDX 27 57 49 58 50 59 55 60 51 61 52 62 54 63 56 64 53 65 37 66
REMARK SMILES IDX 38 67 43 68 39 69 40 70 42 71 44 72 41 73
REMARK H PARENT 70 13 61 35 35 46
REMARK Flexibility Score: inf
ROOT
ATOM      1  C   UNL A   1      46.041  22.521  25.413  1.00  0.00     0.274 C 
ENDROOT
BRANCH   1   2
ATOM      2  O   UNL A   1      46.840  23.638  25.848  1.00  0.00    -0.462 OA
BRANCH   2   3
ATOM      3  C   UNL A   1      46.396  24.265  26.972  1.00  0.00     0.311 C 
ATOM      4  O   UNL A   1      45.766  23.718  27.870  1.00  0.00    -0.252 OA
BRANCH   3   5
ATOM      5  C   UNL A   1      46.767  25.742  26.975  1.00  0.00     0.127 C 
BRANCH   5   6
ATOM      6  C   UNL A   1      47.721  26.003  28.167  1.00  0.00     0.018 C 
BRANCH   6   7
ATOM      7  C   UNL A   1      47.463  27.331  28.901  1.00  0.00     0.001 C 
BRANCH   7   8
ATOM      8  C   UNL A   1      47.514  27.316  30.429  1.00  0.00    -0.003 C 
ATOM      9  C   UNL A   1      47.763  25.941  31.027  1.00  0.00     0.004 C 
ENDBRANCH   7   8
ENDBRANCH   6   7
ENDBRANCH   5   6
BRANCH   5  10
ATOM     10  C   UNL A   1      47.309  26.091  25.566  1.00  0.00     0.125 C 
ATOM     11  C   UNL A   1      48.065  27.406  25.406  1.00  0.00     0.039 C 
BRANCH  10  12
ATOM     12  O   UNL A   1      46.212  26.105  24.642  1.00  0.00    -0.393 OA
ATOM     13  H   UNL A   1      45.761  26.962  24.689  1.00  0.00     0.210 HD
ENDBRANCH  10  12
ENDBRANCH   5  10
ENDBRANCH   3   5
ENDBRANCH   2   3
ENDBRANCH   1   2
BRANCH   1  14
ATOM     14  C   UNL A   1      45.140  22.892  24.236  1.00  0.00     0.275 C 
BRANCH  14  15
ATOM     15  O   UNL A   1      44.221  23.929  24.623  1.00  0.00    -0.458 OA
BRANCH  15  16
ATOM     16  C   UNL A   1      43.092  23.514  25.240  1.00  0.00     0.338 C 
ATOM     17  O   UNL A   1      42.477  22.480  25.050  1.00  0.00    -0.246 OA
BRANCH  16  18
ATOM     18  C   UNL A   1      42.649  24.534  26.206  1.00  0.00     0.060 A 
ATOM     19  C   UNL A   1      43.121  25.845  26.125  1.00  0.00     0.016 A 
ATOM     20  C   UNL A   1      41.843  24.145  27.276  1.00  0.00     0.016 A 
ATOM     21  C   UNL A   1      42.851  26.751  27.145  1.00  0.00     0.010 A 
ATOM     22  C   UNL A   1      41.500  25.079  28.256  1.00  0.00     0.010 A 
ATOM     23  C   UNL A   1      42.023  26.383  28.212  1.00  0.00    -0.014 A 
BRANCH  23  24
ATOM     24  C   UNL A   1      41.716  27.357  29.289  1.00  0.00     0.031 A 
ATOM     25  C   UNL A   1      42.544  27.380  30.541  1.00  0.00     0.074 A 
ATOM     26  C   UNL A   1      40.698  28.224  29.135  1.00  0.00     0.049 A 
ATOM     27  N   UNL A   1      42.331  28.025  31.660  1.00  0.00    -0.248 NA
ATOM     28  C   UNL A   1      43.770  26.567  30.539  1.00  0.00     0.031 C 
ATOM     29  C   UNL A   1      39.852  28.337  27.945  1.00  0.00     0.029 A 
ATOM     30  N   UNL A   1      40.201  29.178  29.986  1.00  0.00    -0.354 N 
ATOM     31  C   UNL A   1      43.365  27.658  32.511  1.00  0.00     0.074 A 
ATOM     32  C   UNL A   1      44.210  26.738  31.778  1.00  0.00     0.031 C 
ATOM     33  C   UNL A   1      38.960  29.322  28.130  1.00  0.00     0.029 A 
ATOM     34  C   UNL A   1      39.118  29.853  29.480  1.00  0.00     0.049 A 
ATOM     35  H   UNL A   1      40.586  29.363  30.874  1.00  0.00     0.167 HD
ATOM     36  C   UNL A   1      43.583  28.049  33.788  1.00  0.00     0.037 A 
ATOM     37  C   UNL A   1      38.310  30.764  30.052  1.00  0.00     0.037 A 
ATOM     38  C   UNL A   1      42.760  28.997  34.495  1.00  0.00     0.049 A 
ATOM     39  C   UNL A   1      38.547  31.152  31.482  1.00  0.00     0.074 A 
ATOM     40  C   UNL A   1      42.900  29.468  35.789  1.00  0.00     0.029 A 
ATOM     41  N   UNL A   1      41.647  29.625  33.958  1.00  0.00    -0.354 N 
ATOM     42  N   UNL A   1      39.490  30.750  32.299  1.00  0.00    -0.248 NA
ATOM     43  C   UNL A   1      37.593  32.095  32.078  1.00  0.00     0.031 C 
ATOM     44  C   UNL A   1      41.855  30.362  36.043  1.00  0.00     0.029 A 
ATOM     45  C   UNL A   1      41.082  30.471  34.898  1.00  0.00     0.049 A 
ATOM     46  H   UNL A   1      41.309  29.492  33.043  1.00  0.00     0.167 HD
ATOM     47  C   UNL A   1      39.242  31.385  33.506  1.00  0.00     0.074 A 
ATOM     48  C   UNL A   1      38.074  32.221  33.307  1.00  0.00     0.031 C 
ATOM     49  C   UNL A   1      39.913  31.282  34.679  1.00  0.00     0.037 A 
BRANCH  36  50
ATOM     50  C   UNL A   1      44.735  27.425  34.515  1.00  0.00     0.057 A 
ATOM     51  C   UNL A   1      46.020  27.980  34.489  1.00  0.00     0.134 A 
ATOM     52  C   UNL A   1      44.545  26.265  35.278  1.00  0.00     0.134 A 
ATOM     53  F   UNL A   1      46.270  29.081  33.764  1.00  0.00    -0.206 F 
ATOM     54  C   UNL A   1      47.081  27.393  35.182  1.00  0.00     0.040 A 
ATOM     55  C   UNL A   1      45.593  25.681  35.991  1.00  0.00     0.040 A 
ATOM     56  F   UNL A   1      43.338  25.686  35.346  1.00  0.00    -0.206 F 
ATOM     57  C   UNL A   1      46.867  26.243  35.941  1.00  0.00     0.006 A 
ENDBRANCH  36  50
BRANCH  37  58
ATOM     58  C   UNL A   1      37.172  31.324  29.285  1.00  0.00     0.057 A 
ATOM     59  C   UNL A   1      37.231  32.613  28.744  1.00  0.00     0.134 A 
ATOM     60  C   UNL A   1      36.011  30.576  29.053  1.00  0.00     0.134 A 
ATOM     61  F   UNL A   1      38.308  33.383  28.951  1.00  0.00    -0.206 F 
ATOM     62  C   UNL A   1      36.174  33.139  28.000  1.00  0.00     0.040 A 
ATOM     63  C   UNL A   1      34.957  31.080  28.292  1.00  0.00     0.040 A 
ATOM     64  F   UNL A   1      35.896  29.334  29.546  1.00  0.00    -0.206 F 
ATOM     65  C   UNL A   1      35.036  32.367  27.764  1.00  0.00     0.006 A 
ENDBRANCH  37  58
BRANCH  49  66
ATOM     66  C   UNL A   1      39.393  32.090  35.826  1.00  0.00     0.057 A 
ATOM     67  C   UNL A   1      39.860  33.385  36.077  1.00  0.00     0.134 A 
ATOM     68  C   UNL A   1      38.406  31.577  36.676  1.00  0.00     0.134 A 
ATOM     69  F   UNL A   1      40.817  33.924  35.305  1.00  0.00    -0.206 F 
ATOM     70  C   UNL A   1      39.374  34.139  37.145  1.00  0.00     0.040 A 
ATOM     71  C   UNL A   1      37.900  32.327  37.737  1.00  0.00     0.040 A 
ATOM     72  F   UNL A   1      37.918  30.341  36.484  1.00  0.00    -0.206 F 
ATOM     73  C   UNL A   1      38.388  33.610  37.977  1.00  0.00     0.006 A 
ENDBRANCH  49  66
ENDBRANCH  23  24
ENDBRANCH  16  18
ENDBRANCH  15  16
ENDBRANCH  14  15
ENDBRANCH   1  14
TORSDOF 16
ENDMDL
MODEL 3
REMARK VINA RESULT:      -7.8      5.171      8.494
REMARK SMILES CCCC[C@H](C(=O)OCCOC(=O)c1ccc(-c2c3nc(c(-c4c(F)cccc4F)c4ccc([nH]4)c(-c4c(F)cccc4F)c4nc(c(-c5c(F)cccc5F)c5ccc2[nH]5)C=C4)C=C3)cc1)[C@H](C)O
REMARK SMILES IDX 9 1 8 2 6 3 7 4 5 5 4 6 3 7 2 8 1 9 68 10 69 11 70 12 10 14
REMARK SMILES IDX 11 15 12 16 13 17 14 18 15 19 67 20 16 21 66 22 17 23 18 24
REMARK SMILES IDX 19 25 60 26 20 27 65 28 59 29 61 30 21 31 64 32 58 33 57 34
REMARK SMILES IDX 22 36 48 37 31 38 47 39 32 40 35 41 46 42 62 43 33 44 34 45
REMARK SMILES IDX 45 47 63 48 36 49 23 50 24 51 29 52 25 53 26 54 28 55 30 56
REMARK SMILES IDX 27 57 49 58 50 59 55 60 51 61 52 62 54 63 56 64 53 65 37 66
REMARK SMILES IDX 38 67 43 68 39 69 40 70 42 71 44 72 41 73
REMARK H PARENT 70 13 61 35 35 46
REMARK Flexibility Score: inf
ROOT
ATOM      1  C   UNL A   1      35.012  20.463  24.954  1.00  0.00     0.274 C 
ENDROOT
BRANCH   1   2
ATOM      2  O   UNL A   1      33.787  21.219  24.906  1.00  0.00    -0.462 OA
BRANCH   2   3
ATOM      3  C   UNL A   1      33.430  21.819  26.074  1.00  0.00     0.311 C 
ATOM      4  O   UNL A   1      33.646  21.356  27.187  1.00  0.00    -0.252 OA
BRANCH   3   5
ATOM      5  C   UNL A   1      32.713  23.141  25.831  1.00  0.00     0.127 C 
BRANCH   5   6
ATOM      6  C   UNL A   1      33.387  23.848  24.628  1.00  0.00     0.018 C 
BRANCH   6   7
ATOM      7  C   UNL A   1      32.818  25.245  24.320  1.00  0.00     0.001 C 
BRANCH   7   8
ATOM      8  C   UNL A   1      33.685  26.454  24.673  1.00  0.00    -0.003 C 
ATOM      9  C   UNL A   1      33.565  26.899  26.121  1.00  0.00     0.004 C 
ENDBRANCH   7   8
ENDBRANCH   6   7
ENDBRANCH   5   6
BRANCH   5  10
ATOM     10  C   UNL A   1      31.201  22.834  25.696  1.00  0.00     0.125 C 
ATOM     11  C   UNL A   1      30.244  23.574  26.625  1.00  0.00     0.039 C 
BRANCH  10  12
ATOM     12  O   UNL A   1      30.997  21.428  25.892  1.00  0.00    -0.393 OA
ATOM     13  H   UNL A   1      30.333  21.292  26.585  1.00  0.00     0.210 HD
ENDBRANCH  10  12
ENDBRANCH   5  10
ENDBRANCH   3   5
ENDBRANCH   2   3
ENDBRANCH   1   2
BRANCH   1  14
ATOM     14  C   UNL A   1      36.239  21.359  24.792  1.00  0.00     0.275 C 
BRANCH  14  15
ATOM     15  O   UNL A   1      37.006  21.374  26.009  1.00  0.00    -0.458 OA
BRANCH  15  16
ATOM     16  C   UNL A   1      38.345  21.263  25.862  1.00  0.00     0.338 C 
ATOM     17  O   UNL A   1      38.966  20.331  25.383  1.00  0.00    -0.246 OA
BRANCH  16  18
ATOM     18  C   UNL A   1      39.006  22.460  26.408  1.00  0.00     0.060 A 
ATOM     19  C   UNL A   1      38.538  23.737  26.095  1.00  0.00     0.016 A 
ATOM     20  C   UNL A   1      40.179  22.306  27.147  1.00  0.00     0.016 A 
ATOM     21  C   UNL A   1      39.275  24.861  26.455  1.00  0.00     0.010 A 
ATOM     22  C   UNL A   1      40.873  23.437  27.584  1.00  0.00     0.010 A 
ATOM     23  C   UNL A   1      40.441  24.724  27.219  1.00  0.00    -0.014 A 
BRANCH  23  24
ATOM     24  C   UNL A   1      41.214  25.923  27.623  1.00  0.00     0.031 A 
ATOM     25  C   UNL A   1      40.578  26.973  28.488  1.00  0.00     0.074 A 
ATOM     26  C   UNL A   1      42.490  26.063  27.219  1.00  0.00     0.049 A 
ATOM     27  N   UNL A   1      41.019  28.164  28.801  1.00  0.00    -0.248 NA
ATOM     28  C   UNL A   1      39.269  26.643  29.074  1.00  0.00     0.031 C 
ATOM     29  C   UNL A   1      43.239  25.090  26.421  1.00  0.00     0.029 A 
ATOM     30  N   UNL A   1      43.386  27.081  27.427  1.00  0.00    -0.354 N 
ATOM     31  C   UNL A   1      40.024  28.745  29.576  1.00  0.00     0.074 A 
ATOM     32  C   UNL A   1      38.957  27.774  29.693  1.00  0.00     0.031 C 
ATOM     33  C   UNL A   1      44.486  25.544  26.229  1.00  0.00     0.029 A 
ATOM     34  C   UNL A   1      44.600  26.873  26.819  1.00  0.00     0.049 A 
ATOM     35  H   UNL A   1      43.180  27.882  27.960  1.00  0.00     0.167 HD
ATOM     36  C   UNL A   1      40.004  29.979  30.132  1.00  0.00     0.037 A 
ATOM     37  C   UNL A   1      45.671  27.680  26.707  1.00  0.00     0.037 A 
ATOM     38  C   UNL A   1      41.087  30.924  30.044  1.00  0.00     0.049 A 
ATOM     39  C   UNL A   1      45.609  29.058  27.298  1.00  0.00     0.074 A 
ATOM     40  C   UNL A   1      41.170  32.197  30.580  1.00  0.00     0.029 A 
ATOM     41  N   UNL A   1      42.283  30.689  29.384  1.00  0.00    -0.354 N 
ATOM     42  N   UNL A   1      44.638  29.622  27.974  1.00  0.00    -0.248 NA
ATOM     43  C   UNL A   1      46.777  29.922  27.084  1.00  0.00     0.031 C 
ATOM     44  C   UNL A   1      42.407  32.742  30.221  1.00  0.00     0.029 A 
ATOM     45  C   UNL A   1      43.107  31.798  29.487  1.00  0.00     0.049 A 
ATOM     46  H   UNL A   1      42.514  29.856  28.912  1.00  0.00     0.167 HD
ATOM     47  C   UNL A   1      45.073  30.907  28.263  1.00  0.00     0.074 A 
ATOM     48  C   UNL A   1      46.408  31.030  27.711  1.00  0.00     0.031 C 
ATOM     49  C   UNL A   1      44.425  31.900  28.918  1.00  0.00     0.037 A 
BRANCH  36  50
ATOM     50  C   UNL A   1      38.755  30.392  30.852  1.00  0.00     0.057 A 
ATOM     51  C   UNL A   1      37.704  31.049  30.201  1.00  0.00     0.134 A 
ATOM     52  C   UNL A   1      38.594  30.099  32.212  1.00  0.00     0.134 A 
ATOM     53  F   UNL A   1      37.805  31.371  28.903  1.00  0.00    -0.206 F 
ATOM     54  C   UNL A   1      36.542  31.417  30.883  1.00  0.00     0.040 A 
ATOM     55  C   UNL A   1      37.429  30.444  32.899  1.00  0.00     0.040 A 
ATOM     56  F   UNL A   1      39.563  29.470  32.892  1.00  0.00    -0.206 F 
ATOM     57  C   UNL A   1      36.400  31.109  32.235  1.00  0.00     0.006 A 
ENDBRANCH  36  50
BRANCH  37  58
ATOM     58  C   UNL A   1      46.865  27.220  25.960  1.00  0.00     0.057 A 
ATOM     59  C   UNL A   1      47.892  26.519  26.600  1.00  0.00     0.134 A 
ATOM     60  C   UNL A   1      46.996  27.447  24.584  1.00  0.00     0.134 A 
ATOM     61  F   UNL A   1      47.833  26.292  27.920  1.00  0.00    -0.206 F 
ATOM     62  C   UNL A   1      49.009  26.061  25.900  1.00  0.00     0.040 A 
ATOM     63  C   UNL A   1      48.094  26.974  23.866  1.00  0.00     0.040 A 
ATOM     64  F   UNL A   1      46.043  28.111  23.914  1.00  0.00    -0.206 F 
ATOM     65  C   UNL A   1      49.107  26.280  24.526  1.00  0.00     0.006 A 
ENDBRANCH  37  58
BRANCH  49  66
ATOM     66  C   UNL A   1      45.155  33.198  29.066  1.00  0.00     0.057 A 
ATOM     67  C   UNL A   1      46.009  33.436  30.149  1.00  0.00     0.134 A 
ATOM     68  C   UNL A   1      45.018  34.211  28.109  1.00  0.00     0.134 A 
ATOM     69  F   UNL A   1      46.168  32.508  31.105  1.00  0.00    -0.206 F 
ATOM     70  C   UNL A   1      46.691  34.645  30.285  1.00  0.00     0.040 A 
ATOM     71  C   UNL A   1      45.707  35.418  28.225  1.00  0.00     0.040 A 
ATOM     72  F   UNL A   1      44.215  34.040  27.047  1.00  0.00    -0.206 F 
ATOM     73  C   UNL A   1      46.543  35.639  29.318  1.00  0.00     0.006 A 
ENDBRANCH  49  66
ENDBRANCH  23  24
ENDBRANCH  16  18
ENDBRANCH  15  16
ENDBRANCH  14  15
ENDBRANCH   1  14
TORSDOF 16
ENDMDL
