MODEL 1
REMARK VINA RESULT:     -14.9      0.000      0.000
REMARK SMILES C[C@@H](NC(=O)CNC(=O)N1CC(=O)Nc2ccccc21)C(=O)OCCOC(=O)c1ccc(-c2c3nc(c(-c4c(F)cccc4F)c4ccc([nH]4)c(-c4c(F)cccc4F)c4nc(c(-c5c(F)cccc5F)c5ccc2[nH]5)C=C4)C=C3)cc1
REMARK SMILES IDX 24 1 23 2 21 3 22 4 2 5 1 6 3 7 4 8 5 10 6 11 7 12 8 13 9 15
REMARK SMILES IDX 10 16 11 17 20 18 12 19 15 20 19 21 13 22 14 23 16 24 18 25
REMARK SMILES IDX 17 27 25 28 26 29 27 30 28 31 29 32 30 33 82 34 31 35 81 36
REMARK SMILES IDX 32 37 33 38 34 39 75 40 35 41 80 42 74 43 76 44 36 45 79 46
REMARK SMILES IDX 73 47 72 48 37 50 63 51 46 52 62 53 47 54 50 55 61 56 77 57
REMARK SMILES IDX 48 58 49 59 60 61 78 62 51 63 38 64 39 65 44 66 40 67 41 68
REMARK SMILES IDX 43 69 45 70 42 71 64 72 65 73 70 74 66 75 67 76 69 77 71 78
REMARK SMILES IDX 68 79 52 80 53 81 58 82 54 83 55 84 57 85 59 86 56 87
REMARK H PARENT 3 9 7 14 14 26 76 49 50 60
REMARK Flexibility Score: inf
ROOT
ATOM      1  C   UNL A   1      41.399  19.670  26.121  1.00  0.00     0.274 C 
ENDROOT
BRANCH   1   2
ATOM      2  O   UNL A   1      40.119  20.932  26.175  1.00  0.00    -0.461 OA
BRANCH   2   3
ATOM      3  C   UNL A   1      38.811  21.450  25.808  1.00  0.00     0.328 C 
ATOM      4  O   UNL A   1      38.148  20.718  25.056  1.00  0.00    -0.250 OA
BRANCH   3   5
ATOM      5  C   UNL A   1      38.126  23.031  26.025  1.00  0.00     0.189 C 
ATOM      6  C   UNL A   1      38.395  24.454  26.624  1.00  0.00     0.043 C 
BRANCH   5   7
ATOM      7  N   UNL A   1      37.679  23.348  24.702  1.00  0.00    -0.341 N 
ATOM      8  C   UNL A   1      36.356  23.213  24.402  1.00  0.00     0.240 C 
ATOM      9  H   UNL A   1      38.317  23.658  24.019  1.00  0.00     0.164 HD
ATOM     10  O   UNL A   1      35.983  23.415  23.249  1.00  0.00    -0.273 OA
BRANCH   8  11
ATOM     11  C   UNL A   1      35.370  23.066  25.605  1.00  0.00     0.218 C 
BRANCH  11  12
ATOM     12  N   UNL A   1      33.779  22.772  25.353  1.00  0.00    -0.329 N 
ATOM     13  C   UNL A   1      32.464  23.385  25.301  1.00  0.00     0.322 C 
ATOM     14  H   UNL A   1      33.673  21.811  25.165  1.00  0.00     0.165 HD
ATOM     15  O   UNL A   1      31.788  22.732  26.092  1.00  0.00    -0.248 OA
BRANCH  13  16
ATOM     16  N   UNL A   1      31.840  24.441  24.255  1.00  0.00    -0.283 N 
ATOM     17  C   UNL A   1      31.768  24.687  22.646  1.00  0.00     0.227 C 
ATOM     18  C   UNL A   1      31.760  25.856  24.601  1.00  0.00     0.070 A 
ATOM     19  C   UNL A   1      33.020  25.407  22.103  1.00  0.00     0.244 C 
ATOM     20  C   UNL A   1      33.408  26.126  24.355  1.00  0.00     0.065 A 
ATOM     21  C   UNL A   1      30.708  26.730  25.803  1.00  0.00     0.028 A 
ATOM     22  O   UNL A   1      33.207  25.590  20.902  1.00  0.00    -0.273 OA
ATOM     23  N   UNL A   1      33.877  25.919  23.054  1.00  0.00    -0.323 N 
ATOM     24  C   UNL A   1      34.204  27.044  25.485  1.00  0.00     0.028 A 
ATOM     25  C   UNL A   1      31.433  27.818  27.043  1.00  0.00     0.002 A 
ATOM     26  H   UNL A   1      34.808  26.136  22.821  1.00  0.00     0.170 HD
ATOM     27  C   UNL A   1      33.232  28.017  26.969  1.00  0.00     0.002 A 
ENDBRANCH  13  16
ENDBRANCH  11  12
ENDBRANCH   8  11
ENDBRANCH   5   7
ENDBRANCH   3   5
ENDBRANCH   2   3
ENDBRANCH   1   2
BRANCH   1  28
ATOM     28  C   UNL A   1      43.105  19.793  25.457  1.00  0.00     0.275 C 
BRANCH  28  29
ATOM     29  O   UNL A   1      43.931  21.117  24.774  1.00  0.00    -0.458 OA
BRANCH  29  30
ATOM     30  C   UNL A   1      44.174  22.590  24.675  1.00  0.00     0.338 C 
ATOM     31  O   UNL A   1      44.619  22.992  23.592  1.00  0.00    -0.246 OA
BRANCH  30  32
ATOM     32  C   UNL A   1      43.883  23.894  25.918  1.00  0.00     0.060 A 
ATOM     33  C   UNL A   1      42.558  23.433  27.063  1.00  0.00     0.016 A 
ATOM     34  C   UNL A   1      44.393  25.877  25.893  1.00  0.00     0.016 A 
ATOM     35  C   UNL A   1      41.807  24.699  28.083  1.00  0.00     0.010 A 
ATOM     36  C   UNL A   1      43.528  27.040  26.949  1.00  0.00     0.010 A 
ATOM     37  C   UNL A   1      42.296  26.429  28.038  1.00  0.00    -0.014 A 
BRANCH  37  38
ATOM     38  C   UNL A   1      41.817  27.399  29.070  1.00  0.00     0.031 A 
ATOM     39  C   UNL A   1      42.512  27.349  30.385  1.00  0.00     0.074 A 
ATOM     40  C   UNL A   1      40.764  28.234  28.887  1.00  0.00     0.049 A 
ATOM     41  N   UNL A   1      42.306  28.047  31.466  1.00  0.00    -0.248 NA
ATOM     42  C   UNL A   1      43.587  26.355  30.490  1.00  0.00     0.031 C 
ATOM     43  C   UNL A   1      39.976  28.386  27.660  1.00  0.00     0.029 A 
ATOM     44  N   UNL A   1      40.156  29.126  29.751  1.00  0.00    -0.354 N 
ATOM     45  C   UNL A   1      43.259  27.599  32.368  1.00  0.00     0.074 A 
ATOM     46  C   UNL A   1      44.000  26.539  31.729  1.00  0.00     0.031 C 
ATOM     47  C   UNL A   1      39.007  29.303  27.847  1.00  0.00     0.029 A 
ATOM     48  C   UNL A   1      39.071  29.795  29.218  1.00  0.00     0.049 A 
ATOM     49  H   UNL A   1      40.471  29.271  30.673  1.00  0.00     0.167 HD
ATOM     50  C   UNL A   1      43.502  28.037  33.621  1.00  0.00     0.037 A 
ATOM     51  C   UNL A   1      38.224  30.690  29.777  1.00  0.00     0.037 A 
ATOM     52  C   UNL A   1      42.700  29.016  34.290  1.00  0.00     0.049 A 
ATOM     53  C   UNL A   1      38.445  31.078  31.221  1.00  0.00     0.074 A 
ATOM     54  C   UNL A   1      42.817  29.491  35.581  1.00  0.00     0.029 A 
ATOM     55  N   UNL A   1      41.600  29.645  33.722  1.00  0.00    -0.354 N 
ATOM     56  N   UNL A   1      39.395  30.695  32.042  1.00  0.00    -0.248 NA
ATOM     57  C   UNL A   1      37.485  32.019  31.819  1.00  0.00     0.031 C 
ATOM     58  C   UNL A   1      41.753  30.367  35.815  1.00  0.00     0.029 A 
ATOM     59  C   UNL A   1      41.015  30.489  34.646  1.00  0.00     0.049 A 
ATOM     60  H   UNL A   1      41.285  29.510  32.799  1.00  0.00     0.167 HD
ATOM     61  C   UNL A   1      39.169  31.374  33.234  1.00  0.00     0.074 A 
ATOM     62  C   UNL A   1      38.001  32.205  33.026  1.00  0.00     0.031 C 
ATOM     63  C   UNL A   1      39.862  31.318  34.398  1.00  0.00     0.037 A 
BRANCH  50  64
ATOM     64  C   UNL A   1      44.653  27.391  34.326  1.00  0.00     0.057 A 
ATOM     65  C   UNL A   1      44.465  26.285  35.168  1.00  0.00     0.134 A 
ATOM     66  C   UNL A   1      45.938  27.934  34.242  1.00  0.00     0.134 A 
ATOM     67  F   UNL A   1      43.243  25.751  35.326  1.00  0.00    -0.206 F 
ATOM     68  C   UNL A   1      45.510  25.765  35.931  1.00  0.00     0.040 A 
ATOM     69  C   UNL A   1      46.998  27.404  34.977  1.00  0.00     0.040 A 
ATOM     70  F   UNL A   1      46.177  29.006  33.473  1.00  0.00    -0.206 F 
ATOM     71  C   UNL A   1      46.782  26.324  35.833  1.00  0.00     0.006 A 
ENDBRANCH  50  64
BRANCH  51  72
ATOM     72  C   UNL A   1      37.077  31.286  29.019  1.00  0.00     0.057 A 
ATOM     73  C   UNL A   1      37.095  32.623  28.590  1.00  0.00     0.134 A 
ATOM     74  C   UNL A   1      35.893  30.573  28.792  1.00  0.00     0.134 A 
ATOM     75  F   UNL A   1      38.181  33.383  28.801  1.00  0.00    -0.206 F 
ATOM     76  C   UNL A   1      35.980  33.232  28.004  1.00  0.00     0.040 A 
ATOM     77  C   UNL A   1      34.778  31.160  28.181  1.00  0.00     0.040 A 
ATOM     78  F   UNL A   1      35.789  29.294  29.181  1.00  0.00    -0.206 F 
ATOM     79  C   UNL A   1      34.815  32.498  27.797  1.00  0.00     0.006 A 
ENDBRANCH  51  72
BRANCH  63  80
ATOM     80  C   UNL A   1      39.412  32.213  35.516  1.00  0.00     0.057 A 
ATOM     81  C   UNL A   1      39.871  33.529  35.648  1.00  0.00     0.134 A 
ATOM     82  C   UNL A   1      38.444  31.768  36.427  1.00  0.00     0.134 A 
ATOM     83  F   UNL A   1      40.804  34.012  34.813  1.00  0.00    -0.206 F 
ATOM     84  C   UNL A   1      39.398  34.364  36.660  1.00  0.00     0.040 A 
ATOM     85  C   UNL A   1      37.939  32.605  37.421  1.00  0.00     0.040 A 
ATOM     86  F   UNL A   1      37.953  30.522  36.346  1.00  0.00    -0.206 F 
ATOM     87  C   UNL A   1      38.421  33.906  37.543  1.00  0.00     0.006 A 
ENDBRANCH  63  80
ENDBRANCH  37  38
ENDBRANCH  30  32
ENDBRANCH  29  30
ENDBRANCH  28  29
ENDBRANCH   1  28
TORSDOF 15
ENDMDL
MODEL 2
REMARK VINA RESULT:     -14.4      1.279      2.273
REMARK SMILES C[C@@H](NC(=O)CNC(=O)N1CC(=O)Nc2ccccc21)C(=O)OCCOC(=O)c1ccc(-c2c3nc(c(-c4c(F)cccc4F)c4ccc([nH]4)c(-c4c(F)cccc4F)c4nc(c(-c5c(F)cccc5F)c5ccc2[nH]5)C=C4)C=C3)cc1
REMARK SMILES IDX 24 1 23 2 21 3 22 4 2 5 1 6 3 7 4 8 5 10 6 11 7 12 8 13 9 15
REMARK SMILES IDX 10 16 11 17 20 18 12 19 15 20 19 21 13 22 14 23 16 24 18 25
REMARK SMILES IDX 17 27 25 28 26 29 27 30 28 31 29 32 30 33 82 34 31 35 81 36
REMARK SMILES IDX 32 37 33 38 34 39 75 40 35 41 80 42 74 43 76 44 36 45 79 46
REMARK SMILES IDX 73 47 72 48 37 50 63 51 46 52 62 53 47 54 50 55 61 56 77 57
REMARK SMILES IDX 48 58 49 59 60 61 78 62 51 63 38 64 39 65 44 66 40 67 41 68
REMARK SMILES IDX 43 69 45 70 42 71 64 72 65 73 70 74 66 75 67 76 69 77 71 78
REMARK SMILES IDX 68 79 52 80 53 81 58 82 54 83 55 84 57 85 59 86 56 87
REMARK H PARENT 3 9 7 14 14 26 76 49 50 60
REMARK Flexibility Score: inf
ROOT
ATOM      1  C   UNL A   1      40.837  20.044  26.471  1.00  0.00     0.274 C 
ENDROOT
BRANCH   1   2
ATOM      2  O   UNL A   1      39.753  21.465  26.680  1.00  0.00    -0.461 OA
BRANCH   2   3
ATOM      3  C   UNL A   1      38.845  22.473  26.159  1.00  0.00     0.328 C 
ATOM      4  O   UNL A   1      38.975  23.604  26.653  1.00  0.00    -0.250 OA
BRANCH   3   5
ATOM      5  C   UNL A   1      37.436  22.307  25.158  1.00  0.00     0.189 C 
ATOM      6  C   UNL A   1      36.857  21.571  23.902  1.00  0.00     0.043 C 
BRANCH   5   7
ATOM      7  N   UNL A   1      36.404  22.093  26.128  1.00  0.00    -0.341 N 
ATOM      8  C   UNL A   1      35.508  23.092  26.370  1.00  0.00     0.240 C 
ATOM      9  H   UNL A   1      36.342  21.237  26.612  1.00  0.00     0.164 HD
ATOM     10  O   UNL A   1      34.667  22.935  27.252  1.00  0.00    -0.273 OA
BRANCH   8  11
ATOM     11  C   UNL A   1      35.450  24.257  25.332  1.00  0.00     0.218 C 
BRANCH  11  12
ATOM     12  N   UNL A   1      34.256  25.376  25.394  1.00  0.00    -0.329 N 
ATOM     13  C   UNL A   1      33.389  26.216  24.588  1.00  0.00     0.322 C 
ATOM     14  H   UNL A   1      34.046  25.544  26.341  1.00  0.00     0.165 HD
ATOM     15  O   UNL A   1      33.582  27.353  25.010  1.00  0.00    -0.248 OA
BRANCH  13  16
ATOM     16  N   UNL A   1      32.180  25.827  23.595  1.00  0.00    -0.283 N 
ATOM     17  C   UNL A   1      30.770  26.449  23.066  1.00  0.00     0.227 C 
ATOM     18  C   UNL A   1      31.762  24.436  23.458  1.00  0.00     0.070 A 
ATOM     19  C   UNL A   1      29.604  26.179  24.040  1.00  0.00     0.244 C 
ATOM     20  C   UNL A   1      30.953  24.415  24.940  1.00  0.00     0.065 A 
ATOM     21  C   UNL A   1      32.592  23.014  22.680  1.00  0.00     0.028 A 
ATOM     22  O   UNL A   1      28.482  26.655  23.876  1.00  0.00    -0.273 OA
ATOM     23  N   UNL A   1      29.869  25.290  25.061  1.00  0.00    -0.323 N 
ATOM     24  C   UNL A   1      31.174  23.084  25.906  1.00  0.00     0.028 A 
ATOM     25  C   UNL A   1      32.835  21.477  23.590  1.00  0.00     0.002 A 
ATOM     26  H   UNL A   1      29.303  25.272  25.866  1.00  0.00     0.170 HD
ATOM     27  C   UNL A   1      32.159  21.435  25.270  1.00  0.00     0.002 A 
ENDBRANCH  13  16
ENDBRANCH  11  12
ENDBRANCH   8  11
ENDBRANCH   5   7
ENDBRANCH   3   5
ENDBRANCH   2   3
ENDBRANCH   1   2
BRANCH   1  28
ATOM     28  C   UNL A   1      42.523  19.983  25.750  1.00  0.00     0.275 C 
BRANCH  28  29
ATOM     29  O   UNL A   1      43.468  21.213  25.047  1.00  0.00    -0.458 OA
BRANCH  29  30
ATOM     30  C   UNL A   1      43.916  22.639  24.990  1.00  0.00     0.338 C 
ATOM     31  O   UNL A   1      44.551  22.966  23.978  1.00  0.00    -0.246 OA
BRANCH  30  32
ATOM     32  C   UNL A   1      43.641  23.985  26.192  1.00  0.00     0.060 A 
ATOM     33  C   UNL A   1      42.362  23.544  27.396  1.00  0.00     0.016 A 
ATOM     34  C   UNL A   1      44.112  25.973  26.076  1.00  0.00     0.016 A 
ATOM     35  C   UNL A   1      41.621  24.835  28.392  1.00  0.00     0.010 A 
ATOM     36  C   UNL A   1      43.260  27.161  27.115  1.00  0.00     0.010 A 
ATOM     37  C   UNL A   1      42.075  26.571  28.266  1.00  0.00    -0.014 A 
BRANCH  37  38
ATOM     38  C   UNL A   1      41.611  27.571  29.275  1.00  0.00     0.031 A 
ATOM     39  C   UNL A   1      42.302  27.537  30.592  1.00  0.00     0.074 A 
ATOM     40  C   UNL A   1      40.573  28.420  29.071  1.00  0.00     0.049 A 
ATOM     41  N   UNL A   1      42.106  28.262  31.658  1.00  0.00    -0.248 NA
ATOM     42  C   UNL A   1      43.359  26.527  30.722  1.00  0.00     0.031 C 
ATOM     43  C   UNL A   1      39.791  28.560  27.840  1.00  0.00     0.029 A 
ATOM     44  N   UNL A   1      39.979  29.341  29.915  1.00  0.00    -0.354 N 
ATOM     45  C   UNL A   1      43.049  27.816  32.572  1.00  0.00     0.074 A 
ATOM     46  C   UNL A   1      43.773  26.729  31.958  1.00  0.00     0.031 C 
ATOM     47  C   UNL A   1      38.838  29.497  28.005  1.00  0.00     0.029 A 
ATOM     48  C   UNL A   1      38.907  30.017  29.365  1.00  0.00     0.049 A 
ATOM     49  H   UNL A   1      40.295  29.500  30.834  1.00  0.00     0.167 HD
ATOM     50  C   UNL A   1      43.297  28.277  33.815  1.00  0.00     0.037 A 
ATOM     51  C   UNL A   1      38.075  30.939  29.902  1.00  0.00     0.037 A 
ATOM     52  C   UNL A   1      42.511  29.284  34.462  1.00  0.00     0.049 A 
ATOM     53  C   UNL A   1      38.300  31.354  31.338  1.00  0.00     0.074 A 
ATOM     54  C   UNL A   1      42.634  29.785  35.742  1.00  0.00     0.029 A 
ATOM     55  N   UNL A   1      41.424  29.920  33.877  1.00  0.00    -0.354 N 
ATOM     56  N   UNL A   1      39.241  30.972  32.170  1.00  0.00    -0.248 NA
ATOM     57  C   UNL A   1      37.355  32.324  31.914  1.00  0.00     0.031 C 
ATOM     58  C   UNL A   1      41.585  30.684  35.954  1.00  0.00     0.029 A 
ATOM     59  C   UNL A   1      40.851  30.794  34.782  1.00  0.00     0.049 A 
ATOM     60  H   UNL A   1      41.108  29.771  32.956  1.00  0.00     0.167 HD
ATOM     61  C   UNL A   1      39.024  31.680  33.347  1.00  0.00     0.074 A 
ATOM     62  C   UNL A   1      37.872  32.527  33.117  1.00  0.00     0.031 C 
ATOM     63  C   UNL A   1      39.714  31.637  34.513  1.00  0.00     0.037 A 
BRANCH  50  64
ATOM     64  C   UNL A   1      44.435  27.626  34.538  1.00  0.00     0.057 A 
ATOM     65  C   UNL A   1      44.237  26.491  35.338  1.00  0.00     0.134 A 
ATOM     66  C   UNL A   1      45.713  28.190  34.512  1.00  0.00     0.134 A 
ATOM     67  F   UNL A   1      43.019  25.935  35.440  1.00  0.00    -0.206 F 
ATOM     68  C   UNL A   1      45.266  25.963  36.118  1.00  0.00     0.040 A 
ATOM     69  C   UNL A   1      46.757  27.652  35.264  1.00  0.00     0.040 A 
ATOM     70  F   UNL A   1      45.960  29.289  33.785  1.00  0.00    -0.206 F 
ATOM     71  C   UNL A   1      46.531  26.543  36.079  1.00  0.00     0.006 A 
ENDBRANCH  50  64
BRANCH  51  72
ATOM     72  C   UNL A   1      36.940  31.539  29.129  1.00  0.00     0.057 A 
ATOM     73  C   UNL A   1      36.987  32.864  28.665  1.00  0.00     0.134 A 
ATOM     74  C   UNL A   1      35.741  30.845  28.921  1.00  0.00     0.134 A 
ATOM     75  F   UNL A   1      38.088  33.606  28.855  1.00  0.00    -0.206 F 
ATOM     76  C   UNL A   1      35.884  33.480  28.063  1.00  0.00     0.040 A 
ATOM     77  C   UNL A   1      34.639  31.439  28.294  1.00  0.00     0.040 A 
ATOM     78  F   UNL A   1      35.611  29.579  29.342  1.00  0.00    -0.206 F 
ATOM     79  C   UNL A   1      34.704  32.766  27.875  1.00  0.00     0.006 A 
ENDBRANCH  51  72
BRANCH  63  80
ATOM     80  C   UNL A   1      39.277  32.564  35.610  1.00  0.00     0.057 A 
ATOM     81  C   UNL A   1      38.371  32.172  36.602  1.00  0.00     0.134 A 
ATOM     82  C   UNL A   1      39.836  33.846  35.711  1.00  0.00     0.134 A 
ATOM     83  F   UNL A   1      37.793  30.962  36.556  1.00  0.00    -0.206 F 
ATOM     84  C   UNL A   1      38.020  33.029  37.645  1.00  0.00     0.040 A 
ATOM     85  C   UNL A   1      39.520  34.698  36.768  1.00  0.00     0.040 A 
ATOM     86  F   UNL A   1      40.721  34.277  34.799  1.00  0.00    -0.206 F 
ATOM     87  C   UNL A   1      38.604  34.292  37.736  1.00  0.00     0.006 A 
ENDBRANCH  63  80
ENDBRANCH  37  38
ENDBRANCH  30  32
ENDBRANCH  29  30
ENDBRANCH  28  29
ENDBRANCH   1  28
TORSDOF 15
ENDMDL
MODEL 3
REMARK VINA RESULT:     -13.9      6.355     10.513
REMARK SMILES C[C@@H](NC(=O)CNC(=O)N1CC(=O)Nc2ccccc21)C(=O)OCCOC(=O)c1ccc(-c2c3nc(c(-c4c(F)cccc4F)c4ccc([nH]4)c(-c4c(F)cccc4F)c4nc(c(-c5c(F)cccc5F)c5ccc2[nH]5)C=C4)C=C3)cc1
REMARK SMILES IDX 24 1 23 2 21 3 22 4 2 5 1 6 3 7 4 8 5 10 6 11 7 12 8 13 9 15
REMARK SMILES IDX 10 16 11 17 20 18 12 19 15 20 19 21 13 22 14 23 16 24 18 25
REMARK SMILES IDX 17 27 25 28 26 29 27 30 28 31 29 32 30 33 82 34 31 35 81 36
REMARK SMILES IDX 32 37 33 38 34 39 75 40 35 41 80 42 74 43 76 44 36 45 79 46
REMARK SMILES IDX 73 47 72 48 37 50 63 51 46 52 62 53 47 54 50 55 61 56 77 57
REMARK SMILES IDX 48 58 49 59 60 61 78 62 51 63 38 64 39 65 44 66 40 67 41 68
REMARK SMILES IDX 43 69 45 70 42 71 64 72 65 73 70 74 66 75 67 76 69 77 71 78
REMARK SMILES IDX 68 79 52 80 53 81 58 82 54 83 55 84 57 85 59 86 56 87
REMARK H PARENT 3 9 7 14 14 26 76 49 50 60
REMARK Flexibility Score: inf
ROOT
ATOM      1  C   UNL A   1      36.289  24.067  25.667  1.00  0.00     0.274 C 
ENDROOT
BRANCH   1   2
ATOM      2  O   UNL A   1      34.820  23.569  24.755  1.00  0.00    -0.461 OA
BRANCH   2   3
ATOM      3  C   UNL A   1      34.032  22.587  24.029  1.00  0.00     0.328 C 
ATOM      4  O   UNL A   1      34.006  22.740  22.798  1.00  0.00    -0.250 OA
BRANCH   3   5
ATOM      5  C   UNL A   1      32.908  21.397  24.608  1.00  0.00     0.189 C 
ATOM      6  C   UNL A   1      32.521  19.881  24.530  1.00  0.00     0.043 C 
BRANCH   5   7
ATOM      7  N   UNL A   1      32.935  21.622  26.022  1.00  0.00    -0.341 N 
ATOM      8  C   UNL A   1      32.053  22.508  26.566  1.00  0.00     0.240 C 
ATOM      9  H   UNL A   1      33.581  21.145  26.592  1.00  0.00     0.164 HD
ATOM     10  O   UNL A   1      32.124  22.756  27.768  1.00  0.00    -0.273 OA
BRANCH   8  11
ATOM     11  C   UNL A   1      30.849  22.946  25.673  1.00  0.00     0.218 C 
BRANCH  11  12
ATOM     12  N   UNL A   1      30.286  24.483  25.721  1.00  0.00    -0.329 N 
ATOM     13  C   UNL A   1      30.660  25.878  25.568  1.00  0.00     0.322 C 
ATOM     14  H   UNL A   1      29.326  24.449  25.939  1.00  0.00     0.165 HD
ATOM     15  O   UNL A   1      30.305  26.409  26.617  1.00  0.00    -0.248 OA
BRANCH  13  16
ATOM     16  N   UNL A   1      31.118  26.703  24.261  1.00  0.00    -0.283 N 
ATOM     17  C   UNL A   1      31.648  26.419  22.747  1.00  0.00     0.227 C 
ATOM     18  C   UNL A   1      31.823  27.971  24.405  1.00  0.00     0.070 A 
ATOM     19  C   UNL A   1      33.168  26.155  22.694  1.00  0.00     0.244 C 
ATOM     20  C   UNL A   1      33.286  27.240  24.827  1.00  0.00     0.065 A 
ATOM     21  C   UNL A   1      31.244  29.598  24.982  1.00  0.00     0.028 A 
ATOM     22  O   UNL A   1      33.744  25.816  21.663  1.00  0.00    -0.273 OA
ATOM     23  N   UNL A   1      33.862  26.414  23.858  1.00  0.00    -0.323 N 
ATOM     24  C   UNL A   1      34.132  27.908  26.089  1.00  0.00     0.028 A 
ATOM     25  C   UNL A   1      32.111  30.473  26.297  1.00  0.00     0.002 A 
ATOM     26  H   UNL A   1      34.752  26.021  24.005  1.00  0.00     0.170 HD
ATOM     27  C   UNL A   1      33.595  29.661  26.944  1.00  0.00     0.002 A 
ENDBRANCH  13  16
ENDBRANCH  11  12
ENDBRANCH   8  11
ENDBRANCH   5   7
ENDBRANCH   3   5
ENDBRANCH   2   3
ENDBRANCH   1   2
BRANCH   1  28
ATOM     28  C   UNL A   1      37.899  23.200  25.810  1.00  0.00     0.275 C 
BRANCH  28  29
ATOM     29  O   UNL A   1      39.186  23.435  26.901  1.00  0.00    -0.458 OA
BRANCH  29  30
ATOM     30  C   UNL A   1      40.592  23.165  27.334  1.00  0.00     0.338 C 
ATOM     31  O   UNL A   1      40.771  22.115  27.965  1.00  0.00    -0.246 OA
BRANCH  30  32
ATOM     32  C   UNL A   1      42.100  24.152  27.042  1.00  0.00     0.060 A 
ATOM     33  C   UNL A   1      42.679  24.939  28.566  1.00  0.00     0.016 A 
ATOM     34  C   UNL A   1      42.867  24.905  25.300  1.00  0.00     0.016 A 
ATOM     35  C   UNL A   1      43.864  26.279  28.460  1.00  0.00     0.010 A 
ATOM     36  C   UNL A   1      44.023  26.275  25.346  1.00  0.00     0.010 A 
ATOM     37  C   UNL A   1      44.523  26.900  26.906  1.00  0.00    -0.014 A 
BRANCH  37  38
ATOM     38  C   UNL A   1      45.680  27.845  26.875  1.00  0.00     0.031 A 
ATOM     39  C   UNL A   1      45.340  29.293  26.871  1.00  0.00     0.074 A 
ATOM     40  C   UNL A   1      46.973  27.448  26.773  1.00  0.00     0.049 A 
ATOM     41  N   UNL A   1      46.122  30.336  26.829  1.00  0.00    -0.248 NA
ATOM     42  C   UNL A   1      43.905  29.603  26.910  1.00  0.00     0.031 C 
ATOM     43  C   UNL A   1      47.461  26.066  26.751  1.00  0.00     0.029 A 
ATOM     44  N   UNL A   1      48.139  28.184  26.659  1.00  0.00    -0.354 N 
ATOM     45  C   UNL A   1      45.267  31.426  26.877  1.00  0.00     0.074 A 
ATOM     46  C   UNL A   1      43.915  30.921  26.895  1.00  0.00     0.031 C 
ATOM     47  C   UNL A   1      48.803  26.055  26.636  1.00  0.00     0.029 A 
ATOM     48  C   UNL A   1      49.289  27.426  26.544  1.00  0.00     0.049 A 
ATOM     49  H   UNL A   1      48.147  29.169  26.659  1.00  0.00     0.167 HD
ATOM     50  C   UNL A   1      45.579  32.739  26.910  1.00  0.00     0.037 A 
ATOM     51  C   UNL A   1      50.578  27.799  26.373  1.00  0.00     0.037 A 
ATOM     52  C   UNL A   1      46.915  33.241  26.787  1.00  0.00     0.049 A 
ATOM     53  C   UNL A   1      50.891  29.276  26.294  1.00  0.00     0.074 A 
ATOM     54  C   UNL A   1      47.343  34.553  26.746  1.00  0.00     0.029 A 
ATOM     55  N   UNL A   1      48.040  32.440  26.648  1.00  0.00    -0.354 N 
ATOM     56  N   UNL A   1      50.076  30.299  26.409  1.00  0.00    -0.248 NA
ATOM     57  C   UNL A   1      52.293  29.655  26.063  1.00  0.00     0.031 C 
ATOM     58  C   UNL A   1      48.722  34.548  26.525  1.00  0.00     0.029 A 
ATOM     59  C   UNL A   1      49.162  33.232  26.497  1.00  0.00     0.049 A 
ATOM     60  H   UNL A   1      48.039  31.455  26.655  1.00  0.00     0.167 HD
ATOM     61  C   UNL A   1      50.870  31.436  26.304  1.00  0.00     0.074 A 
ATOM     62  C   UNL A   1      52.233  30.977  26.131  1.00  0.00     0.031 C 
ATOM     63  C   UNL A   1      50.509  32.741  26.345  1.00  0.00     0.037 A 
BRANCH  50  64
ATOM     64  C   UNL A   1      44.424  33.682  27.027  1.00  0.00     0.057 A 
ATOM     65  C   UNL A   1      43.829  34.251  25.891  1.00  0.00     0.134 A 
ATOM     66  C   UNL A   1      43.966  34.099  28.280  1.00  0.00     0.134 A 
ATOM     67  F   UNL A   1      44.259  33.925  24.662  1.00  0.00    -0.206 F 
ATOM     68  C   UNL A   1      42.843  35.232  26.001  1.00  0.00     0.040 A 
ATOM     69  C   UNL A   1      42.960  35.057  28.401  1.00  0.00     0.040 A 
ATOM     70  F   UNL A   1      44.511  33.610  29.403  1.00  0.00    -0.206 F 
ATOM     71  C   UNL A   1      42.404  35.634  27.260  1.00  0.00     0.006 A 
ENDBRANCH  50  64
BRANCH  51  72
ATOM     72  C   UNL A   1      51.688  26.801  26.243  1.00  0.00     0.057 A 
ATOM     73  C   UNL A   1      52.513  26.474  27.331  1.00  0.00     0.134 A 
ATOM     74  C   UNL A   1      52.021  26.225  25.010  1.00  0.00     0.134 A 
ATOM     75  F   UNL A   1      52.280  27.011  28.538  1.00  0.00    -0.206 F 
ATOM     76  C   UNL A   1      53.636  25.650  27.193  1.00  0.00     0.040 A 
ATOM     77  C   UNL A   1      53.124  25.375  24.862  1.00  0.00     0.040 A 
ATOM     78  F   UNL A   1      51.290  26.493  23.919  1.00  0.00    -0.206 F 
ATOM     79  C   UNL A   1      53.944  25.097  25.953  1.00  0.00     0.006 A 
ENDBRANCH  51  72
BRANCH  63  80
ATOM     80  C   UNL A   1      51.603  33.766  26.256  1.00  0.00     0.057 A 
ATOM     81  C   UNL A   1      52.074  34.248  25.030  1.00  0.00     0.134 A 
ATOM     82  C   UNL A   1      52.136  34.329  27.424  1.00  0.00     0.134 A 
ATOM     83  F   UNL A   1      51.611  33.744  23.875  1.00  0.00    -0.206 F 
ATOM     84  C   UNL A   1      53.052  35.241  24.968  1.00  0.00     0.040 A 
ATOM     85  C   UNL A   1      53.088  35.345  27.374  1.00  0.00     0.040 A 
ATOM     86  F   UNL A   1      51.717  33.919  28.631  1.00  0.00    -0.206 F 
ATOM     87  C   UNL A   1      53.553  35.800  26.142  1.00  0.00     0.006 A 
ENDBRANCH  63  80
ENDBRANCH  37  38
ENDBRANCH  30  32
ENDBRANCH  29  30
ENDBRANCH  28  29
ENDBRANCH   1  28
TORSDOF 15
ENDMDL
