MODEL 1
REMARK VINA RESULT:     -10.6      0.000      0.000
REMARK SMILES CC(C)C[C@H](C(=O)OCCOC(=O)c1ccc(-c2c3nc(c(-c4c(F)cccc4F)c4ccc([nH]4)c(-c4c(F)cccc4F)c4nc(c(-c5c(F)cccc5F)c5ccc2[nH]5)C=C4)C=C3)cc1)[C@@H]1CCO[C@]2(CCOC2)C1
REMARK SMILES IDX 9 1 8 2 6 3 7 4 5 5 4 6 2 7 1 8 3 9 68 10 69 11 77 12 70 13
REMARK SMILES IDX 72 14 71 15 73 16 76 17 74 18 75 19 10 20 11 21 12 22 13 23
REMARK SMILES IDX 14 24 15 25 67 26 16 27 66 28 17 29 18 30 19 31 60 32 20 33
REMARK SMILES IDX 65 34 59 35 61 36 21 37 64 38 58 39 57 40 22 42 48 43 31 44
REMARK SMILES IDX 47 45 32 46 35 47 46 48 62 49 33 50 34 51 45 53 63 54 36 55
REMARK SMILES IDX 23 56 24 57 29 58 25 59 26 60 28 61 30 62 27 63 49 64 50 65
REMARK SMILES IDX 55 66 51 67 52 68 54 69 56 70 53 71 37 72 38 73 43 74 39 75
REMARK SMILES IDX 40 76 42 77 44 78 41 79
REMARK H PARENT 61 41 35 52
REMARK Flexibility Score: inf
ROOT
ATOM      1  C   UNL A   1      31.690  28.300  26.519  1.00  0.00     0.274 C 
ENDROOT
BRANCH   1   2
ATOM      2  O   UNL A   1      32.537  27.146  26.379  1.00  0.00    -0.462 OA
BRANCH   2   3
ATOM      3  C   UNL A   1      31.907  25.949  26.270  1.00  0.00     0.309 C 
ATOM      4  O   UNL A   1      30.879  25.663  26.876  1.00  0.00    -0.252 OA
BRANCH   3   5
ATOM      5  C   UNL A   1      32.529  25.025  25.198  1.00  0.00     0.103 C 
BRANCH   5   6
ATOM      6  C   UNL A   1      32.762  25.753  23.843  1.00  0.00     0.018 C 
BRANCH   6   7
ATOM      7  C   UNL A   1      31.638  25.604  22.795  1.00  0.00    -0.017 C 
ATOM      8  C   UNL A   1      30.653  24.479  23.127  1.00  0.00     0.007 C 
ATOM      9  C   UNL A   1      30.877  26.923  22.650  1.00  0.00     0.007 C 
ENDBRANCH   6   7
ENDBRANCH   5   6
BRANCH   5  10
ATOM     10  C   UNL A   1      33.737  24.268  25.871  1.00  0.00     0.008 C 
ATOM     11  C   UNL A   1      35.156  24.543  25.372  1.00  0.00     0.033 C 
ATOM     12  C   UNL A   1      33.522  22.740  26.020  1.00  0.00     0.042 C 
ATOM     13  C   UNL A   1      35.577  23.663  24.211  1.00  0.00     0.161 C 
ATOM     14  C   UNL A   1      34.072  21.879  24.863  1.00  0.00     0.094 C 
ATOM     15  O   UNL A   1      35.388  22.284  24.489  1.00  0.00    -0.372 OA
ATOM     16  C   UNL A   1      33.100  21.765  23.692  1.00  0.00     0.066 C 
ATOM     17  C   UNL A   1      34.157  20.405  25.279  1.00  0.00     0.195 C 
ATOM     18  C   UNL A   1      32.332  20.469  23.912  1.00  0.00     0.163 C 
ATOM     19  O   UNL A   1      32.846  19.867  25.099  1.00  0.00    -0.378 OA
ENDBRANCH   5  10
ENDBRANCH   3   5
ENDBRANCH   2   3
ENDBRANCH   1   2
BRANCH   1  20
ATOM     20  C   UNL A   1      31.948  29.244  25.345  1.00  0.00     0.275 C 
BRANCH  20  21
ATOM     21  O   UNL A   1      33.154  29.996  25.591  1.00  0.00    -0.458 OA
BRANCH  21  22
ATOM     22  C   UNL A   1      33.122  30.865  26.623  1.00  0.00     0.338 C 
ATOM     23  O   UNL A   1      32.236  31.674  26.878  1.00  0.00    -0.246 OA
BRANCH  22  24
ATOM     24  C   UNL A   1      34.344  30.741  27.442  1.00  0.00     0.060 A 
ATOM     25  C   UNL A   1      35.183  31.834  27.676  1.00  0.00     0.016 A 
ATOM     26  C   UNL A   1      34.701  29.480  27.923  1.00  0.00     0.016 A 
ATOM     27  C   UNL A   1      36.402  31.657  28.335  1.00  0.00     0.010 A 
ATOM     28  C   UNL A   1      35.879  29.323  28.661  1.00  0.00     0.010 A 
ATOM     29  C   UNL A   1      36.753  30.405  28.858  1.00  0.00    -0.014 A 
BRANCH  29  30
ATOM     30  C   UNL A   1      38.018  30.210  29.621  1.00  0.00     0.031 A 
ATOM     31  C   UNL A   1      39.123  29.356  29.059  1.00  0.00     0.074 A 
ATOM     32  C   UNL A   1      38.163  30.756  30.846  1.00  0.00     0.049 A 
ATOM     33  N   UNL A   1      40.189  28.881  29.653  1.00  0.00    -0.248 NA
ATOM     34  C   UNL A   1      39.003  28.970  27.644  1.00  0.00     0.031 C 
ATOM     35  C   UNL A   1      37.193  31.628  31.509  1.00  0.00     0.029 A 
ATOM     36  N   UNL A   1      39.182  30.639  31.759  1.00  0.00    -0.354 N 
ATOM     37  C   UNL A   1      40.841  28.107  28.701  1.00  0.00     0.074 A 
ATOM     38  C   UNL A   1      40.049  28.172  27.491  1.00  0.00     0.031 C 
ATOM     39  C   UNL A   1      37.668  31.980  32.712  1.00  0.00     0.029 A 
ATOM     40  C   UNL A   1      38.937  31.298  32.939  1.00  0.00     0.049 A 
ATOM     41  H   UNL A   1      40.009  30.133  31.585  1.00  0.00     0.167 HD
ATOM     42  C   UNL A   1      41.994  27.406  28.826  1.00  0.00     0.037 A 
ATOM     43  C   UNL A   1      39.628  31.319  34.095  1.00  0.00     0.037 A 
ATOM     44  C   UNL A   1      42.806  27.375  30.016  1.00  0.00     0.049 A 
ATOM     45  C   UNL A   1      40.885  30.509  34.222  1.00  0.00     0.074 A 
ATOM     46  C   UNL A   1      43.999  26.706  30.230  1.00  0.00     0.029 A 
ATOM     47  N   UNL A   1      42.513  28.052  31.189  1.00  0.00    -0.354 N 
ATOM     48  N   UNL A   1      41.466  29.742  33.331  1.00  0.00    -0.248 NA
ATOM     49  C   UNL A   1      41.574  30.553  35.520  1.00  0.00     0.031 C 
ATOM     50  C   UNL A   1      44.414  26.955  31.542  1.00  0.00     0.029 A 
ATOM     51  C   UNL A   1      43.496  27.808  32.134  1.00  0.00     0.049 A 
ATOM     52  H   UNL A   1      41.723  28.623  31.330  1.00  0.00     0.167 HD
ATOM     53  C   UNL A   1      42.590  29.222  33.956  1.00  0.00     0.074 A 
ATOM     54  C   UNL A   1      42.621  29.772  35.295  1.00  0.00     0.031 C 
ATOM     55  C   UNL A   1      43.513  28.360  33.463  1.00  0.00     0.037 A 
BRANCH  42  56
ATOM     56  C   UNL A   1      42.440  26.589  27.650  1.00  0.00     0.057 A 
ATOM     57  C   UNL A   1      42.022  25.265  27.463  1.00  0.00     0.134 A 
ATOM     58  C   UNL A   1      43.262  27.152  26.665  1.00  0.00     0.134 A 
ATOM     59  F   UNL A   1      41.246  24.662  28.377  1.00  0.00    -0.206 F 
ATOM     60  C   UNL A   1      42.418  24.527  26.347  1.00  0.00     0.040 A 
ATOM     61  C   UNL A   1      43.647  26.432  25.534  1.00  0.00     0.040 A 
ATOM     62  F   UNL A   1      43.693  28.417  26.780  1.00  0.00    -0.206 F 
ATOM     63  C   UNL A   1      43.227  25.113  25.374  1.00  0.00     0.006 A 
ENDBRANCH  42  56
BRANCH  43  64
ATOM     64  C   UNL A   1      39.115  32.107  35.241  1.00  0.00     0.057 A 
ATOM     65  C   UNL A   1      39.375  33.477  35.349  1.00  0.00     0.134 A 
ATOM     66  C   UNL A   1      38.340  31.515  36.247  1.00  0.00     0.134 A 
ATOM     67  F   UNL A   1      40.132  34.094  34.430  1.00  0.00    -0.206 F 
ATOM     68  C   UNL A   1      38.886  34.231  36.417  1.00  0.00     0.040 A 
ATOM     69  C   UNL A   1      37.825  32.259  37.306  1.00  0.00     0.040 A 
ATOM     70  F   UNL A   1      38.056  30.204  36.198  1.00  0.00    -0.206 F 
ATOM     71  C   UNL A   1      38.101  33.623  37.395  1.00  0.00     0.006 A 
ENDBRANCH  43  64
BRANCH  55  72
ATOM     72  C   UNL A   1      44.642  27.981  34.372  1.00  0.00     0.057 A 
ATOM     73  C   UNL A   1      45.818  28.739  34.438  1.00  0.00     0.134 A 
ATOM     74  C   UNL A   1      44.543  26.860  35.205  1.00  0.00     0.134 A 
ATOM     75  F   UNL A   1      45.978  29.815  33.654  1.00  0.00    -0.206 F 
ATOM     76  C   UNL A   1      46.866  28.383  35.289  1.00  0.00     0.040 A 
ATOM     77  C   UNL A   1      45.577  26.505  36.073  1.00  0.00     0.040 A 
ATOM     78  F   UNL A   1      43.441  26.097  35.192  1.00  0.00    -0.206 F 
ATOM     79  C   UNL A   1      46.744  27.265  36.113  1.00  0.00     0.006 A 
ENDBRANCH  55  72
ENDBRANCH  29  30
ENDBRANCH  22  24
ENDBRANCH  21  22
ENDBRANCH  20  21
ENDBRANCH   1  20
TORSDOF 14
ENDMDL
MODEL 2
REMARK VINA RESULT:     -10.6      3.587      8.575
REMARK SMILES CC(C)C[C@H](C(=O)OCCOC(=O)c1ccc(-c2c3nc(c(-c4c(F)cccc4F)c4ccc([nH]4)c(-c4c(F)cccc4F)c4nc(c(-c5c(F)cccc5F)c5ccc2[nH]5)C=C4)C=C3)cc1)[C@@H]1CCO[C@]2(CCOC2)C1
REMARK SMILES IDX 9 1 8 2 6 3 7 4 5 5 4 6 2 7 1 8 3 9 68 10 69 11 77 12 70 13
REMARK SMILES IDX 72 14 71 15 73 16 76 17 74 18 75 19 10 20 11 21 12 22 13 23
REMARK SMILES IDX 14 24 15 25 67 26 16 27 66 28 17 29 18 30 19 31 60 32 20 33
REMARK SMILES IDX 65 34 59 35 61 36 21 37 64 38 58 39 57 40 22 42 48 43 31 44
REMARK SMILES IDX 47 45 32 46 35 47 46 48 62 49 33 50 34 51 45 53 63 54 36 55
REMARK SMILES IDX 23 56 24 57 29 58 25 59 26 60 28 61 30 62 27 63 49 64 50 65
REMARK SMILES IDX 55 66 51 67 52 68 54 69 56 70 53 71 37 72 38 73 43 74 39 75
REMARK SMILES IDX 40 76 42 77 44 78 41 79
REMARK H PARENT 61 41 35 52
REMARK Flexibility Score: inf
ROOT
ATOM      1  C   UNL A   1      36.103  22.621  23.629  1.00  0.00     0.274 C 
ENDROOT
BRANCH   1   2
ATOM      2  O   UNL A   1      35.608  23.856  24.179  1.00  0.00    -0.462 OA
BRANCH   2   3
ATOM      3  C   UNL A   1      34.428  24.303  23.682  1.00  0.00     0.309 C 
ATOM      4  O   UNL A   1      34.059  24.111  22.527  1.00  0.00    -0.252 OA
BRANCH   3   5
ATOM      5  C   UNL A   1      33.523  24.960  24.749  1.00  0.00     0.103 C 
BRANCH   5   6
ATOM      6  C   UNL A   1      33.731  24.351  26.165  1.00  0.00     0.018 C 
BRANCH   6   7
ATOM      7  C   UNL A   1      32.613  23.410  26.667  1.00  0.00    -0.017 C 
ATOM      8  C   UNL A   1      31.541  23.135  25.608  1.00  0.00     0.007 C 
ATOM      9  C   UNL A   1      33.215  22.086  27.141  1.00  0.00     0.007 C 
ENDBRANCH   6   7
ENDBRANCH   5   6
BRANCH   5  10
ATOM     10  C   UNL A   1      33.638  26.521  24.569  1.00  0.00     0.008 C 
ATOM     11  C   UNL A   1      33.941  27.389  25.791  1.00  0.00     0.033 C 
ATOM     12  C   UNL A   1      32.479  27.152  23.755  1.00  0.00     0.042 C 
ATOM     13  C   UNL A   1      32.706  27.820  26.556  1.00  0.00     0.161 C 
ATOM     14  C   UNL A   1      31.293  27.679  24.592  1.00  0.00     0.094 C 
ATOM     15  O   UNL A   1      31.742  28.436  25.715  1.00  0.00    -0.372 OA
ATOM     16  C   UNL A   1      30.280  26.592  24.939  1.00  0.00     0.066 C 
ATOM     17  C   UNL A   1      30.408  28.607  23.750  1.00  0.00     0.195 C 
ATOM     18  C   UNL A   1      29.195  26.679  23.874  1.00  0.00     0.163 C 
ATOM     19  O   UNL A   1      29.541  27.754  23.001  1.00  0.00    -0.378 OA
ENDBRANCH   5  10
ENDBRANCH   3   5
ENDBRANCH   2   3
ENDBRANCH   1   2
BRANCH   1  20
ATOM     20  C   UNL A   1      35.902  21.510  24.659  1.00  0.00     0.275 C 
BRANCH  20  21
ATOM     21  O   UNL A   1      36.716  21.778  25.819  1.00  0.00    -0.458 OA
BRANCH  21  22
ATOM     22  C   UNL A   1      38.016  21.425  25.735  1.00  0.00     0.338 C 
ATOM     23  O   UNL A   1      38.465  20.339  25.381  1.00  0.00    -0.246 OA
BRANCH  22  24
ATOM     24  C   UNL A   1      38.884  22.541  26.160  1.00  0.00     0.060 A 
ATOM     25  C   UNL A   1      40.116  22.316  26.780  1.00  0.00     0.016 A 
ATOM     26  C   UNL A   1      38.416  23.847  26.005  1.00  0.00     0.016 A 
ATOM     27  C   UNL A   1      40.850  23.388  27.296  1.00  0.00     0.010 A 
ATOM     28  C   UNL A   1      39.195  24.923  26.441  1.00  0.00     0.010 A 
ATOM     29  C   UNL A   1      40.411  24.706  27.111  1.00  0.00    -0.014 A 
BRANCH  29  30
ATOM     30  C   UNL A   1      41.212  25.865  27.596  1.00  0.00     0.031 A 
ATOM     31  C   UNL A   1      40.578  26.917  28.466  1.00  0.00     0.074 A 
ATOM     32  C   UNL A   1      42.497  26.009  27.216  1.00  0.00     0.049 A 
ATOM     33  N   UNL A   1      41.028  28.101  28.798  1.00  0.00    -0.248 NA
ATOM     34  C   UNL A   1      39.253  26.602  29.023  1.00  0.00     0.031 C 
ATOM     35  C   UNL A   1      43.255  25.060  26.399  1.00  0.00     0.029 A 
ATOM     36  N   UNL A   1      43.390  27.024  27.456  1.00  0.00    -0.354 N 
ATOM     37  C   UNL A   1      40.027  28.688  29.563  1.00  0.00     0.074 A 
ATOM     38  C   UNL A   1      38.943  27.732  29.643  1.00  0.00     0.031 C 
ATOM     39  C   UNL A   1      44.499  25.527  26.220  1.00  0.00     0.029 A 
ATOM     40  C   UNL A   1      44.604  26.843  26.840  1.00  0.00     0.049 A 
ATOM     41  H   UNL A   1      43.181  27.807  28.016  1.00  0.00     0.167 HD
ATOM     42  C   UNL A   1      40.014  29.912  30.144  1.00  0.00     0.037 A 
ATOM     43  C   UNL A   1      45.672  27.658  26.741  1.00  0.00     0.037 A 
ATOM     44  C   UNL A   1      41.108  30.847  30.102  1.00  0.00     0.049 A 
ATOM     45  C   UNL A   1      45.622  29.022  27.365  1.00  0.00     0.074 A 
ATOM     46  C   UNL A   1      41.192  32.105  30.675  1.00  0.00     0.029 A 
ATOM     47  N   UNL A   1      42.316  30.622  29.459  1.00  0.00    -0.354 N 
ATOM     48  N   UNL A   1      44.652  29.585  28.043  1.00  0.00    -0.248 NA
ATOM     49  C   UNL A   1      46.810  29.872  27.194  1.00  0.00     0.031 C 
ATOM     50  C   UNL A   1      42.439  32.653  30.355  1.00  0.00     0.029 A 
ATOM     51  C   UNL A   1      43.145  31.721  29.612  1.00  0.00     0.049 A 
ATOM     52  H   UNL A   1      42.549  29.802  28.966  1.00  0.00     0.167 HD
ATOM     53  C   UNL A   1      45.114  30.847  28.388  1.00  0.00     0.074 A 
ATOM     54  C   UNL A   1      46.457  30.963  27.859  1.00  0.00     0.031 C 
ATOM     55  C   UNL A   1      44.478  31.825  29.078  1.00  0.00     0.037 A 
BRANCH  42  56
ATOM     56  C   UNL A   1      38.762  30.327  30.859  1.00  0.00     0.057 A 
ATOM     57  C   UNL A   1      38.564  30.069  32.221  1.00  0.00     0.134 A 
ATOM     58  C   UNL A   1      37.762  31.037  30.183  1.00  0.00     0.134 A 
ATOM     59  F   UNL A   1      39.477  29.380  32.922  1.00  0.00    -0.206 F 
ATOM     60  C   UNL A   1      37.409  30.490  32.882  1.00  0.00     0.040 A 
ATOM     61  C   UNL A   1      36.612  31.482  30.837  1.00  0.00     0.040 A 
ATOM     62  F   UNL A   1      37.891  31.322  28.879  1.00  0.00    -0.206 F 
ATOM     63  C   UNL A   1      36.432  31.205  32.191  1.00  0.00     0.006 A 
ENDBRANCH  42  56
BRANCH  43  64
ATOM     64  C   UNL A   1      46.865  27.215  25.981  1.00  0.00     0.057 A 
ATOM     65  C   UNL A   1      47.900  26.514  26.608  1.00  0.00     0.134 A 
ATOM     66  C   UNL A   1      46.991  27.465  24.609  1.00  0.00     0.134 A 
ATOM     67  F   UNL A   1      47.847  26.268  27.925  1.00  0.00    -0.206 F 
ATOM     68  C   UNL A   1      49.022  26.081  25.899  1.00  0.00     0.040 A 
ATOM     69  C   UNL A   1      48.094  27.017  23.883  1.00  0.00     0.040 A 
ATOM     70  F   UNL A   1      46.030  28.131  23.951  1.00  0.00    -0.206 F 
ATOM     71  C   UNL A   1      49.117  26.325  24.530  1.00  0.00     0.006 A 
ENDBRANCH  43  64
BRANCH  55  72
ATOM     72  C   UNL A   1      45.239  33.093  29.318  1.00  0.00     0.057 A 
ATOM     73  C   UNL A   1      45.145  34.183  28.445  1.00  0.00     0.134 A 
ATOM     74  C   UNL A   1      46.056  33.232  30.447  1.00  0.00     0.134 A 
ATOM     75  F   UNL A   1      44.390  34.105  27.339  1.00  0.00    -0.206 F 
ATOM     76  C   UNL A   1      45.854  35.363  28.675  1.00  0.00     0.040 A 
ATOM     77  C   UNL A   1      46.754  34.414  30.698  1.00  0.00     0.040 A 
ATOM     78  F   UNL A   1      46.183  32.226  31.324  1.00  0.00    -0.206 F 
ATOM     79  C   UNL A   1      46.658  35.482  29.808  1.00  0.00     0.006 A 
ENDBRANCH  55  72
ENDBRANCH  29  30
ENDBRANCH  22  24
ENDBRANCH  21  22
ENDBRANCH  20  21
ENDBRANCH   1  20
TORSDOF 14
ENDMDL
MODEL 3
REMARK VINA RESULT:     -10.6      0.981      1.839
REMARK SMILES CC(C)C[C@H](C(=O)OCCOC(=O)c1ccc(-c2c3nc(c(-c4c(F)cccc4F)c4ccc([nH]4)c(-c4c(F)cccc4F)c4nc(c(-c5c(F)cccc5F)c5ccc2[nH]5)C=C4)C=C3)cc1)[C@@H]1CCO[C@]2(CCOC2)C1
REMARK SMILES IDX 9 1 8 2 6 3 7 4 5 5 4 6 2 7 1 8 3 9 68 10 69 11 77 12 70 13
REMARK SMILES IDX 72 14 71 15 73 16 76 17 74 18 75 19 10 20 11 21 12 22 13 23
REMARK SMILES IDX 14 24 15 25 67 26 16 27 66 28 17 29 18 30 19 31 60 32 20 33
REMARK SMILES IDX 65 34 59 35 61 36 21 37 64 38 58 39 57 40 22 42 48 43 31 44
REMARK SMILES IDX 47 45 32 46 35 47 46 48 62 49 33 50 34 51 45 53 63 54 36 55
REMARK SMILES IDX 23 56 24 57 29 58 25 59 26 60 28 61 30 62 27 63 49 64 50 65
REMARK SMILES IDX 55 66 51 67 52 68 54 69 56 70 53 71 37 72 38 73 43 74 39 75
REMARK SMILES IDX 40 76 42 77 44 78 41 79
REMARK H PARENT 61 41 35 52
REMARK Flexibility Score: inf
ROOT
ATOM      1  C   UNL A   1      31.415  28.276  24.761  1.00  0.00     0.274 C 
ENDROOT
BRANCH   1   2
ATOM      2  O   UNL A   1      32.563  27.580  25.281  1.00  0.00    -0.462 OA
BRANCH   2   3
ATOM      3  C   UNL A   1      32.307  26.535  26.107  1.00  0.00     0.309 C 
ATOM      4  O   UNL A   1      31.746  26.646  27.193  1.00  0.00    -0.252 OA
BRANCH   3   5
ATOM      5  C   UNL A   1      32.663  25.164  25.488  1.00  0.00     0.103 C 
BRANCH   5   6
ATOM      6  C   UNL A   1      31.414  24.263  25.271  1.00  0.00     0.018 C 
BRANCH   6   7
ATOM      7  C   UNL A   1      31.398  22.930  26.050  1.00  0.00    -0.017 C 
ATOM      8  C   UNL A   1      32.346  22.927  27.253  1.00  0.00     0.007 C 
ATOM      9  C   UNL A   1      29.977  22.611  26.518  1.00  0.00     0.007 C 
ENDBRANCH   6   7
ENDBRANCH   5   6
BRANCH   5  10
ATOM     10  C   UNL A   1      33.628  25.432  24.271  1.00  0.00     0.008 C 
ATOM     11  C   UNL A   1      33.081  25.303  22.849  1.00  0.00     0.033 C 
ATOM     12  C   UNL A   1      34.993  24.704  24.374  1.00  0.00     0.042 C 
ATOM     13  C   UNL A   1      33.168  23.899  22.285  1.00  0.00     0.161 C 
ATOM     14  C   UNL A   1      35.062  23.325  23.684  1.00  0.00     0.094 C 
ATOM     15  O   UNL A   1      34.479  23.362  22.382  1.00  0.00    -0.372 OA
ATOM     16  C   UNL A   1      34.544  22.192  24.566  1.00  0.00     0.066 C 
ATOM     17  C   UNL A   1      36.520  22.880  23.510  1.00  0.00     0.195 C 
ATOM     18  C   UNL A   1      35.772  21.597  25.241  1.00  0.00     0.163 C 
ATOM     19  O   UNL A   1      36.910  22.310  24.760  1.00  0.00    -0.378 OA
ENDBRANCH   5  10
ENDBRANCH   3   5
ENDBRANCH   2   3
ENDBRANCH   1   2
BRANCH   1  20
ATOM     20  C   UNL A   1      31.410  29.699  25.320  1.00  0.00     0.275 C 
BRANCH  20  21
ATOM     21  O   UNL A   1      32.734  30.039  25.778  1.00  0.00    -0.458 OA
BRANCH  21  22
ATOM     22  C   UNL A   1      32.816  31.016  26.706  1.00  0.00     0.338 C 
ATOM     23  O   UNL A   1      32.020  31.931  26.887  1.00  0.00    -0.246 OA
BRANCH  22  24
ATOM     24  C   UNL A   1      34.047  30.866  27.508  1.00  0.00     0.060 A 
ATOM     25  C   UNL A   1      34.820  31.969  27.877  1.00  0.00     0.016 A 
ATOM     26  C   UNL A   1      34.481  29.578  27.831  1.00  0.00     0.016 A 
ATOM     27  C   UNL A   1      36.050  31.786  28.513  1.00  0.00     0.010 A 
ATOM     28  C   UNL A   1      35.668  29.402  28.548  1.00  0.00     0.010 A 
ATOM     29  C   UNL A   1      36.478  30.502  28.880  1.00  0.00    -0.014 A 
BRANCH  29  30
ATOM     30  C   UNL A   1      37.755  30.290  29.617  1.00  0.00     0.031 A 
ATOM     31  C   UNL A   1      38.851  29.450  29.016  1.00  0.00     0.074 A 
ATOM     32  C   UNL A   1      37.920  30.807  30.851  1.00  0.00     0.049 A 
ATOM     33  N   UNL A   1      39.926  28.962  29.582  1.00  0.00    -0.248 NA
ATOM     34  C   UNL A   1      38.708  29.097  27.596  1.00  0.00     0.031 C 
ATOM     35  C   UNL A   1      36.961  31.663  31.551  1.00  0.00     0.029 A 
ATOM     36  N   UNL A   1      38.954  30.671  31.745  1.00  0.00    -0.354 N 
ATOM     37  C   UNL A   1      40.563  28.211  28.602  1.00  0.00     0.074 A 
ATOM     38  C   UNL A   1      39.751  28.303  27.407  1.00  0.00     0.031 C 
ATOM     39  C   UNL A   1      37.456  31.988  32.754  1.00  0.00     0.029 A 
ATOM     40  C   UNL A   1      38.729  31.302  32.943  1.00  0.00     0.049 A 
ATOM     41  H   UNL A   1      39.778  30.169  31.545  1.00  0.00     0.167 HD
ATOM     42  C   UNL A   1      41.718  27.508  28.691  1.00  0.00     0.037 A 
ATOM     43  C   UNL A   1      39.438  31.296  34.088  1.00  0.00     0.037 A 
ATOM     44  C   UNL A   1      42.549  27.450  29.867  1.00  0.00     0.049 A 
ATOM     45  C   UNL A   1      40.698  30.485  34.175  1.00  0.00     0.074 A 
ATOM     46  C   UNL A   1      43.746  26.777  30.046  1.00  0.00     0.029 A 
ATOM     47  N   UNL A   1      42.276  28.100  31.060  1.00  0.00    -0.354 N 
ATOM     48  N   UNL A   1      41.264  29.739  33.258  1.00  0.00    -0.248 NA
ATOM     49  C   UNL A   1      41.408  30.499  35.462  1.00  0.00     0.031 C 
ATOM     50  C   UNL A   1      44.183  26.996  31.357  1.00  0.00     0.029 A 
ATOM     51  C   UNL A   1      43.275  27.834  31.983  1.00  0.00     0.049 A 
ATOM     52  H   UNL A   1      41.488  28.667  31.228  1.00  0.00     0.167 HD
ATOM     53  C   UNL A   1      42.399  29.205  33.851  1.00  0.00     0.074 A 
ATOM     54  C   UNL A   1      42.452  29.724  35.203  1.00  0.00     0.031 C 
ATOM     55  C   UNL A   1      43.313  28.355  33.324  1.00  0.00     0.037 A 
BRANCH  42  56
ATOM     56  C   UNL A   1      42.145  26.718  27.489  1.00  0.00     0.057 A 
ATOM     57  C   UNL A   1      42.908  27.284  26.461  1.00  0.00     0.134 A 
ATOM     58  C   UNL A   1      41.826  25.358  27.385  1.00  0.00     0.134 A 
ATOM     59  F   UNL A   1      43.235  28.585  26.494  1.00  0.00    -0.206 F 
ATOM     60  C   UNL A   1      43.327  26.528  25.365  1.00  0.00     0.040 A 
ATOM     61  C   UNL A   1      42.256  24.587  26.305  1.00  0.00     0.040 A 
ATOM     62  F   UNL A   1      41.102  24.753  28.339  1.00  0.00    -0.206 F 
ATOM     63  C   UNL A   1      43.007  25.174  25.288  1.00  0.00     0.006 A 
ENDBRANCH  42  56
BRANCH  43  64
ATOM     64  C   UNL A   1      38.944  32.057  35.260  1.00  0.00     0.057 A 
ATOM     65  C   UNL A   1      39.162  33.434  35.371  1.00  0.00     0.134 A 
ATOM     66  C   UNL A   1      38.229  31.431  36.289  1.00  0.00     0.134 A 
ATOM     67  F   UNL A   1      39.862  34.084  34.430  1.00  0.00    -0.206 F 
ATOM     68  C   UNL A   1      38.690  34.162  36.464  1.00  0.00     0.040 A 
ATOM     69  C   UNL A   1      37.731  32.149  37.375  1.00  0.00     0.040 A 
ATOM     70  F   UNL A   1      37.987  30.112  36.240  1.00  0.00    -0.206 F 
ATOM     71  C   UNL A   1      37.964  33.521  37.466  1.00  0.00     0.006 A 
ENDBRANCH  43  64
BRANCH  55  72
ATOM     72  C   UNL A   1      44.458  27.956  34.205  1.00  0.00     0.057 A 
ATOM     73  C   UNL A   1      45.630  28.719  34.277  1.00  0.00     0.134 A 
ATOM     74  C   UNL A   1      44.377  26.810  35.005  1.00  0.00     0.134 A 
ATOM     75  F   UNL A   1      45.773  29.819  33.523  1.00  0.00    -0.206 F 
ATOM     76  C   UNL A   1      46.692  28.344  35.102  1.00  0.00     0.040 A 
ATOM     77  C   UNL A   1      45.425  26.436  35.848  1.00  0.00     0.040 A 
ATOM     78  F   UNL A   1      43.279  26.041  34.985  1.00  0.00    -0.206 F 
ATOM     79  C   UNL A   1      46.588  27.201  35.894  1.00  0.00     0.006 A 
ENDBRANCH  55  72
ENDBRANCH  29  30
ENDBRANCH  22  24
ENDBRANCH  21  22
ENDBRANCH  20  21
ENDBRANCH   1  20
TORSDOF 14
ENDMDL
