MODEL 1
REMARK VINA RESULT:     -10.5      0.000      0.000
REMARK SMILES CN(CCOCC1CC1)C(=O)N1CC[C@](C)(C(=O)OCCOC(=O)c2ccc(-c3c4nc(c(-c5c(F)cccc5F)c5ccc([nH]5)c(-c5c(F)cccc5F)c5nc(c(-c6c(F)cccc6F)c6ccc3[nH]6)C=C5)C=C4)cc2)C1
REMARK SMILES IDX 17 1 18 2 15 3 12 4 13 5 79 6 14 7 16 8 10 9 11 10 2 11 1 12
REMARK SMILES IDX 3 13 4 14 5 15 6 16 7 17 8 18 9 19 19 20 20 21 21 22 22 23
REMARK SMILES IDX 23 24 24 25 25 26 26 27 78 28 27 29 77 30 28 31 29 32 30 33
REMARK SMILES IDX 71 34 31 35 76 36 70 37 72 38 32 39 75 40 69 41 68 42 33 44
REMARK SMILES IDX 59 45 42 46 58 47 43 48 46 49 57 50 73 51 44 52 45 53 56 55
REMARK SMILES IDX 74 56 47 57 34 58 35 59 40 60 36 61 37 62 39 63 41 64 38 65
REMARK SMILES IDX 60 66 61 67 66 68 62 69 63 70 65 71 67 72 64 73 48 74 49 75
REMARK SMILES IDX 54 76 50 77 51 78 53 79 55 80 52 81
REMARK H PARENT 72 43 46 54
REMARK Flexibility Score: inf
ROOT
ATOM      1  C   UNL A   1      32.935  30.975  27.196  1.00  0.00     0.313 C 
ATOM      2  O   UNL A   1      31.877  31.487  26.842  1.00  0.00    -0.252 OA
ENDROOT
BRANCH   1   3
ATOM      3  C   UNL A   1      33.333  29.563  26.779  1.00  0.00     0.084 C 
ATOM      4  N   UNL A   1      32.536  27.859  25.263  1.00  0.00    -0.323 N 
ATOM      5  C   UNL A   1      32.497  27.315  26.612  1.00  0.00     0.122 C 
ATOM      6  C   UNL A   1      33.078  29.223  25.300  1.00  0.00     0.139 C 
ATOM      7  C   UNL A   1      32.448  28.539  27.499  1.00  0.00     0.042 C 
ATOM      8  C   UNL A   1      34.809  29.377  27.154  1.00  0.00     0.026 C 
BRANCH   4   9
ATOM      9  C   UNL A   1      31.873  27.175  24.274  1.00  0.00     0.319 C 
ATOM     10  O   UNL A   1      32.526  26.646  23.365  1.00  0.00    -0.248 OA
BRANCH   9  11
ATOM     11  N   UNL A   1      30.499  27.048  24.261  1.00  0.00    -0.325 N 
ATOM     12  C   UNL A   1      29.968  25.966  25.089  1.00  0.00     0.148 C 
BRANCH  11  13
ATOM     13  C   UNL A   1      29.519  27.705  23.394  1.00  0.00     0.149 C 
BRANCH  13  14
ATOM     14  C   UNL A   1      30.098  28.809  22.491  1.00  0.00     0.181 C 
BRANCH  14  15
ATOM     15  O   UNL A   1      29.129  29.399  21.625  1.00  0.00    -0.379 OA
BRANCH  15  16
ATOM     16  C   UNL A   1      29.283  30.809  21.464  1.00  0.00     0.163 C 
BRANCH  16  17
ATOM     17  C   UNL A   1      28.150  31.513  22.131  1.00  0.00     0.015 C 
ATOM     18  C   UNL A   1      27.614  31.062  23.464  1.00  0.00     0.006 C 
ATOM     19  C   UNL A   1      28.424  32.326  23.370  1.00  0.00     0.006 C 
ENDBRANCH  16  17
ENDBRANCH  15  16
ENDBRANCH  14  15
ENDBRANCH  13  14
ENDBRANCH  11  13
ENDBRANCH   9  11
ENDBRANCH   4   9
ENDBRANCH   1   3
BRANCH   1  20
ATOM     20  O   UNL A   1      33.830  31.563  28.032  1.00  0.00    -0.462 OA
BRANCH  20  21
ATOM     21  C   UNL A   1      33.746  33.002  28.153  1.00  0.00     0.274 C 
BRANCH  21  22
ATOM     22  C   UNL A   1      34.200  33.466  29.537  1.00  0.00     0.275 C 
BRANCH  22  23
ATOM     23  O   UNL A   1      34.383  32.315  30.377  1.00  0.00    -0.458 OA
BRANCH  23  24
ATOM     24  C   UNL A   1      35.347  32.411  31.318  1.00  0.00     0.338 C 
ATOM     25  O   UNL A   1      35.250  32.961  32.407  1.00  0.00    -0.246 OA
BRANCH  24  26
ATOM     26  C   UNL A   1      36.566  31.698  30.863  1.00  0.00     0.060 A 
ATOM     27  C   UNL A   1      37.389  31.035  31.774  1.00  0.00     0.016 A 
ATOM     28  C   UNL A   1      36.947  31.756  29.521  1.00  0.00     0.016 A 
ATOM     29  C   UNL A   1      38.626  30.529  31.379  1.00  0.00     0.010 A 
ATOM     30  C   UNL A   1      38.138  31.145  29.105  1.00  0.00     0.010 A 
ATOM     31  C   UNL A   1      39.011  30.552  30.034  1.00  0.00    -0.014 A 
BRANCH  31  32
ATOM     32  C   UNL A   1      40.319  29.979  29.600  1.00  0.00     0.031 A 
ATOM     33  C   UNL A   1      41.548  30.848  29.548  1.00  0.00     0.074 A 
ATOM     34  C   UNL A   1      40.419  28.683  29.240  1.00  0.00     0.049 A 
ATOM     35  N   UNL A   1      42.701  30.620  28.970  1.00  0.00    -0.248 NA
ATOM     36  C   UNL A   1      41.462  32.157  30.215  1.00  0.00     0.031 C 
ATOM     37  C   UNL A   1      39.334  27.700  29.273  1.00  0.00     0.029 A 
ATOM     38  N   UNL A   1      41.495  27.965  28.770  1.00  0.00    -0.354 N 
ATOM     39  C   UNL A   1      43.445  31.783  29.134  1.00  0.00     0.074 A 
ATOM     40  C   UNL A   1      42.619  32.709  29.878  1.00  0.00     0.031 C 
ATOM     41  C   UNL A   1      39.805  26.506  28.887  1.00  0.00     0.029 A 
ATOM     42  C   UNL A   1      41.198  26.656  28.481  1.00  0.00     0.049 A 
ATOM     43  H   UNL A   1      42.391  28.354  28.652  1.00  0.00     0.167 HD
ATOM     44  C   UNL A   1      44.699  32.052  28.697  1.00  0.00     0.037 A 
ATOM     45  C   UNL A   1      41.938  25.690  27.905  1.00  0.00     0.037 A 
ATOM     46  C   UNL A   1      45.551  31.101  28.032  1.00  0.00     0.049 A 
ATOM     47  C   UNL A   1      43.328  26.006  27.438  1.00  0.00     0.074 A 
ATOM     48  C   UNL A   1      46.847  31.274  27.574  1.00  0.00     0.029 A 
ATOM     49  N   UNL A   1      45.202  29.788  27.756  1.00  0.00    -0.354 N 
ATOM     50  N   UNL A   1      43.988  27.135  27.520  1.00  0.00    -0.248 NA
ATOM     51  C   UNL A   1      44.066  24.923  26.773  1.00  0.00     0.031 C 
ATOM     52  C   UNL A   1      47.274  30.070  27.000  1.00  0.00     0.029 A 
ATOM     53  C   UNL A   1      46.255  29.140  27.130  1.00  0.00     0.049 A 
ATOM     54  H   UNL A   1      44.334  29.377  27.972  1.00  0.00     0.167 HD
ATOM     55  C   UNL A   1      45.215  26.902  26.914  1.00  0.00     0.074 A 
ATOM     56  C   UNL A   1      45.219  25.516  26.493  1.00  0.00     0.031 C 
ATOM     57  C   UNL A   1      46.240  27.763  26.715  1.00  0.00     0.037 A 
BRANCH  44  58
ATOM     58  C   UNL A   1      45.217  33.447  28.891  1.00  0.00     0.057 A 
ATOM     59  C   UNL A   1      46.029  33.800  29.976  1.00  0.00     0.134 A 
ATOM     60  C   UNL A   1      44.930  34.442  27.948  1.00  0.00     0.134 A 
ATOM     61  F   UNL A   1      46.330  32.897  30.921  1.00  0.00    -0.206 F 
ATOM     62  C   UNL A   1      46.519  35.099  30.126  1.00  0.00     0.040 A 
ATOM     63  C   UNL A   1      45.433  35.737  28.074  1.00  0.00     0.040 A 
ATOM     64  F   UNL A   1      44.164  34.168  26.881  1.00  0.00    -0.206 F 
ATOM     65  C   UNL A   1      46.228  36.070  29.169  1.00  0.00     0.006 A 
ENDBRANCH  44  58
BRANCH  45  66
ATOM     66  C   UNL A   1      41.351  24.344  27.692  1.00  0.00     0.057 A 
ATOM     67  C   UNL A   1      40.408  24.118  26.683  1.00  0.00     0.134 A 
ATOM     68  C   UNL A   1      41.738  23.247  28.472  1.00  0.00     0.134 A 
ATOM     69  F   UNL A   1      39.979  25.134  25.920  1.00  0.00    -0.206 F 
ATOM     70  C   UNL A   1      39.873  22.849  26.456  1.00  0.00     0.040 A 
ATOM     71  C   UNL A   1      41.232  21.968  28.239  1.00  0.00     0.040 A 
ATOM     72  F   UNL A   1      42.639  23.399  29.454  1.00  0.00    -0.206 F 
ATOM     73  C   UNL A   1      40.293  21.768  27.229  1.00  0.00     0.006 A 
ENDBRANCH  45  66
BRANCH  57  74
ATOM     74  C   UNL A   1      47.455  27.221  26.024  1.00  0.00     0.057 A 
ATOM     75  C   UNL A   1      48.474  26.576  26.735  1.00  0.00     0.134 A 
ATOM     76  C   UNL A   1      47.596  27.328  24.637  1.00  0.00     0.134 A 
ATOM     77  F   UNL A   1      48.401  26.456  28.070  1.00  0.00    -0.206 F 
ATOM     78  C   UNL A   1      49.603  26.072  26.090  1.00  0.00     0.040 A 
ATOM     79  C   UNL A   1      48.713  26.813  23.977  1.00  0.00     0.040 A 
ATOM     80  F   UNL A   1      46.651  27.933  23.900  1.00  0.00    -0.206 F 
ATOM     81  C   UNL A   1      49.723  26.187  24.706  1.00  0.00     0.006 A 
ENDBRANCH  57  74
ENDBRANCH  31  32
ENDBRANCH  24  26
ENDBRANCH  23  24
ENDBRANCH  22  23
ENDBRANCH  21  22
ENDBRANCH  20  21
ENDBRANCH   1  20
TORSDOF 18
ENDMDL
MODEL 2
REMARK VINA RESULT:     -10.4      4.354      8.455
REMARK SMILES CN(CCOCC1CC1)C(=O)N1CC[C@](C)(C(=O)OCCOC(=O)c2ccc(-c3c4nc(c(-c5c(F)cccc5F)c5ccc([nH]5)c(-c5c(F)cccc5F)c5nc(c(-c6c(F)cccc6F)c6ccc3[nH]6)C=C5)C=C4)cc2)C1
REMARK SMILES IDX 17 1 18 2 15 3 12 4 13 5 79 6 14 7 16 8 10 9 11 10 2 11 1 12
REMARK SMILES IDX 3 13 4 14 5 15 6 16 7 17 8 18 9 19 19 20 20 21 21 22 22 23
REMARK SMILES IDX 23 24 24 25 25 26 26 27 78 28 27 29 77 30 28 31 29 32 30 33
REMARK SMILES IDX 71 34 31 35 76 36 70 37 72 38 32 39 75 40 69 41 68 42 33 44
REMARK SMILES IDX 59 45 42 46 58 47 43 48 46 49 57 50 73 51 44 52 45 53 56 55
REMARK SMILES IDX 74 56 47 57 34 58 35 59 40 60 36 61 37 62 39 63 41 64 38 65
REMARK SMILES IDX 60 66 61 67 66 68 62 69 63 70 65 71 67 72 64 73 48 74 49 75
REMARK SMILES IDX 54 76 50 77 51 78 53 79 55 80 52 81
REMARK H PARENT 72 43 46 54
REMARK Flexibility Score: inf
ROOT
ATOM      1  C   UNL A   1      31.162  27.521  23.600  1.00  0.00     0.313 C 
ATOM      2  O   UNL A   1      30.795  28.140  22.606  1.00  0.00    -0.252 OA
ENDROOT
BRANCH   1   3
ATOM      3  C   UNL A   1      30.449  26.263  24.084  1.00  0.00     0.084 C 
ATOM      4  N   UNL A   1      30.926  24.382  25.524  1.00  0.00    -0.323 N 
ATOM      5  C   UNL A   1      30.660  23.870  24.188  1.00  0.00     0.122 C 
ATOM      6  C   UNL A   1      30.773  25.843  25.529  1.00  0.00     0.139 C 
ATOM      7  C   UNL A   1      30.934  25.050  23.282  1.00  0.00     0.042 C 
ATOM      8  C   UNL A   1      28.944  26.488  23.886  1.00  0.00     0.026 C 
BRANCH   4   9
ATOM      9  C   UNL A   1      31.491  23.529  26.440  1.00  0.00     0.319 C 
ATOM     10  O   UNL A   1      30.887  23.293  27.495  1.00  0.00    -0.248 OA
BRANCH   9  11
ATOM     11  N   UNL A   1      32.707  22.916  26.222  1.00  0.00    -0.325 N 
ATOM     12  C   UNL A   1      33.787  23.811  25.809  1.00  0.00     0.148 C 
BRANCH  11  13
ATOM     13  C   UNL A   1      33.022  21.488  26.152  1.00  0.00     0.149 C 
BRANCH  13  14
ATOM     14  C   UNL A   1      32.275  20.719  25.047  1.00  0.00     0.181 C 
BRANCH  14  15
ATOM     15  O   UNL A   1      33.146  20.112  24.091  1.00  0.00    -0.379 OA
BRANCH  15  16
ATOM     16  C   UNL A   1      34.048  19.160  24.658  1.00  0.00     0.163 C 
BRANCH  16  17
ATOM     17  C   UNL A   1      33.547  17.781  24.390  1.00  0.00     0.015 C 
ATOM     18  C   UNL A   1      33.937  17.024  23.148  1.00  0.00     0.006 C 
ATOM     19  C   UNL A   1      34.508  16.625  24.481  1.00  0.00     0.006 C 
ENDBRANCH  16  17
ENDBRANCH  15  16
ENDBRANCH  14  15
ENDBRANCH  13  14
ENDBRANCH  11  13
ENDBRANCH   9  11
ENDBRANCH   4   9
ENDBRANCH   1   3
BRANCH   1  20
ATOM     20  O   UNL A   1      32.186  27.905  24.409  1.00  0.00    -0.462 OA
BRANCH  20  21
ATOM     21  C   UNL A   1      32.470  29.322  24.455  1.00  0.00     0.274 C 
BRANCH  21  22
ATOM     22  C   UNL A   1      31.497  30.049  25.383  1.00  0.00     0.275 C 
BRANCH  22  23
ATOM     23  O   UNL A   1      32.083  30.141  26.692  1.00  0.00    -0.458 OA
BRANCH  23  24
ATOM     24  C   UNL A   1      32.631  31.332  27.017  1.00  0.00     0.338 C 
ATOM     25  O   UNL A   1      32.106  32.432  26.900  1.00  0.00    -0.246 OA
BRANCH  24  26
ATOM     26  C   UNL A   1      33.979  31.122  27.599  1.00  0.00     0.060 A 
ATOM     27  C   UNL A   1      34.475  29.834  27.808  1.00  0.00     0.016 A 
ATOM     28  C   UNL A   1      34.734  32.218  28.023  1.00  0.00     0.016 A 
ATOM     29  C   UNL A   1      35.655  29.633  28.523  1.00  0.00     0.010 A 
ATOM     30  C   UNL A   1      35.975  32.015  28.641  1.00  0.00     0.010 A 
ATOM     31  C   UNL A   1      36.438  30.719  28.930  1.00  0.00    -0.014 A 
BRANCH  31  32
ATOM     32  C   UNL A   1      37.720  30.508  29.664  1.00  0.00     0.031 A 
ATOM     33  C   UNL A   1      38.842  29.732  29.024  1.00  0.00     0.074 A 
ATOM     34  C   UNL A   1      37.891  30.998  30.909  1.00  0.00     0.049 A 
ATOM     35  N   UNL A   1      39.918  29.226  29.573  1.00  0.00    -0.248 NA
ATOM     36  C   UNL A   1      38.727  29.470  27.581  1.00  0.00     0.031 C 
ATOM     37  C   UNL A   1      36.920  31.804  31.651  1.00  0.00     0.029 A 
ATOM     38  N   UNL A   1      38.953  30.886  31.776  1.00  0.00    -0.354 N 
ATOM     39  C   UNL A   1      40.564  28.522  28.563  1.00  0.00     0.074 A 
ATOM     40  C   UNL A   1      39.767  28.677  27.365  1.00  0.00     0.031 C 
ATOM     41  C   UNL A   1      37.443  32.149  32.836  1.00  0.00     0.029 A 
ATOM     42  C   UNL A   1      38.744  31.507  32.984  1.00  0.00     0.049 A 
ATOM     43  H   UNL A   1      39.783  30.408  31.553  1.00  0.00     0.167 HD
ATOM     44  C   UNL A   1      41.713  27.807  28.633  1.00  0.00     0.037 A 
ATOM     45  C   UNL A   1      39.485  31.521  34.108  1.00  0.00     0.037 A 
ATOM     46  C   UNL A   1      42.549  27.724  29.803  1.00  0.00     0.049 A 
ATOM     47  C   UNL A   1      40.759  30.731  34.162  1.00  0.00     0.074 A 
ATOM     48  C   UNL A   1      43.745  27.044  29.963  1.00  0.00     0.029 A 
ATOM     49  N   UNL A   1      42.291  28.365  31.004  1.00  0.00    -0.354 N 
ATOM     50  N   UNL A   1      41.313  29.998  33.229  1.00  0.00    -0.248 NA
ATOM     51  C   UNL A   1      41.494  30.747  35.434  1.00  0.00     0.031 C 
ATOM     52  C   UNL A   1      44.200  27.257  31.270  1.00  0.00     0.029 A 
ATOM     53  C   UNL A   1      43.303  28.094  31.912  1.00  0.00     0.049 A 
ATOM     54  H   UNL A   1      41.505  28.930  31.186  1.00  0.00     0.167 HD
ATOM     55  C   UNL A   1      42.459  29.461  33.799  1.00  0.00     0.074 A 
ATOM     56  C   UNL A   1      42.535  29.975  35.151  1.00  0.00     0.031 C 
ATOM     57  C   UNL A   1      43.360  28.610  33.254  1.00  0.00     0.037 A 
BRANCH  44  58
ATOM     58  C   UNL A   1      42.119  27.024  27.420  1.00  0.00     0.057 A 
ATOM     59  C   UNL A   1      42.896  27.578  26.395  1.00  0.00     0.134 A 
ATOM     60  C   UNL A   1      41.758  25.675  27.299  1.00  0.00     0.134 A 
ATOM     61  F   UNL A   1      43.263  28.868  26.444  1.00  0.00    -0.206 F 
ATOM     62  C   UNL A   1      43.281  26.825  25.285  1.00  0.00     0.040 A 
ATOM     63  C   UNL A   1      42.157  24.906  26.206  1.00  0.00     0.040 A 
ATOM     64  F   UNL A   1      41.021  25.081  28.250  1.00  0.00    -0.206 F 
ATOM     65  C   UNL A   1      42.918  25.482  25.191  1.00  0.00     0.006 A 
ENDBRANCH  44  58
BRANCH  45  66
ATOM     66  C   UNL A   1      39.003  32.272  35.294  1.00  0.00     0.057 A 
ATOM     67  C   UNL A   1      38.266  31.638  36.301  1.00  0.00     0.134 A 
ATOM     68  C   UNL A   1      39.292  33.632  35.463  1.00  0.00     0.134 A 
ATOM     69  F   UNL A   1      37.937  30.344  36.183  1.00  0.00    -0.206 F 
ATOM     70  C   UNL A   1      37.836  32.330  37.434  1.00  0.00     0.040 A 
ATOM     71  C   UNL A   1      38.891  34.329  36.603  1.00  0.00     0.040 A 
ATOM     72  F   UNL A   1      39.997  34.294  34.534  1.00  0.00    -0.206 F 
ATOM     73  C   UNL A   1      38.157  33.676  37.592  1.00  0.00     0.006 A 
ENDBRANCH  45  66
BRANCH  57  74
ATOM     74  C   UNL A   1      44.511  28.197  34.119  1.00  0.00     0.057 A 
ATOM     75  C   UNL A   1      44.457  27.039  34.904  1.00  0.00     0.134 A 
ATOM     76  C   UNL A   1      45.688  28.953  34.155  1.00  0.00     0.134 A 
ATOM     77  F   UNL A   1      43.350  26.281  34.923  1.00  0.00    -0.206 F 
ATOM     78  C   UNL A   1      45.531  26.656  35.709  1.00  0.00     0.040 A 
ATOM     79  C   UNL A   1      46.774  28.573  34.943  1.00  0.00     0.040 A 
ATOM     80  F   UNL A   1      45.801  30.072  33.422  1.00  0.00    -0.206 F 
ATOM     81  C   UNL A   1      46.695  27.422  35.727  1.00  0.00     0.006 A 
ENDBRANCH  57  74
ENDBRANCH  31  32
ENDBRANCH  24  26
ENDBRANCH  23  24
ENDBRANCH  22  23
ENDBRANCH  21  22
ENDBRANCH  20  21
ENDBRANCH   1  20
TORSDOF 18
ENDMDL
MODEL 3
REMARK VINA RESULT:     -10.4      2.663      7.471
REMARK SMILES CN(CCOCC1CC1)C(=O)N1CC[C@](C)(C(=O)OCCOC(=O)c2ccc(-c3c4nc(c(-c5c(F)cccc5F)c5ccc([nH]5)c(-c5c(F)cccc5F)c5nc(c(-c6c(F)cccc6F)c6ccc3[nH]6)C=C5)C=C4)cc2)C1
REMARK SMILES IDX 17 1 18 2 15 3 12 4 13 5 79 6 14 7 16 8 10 9 11 10 2 11 1 12
REMARK SMILES IDX 3 13 4 14 5 15 6 16 7 17 8 18 9 19 19 20 20 21 21 22 22 23
REMARK SMILES IDX 23 24 24 25 25 26 26 27 78 28 27 29 77 30 28 31 29 32 30 33
REMARK SMILES IDX 71 34 31 35 76 36 70 37 72 38 32 39 75 40 69 41 68 42 33 44
REMARK SMILES IDX 59 45 42 46 58 47 43 48 46 49 57 50 73 51 44 52 45 53 56 55
REMARK SMILES IDX 74 56 47 57 34 58 35 59 40 60 36 61 37 62 39 63 41 64 38 65
REMARK SMILES IDX 60 66 61 67 66 68 62 69 63 70 65 71 67 72 64 73 48 74 49 75
REMARK SMILES IDX 54 76 50 77 51 78 53 79 55 80 52 81
REMARK H PARENT 72 43 46 54
REMARK Flexibility Score: inf
ROOT
ATOM      1  C   UNL A   1      32.916  21.645  24.907  1.00  0.00     0.313 C 
ATOM      2  O   UNL A   1      32.408  20.563  25.186  1.00  0.00    -0.252 OA
ENDROOT
BRANCH   1   3
ATOM      3  C   UNL A   1      32.501  22.443  23.676  1.00  0.00     0.084 C 
ATOM      4  N   UNL A   1      32.828  24.673  22.802  1.00  0.00    -0.323 N 
ATOM      5  C   UNL A   1      31.400  24.471  22.999  1.00  0.00     0.122 C 
ATOM      6  C   UNL A   1      33.551  23.446  23.165  1.00  0.00     0.139 C 
ATOM      7  C   UNL A   1      31.325  23.363  24.026  1.00  0.00     0.042 C 
ATOM      8  C   UNL A   1      32.108  21.435  22.590  1.00  0.00     0.026 C 
BRANCH   4   9
ATOM      9  C   UNL A   1      33.273  25.952  22.578  1.00  0.00     0.319 C 
ATOM     10  O   UNL A   1      33.747  26.240  21.471  1.00  0.00    -0.248 OA
BRANCH   9  11
ATOM     11  N   UNL A   1      33.202  26.935  23.544  1.00  0.00    -0.325 N 
ATOM     12  C   UNL A   1      33.717  26.553  24.857  1.00  0.00     0.148 C 
BRANCH  11  13
ATOM     13  C   UNL A   1      32.511  28.225  23.499  1.00  0.00     0.149 C 
BRANCH  13  14
ATOM     14  C   UNL A   1      31.074  28.204  24.052  1.00  0.00     0.181 C 
BRANCH  14  15
ATOM     15  O   UNL A   1      30.337  29.392  23.761  1.00  0.00    -0.379 OA
BRANCH  15  16
ATOM     16  C   UNL A   1      29.658  29.355  22.505  1.00  0.00     0.163 C 
BRANCH  16  17
ATOM     17  C   UNL A   1      28.232  29.747  22.699  1.00  0.00     0.015 C 
ATOM     18  C   UNL A   1      27.849  30.979  23.477  1.00  0.00     0.006 C 
ATOM     19  C   UNL A   1      27.705  30.961  21.980  1.00  0.00     0.006 C 
ENDBRANCH  16  17
ENDBRANCH  15  16
ENDBRANCH  14  15
ENDBRANCH  13  14
ENDBRANCH  11  13
ENDBRANCH   9  11
ENDBRANCH   4   9
ENDBRANCH   1   3
BRANCH   1  20
ATOM     20  O   UNL A   1      33.930  22.220  25.607  1.00  0.00    -0.462 OA
BRANCH  20  21
ATOM     21  C   UNL A   1      34.934  21.323  26.136  1.00  0.00     0.274 C 
BRANCH  21  22
ATOM     22  C   UNL A   1      35.823  20.773  25.021  1.00  0.00     0.275 C 
BRANCH  22  23
ATOM     23  O   UNL A   1      36.982  21.612  24.891  1.00  0.00    -0.458 OA
BRANCH  23  24
ATOM     24  C   UNL A   1      38.112  21.163  25.477  1.00  0.00     0.338 C 
ATOM     25  O   UNL A   1      38.524  20.010  25.478  1.00  0.00    -0.246 OA
BRANCH  24  26
ATOM     26  C   UNL A   1      38.839  22.296  26.101  1.00  0.00     0.060 A 
ATOM     27  C   UNL A   1      38.383  23.607  25.953  1.00  0.00     0.016 A 
ATOM     28  C   UNL A   1      40.039  22.067  26.776  1.00  0.00     0.016 A 
ATOM     29  C   UNL A   1      39.161  24.683  26.376  1.00  0.00     0.010 A 
ATOM     30  C   UNL A   1      40.764  23.146  27.301  1.00  0.00     0.010 A 
ATOM     31  C   UNL A   1      40.352  24.472  27.079  1.00  0.00    -0.014 A 
BRANCH  31  32
ATOM     32  C   UNL A   1      41.170  25.621  27.565  1.00  0.00     0.031 A 
ATOM     33  C   UNL A   1      40.568  26.640  28.497  1.00  0.00     0.074 A 
ATOM     34  C   UNL A   1      42.452  25.771  27.173  1.00  0.00     0.049 A 
ATOM     35  N   UNL A   1      41.015  27.826  28.829  1.00  0.00    -0.248 NA
ATOM     36  C   UNL A   1      39.283  26.289  29.121  1.00  0.00     0.031 C 
ATOM     37  C   UNL A   1      43.194  24.851  26.308  1.00  0.00     0.029 A 
ATOM     38  N   UNL A   1      43.364  26.761  27.454  1.00  0.00    -0.354 N 
ATOM     39  C   UNL A   1      40.031  28.391  29.633  1.00  0.00     0.074 A 
ATOM     40  C   UNL A   1      38.971  27.413  29.751  1.00  0.00     0.031 C 
ATOM     41  C   UNL A   1      44.451  25.294  26.165  1.00  0.00     0.029 A 
ATOM     42  C   UNL A   1      44.580  26.579  26.841  1.00  0.00     0.049 A 
ATOM     43  H   UNL A   1      43.164  27.528  28.038  1.00  0.00     0.167 HD
ATOM     44  C   UNL A   1      40.014  29.616  30.212  1.00  0.00     0.037 A 
ATOM     45  C   UNL A   1      45.665  27.374  26.780  1.00  0.00     0.037 A 
ATOM     46  C   UNL A   1      41.106  30.554  30.164  1.00  0.00     0.049 A 
ATOM     47  C   UNL A   1      45.629  28.722  27.437  1.00  0.00     0.074 A 
ATOM     48  C   UNL A   1      41.191  31.810  30.742  1.00  0.00     0.029 A 
ATOM     49  N   UNL A   1      42.314  30.326  29.525  1.00  0.00    -0.354 N 
ATOM     50  N   UNL A   1      44.660  29.281  28.119  1.00  0.00    -0.248 NA
ATOM     51  C   UNL A   1      46.826  29.562  27.291  1.00  0.00     0.031 C 
ATOM     52  C   UNL A   1      42.445  32.351  30.432  1.00  0.00     0.029 A 
ATOM     53  C   UNL A   1      43.150  31.418  29.690  1.00  0.00     0.049 A 
ATOM     54  H   UNL A   1      42.544  29.508  29.027  1.00  0.00     0.167 HD
ATOM     55  C   UNL A   1      45.125  30.537  28.481  1.00  0.00     0.074 A 
ATOM     56  C   UNL A   1      46.474  30.649  27.965  1.00  0.00     0.031 C 
ATOM     57  C   UNL A   1      44.487  31.514  29.167  1.00  0.00     0.037 A 
BRANCH  44  58
ATOM     58  C   UNL A   1      38.758  30.032  30.920  1.00  0.00     0.057 A 
ATOM     59  C   UNL A   1      38.559  29.805  32.287  1.00  0.00     0.134 A 
ATOM     60  C   UNL A   1      37.749  30.710  30.223  1.00  0.00     0.134 A 
ATOM     61  F   UNL A   1      39.481  29.150  33.008  1.00  0.00    -0.206 F 
ATOM     62  C   UNL A   1      37.391  30.221  32.931  1.00  0.00     0.040 A 
ATOM     63  C   UNL A   1      36.589  31.150  30.861  1.00  0.00     0.040 A 
ATOM     64  F   UNL A   1      37.880  30.965  28.913  1.00  0.00    -0.206 F 
ATOM     65  C   UNL A   1      36.406  30.902  32.219  1.00  0.00     0.006 A 
ENDBRANCH  44  58
BRANCH  45  66
ATOM     66  C   UNL A   1      46.858  26.929  26.020  1.00  0.00     0.057 A 
ATOM     67  C   UNL A   1      47.007  27.237  24.663  1.00  0.00     0.134 A 
ATOM     68  C   UNL A   1      47.891  26.211  26.636  1.00  0.00     0.134 A 
ATOM     69  F   UNL A   1      46.041  27.900  24.011  1.00  0.00    -0.206 F 
ATOM     70  C   UNL A   1      48.140  26.849  23.947  1.00  0.00     0.040 A 
ATOM     71  C   UNL A   1      49.041  25.840  25.940  1.00  0.00     0.040 A 
ATOM     72  F   UNL A   1      47.807  25.887  27.935  1.00  0.00    -0.206 F 
ATOM     73  C   UNL A   1      49.166  26.157  24.589  1.00  0.00     0.006 A 
ENDBRANCH  45  66
BRANCH  57  74
ATOM     74  C   UNL A   1      45.251  32.780  29.411  1.00  0.00     0.057 A 
ATOM     75  C   UNL A   1      45.159  33.870  28.537  1.00  0.00     0.134 A 
ATOM     76  C   UNL A   1      46.069  32.916  30.538  1.00  0.00     0.134 A 
ATOM     77  F   UNL A   1      44.401  33.793  27.432  1.00  0.00    -0.206 F 
ATOM     78  C   UNL A   1      45.871  35.047  28.766  1.00  0.00     0.040 A 
ATOM     79  C   UNL A   1      46.773  34.095  30.787  1.00  0.00     0.040 A 
ATOM     80  F   UNL A   1      46.196  31.908  31.414  1.00  0.00    -0.206 F 
ATOM     81  C   UNL A   1      46.678  35.163  29.896  1.00  0.00     0.006 A 
ENDBRANCH  57  74
ENDBRANCH  31  32
ENDBRANCH  24  26
ENDBRANCH  23  24
ENDBRANCH  22  23
ENDBRANCH  21  22
ENDBRANCH  20  21
ENDBRANCH   1  20
TORSDOF 18
ENDMDL
