MODEL 1
REMARK VINA RESULT:     -13.7      0.000      0.000
REMARK SMILES O=C(OCCOC(=O)c1ccc(-c2c3nc(c(-c4c(F)cccc4F)c4ccc([nH]4)c(-c4c(F)cccc4F)c4nc(c(-c5c(F)cccc5F)c5ccc2[nH]5)C=C4)C=C3)cc1)C1=Cc2ccc(Cl)c(Cl)c2O[C@@H]1C(F)(F)F
REMARK SMILES IDX 5 1 4 2 3 3 2 4 1 5 63 6 64 7 74 8 65 9 73 10 66 11 72 12
REMARK SMILES IDX 67 13 70 14 68 15 71 16 69 17 75 18 76 19 77 20 78 21 6 22
REMARK SMILES IDX 7 23 8 24 9 25 10 26 62 27 11 28 61 29 12 30 13 31 14 32
REMARK SMILES IDX 55 33 15 34 60 35 54 36 56 37 16 38 59 39 53 40 52 41 17 43
REMARK SMILES IDX 43 44 26 45 42 46 27 47 30 48 41 49 57 50 28 51 29 52 40 54
REMARK SMILES IDX 58 55 31 56 18 57 19 58 24 59 20 60 21 61 23 62 25 63 22 64
REMARK SMILES IDX 44 65 45 66 50 67 46 68 47 69 49 70 51 71 48 72 32 73 33 74
REMARK SMILES IDX 38 75 34 76 35 77 37 78 39 79 36 80
REMARK H PARENT 56 42 30 53
REMARK Flexibility Score: inf
ROOT
ATOM      1  C   UNL A   1      31.198  31.944  26.830  1.00  0.00     0.275 C 
ENDROOT
BRANCH   1   2
ATOM      2  C   UNL A   1      31.401  30.515  25.193  1.00  0.00     0.275 C 
BRANCH   2   3
ATOM      3  O   UNL A   1      30.830  29.097  25.145  1.00  0.00    -0.459 OA
BRANCH   3   4
ATOM      4  C   UNL A   1      31.719  28.195  24.714  1.00  0.00     0.338 C 
ATOM      5  O   UNL A   1      31.905  27.797  23.591  1.00  0.00    -0.246 OA
BRANCH   4   6
ATOM      6  C   UNL A   1      31.936  27.564  26.005  1.00  0.00     0.087 C 
ATOM      7  C   UNL A   1      31.027  26.477  26.322  1.00  0.00     0.027 C 
ATOM      8  C   UNL A   1      33.832  27.394  25.737  1.00  0.00     0.316 C 
ATOM      9  C   UNL A   1      31.483  24.749  26.244  1.00  0.00     0.019 A 
ATOM     10  O   UNL A   1      34.347  25.530  25.567  1.00  0.00    -0.474 OA
ATOM     11  C   UNL A   1      30.476  23.835  26.343  1.00  0.00     0.013 A 
ATOM     12  C   UNL A   1      33.075  24.221  25.780  1.00  0.00     0.148 A 
ATOM     13  C   UNL A   1      30.843  22.528  25.995  1.00  0.00     0.023 A 
ATOM     14  C   UNL A   1      33.340  22.916  25.450  1.00  0.00     0.102 A 
ATOM     15  C   UNL A   1      32.177  22.093  25.558  1.00  0.00     0.063 A 
ATOM     16  Cl  UNL A   1      34.851  22.370  24.886  1.00  0.00    -0.079 Cl
ATOM     17  Cl  UNL A   1      32.232  20.414  25.090  1.00  0.00    -0.083 Cl
BRANCH   8  18
ATOM     18  C   UNL A   1      34.120  28.582  26.799  1.00  0.00     0.430 C 
ATOM     19  F   UNL A   1      35.319  28.451  27.376  1.00  0.00    -0.167 F 
ATOM     20  F   UNL A   1      34.240  29.778  26.135  1.00  0.00    -0.167 F 
ATOM     21  F   UNL A   1      33.170  28.875  27.702  1.00  0.00    -0.167 F 
ENDBRANCH   8  18
ENDBRANCH   4   6
ENDBRANCH   3   4
ENDBRANCH   2   3
ENDBRANCH   1   2
BRANCH   1  22
ATOM     22  O   UNL A   1      32.236  33.324  27.063  1.00  0.00    -0.458 OA
BRANCH  22  23
ATOM     23  C   UNL A   1      33.025  33.964  27.997  1.00  0.00     0.338 C 
ATOM     24  O   UNL A   1      32.729  34.798  28.834  1.00  0.00    -0.246 OA
BRANCH  23  25
ATOM     25  C   UNL A   1      34.255  33.124  28.139  1.00  0.00     0.060 A 
ATOM     26  C   UNL A   1      35.510  33.768  28.159  1.00  0.00     0.016 A 
ATOM     27  C   UNL A   1      34.134  31.824  28.632  1.00  0.00     0.016 A 
ATOM     28  C   UNL A   1      36.585  33.183  28.851  1.00  0.00     0.010 A 
ATOM     29  C   UNL A   1      35.198  31.256  29.337  1.00  0.00     0.010 A 
ATOM     30  C   UNL A   1      36.416  31.948  29.496  1.00  0.00    -0.014 A 
BRANCH  30  31
ATOM     31  C   UNL A   1      37.591  31.199  30.009  1.00  0.00     0.031 A 
ATOM     32  C   UNL A   1      37.918  31.492  31.444  1.00  0.00     0.074 A 
ATOM     33  C   UNL A   1      38.366  30.371  29.279  1.00  0.00     0.049 A 
ATOM     34  N   UNL A   1      38.899  31.066  32.189  1.00  0.00    -0.248 NA
ATOM     35  C   UNL A   1      37.017  32.448  32.115  1.00  0.00     0.031 C 
ATOM     36  C   UNL A   1      38.173  30.015  27.873  1.00  0.00     0.029 A 
ATOM     37  N   UNL A   1      39.500  29.675  29.639  1.00  0.00    -0.354 N 
ATOM     38  C   UNL A   1      38.727  31.708  33.406  1.00  0.00     0.074 A 
ATOM     39  C   UNL A   1      37.625  32.626  33.269  1.00  0.00     0.031 C 
ATOM     40  C   UNL A   1      39.147  29.159  27.496  1.00  0.00     0.029 A 
ATOM     41  C   UNL A   1      40.042  28.913  28.627  1.00  0.00     0.049 A 
ATOM     42  H   UNL A   1      39.889  29.719  30.542  1.00  0.00     0.167 HD
ATOM     43  C   UNL A   1      39.395  31.523  34.564  1.00  0.00     0.037 A 
ATOM     44  C   UNL A   1      41.127  28.106  28.636  1.00  0.00     0.037 A 
ATOM     45  C   UNL A   1      40.505  30.630  34.691  1.00  0.00     0.049 A 
ATOM     46  C   UNL A   1      41.913  27.961  29.924  1.00  0.00     0.074 A 
ATOM     47  C   UNL A   1      41.268  30.354  35.807  1.00  0.00     0.029 A 
ATOM     48  N   UNL A   1      41.018  29.877  33.644  1.00  0.00    -0.354 N 
ATOM     49  N   UNL A   1      41.698  28.511  31.097  1.00  0.00    -0.248 NA
ATOM     50  C   UNL A   1      43.084  27.071  29.894  1.00  0.00     0.031 C 
ATOM     51  C   UNL A   1      42.286  29.477  35.419  1.00  0.00     0.029 A 
ATOM     52  C   UNL A   1      42.107  29.149  34.083  1.00  0.00     0.049 A 
ATOM     53  H   UNL A   1      40.661  29.863  32.727  1.00  0.00     0.167 HD
ATOM     54  C   UNL A   1      42.666  27.992  31.952  1.00  0.00     0.074 A 
ATOM     55  C   UNL A   1      43.471  27.084  31.161  1.00  0.00     0.031 C 
ATOM     56  C   UNL A   1      42.868  28.230  33.273  1.00  0.00     0.037 A 
BRANCH  43  57
ATOM     57  C   UNL A   1      38.933  32.344  35.728  1.00  0.00     0.057 A 
ATOM     58  C   UNL A   1      39.349  33.675  35.905  1.00  0.00     0.134 A 
ATOM     59  C   UNL A   1      38.169  31.765  36.746  1.00  0.00     0.134 A 
ATOM     60  F   UNL A   1      40.122  34.275  34.985  1.00  0.00    -0.206 F 
ATOM     61  C   UNL A   1      39.075  34.375  37.081  1.00  0.00     0.040 A 
ATOM     62  C   UNL A   1      37.855  32.470  37.908  1.00  0.00     0.040 A 
ATOM     63  F   UNL A   1      37.752  30.494  36.647  1.00  0.00    -0.206 F 
ATOM     64  C   UNL A   1      38.325  33.770  38.086  1.00  0.00     0.006 A 
ENDBRANCH  43  57
BRANCH  44  65
ATOM     65  C   UNL A   1      41.533  27.326  27.428  1.00  0.00     0.057 A 
ATOM     66  C   UNL A   1      41.135  25.990  27.263  1.00  0.00     0.134 A 
ATOM     67  C   UNL A   1      42.381  27.858  26.450  1.00  0.00     0.134 A 
ATOM     68  F   UNL A   1      40.351  25.402  28.179  1.00  0.00    -0.206 F 
ATOM     69  C   UNL A   1      41.583  25.210  26.191  1.00  0.00     0.040 A 
ATOM     70  C   UNL A   1      42.818  27.096  25.359  1.00  0.00     0.040 A 
ATOM     71  F   UNL A   1      42.815  29.122  26.545  1.00  0.00    -0.206 F 
ATOM     72  C   UNL A   1      42.425  25.765  25.233  1.00  0.00     0.006 A 
ENDBRANCH  44  65
BRANCH  56  73
ATOM     73  C   UNL A   1      43.943  27.446  33.971  1.00  0.00     0.057 A 
ATOM     74  C   UNL A   1      43.699  26.212  34.581  1.00  0.00     0.134 A 
ATOM     75  C   UNL A   1      45.267  27.910  33.954  1.00  0.00     0.134 A 
ATOM     76  F   UNL A   1      42.455  25.712  34.633  1.00  0.00    -0.206 F 
ATOM     77  C   UNL A   1      44.727  25.479  35.175  1.00  0.00     0.040 A 
ATOM     78  C   UNL A   1      46.308  27.170  34.511  1.00  0.00     0.040 A 
ATOM     79  F   UNL A   1      45.573  29.078  33.368  1.00  0.00    -0.206 F 
ATOM     80  C   UNL A   1      46.037  25.952  35.131  1.00  0.00     0.006 A 
ENDBRANCH  56  73
ENDBRANCH  30  31
ENDBRANCH  23  25
ENDBRANCH  22  23
ENDBRANCH   1  22
TORSDOF 12
ENDMDL
MODEL 2
REMARK VINA RESULT:     -13.5      1.350      2.252
REMARK SMILES O=C(OCCOC(=O)c1ccc(-c2c3nc(c(-c4c(F)cccc4F)c4ccc([nH]4)c(-c4c(F)cccc4F)c4nc(c(-c5c(F)cccc5F)c5ccc2[nH]5)C=C4)C=C3)cc1)C1=Cc2ccc(Cl)c(Cl)c2O[C@@H]1C(F)(F)F
REMARK SMILES IDX 5 1 4 2 3 3 2 4 1 5 63 6 64 7 74 8 65 9 73 10 66 11 72 12
REMARK SMILES IDX 67 13 70 14 68 15 71 16 69 17 75 18 76 19 77 20 78 21 6 22
REMARK SMILES IDX 7 23 8 24 9 25 10 26 62 27 11 28 61 29 12 30 13 31 14 32
REMARK SMILES IDX 55 33 15 34 60 35 54 36 56 37 16 38 59 39 53 40 52 41 17 43
REMARK SMILES IDX 43 44 26 45 42 46 27 47 30 48 41 49 57 50 28 51 29 52 40 54
REMARK SMILES IDX 58 55 31 56 18 57 19 58 24 59 20 60 21 61 23 62 25 63 22 64
REMARK SMILES IDX 44 65 45 66 50 67 46 68 47 69 49 70 51 71 48 72 32 73 33 74
REMARK SMILES IDX 38 75 34 76 35 77 37 78 39 79 36 80
REMARK H PARENT 56 42 30 53
REMARK Flexibility Score: inf
ROOT
ATOM      1  C   UNL A   1      31.401  32.156  26.830  1.00  0.00     0.275 C 
ENDROOT
BRANCH   1   2
ATOM      2  C   UNL A   1      32.306  30.340  26.027  1.00  0.00     0.275 C 
BRANCH   2   3
ATOM      3  O   UNL A   1      32.692  29.088  26.816  1.00  0.00    -0.459 OA
BRANCH   3   4
ATOM      4  C   UNL A   1      31.824  28.083  26.652  1.00  0.00     0.338 C 
ATOM      5  O   UNL A   1      31.174  27.505  27.486  1.00  0.00    -0.246 OA
BRANCH   4   6
ATOM      6  C   UNL A   1      32.330  27.652  25.359  1.00  0.00     0.087 C 
ATOM      7  C   UNL A   1      33.641  27.028  25.387  1.00  0.00     0.027 C 
ATOM      8  C   UNL A   1      30.687  26.781  24.873  1.00  0.00     0.316 C 
ATOM      9  C   UNL A   1      33.902  25.265  25.235  1.00  0.00     0.019 A 
ATOM     10  O   UNL A   1      30.920  24.857  24.779  1.00  0.00    -0.474 OA
ATOM     11  C   UNL A   1      35.154  24.797  25.506  1.00  0.00     0.013 A 
ATOM     12  C   UNL A   1      32.591  24.138  25.036  1.00  0.00     0.148 A 
ATOM     13  C   UNL A   1      35.234  23.405  25.649  1.00  0.00     0.023 A 
ATOM     14  C   UNL A   1      32.764  22.787  25.202  1.00  0.00     0.102 A 
ATOM     15  C   UNL A   1      34.115  22.459  25.527  1.00  0.00     0.063 A 
ATOM     16  Cl  UNL A   1      31.495  21.655  25.125  1.00  0.00    -0.079 Cl
ATOM     17  Cl  UNL A   1      34.567  20.814  25.891  1.00  0.00    -0.083 Cl
BRANCH   8  18
ATOM     18  C   UNL A   1      30.341  27.959  23.815  1.00  0.00     0.430 C 
ATOM     19  F   UNL A   1      31.254  28.033  22.840  1.00  0.00    -0.167 F 
ATOM     20  F   UNL A   1      29.197  27.640  23.125  1.00  0.00    -0.167 F 
ATOM     21  F   UNL A   1      30.032  29.175  24.293  1.00  0.00    -0.167 F 
ENDBRANCH   8  18
ENDBRANCH   4   6
ENDBRANCH   3   4
ENDBRANCH   2   3
ENDBRANCH   1   2
BRANCH   1  22
ATOM     22  O   UNL A   1      32.288  33.601  27.228  1.00  0.00    -0.458 OA
BRANCH  22  23
ATOM     23  C   UNL A   1      33.043  34.193  28.221  1.00  0.00     0.338 C 
ATOM     24  O   UNL A   1      32.714  34.973  29.096  1.00  0.00    -0.246 OA
BRANCH  23  25
ATOM     25  C   UNL A   1      34.276  33.356  28.351  1.00  0.00     0.060 A 
ATOM     26  C   UNL A   1      35.524  34.008  28.442  1.00  0.00     0.016 A 
ATOM     27  C   UNL A   1      34.155  32.030  28.766  1.00  0.00     0.016 A 
ATOM     28  C   UNL A   1      36.586  33.394  29.130  1.00  0.00     0.010 A 
ATOM     29  C   UNL A   1      35.204  31.432  29.468  1.00  0.00     0.010 A 
ATOM     30  C   UNL A   1      36.411  32.124  29.700  1.00  0.00    -0.014 A 
BRANCH  30  31
ATOM     31  C   UNL A   1      37.579  31.358  30.204  1.00  0.00     0.031 A 
ATOM     32  C   UNL A   1      37.919  31.641  31.637  1.00  0.00     0.074 A 
ATOM     33  C   UNL A   1      38.337  30.521  29.466  1.00  0.00     0.049 A 
ATOM     34  N   UNL A   1      38.899  31.199  32.374  1.00  0.00    -0.248 NA
ATOM     35  C   UNL A   1      37.035  32.608  32.317  1.00  0.00     0.031 C 
ATOM     36  C   UNL A   1      38.130  30.172  28.060  1.00  0.00     0.029 A 
ATOM     37  N   UNL A   1      39.464  29.808  29.816  1.00  0.00    -0.354 N 
ATOM     38  C   UNL A   1      38.743  31.840  33.595  1.00  0.00     0.074 A 
ATOM     39  C   UNL A   1      37.653  32.774  33.467  1.00  0.00     0.031 C 
ATOM     40  C   UNL A   1      39.090  29.304  27.674  1.00  0.00     0.029 A 
ATOM     41  C   UNL A   1      39.989  29.042  28.799  1.00  0.00     0.049 A 
ATOM     42  H   UNL A   1      39.859  29.843  30.717  1.00  0.00     0.167 HD
ATOM     43  C   UNL A   1      39.416  31.642  34.747  1.00  0.00     0.037 A 
ATOM     44  C   UNL A   1      41.062  28.220  28.799  1.00  0.00     0.037 A 
ATOM     45  C   UNL A   1      40.514  30.734  34.865  1.00  0.00     0.049 A 
ATOM     46  C   UNL A   1      41.855  28.060  30.081  1.00  0.00     0.074 A 
ATOM     47  C   UNL A   1      41.280  30.444  35.975  1.00  0.00     0.029 A 
ATOM     48  N   UNL A   1      41.010  29.977  33.813  1.00  0.00    -0.354 N 
ATOM     49  N   UNL A   1      41.655  28.610  31.257  1.00  0.00    -0.248 NA
ATOM     50  C   UNL A   1      43.013  27.154  30.041  1.00  0.00     0.031 C 
ATOM     51  C   UNL A   1      42.284  29.554  35.578  1.00  0.00     0.029 A 
ATOM     52  C   UNL A   1      42.091  29.232  34.242  1.00  0.00     0.049 A 
ATOM     53  H   UNL A   1      40.647  29.971  32.898  1.00  0.00     0.167 HD
ATOM     54  C   UNL A   1      42.621  28.074  32.105  1.00  0.00     0.074 A 
ATOM     55  C   UNL A   1      43.408  27.157  31.306  1.00  0.00     0.031 C 
ATOM     56  C   UNL A   1      42.834  28.306  33.425  1.00  0.00     0.037 A 
BRANCH  43  57
ATOM     57  C   UNL A   1      38.973  32.466  35.917  1.00  0.00     0.057 A 
ATOM     58  C   UNL A   1      39.456  33.769  36.128  1.00  0.00     0.134 A 
ATOM     59  C   UNL A   1      38.156  31.911  36.907  1.00  0.00     0.134 A 
ATOM     60  F   UNL A   1      40.280  34.342  35.237  1.00  0.00    -0.206 F 
ATOM     61  C   UNL A   1      39.194  34.461  37.311  1.00  0.00     0.040 A 
ATOM     62  C   UNL A   1      37.854  32.610  38.075  1.00  0.00     0.040 A 
ATOM     63  F   UNL A   1      37.673  30.667  36.774  1.00  0.00    -0.206 F 
ATOM     64  C   UNL A   1      38.389  33.880  38.288  1.00  0.00     0.006 A 
ENDBRANCH  43  57
BRANCH  44  65
ATOM     65  C   UNL A   1      41.450  27.438  27.586  1.00  0.00     0.057 A 
ATOM     66  C   UNL A   1      42.256  28.004  26.586  1.00  0.00     0.134 A 
ATOM     67  C   UNL A   1      40.973  26.142  27.354  1.00  0.00     0.134 A 
ATOM     68  F   UNL A   1      42.719  29.256  26.724  1.00  0.00    -0.206 F 
ATOM     69  C   UNL A   1      42.550  27.326  25.399  1.00  0.00     0.040 A 
ATOM     70  C   UNL A   1      41.280  25.443  26.180  1.00  0.00     0.040 A 
ATOM     71  F   UNL A   1      40.186  25.538  28.256  1.00  0.00    -0.206 F 
ATOM     72  C   UNL A   1      42.063  26.039  25.195  1.00  0.00     0.006 A 
ENDBRANCH  44  65
BRANCH  56  73
ATOM     73  C   UNL A   1      43.903  27.505  34.113  1.00  0.00     0.057 A 
ATOM     74  C   UNL A   1      45.225  27.949  34.219  1.00  0.00     0.134 A 
ATOM     75  C   UNL A   1      43.572  26.300  34.750  1.00  0.00     0.134 A 
ATOM     76  F   UNL A   1      45.609  29.093  33.631  1.00  0.00    -0.206 F 
ATOM     77  C   UNL A   1      46.187  27.210  34.910  1.00  0.00     0.040 A 
ATOM     78  C   UNL A   1      44.514  25.573  35.476  1.00  0.00     0.040 A 
ATOM     79  F   UNL A   1      42.316  25.827  34.704  1.00  0.00    -0.206 F 
ATOM     80  C   UNL A   1      45.829  26.025  35.550  1.00  0.00     0.006 A 
ENDBRANCH  56  73
ENDBRANCH  30  31
ENDBRANCH  23  25
ENDBRANCH  22  23
ENDBRANCH   1  22
TORSDOF 12
ENDMDL
MODEL 3
REMARK VINA RESULT:     -13.3      1.231      2.021
REMARK SMILES O=C(OCCOC(=O)c1ccc(-c2c3nc(c(-c4c(F)cccc4F)c4ccc([nH]4)c(-c4c(F)cccc4F)c4nc(c(-c5c(F)cccc5F)c5ccc2[nH]5)C=C4)C=C3)cc1)C1=Cc2ccc(Cl)c(Cl)c2O[C@@H]1C(F)(F)F
REMARK SMILES IDX 5 1 4 2 3 3 2 4 1 5 63 6 64 7 74 8 65 9 73 10 66 11 72 12
REMARK SMILES IDX 67 13 70 14 68 15 71 16 69 17 75 18 76 19 77 20 78 21 6 22
REMARK SMILES IDX 7 23 8 24 9 25 10 26 62 27 11 28 61 29 12 30 13 31 14 32
REMARK SMILES IDX 55 33 15 34 60 35 54 36 56 37 16 38 59 39 53 40 52 41 17 43
REMARK SMILES IDX 43 44 26 45 42 46 27 47 30 48 41 49 57 50 28 51 29 52 40 54
REMARK SMILES IDX 58 55 31 56 18 57 19 58 24 59 20 60 21 61 23 62 25 63 22 64
REMARK SMILES IDX 44 65 45 66 50 67 46 68 47 69 49 70 51 71 48 72 32 73 33 74
REMARK SMILES IDX 38 75 34 76 35 77 37 78 39 79 36 80
REMARK H PARENT 56 42 30 53
REMARK Flexibility Score: inf
ROOT
ATOM      1  C   UNL A   1      31.317  31.871  26.805  1.00  0.00     0.275 C 
ENDROOT
BRANCH   1   2
ATOM      2  C   UNL A   1      31.699  30.115  25.567  1.00  0.00     0.275 C 
BRANCH   2   3
ATOM      3  O   UNL A   1      32.452  28.851  25.985  1.00  0.00    -0.459 OA
BRANCH   3   4
ATOM      4  C   UNL A   1      32.017  27.755  25.353  1.00  0.00     0.338 C 
ATOM      5  O   UNL A   1      30.949  27.204  25.449  1.00  0.00    -0.246 OA
BRANCH   4   6
ATOM      6  C   UNL A   1      33.333  27.247  25.002  1.00  0.00     0.087 C 
ATOM      7  C   UNL A   1      33.857  26.226  25.891  1.00  0.00     0.027 C 
ATOM      8  C   UNL A   1      32.873  26.992  23.153  1.00  0.00     0.316 C 
ATOM      9  C   UNL A   1      33.903  24.485  25.483  1.00  0.00     0.019 A 
ATOM     10  O   UNL A   1      32.835  25.105  22.700  1.00  0.00    -0.474 OA
ATOM     11  C   UNL A   1      34.205  23.618  26.491  1.00  0.00     0.013 A 
ATOM     12  C   UNL A   1      33.319  23.864  23.965  1.00  0.00     0.148 A 
ATOM     13  C   UNL A   1      33.952  22.271  26.193  1.00  0.00     0.023 A 
ATOM     14  C   UNL A   1      33.095  22.525  23.767  1.00  0.00     0.102 A 
ATOM     15  C   UNL A   1      33.414  21.754  24.927  1.00  0.00     0.063 A 
ATOM     16  Cl  UNL A   1      32.424  21.879  22.342  1.00  0.00    -0.079 Cl
ATOM     17  Cl  UNL A   1      33.115  20.036  24.961  1.00  0.00    -0.083 Cl
BRANCH   8  18
ATOM     18  C   UNL A   1      33.771  28.269  22.722  1.00  0.00     0.430 C 
ATOM     19  F   UNL A   1      34.281  28.124  21.494  1.00  0.00    -0.167 F 
ATOM     20  F   UNL A   1      32.968  29.373  22.581  1.00  0.00    -0.167 F 
ATOM     21  F   UNL A   1      34.694  28.721  23.587  1.00  0.00    -0.167 F 
ENDBRANCH   8  18
ENDBRANCH   4   6
ENDBRANCH   3   4
ENDBRANCH   2   3
ENDBRANCH   1   2
BRANCH   1  22
ATOM     22  O   UNL A   1      32.462  33.159  27.062  1.00  0.00    -0.458 OA
BRANCH  22  23
ATOM     23  C   UNL A   1      33.204  33.795  28.036  1.00  0.00     0.338 C 
ATOM     24  O   UNL A   1      32.854  34.574  28.905  1.00  0.00    -0.246 OA
BRANCH  23  25
ATOM     25  C   UNL A   1      34.474  33.014  28.160  1.00  0.00     0.060 A 
ATOM     26  C   UNL A   1      35.680  33.718  28.360  1.00  0.00     0.016 A 
ATOM     27  C   UNL A   1      34.405  31.654  28.466  1.00  0.00     0.016 A 
ATOM     28  C   UNL A   1      36.741  33.105  29.050  1.00  0.00     0.010 A 
ATOM     29  C   UNL A   1      35.453  31.055  29.169  1.00  0.00     0.010 A 
ATOM     30  C   UNL A   1      36.610  31.786  29.511  1.00  0.00    -0.014 A 
BRANCH  30  31
ATOM     31  C   UNL A   1      37.794  31.041  30.010  1.00  0.00     0.031 A 
ATOM     32  C   UNL A   1      38.133  31.327  31.443  1.00  0.00     0.074 A 
ATOM     33  C   UNL A   1      38.567  30.222  29.267  1.00  0.00     0.049 A 
ATOM     34  N   UNL A   1      39.123  30.903  32.176  1.00  0.00    -0.248 NA
ATOM     35  C   UNL A   1      37.232  32.275  32.127  1.00  0.00     0.031 C 
ATOM     36  C   UNL A   1      38.362  29.872  27.861  1.00  0.00     0.029 A 
ATOM     37  N   UNL A   1      39.708  29.530  29.613  1.00  0.00    -0.354 N 
ATOM     38  C   UNL A   1      38.958  31.537  33.399  1.00  0.00     0.074 A 
ATOM     39  C   UNL A   1      37.849  32.450  33.277  1.00  0.00     0.031 C 
ATOM     40  C   UNL A   1      39.338  29.024  27.470  1.00  0.00     0.029 A 
ATOM     41  C   UNL A   1      40.245  28.776  28.592  1.00  0.00     0.049 A 
ATOM     42  H   UNL A   1      40.105  29.570  30.513  1.00  0.00     0.167 HD
ATOM     43  C   UNL A   1      39.637  31.349  34.549  1.00  0.00     0.037 A 
ATOM     44  C   UNL A   1      41.334  27.976  28.587  1.00  0.00     0.037 A 
ATOM     45  C   UNL A   1      40.753  30.463  34.661  1.00  0.00     0.049 A 
ATOM     46  C   UNL A   1      42.133  27.828  29.867  1.00  0.00     0.074 A 
ATOM     47  C   UNL A   1      41.528  30.185  35.768  1.00  0.00     0.029 A 
ATOM     48  N   UNL A   1      41.261  29.718  33.606  1.00  0.00    -0.354 N 
ATOM     49  N   UNL A   1      41.926  28.370  31.045  1.00  0.00    -0.248 NA
ATOM     50  C   UNL A   1      43.308  26.944  29.821  1.00  0.00     0.031 C 
ATOM     51  C   UNL A   1      42.547  29.316  35.367  1.00  0.00     0.029 A 
ATOM     52  C   UNL A   1      42.358  28.993  34.030  1.00  0.00     0.049 A 
ATOM     53  H   UNL A   1      40.896  29.707  32.692  1.00  0.00     0.167 HD
ATOM     54  C   UNL A   1      42.904  27.851  31.888  1.00  0.00     0.074 A 
ATOM     55  C   UNL A   1      43.707  26.952  31.085  1.00  0.00     0.031 C 
ATOM     56  C   UNL A   1      43.116  28.084  33.208  1.00  0.00     0.037 A 
BRANCH  43  57
ATOM     57  C   UNL A   1      39.182  32.162  35.722  1.00  0.00     0.057 A 
ATOM     58  C   UNL A   1      38.229  31.675  36.633  1.00  0.00     0.134 A 
ATOM     59  C   UNL A   1      39.601  33.487  35.873  1.00  0.00     0.134 A 
ATOM     60  F   UNL A   1      37.752  30.425  36.516  1.00  0.00    -0.206 F 
ATOM     61  C   UNL A   1      37.666  32.498  37.609  1.00  0.00     0.040 A 
ATOM     62  C   UNL A   1      39.075  34.306  36.871  1.00  0.00     0.040 A 
ATOM     63  F   UNL A   1      40.498  34.019  35.028  1.00  0.00    -0.206 F 
ATOM     64  C   UNL A   1      38.091  33.818  37.729  1.00  0.00     0.006 A 
ENDBRANCH  43  57
BRANCH  44  65
ATOM     65  C   UNL A   1      41.733  27.204  27.371  1.00  0.00     0.057 A 
ATOM     66  C   UNL A   1      41.349  25.864  27.206  1.00  0.00     0.134 A 
ATOM     67  C   UNL A   1      42.562  27.750  26.383  1.00  0.00     0.134 A 
ATOM     68  F   UNL A   1      40.584  25.264  28.130  1.00  0.00    -0.206 F 
ATOM     69  C   UNL A   1      41.791  25.094  26.126  1.00  0.00     0.040 A 
ATOM     70  C   UNL A   1      42.993  26.996  25.284  1.00  0.00     0.040 A 
ATOM     71  F   UNL A   1      42.983  29.019  26.478  1.00  0.00    -0.206 F 
ATOM     72  C   UNL A   1      42.615  25.662  25.158  1.00  0.00     0.006 A 
ENDBRANCH  44  65
BRANCH  56  73
ATOM     73  C   UNL A   1      44.203  27.302  33.892  1.00  0.00     0.057 A 
ATOM     74  C   UNL A   1      45.519  27.766  33.984  1.00  0.00     0.134 A 
ATOM     75  C   UNL A   1      43.894  26.096  34.537  1.00  0.00     0.134 A 
ATOM     76  F   UNL A   1      45.881  28.912  33.387  1.00  0.00    -0.206 F 
ATOM     77  C   UNL A   1      46.497  27.045  34.671  1.00  0.00     0.040 A 
ATOM     78  C   UNL A   1      44.852  25.386  35.258  1.00  0.00     0.040 A 
ATOM     79  F   UNL A   1      42.645  25.605  34.504  1.00  0.00    -0.206 F 
ATOM     80  C   UNL A   1      46.162  25.857  35.320  1.00  0.00     0.006 A 
ENDBRANCH  56  73
ENDBRANCH  30  31
ENDBRANCH  23  25
ENDBRANCH  22  23
ENDBRANCH   1  22
TORSDOF 12
ENDMDL
