MODEL 1
REMARK VINA RESULT:      -9.4      0.000      0.000
REMARK SMILES CC(=O)Oc1ccccc1C(=O)OCCOC(=O)c1ccc(-c2c3nc(c(-c4c(F)cccc4F)c4ccc([nH]4)c(-c4c(F)cccc4F)c4nc(c(-c5c(F)cccc5F)c5ccc2[nH]5)C=C4)C=C3)cc1
REMARK SMILES IDX 14 1 13 2 11 3 12 4 10 5 5 6 6 7 7 8 9 9 8 10 4 11 2 12 1 13
REMARK SMILES IDX 3 14 15 15 16 16 17 17 18 18 19 19 20 20 72 21 21 22 71 23
REMARK SMILES IDX 22 24 23 25 24 26 65 27 25 28 70 29 64 30 66 31 26 32 69 33
REMARK SMILES IDX 63 34 62 35 27 37 53 38 36 39 52 40 37 41 40 42 51 43 67 44
REMARK SMILES IDX 38 45 39 46 50 48 68 49 41 50 28 51 29 52 34 53 30 54 31 55
REMARK SMILES IDX 33 56 35 57 32 58 54 59 55 60 60 61 56 62 57 63 59 64 61 65
REMARK SMILES IDX 58 66 42 67 43 68 48 69 44 70 45 71 47 72 49 73 46 74
REMARK H PARENT 66 36 40 47
REMARK Flexibility Score: inf
ROOT
ATOM      1  C   UNL A   1      36.021  34.603  34.021  1.00  0.00     0.275 C 
ENDROOT
BRANCH   1   2
ATOM      2  O   UNL A   1      37.303  34.275  33.448  1.00  0.00    -0.458 OA
BRANCH   2   3
ATOM      3  C   UNL A   1      38.372  34.343  34.286  1.00  0.00     0.342 C 
ATOM      4  O   UNL A   1      38.816  35.351  34.798  1.00  0.00    -0.246 OA
BRANCH   3   5
ATOM      5  C   UNL A   1      38.898  32.985  34.595  1.00  0.00     0.102 A 
ATOM      6  C   UNL A   1      38.350  32.131  35.561  1.00  0.00     0.145 A 
ATOM      7  C   UNL A   1      38.919  30.875  35.807  1.00  0.00     0.048 A 
ATOM      8  C   UNL A   1      40.036  30.460  35.082  1.00  0.00     0.004 A 
ATOM      9  C   UNL A   1      39.998  32.534  33.847  1.00  0.00     0.019 A 
ATOM     10  C   UNL A   1      40.578  31.290  34.104  1.00  0.00     0.001 A 
BRANCH   6  11
ATOM     11  O   UNL A   1      37.274  32.489  36.386  1.00  0.00    -0.426 OA
BRANCH  11  12
ATOM     12  C   UNL A   1      37.619  33.035  37.616  1.00  0.00     0.308 C 
ATOM     13  C   UNL A   1      37.196  32.095  38.704  1.00  0.00     0.139 C 
ATOM     14  O   UNL A   1      38.176  34.107  37.807  1.00  0.00    -0.252 OA
ENDBRANCH  11  12
ENDBRANCH   6  11
ENDBRANCH   3   5
ENDBRANCH   2   3
ENDBRANCH   1   2
BRANCH   1  15
ATOM     15  C   UNL A   1      35.014  33.473  33.822  1.00  0.00     0.275 C 
BRANCH  15  16
ATOM     16  O   UNL A   1      35.660  32.335  33.228  1.00  0.00    -0.458 OA
BRANCH  16  17
ATOM     17  C   UNL A   1      35.319  32.082  31.947  1.00  0.00     0.338 C 
ATOM     18  O   UNL A   1      34.313  32.433  31.352  1.00  0.00    -0.246 OA
BRANCH  17  19
ATOM     19  C   UNL A   1      36.416  31.362  31.289  1.00  0.00     0.060 A 
ATOM     20  C   UNL A   1      37.216  30.541  32.076  1.00  0.00     0.016 A 
ATOM     21  C   UNL A   1      36.745  31.605  29.959  1.00  0.00     0.016 A 
ATOM     22  C   UNL A   1      38.399  30.017  31.570  1.00  0.00     0.010 A 
ATOM     23  C   UNL A   1      37.896  31.014  29.426  1.00  0.00     0.010 A 
ATOM     24  C   UNL A   1      38.755  30.245  30.236  1.00  0.00    -0.014 A 
BRANCH  24  25
ATOM     25  C   UNL A   1      40.054  29.739  29.713  1.00  0.00     0.031 A 
ATOM     26  C   UNL A   1      41.246  30.655  29.659  1.00  0.00     0.074 A 
ATOM     27  C   UNL A   1      40.180  28.457  29.314  1.00  0.00     0.049 A 
ATOM     28  N   UNL A   1      42.405  30.477  29.075  1.00  0.00    -0.248 NA
ATOM     29  C   UNL A   1      41.114  31.953  30.339  1.00  0.00     0.031 C 
ATOM     30  C   UNL A   1      39.128  27.442  29.369  1.00  0.00     0.029 A 
ATOM     31  N   UNL A   1      41.257  27.788  28.785  1.00  0.00    -0.354 N 
ATOM     32  C   UNL A   1      43.109  31.661  29.259  1.00  0.00     0.074 A 
ATOM     33  C   UNL A   1      42.251  32.550  30.013  1.00  0.00     0.031 C 
ATOM     34  C   UNL A   1      39.616  26.275  28.924  1.00  0.00     0.029 A 
ATOM     35  C   UNL A   1      40.987  26.478  28.469  1.00  0.00     0.049 A 
ATOM     36  H   UNL A   1      42.136  28.206  28.645  1.00  0.00     0.167 HD
ATOM     37  C   UNL A   1      44.355  31.977  28.832  1.00  0.00     0.037 A 
ATOM     38  C   UNL A   1      41.739  25.556  27.838  1.00  0.00     0.037 A 
ATOM     39  C   UNL A   1      45.229  31.063  28.143  1.00  0.00     0.049 A 
ATOM     40  C   UNL A   1      43.109  25.937  27.353  1.00  0.00     0.074 A 
ATOM     41  C   UNL A   1      46.520  31.278  27.691  1.00  0.00     0.029 A 
ATOM     42  N   UNL A   1      44.905  29.753  27.821  1.00  0.00    -0.354 N 
ATOM     43  N   UNL A   1      43.743  27.077  27.482  1.00  0.00    -0.248 NA
ATOM     44  C   UNL A   1      43.859  24.911  26.616  1.00  0.00     0.031 C 
ATOM     45  C   UNL A   1      46.964  30.108  27.066  1.00  0.00     0.029 A 
ATOM     46  C   UNL A   1      45.967  29.152  27.166  1.00  0.00     0.049 A 
ATOM     47  H   UNL A   1      44.047  29.316  28.028  1.00  0.00     0.167 HD
ATOM     48  C   UNL A   1      44.969  26.902  26.855  1.00  0.00     0.074 A 
ATOM     49  C   UNL A   1      44.999  25.539  26.366  1.00  0.00     0.031 C 
ATOM     50  C   UNL A   1      45.980  27.791  26.695  1.00  0.00     0.037 A 
BRANCH  37  51
ATOM     51  C   UNL A   1      44.836  33.380  29.062  1.00  0.00     0.057 A 
ATOM     52  C   UNL A   1      44.570  34.422  28.167  1.00  0.00     0.134 A 
ATOM     53  C   UNL A   1      45.552  33.695  30.226  1.00  0.00     0.134 A 
ATOM     54  F   UNL A   1      43.904  34.185  27.027  1.00  0.00    -0.206 F 
ATOM     55  C   UNL A   1      45.016  35.724  28.409  1.00  0.00     0.040 A 
ATOM     56  C   UNL A   1      45.980  34.997  30.493  1.00  0.00     0.040 A 
ATOM     57  F   UNL A   1      45.837  32.745  31.129  1.00  0.00    -0.206 F 
ATOM     58  C   UNL A   1      45.716  36.015  29.579  1.00  0.00     0.006 A 
ENDBRANCH  37  51
BRANCH  38  59
ATOM     59  C   UNL A   1      41.195  24.198  27.586  1.00  0.00     0.057 A 
ATOM     60  C   UNL A   1      41.645  23.090  28.314  1.00  0.00     0.134 A 
ATOM     61  C   UNL A   1      40.216  23.972  26.609  1.00  0.00     0.134 A 
ATOM     62  F   UNL A   1      42.600  23.236  29.244  1.00  0.00    -0.206 F 
ATOM     63  C   UNL A   1      41.150  21.807  28.072  1.00  0.00     0.040 A 
ATOM     64  C   UNL A   1      39.692  22.701  26.377  1.00  0.00     0.040 A 
ATOM     65  F   UNL A   1      39.743  24.991  25.877  1.00  0.00    -0.206 F 
ATOM     66  C   UNL A   1      40.165  21.611  27.106  1.00  0.00     0.006 A 
ENDBRANCH  38  59
BRANCH  50  67
ATOM     67  C   UNL A   1      47.211  27.301  25.994  1.00  0.00     0.057 A 
ATOM     68  C   UNL A   1      48.241  26.648  26.682  1.00  0.00     0.134 A 
ATOM     69  C   UNL A   1      47.356  27.466  24.611  1.00  0.00     0.134 A 
ATOM     70  F   UNL A   1      48.168  26.474  28.011  1.00  0.00    -0.206 F 
ATOM     71  C   UNL A   1      49.383  26.196  26.021  1.00  0.00     0.040 A 
ATOM     72  C   UNL A   1      48.483  26.997  23.937  1.00  0.00     0.040 A 
ATOM     73  F   UNL A   1      46.401  28.078  23.894  1.00  0.00    -0.206 F 
ATOM     74  C   UNL A   1      49.504  26.365  24.643  1.00  0.00     0.006 A 
ENDBRANCH  50  67
ENDBRANCH  24  25
ENDBRANCH  17  19
ENDBRANCH  16  17
ENDBRANCH  15  16
ENDBRANCH   1  15
TORSDOF 13
ENDMDL
MODEL 2
REMARK VINA RESULT:      -9.3      4.994     10.152
REMARK SMILES CC(=O)Oc1ccccc1C(=O)OCCOC(=O)c1ccc(-c2c3nc(c(-c4c(F)cccc4F)c4ccc([nH]4)c(-c4c(F)cccc4F)c4nc(c(-c5c(F)cccc5F)c5ccc2[nH]5)C=C4)C=C3)cc1
REMARK SMILES IDX 14 1 13 2 11 3 12 4 10 5 5 6 6 7 7 8 9 9 8 10 4 11 2 12 1 13
REMARK SMILES IDX 3 14 15 15 16 16 17 17 18 18 19 19 20 20 72 21 21 22 71 23
REMARK SMILES IDX 22 24 23 25 24 26 65 27 25 28 70 29 64 30 66 31 26 32 69 33
REMARK SMILES IDX 63 34 62 35 27 37 53 38 36 39 52 40 37 41 40 42 51 43 67 44
REMARK SMILES IDX 38 45 39 46 50 48 68 49 41 50 28 51 29 52 34 53 30 54 31 55
REMARK SMILES IDX 33 56 35 57 32 58 54 59 55 60 60 61 56 62 57 63 59 64 61 65
REMARK SMILES IDX 58 66 42 67 43 68 48 69 44 70 45 71 47 72 49 73 46 74
REMARK H PARENT 66 36 40 47
REMARK Flexibility Score: inf
ROOT
ATOM      1  C   UNL A   1      35.174  20.417  24.965  1.00  0.00     0.275 C 
ENDROOT
BRANCH   1   2
ATOM      2  O   UNL A   1      33.767  20.573  25.240  1.00  0.00    -0.458 OA
BRANCH   2   3
ATOM      3  C   UNL A   1      32.940  20.592  24.160  1.00  0.00     0.342 C 
ATOM      4  O   UNL A   1      32.501  19.620  23.579  1.00  0.00    -0.246 OA
BRANCH   3   5
ATOM      5  C   UNL A   1      32.539  21.983  23.816  1.00  0.00     0.102 A 
ATOM      6  C   UNL A   1      31.594  22.729  24.531  1.00  0.00     0.145 A 
ATOM      7  C   UNL A   1      31.256  24.027  24.127  1.00  0.00     0.048 A 
ATOM      8  C   UNL A   1      31.868  24.592  23.008  1.00  0.00     0.004 A 
ATOM      9  C   UNL A   1      33.175  22.584  22.716  1.00  0.00     0.019 A 
ATOM     10  C   UNL A   1      32.825  23.870  22.300  1.00  0.00     0.001 A 
BRANCH   6  11
ATOM     11  O   UNL A   1      30.877  22.221  25.624  1.00  0.00    -0.426 OA
BRANCH  11  12
ATOM     12  C   UNL A   1      30.951  22.972  26.791  1.00  0.00     0.308 C 
ATOM     13  C   UNL A   1      32.354  22.921  27.317  1.00  0.00     0.139 C 
ATOM     14  O   UNL A   1      30.035  23.584  27.323  1.00  0.00    -0.252 OA
ENDBRANCH  11  12
ENDBRANCH   6  11
ENDBRANCH   3   5
ENDBRANCH   2   3
ENDBRANCH   1   2
BRANCH   1  15
ATOM     15  C   UNL A   1      36.016  21.388  25.788  1.00  0.00     0.275 C 
BRANCH  15  16
ATOM     16  O   UNL A   1      37.219  21.725  25.077  1.00  0.00    -0.458 OA
BRANCH  16  17
ATOM     17  C   UNL A   1      38.365  21.297  25.646  1.00  0.00     0.338 C 
ATOM     18  O   UNL A   1      38.871  20.188  25.578  1.00  0.00    -0.246 OA
BRANCH  17  19
ATOM     19  C   UNL A   1      39.015  22.422  26.328  1.00  0.00     0.060 A 
ATOM     20  C   UNL A   1      38.559  23.704  26.042  1.00  0.00     0.016 A 
ATOM     21  C   UNL A   1      40.147  22.234  27.115  1.00  0.00     0.016 A 
ATOM     22  C   UNL A   1      39.272  24.816  26.470  1.00  0.00     0.010 A 
ATOM     23  C   UNL A   1      40.823  23.354  27.611  1.00  0.00     0.010 A 
ATOM     24  C   UNL A   1      40.414  24.658  27.263  1.00  0.00    -0.014 A 
BRANCH  24  25
ATOM     25  C   UNL A   1      41.215  25.846  27.665  1.00  0.00     0.031 A 
ATOM     26  C   UNL A   1      40.605  26.891  28.560  1.00  0.00     0.074 A 
ATOM     27  C   UNL A   1      42.493  25.983  27.258  1.00  0.00     0.049 A 
ATOM     28  N   UNL A   1      41.053  28.079  28.876  1.00  0.00    -0.248 NA
ATOM     29  C   UNL A   1      39.307  26.561  29.172  1.00  0.00     0.031 C 
ATOM     30  C   UNL A   1      43.232  25.020  26.440  1.00  0.00     0.029 A 
ATOM     31  N   UNL A   1      43.400  26.990  27.482  1.00  0.00    -0.354 N 
ATOM     32  C   UNL A   1      40.067  28.662  29.663  1.00  0.00     0.074 A 
ATOM     33  C   UNL A   1      38.997  27.696  29.782  1.00  0.00     0.031 C 
ATOM     34  C   UNL A   1      44.484  25.465  26.257  1.00  0.00     0.029 A 
ATOM     35  C   UNL A   1      44.611  26.783  26.868  1.00  0.00     0.049 A 
ATOM     36  H   UNL A   1      43.200  27.783  28.029  1.00  0.00     0.167 HD
ATOM     37  C   UNL A   1      40.056  29.893  30.228  1.00  0.00     0.037 A 
ATOM     38  C   UNL A   1      45.689  27.585  26.763  1.00  0.00     0.037 A 
ATOM     39  C   UNL A   1      41.154  30.822  30.163  1.00  0.00     0.049 A 
ATOM     40  C   UNL A   1      45.643  28.955  27.378  1.00  0.00     0.074 A 
ATOM     41  C   UNL A   1      41.251  32.084  30.724  1.00  0.00     0.029 A 
ATOM     42  N   UNL A   1      42.353  30.582  29.508  1.00  0.00    -0.354 N 
ATOM     43  N   UNL A   1      44.683  29.518  28.071  1.00  0.00    -0.248 NA
ATOM     44  C   UNL A   1      46.822  29.809  27.178  1.00  0.00     0.031 C 
ATOM     45  C   UNL A   1      42.497  32.619  30.380  1.00  0.00     0.029 A 
ATOM     46  C   UNL A   1      43.191  31.676  29.642  1.00  0.00     0.049 A 
ATOM     47  H   UNL A   1      42.575  29.755  29.021  1.00  0.00     0.167 HD
ATOM     48  C   UNL A   1      45.145  30.784  28.401  1.00  0.00     0.074 A 
ATOM     49  C   UNL A   1      46.481  30.899  27.851  1.00  0.00     0.031 C 
ATOM     50  C   UNL A   1      44.520  31.767  29.093  1.00  0.00     0.037 A 
BRANCH  37  51
ATOM     51  C   UNL A   1      38.804  30.324  30.935  1.00  0.00     0.057 A 
ATOM     52  C   UNL A   1      38.594  30.096  32.299  1.00  0.00     0.134 A 
ATOM     53  C   UNL A   1      37.804  31.014  30.234  1.00  0.00     0.134 A 
ATOM     54  F   UNL A   1      39.504  29.428  33.024  1.00  0.00    -0.206 F 
ATOM     55  C   UNL A   1      37.426  30.519  32.939  1.00  0.00     0.040 A 
ATOM     56  C   UNL A   1      36.645  31.465  30.867  1.00  0.00     0.040 A 
ATOM     57  F   UNL A   1      37.943  31.272  28.925  1.00  0.00    -0.206 F 
ATOM     58  C   UNL A   1      36.451  31.213  32.224  1.00  0.00     0.006 A 
ENDBRANCH  37  51
BRANCH  38  59
ATOM     59  C   UNL A   1      46.882  27.132  26.005  1.00  0.00     0.057 A 
ATOM     60  C   UNL A   1      47.912  26.421  26.633  1.00  0.00     0.134 A 
ATOM     61  C   UNL A   1      47.026  27.402  24.638  1.00  0.00     0.134 A 
ATOM     62  F   UNL A   1      47.846  26.155  27.946  1.00  0.00    -0.206 F 
ATOM     63  C   UNL A   1      49.046  26.005  25.932  1.00  0.00     0.040 A 
ATOM     64  C   UNL A   1      48.139  26.967  23.919  1.00  0.00     0.040 A 
ATOM     65  F   UNL A   1      46.076  28.079  23.978  1.00  0.00    -0.206 F 
ATOM     66  C   UNL A   1      49.158  26.272  24.568  1.00  0.00     0.006 A 
ENDBRANCH  38  59
BRANCH  50  67
ATOM     67  C   UNL A   1      45.290  33.033  29.323  1.00  0.00     0.057 A 
ATOM     68  C   UNL A   1      46.114  33.202  30.442  1.00  0.00     0.134 A 
ATOM     69  C   UNL A   1      45.221  34.084  28.402  1.00  0.00     0.134 A 
ATOM     70  F   UNL A   1      46.210  32.236  31.369  1.00  0.00    -0.206 F 
ATOM     71  C   UNL A   1      46.827  34.383  30.648  1.00  0.00     0.040 A 
ATOM     72  C   UNL A   1      45.948  35.261  28.585  1.00  0.00     0.040 A 
ATOM     73  F   UNL A   1      44.454  33.982  27.306  1.00  0.00    -0.206 F 
ATOM     74  C   UNL A   1      46.749  35.416  29.714  1.00  0.00     0.006 A 
ENDBRANCH  50  67
ENDBRANCH  24  25
ENDBRANCH  17  19
ENDBRANCH  16  17
ENDBRANCH  15  16
ENDBRANCH   1  15
TORSDOF 13
ENDMDL
MODEL 3
REMARK VINA RESULT:      -9.2      4.896      9.748
REMARK SMILES CC(=O)Oc1ccccc1C(=O)OCCOC(=O)c1ccc(-c2c3nc(c(-c4c(F)cccc4F)c4ccc([nH]4)c(-c4c(F)cccc4F)c4nc(c(-c5c(F)cccc5F)c5ccc2[nH]5)C=C4)C=C3)cc1
REMARK SMILES IDX 14 1 13 2 11 3 12 4 10 5 5 6 6 7 7 8 9 9 8 10 4 11 2 12 1 13
REMARK SMILES IDX 3 14 15 15 16 16 17 17 18 18 19 19 20 20 72 21 21 22 71 23
REMARK SMILES IDX 22 24 23 25 24 26 65 27 25 28 70 29 64 30 66 31 26 32 69 33
REMARK SMILES IDX 63 34 62 35 27 37 53 38 36 39 52 40 37 41 40 42 51 43 67 44
REMARK SMILES IDX 38 45 39 46 50 48 68 49 41 50 28 51 29 52 34 53 30 54 31 55
REMARK SMILES IDX 33 56 35 57 32 58 54 59 55 60 60 61 56 62 57 63 59 64 61 65
REMARK SMILES IDX 58 66 42 67 43 68 48 69 44 70 45 71 47 72 49 73 46 74
REMARK H PARENT 66 36 40 47
REMARK Flexibility Score: inf
ROOT
ATOM      1  C   UNL A   1      32.868  29.328  24.323  1.00  0.00     0.275 C 
ENDROOT
BRANCH   1   2
ATOM      2  O   UNL A   1      33.674  28.218  24.770  1.00  0.00    -0.458 OA
BRANCH   2   3
ATOM      3  C   UNL A   1      33.619  27.090  24.013  1.00  0.00     0.342 C 
ATOM      4  O   UNL A   1      33.652  27.042  22.800  1.00  0.00    -0.246 OA
BRANCH   3   5
ATOM      5  C   UNL A   1      33.613  25.871  24.866  1.00  0.00     0.102 A 
ATOM      6  C   UNL A   1      32.575  25.528  25.742  1.00  0.00     0.145 A 
ATOM      7  C   UNL A   1      32.657  24.372  26.528  1.00  0.00     0.048 A 
ATOM      8  C   UNL A   1      33.776  23.544  26.437  1.00  0.00     0.004 A 
ATOM      9  C   UNL A   1      34.713  25.003  24.758  1.00  0.00     0.019 A 
ATOM     10  C   UNL A   1      34.805  23.860  25.555  1.00  0.00     0.001 A 
BRANCH   6  11
ATOM     11  O   UNL A   1      31.446  26.334  25.952  1.00  0.00    -0.426 OA
BRANCH  11  12
ATOM     12  C   UNL A   1      30.222  25.732  25.686  1.00  0.00     0.308 C 
ATOM     13  C   UNL A   1      29.941  25.824  24.217  1.00  0.00     0.139 C 
ATOM     14  O   UNL A   1      29.477  25.206  26.501  1.00  0.00    -0.252 OA
ENDBRANCH  11  12
ENDBRANCH   6  11
ENDBRANCH   3   5
ENDBRANCH   2   3
ENDBRANCH   1   2
BRANCH   1  15
ATOM     15  C   UNL A   1      31.810  29.703  25.358  1.00  0.00     0.275 C 
BRANCH  15  16
ATOM     16  O   UNL A   1      32.405  29.788  26.664  1.00  0.00    -0.458 OA
BRANCH  16  17
ATOM     17  C   UNL A   1      32.902  30.999  26.993  1.00  0.00     0.338 C 
ATOM     18  O   UNL A   1      32.334  32.079  26.966  1.00  0.00    -0.246 OA
BRANCH  17  19
ATOM     19  C   UNL A   1      34.268  30.838  27.503  1.00  0.00     0.060 A 
ATOM     20  C   UNL A   1      34.731  29.544  27.720  1.00  0.00     0.016 A 
ATOM     21  C   UNL A   1      35.025  31.935  27.902  1.00  0.00     0.016 A 
ATOM     22  C   UNL A   1      35.916  29.327  28.411  1.00  0.00     0.010 A 
ATOM     23  C   UNL A   1      36.257  31.718  28.530  1.00  0.00     0.010 A 
ATOM     24  C   UNL A   1      36.698  30.412  28.824  1.00  0.00    -0.014 A 
BRANCH  24  25
ATOM     25  C   UNL A   1      37.934  30.180  29.621  1.00  0.00     0.031 A 
ATOM     26  C   UNL A   1      39.066  29.384  29.031  1.00  0.00     0.074 A 
ATOM     27  C   UNL A   1      38.060  30.701  30.858  1.00  0.00     0.049 A 
ATOM     28  N   UNL A   1      40.140  28.911  29.611  1.00  0.00    -0.248 NA
ATOM     29  C   UNL A   1      38.972  29.063  27.598  1.00  0.00     0.031 C 
ATOM     30  C   UNL A   1      37.070  31.543  31.531  1.00  0.00     0.029 A 
ATOM     31  N   UNL A   1      39.082  30.600  31.771  1.00  0.00    -0.354 N 
ATOM     32  C   UNL A   1      40.810  28.183  28.636  1.00  0.00     0.074 A 
ATOM     33  C   UNL A   1      40.027  28.279  27.423  1.00  0.00     0.031 C 
ATOM     34  C   UNL A   1      37.543  31.906  32.732  1.00  0.00     0.029 A 
ATOM     35  C   UNL A   1      38.828  31.253  32.953  1.00  0.00     0.049 A 
ATOM     36  H   UNL A   1      39.914  30.106  31.595  1.00  0.00     0.167 HD
ATOM     37  C   UNL A   1      41.972  27.493  28.746  1.00  0.00     0.037 A 
ATOM     38  C   UNL A   1      39.526  31.284  34.104  1.00  0.00     0.037 A 
ATOM     39  C   UNL A   1      42.781  27.459  29.936  1.00  0.00     0.049 A 
ATOM     40  C   UNL A   1      40.798  30.493  34.209  1.00  0.00     0.074 A 
ATOM     41  C   UNL A   1      43.988  26.811  30.141  1.00  0.00     0.029 A 
ATOM     42  N   UNL A   1      42.474  28.116  31.118  1.00  0.00    -0.354 N 
ATOM     43  N   UNL A   1      41.394  29.761  33.298  1.00  0.00    -0.248 NA
ATOM     44  C   UNL A   1      41.485  30.512  35.508  1.00  0.00     0.031 C 
ATOM     45  C   UNL A   1      44.392  27.049  31.458  1.00  0.00     0.029 A 
ATOM     46  C   UNL A   1      43.461  27.879  32.060  1.00  0.00     0.049 A 
ATOM     47  H   UNL A   1      41.673  28.669  31.266  1.00  0.00     0.167 HD
ATOM     48  C   UNL A   1      42.529  29.246  33.909  1.00  0.00     0.074 A 
ATOM     49  C   UNL A   1      42.551  29.765  35.261  1.00  0.00     0.031 C 
ATOM     50  C   UNL A   1      43.468  28.412  33.398  1.00  0.00     0.037 A 
BRANCH  37  51
ATOM     51  C   UNL A   1      42.418  26.687  27.561  1.00  0.00     0.057 A 
ATOM     52  C   UNL A   1      43.246  27.212  26.563  1.00  0.00     0.134 A 
ATOM     53  C   UNL A   1      42.035  25.344  27.441  1.00  0.00     0.134 A 
ATOM     54  F   UNL A   1      43.636  28.496  26.609  1.00  0.00    -0.206 F 
ATOM     55  C   UNL A   1      43.661  26.439  25.476  1.00  0.00     0.040 A 
ATOM     56  C   UNL A   1      42.464  24.552  26.375  1.00  0.00     0.040 A 
ATOM     57  F   UNL A   1      41.247  24.774  28.366  1.00  0.00    -0.206 F 
ATOM     58  C   UNL A   1      43.276  25.102  25.384  1.00  0.00     0.006 A 
ENDBRANCH  37  51
BRANCH  38  59
ATOM     59  C   UNL A   1      39.012  32.053  35.265  1.00  0.00     0.057 A 
ATOM     60  C   UNL A   1      38.278  31.428  36.280  1.00  0.00     0.134 A 
ATOM     61  C   UNL A   1      39.235  33.431  35.387  1.00  0.00     0.134 A 
ATOM     62  F   UNL A   1      38.008  30.116  36.208  1.00  0.00    -0.206 F 
ATOM     63  C   UNL A   1      37.777  32.146  37.368  1.00  0.00     0.040 A 
ATOM     64  C   UNL A   1      38.765  34.155  36.483  1.00  0.00     0.040 A 
ATOM     65  F   UNL A   1      39.930  34.089  34.449  1.00  0.00    -0.206 F 
ATOM     66  C   UNL A   1      38.027  33.513  37.475  1.00  0.00     0.006 A 
ENDBRANCH  38  59
BRANCH  50  67
ATOM     67  C   UNL A   1      44.612  28.046  34.295  1.00  0.00     0.057 A 
ATOM     68  C   UNL A   1      44.568  26.918  35.124  1.00  0.00     0.134 A 
ATOM     69  C   UNL A   1      45.779  28.819  34.312  1.00  0.00     0.134 A 
ATOM     70  F   UNL A   1      43.471  26.146  35.164  1.00  0.00    -0.206 F 
ATOM     71  C   UNL A   1      45.637  26.585  35.956  1.00  0.00     0.040 A 
ATOM     72  C   UNL A   1      46.863  28.483  35.122  1.00  0.00     0.040 A 
ATOM     73  F   UNL A   1      45.886  29.909  33.535  1.00  0.00    -0.206 F 
ATOM     74  C   UNL A   1      46.792  27.366  35.952  1.00  0.00     0.006 A 
ENDBRANCH  50  67
ENDBRANCH  24  25
ENDBRANCH  17  19
ENDBRANCH  16  17
ENDBRANCH  15  16
ENDBRANCH   1  15
TORSDOF 13
ENDMDL
