MODEL 1
REMARK VINA RESULT:     -12.5      0.000      0.000
REMARK SMILES COc1ccc(CCN2/C(=[NH+]/C(=O)CCC(=O)OCCOC(=O)c3ccc(-c4c5nc(c(-c6c(F)cccc6F)c6ccc([nH]6)c(-c6c(F)cccc6F)c6nc(c(-c7c(F)cccc7F)c7ccc4[nH]7)C=C6)C=C5)cc3)S[C@@H]3CS(=O)(=O)C[C@@H]32)cc1
REMARK SMILES IDX 16 1 17 2 15 3 14 4 12 5 9 6 10 7 85 8 11 9 78 10 79 11
REMARK SMILES IDX 84 12 80 14 81 15 13 16 82 17 83 18 8 19 7 20 6 21 3 22 4 23
REMARK SMILES IDX 87 24 5 25 86 26 2 27 1 28 18 29 19 30 20 31 21 32 22 33
REMARK SMILES IDX 23 34 24 35 25 36 77 37 26 38 76 39 27 40 28 41 29 42 70 43
REMARK SMILES IDX 30 44 75 45 69 46 71 47 31 48 74 49 68 50 67 51 32 53 58 54
REMARK SMILES IDX 41 55 57 56 42 57 45 58 56 59 72 60 43 61 44 62 55 64 73 65
REMARK SMILES IDX 46 66 33 67 34 68 39 69 35 70 36 71 38 72 40 73 37 74 59 75
REMARK SMILES IDX 60 76 65 77 61 78 62 79 64 80 66 81 63 82 47 83 48 84 53 85
REMARK SMILES IDX 49 86 50 87 52 88 54 89 51 90
REMARK H PARENT 11 13 71 52 45 63
REMARK Flexibility Score: inf
ROOT
ATOM      1  C   UNL A   1      39.684  20.337  25.801  1.00  0.00     0.306 C 
ATOM      2  O   UNL A   1      39.524  19.191  25.394  1.00  0.00    -0.252 OA
ENDROOT
BRANCH   1   3
ATOM      3  C   UNL A   1      38.639  21.424  25.628  1.00  0.00     0.135 C 
BRANCH   3   4
ATOM      4  C   UNL A   1      37.244  20.976  25.190  1.00  0.00     0.139 C 
BRANCH   4   5
ATOM      5  C   UNL A   1      36.421  22.116  24.616  1.00  0.00     0.308 C 
ATOM      6  N   UNL A   1      32.821  22.554  24.399  1.00  0.00    -0.251 N 
ATOM      7  C   UNL A   1      34.187  22.704  24.166  1.00  0.00     0.314 C 
ATOM      8  C   UNL A   1      31.961  23.631  23.887  1.00  0.00     0.206 C 
ATOM      9  N   UNL A   1      35.075  21.847  24.554  1.00  0.00    -0.205 N 
ATOM     10  S   UNL A   1      34.469  24.275  23.407  1.00  0.00    -0.030 SA
ATOM     11  C   UNL A   1      32.829  24.894  23.872  1.00  0.00     0.120 C 
ATOM     12  C   UNL A   1      30.721  23.956  24.710  1.00  0.00     0.187 C 
ATOM     13  H   UNL A   1      34.769  20.949  24.820  1.00  0.00     0.316 HD
ATOM     14  C   UNL A   1      32.837  25.483  25.278  1.00  0.00     0.156 C 
ATOM     15  S   UNL A   1      31.199  25.183  25.894  1.00  0.00     0.155 S 
ATOM     16  O   UNL A   1      36.975  23.186  24.378  1.00  0.00    -0.247 OA
ATOM     17  O   UNL A   1      31.272  24.560  27.197  1.00  0.00    -0.229 OA
ATOM     18  O   UNL A   1      30.395  26.362  25.652  1.00  0.00    -0.229 OA
BRANCH   6  19
ATOM     19  C   UNL A   1      32.215  21.303  24.824  1.00  0.00     0.242 C 
BRANCH  19  20
ATOM     20  C   UNL A   1      32.249  20.133  23.833  1.00  0.00     0.081 C 
BRANCH  20  21
ATOM     21  C   UNL A   1      32.590  18.673  24.098  1.00  0.00    -0.044 A 
ATOM     22  C   UNL A   1      33.990  16.288  24.722  1.00  0.00     0.118 A 
ATOM     23  C   UNL A   1      33.174  16.883  25.667  1.00  0.00     0.046 A 
ATOM     24  C   UNL A   1      34.017  16.794  23.428  1.00  0.00     0.046 A 
ATOM     25  C   UNL A   1      32.498  18.067  25.353  1.00  0.00     0.007 A 
ATOM     26  C   UNL A   1      33.311  17.966  23.118  1.00  0.00     0.007 A 
BRANCH  22  27
ATOM     27  O   UNL A   1      34.714  15.191  25.096  1.00  0.00    -0.497 OA
ATOM     28  C   UNL A   1      36.031  15.556  25.518  1.00  0.00     0.278 C 
ENDBRANCH  22  27
ENDBRANCH  20  21
ENDBRANCH  19  20
ENDBRANCH   6  19
ENDBRANCH   4   5
ENDBRANCH   3   4
ENDBRANCH   1   3
BRANCH   1  29
ATOM     29  O   UNL A   1      40.787  20.759  26.453  1.00  0.00    -0.462 OA
BRANCH  29  30
ATOM     30  C   UNL A   1      42.010  20.010  26.271  1.00  0.00     0.274 C 
BRANCH  30  31
ATOM     31  C   UNL A   1      43.089  20.972  25.758  1.00  0.00     0.275 C 
BRANCH  31  32
ATOM     32  O   UNL A   1      43.004  22.190  26.506  1.00  0.00    -0.458 OA
BRANCH  32  33
ATOM     33  C   UNL A   1      43.207  23.299  25.750  1.00  0.00     0.338 C 
ATOM     34  O   UNL A   1      43.529  23.348  24.586  1.00  0.00    -0.246 OA
BRANCH  33  35
ATOM     35  C   UNL A   1      42.676  24.432  26.531  1.00  0.00     0.060 A 
ATOM     36  C   UNL A   1      43.334  25.666  26.455  1.00  0.00     0.016 A 
ATOM     37  C   UNL A   1      41.510  24.279  27.281  1.00  0.00     0.016 A 
ATOM     38  C   UNL A   1      42.847  26.753  27.169  1.00  0.00     0.010 A 
ATOM     39  C   UNL A   1      41.030  25.358  28.006  1.00  0.00     0.010 A 
ATOM     40  C   UNL A   1      41.725  26.580  27.985  1.00  0.00    -0.014 A 
BRANCH  40  41
ATOM     41  C   UNL A   1      41.410  27.574  29.023  1.00  0.00     0.031 A 
ATOM     42  C   UNL A   1      42.211  27.508  30.291  1.00  0.00     0.074 A 
ATOM     43  C   UNL A   1      40.428  28.469  28.842  1.00  0.00     0.049 A 
ATOM     44  N   UNL A   1      42.022  28.124  31.426  1.00  0.00    -0.248 NA
ATOM     45  C   UNL A   1      43.375  26.602  30.284  1.00  0.00     0.031 C 
ATOM     46  C   UNL A   1      39.636  28.625  27.622  1.00  0.00     0.029 A 
ATOM     47  N   UNL A   1      39.914  29.401  29.702  1.00  0.00    -0.354 N 
ATOM     48  C   UNL A   1      43.032  27.670  32.266  1.00  0.00     0.074 A 
ATOM     49  C   UNL A   1      43.805  26.698  31.531  1.00  0.00     0.031 C 
ATOM     50  C   UNL A   1      38.714  29.583  27.822  1.00  0.00     0.029 A 
ATOM     51  C   UNL A   1      38.828  30.070  29.194  1.00  0.00     0.049 A 
ATOM     52  H   UNL A   1      40.286  29.575  30.597  1.00  0.00     0.167 HD
ATOM     53  C   UNL A   1      43.291  28.049  33.537  1.00  0.00     0.037 A 
ATOM     54  C   UNL A   1      38.007  30.948  29.798  1.00  0.00     0.037 A 
ATOM     55  C   UNL A   1      42.502  29.020  34.242  1.00  0.00     0.049 A 
ATOM     56  C   UNL A   1      38.278  31.302  31.239  1.00  0.00     0.074 A 
ATOM     57  C   UNL A   1      42.646  29.478  35.538  1.00  0.00     0.029 A 
ATOM     58  N   UNL A   1      41.417  29.690  33.693  1.00  0.00    -0.354 N 
ATOM     59  N   UNL A   1      39.227  30.866  32.036  1.00  0.00    -0.248 NA
ATOM     60  C   UNL A   1      37.370  32.271  31.864  1.00  0.00     0.031 C 
ATOM     61  C   UNL A   1      41.627  30.402  35.784  1.00  0.00     0.029 A 
ATOM     62  C   UNL A   1      40.879  30.556  34.624  1.00  0.00     0.049 A 
ATOM     63  H   UNL A   1      41.082  29.565  32.776  1.00  0.00     0.167 HD
ATOM     64  C   UNL A   1      39.053  31.533  33.240  1.00  0.00     0.074 A 
ATOM     65  C   UNL A   1      37.915  32.414  33.064  1.00  0.00     0.031 C 
ATOM     66  C   UNL A   1      39.760  31.433  34.394  1.00  0.00     0.037 A 
BRANCH  53  67
ATOM     67  C   UNL A   1      44.459  27.411  34.230  1.00  0.00     0.057 A 
ATOM     68  C   UNL A   1      45.731  28.000  34.224  1.00  0.00     0.134 A 
ATOM     69  C   UNL A   1      44.308  26.212  34.936  1.00  0.00     0.134 A 
ATOM     70  F   UNL A   1      45.950  29.137  33.546  1.00  0.00    -0.206 F 
ATOM     71  C   UNL A   1      46.812  27.413  34.882  1.00  0.00     0.040 A 
ATOM     72  C   UNL A   1      45.376  25.628  35.621  1.00  0.00     0.040 A 
ATOM     73  F   UNL A   1      43.119  25.590  34.979  1.00  0.00    -0.206 F 
ATOM     74  C   UNL A   1      46.633  26.227  35.592  1.00  0.00     0.006 A 
ENDBRANCH  53  67
BRANCH  54  75
ATOM     75  C   UNL A   1      36.849  31.530  29.071  1.00  0.00     0.057 A 
ATOM     76  C   UNL A   1      36.875  32.851  28.607  1.00  0.00     0.134 A 
ATOM     77  C   UNL A   1      35.675  30.798  28.856  1.00  0.00     0.134 A 
ATOM     78  F   UNL A   1      37.963  33.611  28.795  1.00  0.00    -0.206 F 
ATOM     79  C   UNL A   1      35.766  33.433  27.988  1.00  0.00     0.040 A 
ATOM     80  C   UNL A   1      34.570  31.357  28.211  1.00  0.00     0.040 A 
ATOM     81  F   UNL A   1      35.584  29.525  29.268  1.00  0.00    -0.206 F 
ATOM     82  C   UNL A   1      34.609  32.683  27.787  1.00  0.00     0.006 A 
ENDBRANCH  54  75
BRANCH  66  83
ATOM     83  C   UNL A   1      39.356  32.338  35.519  1.00  0.00     0.057 A 
ATOM     84  C   UNL A   1      38.459  31.930  36.512  1.00  0.00     0.134 A 
ATOM     85  C   UNL A   1      39.909  33.620  35.626  1.00  0.00     0.134 A 
ATOM     86  F   UNL A   1      37.887  30.717  36.457  1.00  0.00    -0.206 F 
ATOM     87  C   UNL A   1      38.104  32.778  37.561  1.00  0.00     0.040 A 
ATOM     88  C   UNL A   1      39.586  34.465  36.687  1.00  0.00     0.040 A 
ATOM     89  F   UNL A   1      40.786  34.064  34.713  1.00  0.00    -0.206 F 
ATOM     90  C   UNL A   1      38.674  34.046  37.654  1.00  0.00     0.006 A 
ENDBRANCH  66  83
ENDBRANCH  40  41
ENDBRANCH  33  35
ENDBRANCH  32  33
ENDBRANCH  31  32
ENDBRANCH  30  31
ENDBRANCH  29  30
ENDBRANCH   1  29
TORSDOF 17
ENDMDL
MODEL 2
REMARK VINA RESULT:     -11.7      4.057      7.565
REMARK SMILES COc1ccc(CCN2/C(=[NH+]/C(=O)CCC(=O)OCCOC(=O)c3ccc(-c4c5nc(c(-c6c(F)cccc6F)c6ccc([nH]6)c(-c6c(F)cccc6F)c6nc(c(-c7c(F)cccc7F)c7ccc4[nH]7)C=C6)C=C5)cc3)S[C@@H]3CS(=O)(=O)C[C@@H]32)cc1
REMARK SMILES IDX 16 1 17 2 15 3 14 4 12 5 9 6 10 7 85 8 11 9 78 10 79 11
REMARK SMILES IDX 84 12 80 14 81 15 13 16 82 17 83 18 8 19 7 20 6 21 3 22 4 23
REMARK SMILES IDX 87 24 5 25 86 26 2 27 1 28 18 29 19 30 20 31 21 32 22 33
REMARK SMILES IDX 23 34 24 35 25 36 77 37 26 38 76 39 27 40 28 41 29 42 70 43
REMARK SMILES IDX 30 44 75 45 69 46 71 47 31 48 74 49 68 50 67 51 32 53 58 54
REMARK SMILES IDX 41 55 57 56 42 57 45 58 56 59 72 60 43 61 44 62 55 64 73 65
REMARK SMILES IDX 46 66 33 67 34 68 39 69 35 70 36 71 38 72 40 73 37 74 59 75
REMARK SMILES IDX 60 76 65 77 61 78 62 79 64 80 66 81 63 82 47 83 48 84 53 85
REMARK SMILES IDX 49 86 50 87 52 88 54 89 51 90
REMARK H PARENT 11 13 71 52 45 63
REMARK Flexibility Score: inf
ROOT
ATOM      1  C   UNL A   1      37.484  22.461  25.325  1.00  0.00     0.306 C 
ATOM      2  O   UNL A   1      37.666  23.626  25.663  1.00  0.00    -0.252 OA
ENDROOT
BRANCH   1   3
ATOM      3  C   UNL A   1      36.161  21.962  24.774  1.00  0.00     0.135 C 
BRANCH   3   4
ATOM      4  C   UNL A   1      34.971  21.960  25.734  1.00  0.00     0.139 C 
BRANCH   4   5
ATOM      5  C   UNL A   1      33.688  22.430  25.070  1.00  0.00     0.308 C 
ATOM      6  N   UNL A   1      31.856  25.549  25.415  1.00  0.00    -0.251 N 
ATOM      7  C   UNL A   1      32.163  24.222  25.118  1.00  0.00     0.314 C 
ATOM      8  C   UNL A   1      30.636  26.080  24.793  1.00  0.00     0.206 C 
ATOM      9  N   UNL A   1      33.202  23.608  25.584  1.00  0.00    -0.205 N 
ATOM     10  S   UNL A   1      30.999  23.618  23.933  1.00  0.00    -0.030 SA
ATOM     11  C   UNL A   1      30.444  25.288  23.495  1.00  0.00     0.120 C 
ATOM     12  C   UNL A   1      30.657  27.555  24.412  1.00  0.00     0.187 C 
ATOM     13  H   UNL A   1      33.671  24.008  26.352  1.00  0.00     0.316 HD
ATOM     14  C   UNL A   1      31.335  25.905  22.424  1.00  0.00     0.156 C 
ATOM     15  S   UNL A   1      31.291  27.648  22.760  1.00  0.00     0.155 S 
ATOM     16  O   UNL A   1      33.269  21.820  24.090  1.00  0.00    -0.247 OA
ATOM     17  O   UNL A   1      32.638  28.171  22.815  1.00  0.00    -0.229 OA
ATOM     18  O   UNL A   1      30.267  28.249  21.932  1.00  0.00    -0.229 OA
BRANCH   6  19
ATOM     19  C   UNL A   1      32.482  26.291  26.498  1.00  0.00     0.242 C 
BRANCH  19  20
ATOM     20  C   UNL A   1      33.666  27.197  26.137  1.00  0.00     0.081 C 
BRANCH  20  21
ATOM     21  C   UNL A   1      33.842  28.684  26.408  1.00  0.00    -0.044 A 
ATOM     22  C   UNL A   1      33.760  31.244  27.623  1.00  0.00     0.118 A 
ATOM     23  C   UNL A   1      34.924  30.499  27.651  1.00  0.00     0.046 A 
ATOM     24  C   UNL A   1      32.675  30.787  26.886  1.00  0.00     0.046 A 
ATOM     25  C   UNL A   1      34.950  29.231  27.060  1.00  0.00     0.007 A 
ATOM     26  C   UNL A   1      32.723  29.526  26.273  1.00  0.00     0.007 A 
BRANCH  22  27
ATOM     27  O   UNL A   1      33.740  32.432  28.298  1.00  0.00    -0.497 OA
ATOM     28  C   UNL A   1      34.753  32.475  29.307  1.00  0.00     0.278 C 
ENDBRANCH  22  27
ENDBRANCH  20  21
ENDBRANCH  19  20
ENDBRANCH   6  19
ENDBRANCH   4   5
ENDBRANCH   3   4
ENDBRANCH   1   3
BRANCH   1  29
ATOM     29  O   UNL A   1      38.429  21.500  25.391  1.00  0.00    -0.462 OA
BRANCH  29  30
ATOM     30  C   UNL A   1      38.053  20.155  25.019  1.00  0.00     0.274 C 
BRANCH  30  31
ATOM     31  C   UNL A   1      39.214  19.218  25.374  1.00  0.00     0.275 C 
BRANCH  31  32
ATOM     32  O   UNL A   1      39.879  19.736  26.531  1.00  0.00    -0.458 OA
BRANCH  32  33
ATOM     33  C   UNL A   1      41.231  19.623  26.469  1.00  0.00     0.338 C 
ATOM     34  O   UNL A   1      41.874  18.656  26.135  1.00  0.00    -0.246 OA
BRANCH  33  35
ATOM     35  C   UNL A   1      41.765  20.991  26.603  1.00  0.00     0.060 A 
ATOM     36  C   UNL A   1      42.137  21.445  27.874  1.00  0.00     0.016 A 
ATOM     37  C   UNL A   1      41.945  21.786  25.470  1.00  0.00     0.016 A 
ATOM     38  C   UNL A   1      42.656  22.724  28.026  1.00  0.00     0.010 A 
ATOM     39  C   UNL A   1      42.449  23.068  25.621  1.00  0.00     0.010 A 
ATOM     40  C   UNL A   1      42.760  23.550  26.903  1.00  0.00    -0.014 A 
BRANCH  40  41
ATOM     41  C   UNL A   1      42.943  25.001  27.072  1.00  0.00     0.031 A 
ATOM     42  C   UNL A   1      44.233  25.585  26.575  1.00  0.00     0.074 A 
ATOM     43  C   UNL A   1      42.004  25.746  27.674  1.00  0.00     0.049 A 
ATOM     44  N   UNL A   1      44.733  26.776  26.762  1.00  0.00    -0.248 NA
ATOM     45  C   UNL A   1      45.090  24.691  25.773  1.00  0.00     0.031 C 
ATOM     46  C   UNL A   1      40.707  25.260  28.143  1.00  0.00     0.029 A 
ATOM     47  N   UNL A   1      42.014  27.071  28.016  1.00  0.00    -0.354 N 
ATOM     48  C   UNL A   1      45.962  26.767  26.115  1.00  0.00     0.074 A 
ATOM     49  C   UNL A   1      46.156  25.446  25.566  1.00  0.00     0.031 C 
ATOM     50  C   UNL A   1      40.053  26.274  28.738  1.00  0.00     0.029 A 
ATOM     51  C   UNL A   1      40.906  27.459  28.727  1.00  0.00     0.049 A 
ATOM     52  H   UNL A   1      42.745  27.686  27.776  1.00  0.00     0.167 HD
ATOM     53  C   UNL A   1      46.842  27.785  25.983  1.00  0.00     0.037 A 
ATOM     54  C   UNL A   1      40.643  28.635  29.326  1.00  0.00     0.037 A 
ATOM     55  C   UNL A   1      46.619  29.090  26.541  1.00  0.00     0.049 A 
ATOM     56  C   UNL A   1      41.672  29.732  29.221  1.00  0.00     0.074 A 
ATOM     57  C   UNL A   1      47.438  30.202  26.497  1.00  0.00     0.029 A 
ATOM     58  N   UNL A   1      45.478  29.454  27.243  1.00  0.00    -0.354 N 
ATOM     59  N   UNL A   1      42.839  29.721  28.617  1.00  0.00    -0.248 NA
ATOM     60  C   UNL A   1      41.350  31.005  29.877  1.00  0.00     0.031 C 
ATOM     61  C   UNL A   1      46.806  31.230  27.202  1.00  0.00     0.029 A 
ATOM     62  C   UNL A   1      45.571  30.773  27.642  1.00  0.00     0.049 A 
ATOM     63  H   UNL A   1      44.716  28.859  27.430  1.00  0.00     0.167 HD
ATOM     64  C   UNL A   1      43.371  30.992  28.788  1.00  0.00     0.074 A 
ATOM     65  C   UNL A   1      42.392  31.752  29.540  1.00  0.00     0.031 C 
ATOM     66  C   UNL A   1      44.558  31.495  28.368  1.00  0.00     0.037 A 
BRANCH  53  67
ATOM     67  C   UNL A   1      48.106  27.521  25.220  1.00  0.00     0.057 A 
ATOM     68  C   UNL A   1      48.156  27.619  23.823  1.00  0.00     0.134 A 
ATOM     69  C   UNL A   1      49.292  27.192  25.887  1.00  0.00     0.134 A 
ATOM     70  F   UNL A   1      47.050  27.906  23.121  1.00  0.00    -0.206 F 
ATOM     71  C   UNL A   1      49.337  27.387  23.116  1.00  0.00     0.040 A 
ATOM     72  C   UNL A   1      50.486  26.984  25.192  1.00  0.00     0.040 A 
ATOM     73  F   UNL A   1      49.314  27.074  27.223  1.00  0.00    -0.206 F 
ATOM     74  C   UNL A   1      50.510  27.078  23.803  1.00  0.00     0.006 A 
ENDBRANCH  53  67
BRANCH  54  75
ATOM     75  C   UNL A   1      39.386  28.834  30.091  1.00  0.00     0.057 A 
ATOM     76  C   UNL A   1      38.240  29.358  29.479  1.00  0.00     0.134 A 
ATOM     77  C   UNL A   1      39.305  28.544  31.459  1.00  0.00     0.134 A 
ATOM     78  F   UNL A   1      38.255  29.672  28.176  1.00  0.00    -0.206 F 
ATOM     79  C   UNL A   1      37.076  29.620  30.204  1.00  0.00     0.040 A 
ATOM     80  C   UNL A   1      38.138  28.770  32.190  1.00  0.00     0.040 A 
ATOM     81  F   UNL A   1      40.363  28.033  32.107  1.00  0.00    -0.206 F 
ATOM     82  C   UNL A   1      37.023  29.323  31.565  1.00  0.00     0.006 A 
ENDBRANCH  54  75
BRANCH  66  83
ATOM     83  C   UNL A   1      44.827  32.940  28.663  1.00  0.00     0.057 A 
ATOM     84  C   UNL A   1      45.493  33.347  29.825  1.00  0.00     0.134 A 
ATOM     85  C   UNL A   1      44.448  33.929  27.748  1.00  0.00     0.134 A 
ATOM     86  F   UNL A   1      45.871  32.447  30.744  1.00  0.00    -0.206 F 
ATOM     87  C   UNL A   1      45.748  34.695  30.079  1.00  0.00     0.040 A 
ATOM     88  C   UNL A   1      44.725  35.276  27.976  1.00  0.00     0.040 A 
ATOM     89  F   UNL A   1      43.819  33.601  26.609  1.00  0.00    -0.206 F 
ATOM     90  C   UNL A   1      45.371  35.662  29.149  1.00  0.00     0.006 A 
ENDBRANCH  66  83
ENDBRANCH  40  41
ENDBRANCH  33  35
ENDBRANCH  32  33
ENDBRANCH  31  32
ENDBRANCH  30  31
ENDBRANCH  29  30
ENDBRANCH   1  29
TORSDOF 17
ENDMDL
MODEL 3
REMARK VINA RESULT:     -11.7      2.418      7.965
REMARK SMILES COc1ccc(CCN2/C(=[NH+]/C(=O)CCC(=O)OCCOC(=O)c3ccc(-c4c5nc(c(-c6c(F)cccc6F)c6ccc([nH]6)c(-c6c(F)cccc6F)c6nc(c(-c7c(F)cccc7F)c7ccc4[nH]7)C=C6)C=C5)cc3)S[C@@H]3CS(=O)(=O)C[C@@H]32)cc1
REMARK SMILES IDX 16 1 17 2 15 3 14 4 12 5 9 6 10 7 85 8 11 9 78 10 79 11
REMARK SMILES IDX 84 12 80 14 81 15 13 16 82 17 83 18 8 19 7 20 6 21 3 22 4 23
REMARK SMILES IDX 87 24 5 25 86 26 2 27 1 28 18 29 19 30 20 31 21 32 22 33
REMARK SMILES IDX 23 34 24 35 25 36 77 37 26 38 76 39 27 40 28 41 29 42 70 43
REMARK SMILES IDX 30 44 75 45 69 46 71 47 31 48 74 49 68 50 67 51 32 53 58 54
REMARK SMILES IDX 41 55 57 56 42 57 45 58 56 59 72 60 43 61 44 62 55 64 73 65
REMARK SMILES IDX 46 66 33 67 34 68 39 69 35 70 36 71 38 72 40 73 37 74 59 75
REMARK SMILES IDX 60 76 65 77 61 78 62 79 64 80 66 81 63 82 47 83 48 84 53 85
REMARK SMILES IDX 49 86 50 87 52 88 54 89 51 90
REMARK H PARENT 11 13 71 52 45 63
REMARK Flexibility Score: inf
ROOT
ATOM      1  C   UNL A   1      34.082  29.753  26.952  1.00  0.00     0.306 C 
ATOM      2  O   UNL A   1      34.690  29.827  28.014  1.00  0.00    -0.252 OA
ENDROOT
BRANCH   1   3
ATOM      3  C   UNL A   1      34.048  28.490  26.111  1.00  0.00     0.135 C 
BRANCH   3   4
ATOM      4  C   UNL A   1      33.546  28.632  24.673  1.00  0.00     0.139 C 
BRANCH   4   5
ATOM      5  C   UNL A   1      32.767  27.414  24.207  1.00  0.00     0.308 C 
ATOM      6  N   UNL A   1      33.859  24.001  23.606  1.00  0.00    -0.251 N 
ATOM      7  C   UNL A   1      33.099  25.169  23.582  1.00  0.00     0.314 C 
ATOM      8  C   UNL A   1      33.166  22.776  23.184  1.00  0.00     0.206 C 
ATOM      9  N   UNL A   1      33.560  26.328  23.925  1.00  0.00    -0.205 N 
ATOM     10  S   UNL A   1      31.434  24.760  23.153  1.00  0.00    -0.030 SA
ATOM     11  C   UNL A   1      31.683  22.998  23.504  1.00  0.00     0.120 C 
ATOM     12  C   UNL A   1      33.581  21.488  23.883  1.00  0.00     0.187 C 
ATOM     13  H   UNL A   1      34.537  26.439  23.987  1.00  0.00     0.316 HD
ATOM     14  C   UNL A   1      31.463  22.690  24.979  1.00  0.00     0.156 C 
ATOM     15  S   UNL A   1      32.552  21.328  25.316  1.00  0.00     0.155 S 
ATOM     16  O   UNL A   1      31.540  27.449  24.234  1.00  0.00    -0.247 OA
ATOM     17  O   UNL A   1      33.349  21.617  26.488  1.00  0.00    -0.229 OA
ATOM     18  O   UNL A   1      31.802  20.098  25.182  1.00  0.00    -0.229 OA
BRANCH   6  19
ATOM     19  C   UNL A   1      35.308  23.992  23.723  1.00  0.00     0.242 C 
BRANCH  19  20
ATOM     20  C   UNL A   1      35.900  24.060  25.137  1.00  0.00     0.081 C 
BRANCH  20  21
ATOM     21  C   UNL A   1      36.999  23.204  25.749  1.00  0.00    -0.044 A 
ATOM     22  C   UNL A   1      39.394  21.736  26.129  1.00  0.00     0.118 A 
ATOM     23  C   UNL A   1      39.260  23.000  26.674  1.00  0.00     0.046 A 
ATOM     24  C   UNL A   1      38.303  21.141  25.507  1.00  0.00     0.046 A 
ATOM     25  C   UNL A   1      38.079  23.722  26.469  1.00  0.00     0.007 A 
ATOM     26  C   UNL A   1      37.114  21.865  25.333  1.00  0.00     0.007 A 
BRANCH  22  27
ATOM     27  O   UNL A   1      40.598  21.103  26.262  1.00  0.00    -0.497 OA
ATOM     28  C   UNL A   1      41.087  21.189  27.604  1.00  0.00     0.278 C 
ENDBRANCH  22  27
ENDBRANCH  20  21
ENDBRANCH  19  20
ENDBRANCH   6  19
ENDBRANCH   4   5
ENDBRANCH   3   4
ENDBRANCH   1   3
BRANCH   1  29
ATOM     29  O   UNL A   1      33.371  30.767  26.417  1.00  0.00    -0.462 OA
BRANCH  29  30
ATOM     30  C   UNL A   1      32.050  31.020  26.945  1.00  0.00     0.274 C 
BRANCH  30  31
ATOM     31  C   UNL A   1      31.822  32.536  26.960  1.00  0.00     0.275 C 
BRANCH  31  32
ATOM     32  O   UNL A   1      33.097  33.187  26.964  1.00  0.00    -0.458 OA
BRANCH  32  33
ATOM     33  C   UNL A   1      33.266  34.030  28.014  1.00  0.00     0.338 C 
ATOM     34  O   UNL A   1      32.532  34.922  28.368  1.00  0.00    -0.246 OA
BRANCH  33  35
ATOM     35  C   UNL A   1      34.367  33.469  28.819  1.00  0.00     0.060 A 
ATOM     36  C   UNL A   1      35.680  33.851  28.520  1.00  0.00     0.016 A 
ATOM     37  C   UNL A   1      34.087  32.620  29.891  1.00  0.00     0.016 A 
ATOM     38  C   UNL A   1      36.734  33.347  29.272  1.00  0.00     0.010 A 
ATOM     39  C   UNL A   1      35.137  32.105  30.633  1.00  0.00     0.010 A 
ATOM     40  C   UNL A   1      36.461  32.433  30.294  1.00  0.00    -0.014 A 
BRANCH  40  41
ATOM     41  C   UNL A   1      37.544  31.607  30.851  1.00  0.00     0.031 A 
ATOM     42  C   UNL A   1      37.899  31.835  32.291  1.00  0.00     0.074 A 
ATOM     43  C   UNL A   1      38.196  30.721  30.084  1.00  0.00     0.049 A 
ATOM     44  N   UNL A   1      38.919  31.395  32.976  1.00  0.00    -0.248 NA
ATOM     45  C   UNL A   1      36.986  32.701  33.061  1.00  0.00     0.031 C 
ATOM     46  C   UNL A   1      37.880  30.411  28.690  1.00  0.00     0.029 A 
ATOM     47  N   UNL A   1      39.279  29.935  30.369  1.00  0.00    -0.354 N 
ATOM     48  C   UNL A   1      38.776  31.939  34.246  1.00  0.00     0.074 A 
ATOM     49  C   UNL A   1      37.599  32.775  34.231  1.00  0.00     0.031 C 
ATOM     50  C   UNL A   1      38.773  29.515  28.231  1.00  0.00     0.029 A 
ATOM     51  C   UNL A   1      39.740  29.228  29.287  1.00  0.00     0.049 A 
ATOM     52  H   UNL A   1      39.689  29.884  31.264  1.00  0.00     0.167 HD
ATOM     53  C   UNL A   1      39.558  31.741  35.330  1.00  0.00     0.037 A 
ATOM     54  C   UNL A   1      40.844  28.468  29.170  1.00  0.00     0.037 A 
ATOM     55  C   UNL A   1      40.723  30.901  35.313  1.00  0.00     0.049 A 
ATOM     56  C   UNL A   1      41.736  28.319  30.377  1.00  0.00     0.074 A 
ATOM     57  C   UNL A   1      41.612  30.632  36.337  1.00  0.00     0.029 A 
ATOM     58  N   UNL A   1      41.153  30.187  34.203  1.00  0.00    -0.354 N 
ATOM     59  N   UNL A   1      41.606  28.841  31.575  1.00  0.00    -0.248 NA
ATOM     60  C   UNL A   1      42.926  27.473  30.218  1.00  0.00     0.031 C 
ATOM     61  C   UNL A   1      42.599  29.779  35.835  1.00  0.00     0.029 A 
ATOM     62  C   UNL A   1      42.297  29.478  34.515  1.00  0.00     0.049 A 
ATOM     63  H   UNL A   1      40.709  30.187  33.325  1.00  0.00     0.167 HD
ATOM     64  C   UNL A   1      42.672  28.359  32.321  1.00  0.00     0.074 A 
ATOM     65  C   UNL A   1      43.432  27.491  31.443  1.00  0.00     0.031 C 
ATOM     66  C   UNL A   1      43.005  28.606  33.613  1.00  0.00     0.037 A 
BRANCH  53  67
ATOM     67  C   UNL A   1      39.178  32.442  36.601  1.00  0.00     0.057 A 
ATOM     68  C   UNL A   1      39.751  33.668  36.965  1.00  0.00     0.134 A 
ATOM     69  C   UNL A   1      38.211  31.902  37.458  1.00  0.00     0.134 A 
ATOM     70  F   UNL A   1      40.702  34.228  36.202  1.00  0.00    -0.206 F 
ATOM     71  C   UNL A   1      39.385  34.325  38.140  1.00  0.00     0.040 A 
ATOM     72  C   UNL A   1      37.817  32.564  38.623  1.00  0.00     0.040 A 
ATOM     73  F   UNL A   1      37.626  30.728  37.174  1.00  0.00    -0.206 F 
ATOM     74  C   UNL A   1      38.407  33.778  38.969  1.00  0.00     0.006 A 
ENDBRANCH  53  67
BRANCH  54  75
ATOM     75  C   UNL A   1      41.185  27.817  27.879  1.00  0.00     0.057 A 
ATOM     76  C   UNL A   1      41.962  28.475  26.918  1.00  0.00     0.134 A 
ATOM     77  C   UNL A   1      40.712  26.539  27.555  1.00  0.00     0.134 A 
ATOM     78  F   UNL A   1      42.432  29.707  27.159  1.00  0.00    -0.206 F 
ATOM     79  C   UNL A   1      42.225  27.903  25.671  1.00  0.00     0.040 A 
ATOM     80  C   UNL A   1      40.994  25.942  26.325  1.00  0.00     0.040 A 
ATOM     81  F   UNL A   1      39.968  25.848  28.432  1.00  0.00    -0.206 F 
ATOM     82  C   UNL A   1      41.742  26.631  25.374  1.00  0.00     0.006 A 
ENDBRANCH  54  75
BRANCH  66  83
ATOM     83  C   UNL A   1      44.200  27.883  34.157  1.00  0.00     0.057 A 
ATOM     84  C   UNL A   1      45.482  28.446  34.129  1.00  0.00     0.134 A 
ATOM     85  C   UNL A   1      44.053  26.625  34.754  1.00  0.00     0.134 A 
ATOM     86  F   UNL A   1      45.688  29.643  33.561  1.00  0.00    -0.206 F 
ATOM     87  C   UNL A   1      46.582  27.767  34.653  1.00  0.00     0.040 A 
ATOM     88  C   UNL A   1      45.140  25.951  35.308  1.00  0.00     0.040 A 
ATOM     89  F   UNL A   1      42.848  26.040  34.824  1.00  0.00    -0.206 F 
ATOM     90  C   UNL A   1      46.411  26.520  35.251  1.00  0.00     0.006 A 
ENDBRANCH  66  83
ENDBRANCH  40  41
ENDBRANCH  33  35
ENDBRANCH  32  33
ENDBRANCH  31  32
ENDBRANCH  30  31
ENDBRANCH  29  30
ENDBRANCH   1  29
TORSDOF 17
ENDMDL
