MODEL 1
REMARK VINA RESULT:     -11.6      0.000      0.000
REMARK SMILES COCC[C@]1(C(=O)OCCOC(=O)c2ccc(-c3c4nc(c(-c5c(F)cccc5F)c5ccc([nH]5)c(-c5c(F)cccc5F)c5nc(c(-c6c(F)cccc6F)c6ccc3[nH]6)C=C5)C=C4)cc2)CCCN(C(=O)Cc2c(C)nc(C)[nH]c2=O)C1
REMARK SMILES IDX 9 1 8 2 6 3 7 4 5 5 68 6 84 7 69 8 71 9 70 10 4 11 3 12 2 13
REMARK SMILES IDX 1 14 72 15 73 16 74 17 75 18 76 19 82 20 77 21 78 22 81 23
REMARK SMILES IDX 83 24 79 25 80 27 10 28 11 29 12 30 13 31 14 32 15 33 67 34
REMARK SMILES IDX 16 35 66 36 17 37 18 38 19 39 60 40 20 41 65 42 59 43 61 44
REMARK SMILES IDX 21 45 64 46 58 47 57 48 22 50 48 51 31 52 47 53 32 54 35 55
REMARK SMILES IDX 46 56 62 57 33 58 34 59 45 61 63 62 36 63 23 64 24 65 29 66
REMARK SMILES IDX 25 67 26 68 28 69 30 70 27 71 49 72 50 73 55 74 51 75 52 76
REMARK SMILES IDX 54 77 56 78 53 79 37 80 38 81 43 82 39 83 40 84 42 85 44 86
REMARK SMILES IDX 41 87
REMARK H PARENT 81 26 61 49 35 60
REMARK Flexibility Score: inf
ROOT
ATOM      1  C   UNL A   1      34.538  21.455  24.474  1.00  0.00     0.274 C 
ENDROOT
BRANCH   1   2
ATOM      2  O   UNL A   1      34.858  22.858  24.455  1.00  0.00    -0.462 OA
BRANCH   2   3
ATOM      3  C   UNL A   1      34.121  23.654  23.634  1.00  0.00     0.314 C 
ATOM      4  O   UNL A   1      34.093  23.542  22.414  1.00  0.00    -0.252 OA
BRANCH   3   5
ATOM      5  C   UNL A   1      33.319  24.695  24.425  1.00  0.00     0.088 C 
ATOM      6  C   UNL A   1      34.301  25.471  25.368  1.00  0.00     0.022 C 
ATOM      7  C   UNL A   1      32.709  25.696  23.406  1.00  0.00     0.138 C 
ATOM      8  C   UNL A   1      33.774  26.801  25.912  1.00  0.00     0.023 C 
ATOM      9  N   UNL A   1      32.189  26.889  24.096  1.00  0.00    -0.341 N 
ATOM     10  C   UNL A   1      33.217  27.654  24.780  1.00  0.00     0.119 C 
BRANCH   5  11
ATOM     11  C   UNL A   1      32.174  24.035  25.239  1.00  0.00     0.049 C 
BRANCH  11  12
ATOM     12  C   UNL A   1      32.460  23.665  26.698  1.00  0.00     0.161 C 
BRANCH  12  13
ATOM     13  O   UNL A   1      31.238  23.628  27.434  1.00  0.00    -0.385 OA
ATOM     14  C   UNL A   1      30.166  22.976  26.776  1.00  0.00     0.194 C 
ENDBRANCH  12  13
ENDBRANCH  11  12
ENDBRANCH   5  11
BRANCH   9  15
ATOM     15  C   UNL A   1      30.818  27.037  24.279  1.00  0.00     0.227 C 
ATOM     16  O   UNL A   1      30.326  27.033  25.413  1.00  0.00    -0.275 OA
BRANCH  15  17
ATOM     17  C   UNL A   1      29.890  27.198  23.067  1.00  0.00     0.143 C 
BRANCH  17  18
ATOM     18  C   UNL A   1      29.384  28.595  22.798  1.00  0.00     0.048 A 
ATOM     19  C   UNL A   1      28.137  29.086  22.968  1.00  0.00     0.049 A 
ATOM     20  C   UNL A   1      30.387  29.545  22.241  1.00  0.00     0.254 A 
ATOM     21  C   UNL A   1      26.956  28.261  23.410  1.00  0.00     0.067 C 
ATOM     22  N   UNL A   1      27.798  30.409  22.770  1.00  0.00    -0.240 NA
ATOM     23  N   UNL A   1      29.980  30.832  22.083  1.00  0.00    -0.311 N 
ATOM     24  O   UNL A   1      31.531  29.209  21.952  1.00  0.00    -0.269 OA
ATOM     25  C   UNL A   1      28.708  31.222  22.354  1.00  0.00     0.105 A 
ATOM     26  H   UNL A   1      30.627  31.501  21.763  1.00  0.00     0.171 HD
ATOM     27  C   UNL A   1      28.400  32.678  22.153  1.00  0.00     0.087 C 
ENDBRANCH  17  18
ENDBRANCH  15  17
ENDBRANCH   9  15
ENDBRANCH   3   5
ENDBRANCH   2   3
ENDBRANCH   1   2
BRANCH   1  28
ATOM     28  C   UNL A   1      35.688  20.684  25.126  1.00  0.00     0.275 C 
BRANCH  28  29
ATOM     29  O   UNL A   1      36.616  21.591  25.756  1.00  0.00    -0.458 OA
BRANCH  29  30
ATOM     30  C   UNL A   1      37.916  21.205  25.711  1.00  0.00     0.338 C 
ATOM     31  O   UNL A   1      38.356  20.143  25.297  1.00  0.00    -0.246 OA
BRANCH  30  32
ATOM     32  C   UNL A   1      38.777  22.343  26.086  1.00  0.00     0.060 A 
ATOM     33  C   UNL A   1      39.975  22.051  26.743  1.00  0.00     0.016 A 
ATOM     34  C   UNL A   1      38.439  23.667  25.807  1.00  0.00     0.016 A 
ATOM     35  C   UNL A   1      40.891  23.059  27.034  1.00  0.00     0.010 A 
ATOM     36  C   UNL A   1      39.319  24.691  26.178  1.00  0.00     0.010 A 
ATOM     37  C   UNL A   1      40.554  24.391  26.782  1.00  0.00    -0.014 A 
BRANCH  37  38
ATOM     38  C   UNL A   1      41.396  25.482  27.326  1.00  0.00     0.031 A 
ATOM     39  C   UNL A   1      40.755  26.475  28.251  1.00  0.00     0.074 A 
ATOM     40  C   UNL A   1      42.695  25.603  27.002  1.00  0.00     0.049 A 
ATOM     41  N   UNL A   1      41.218  27.609  28.704  1.00  0.00    -0.248 NA
ATOM     42  C   UNL A   1      39.405  26.136  28.734  1.00  0.00     0.031 C 
ATOM     43  C   UNL A   1      43.468  24.645  26.216  1.00  0.00     0.029 A 
ATOM     44  N   UNL A   1      43.589  26.607  27.286  1.00  0.00    -0.354 N 
ATOM     45  C   UNL A   1      40.213  28.126  29.511  1.00  0.00     0.074 A 
ATOM     46  C   UNL A   1      39.119  27.181  29.493  1.00  0.00     0.031 C 
ATOM     47  C   UNL A   1      44.714  25.125  26.049  1.00  0.00     0.029 A 
ATOM     48  C   UNL A   1      44.808  26.446  26.671  1.00  0.00     0.049 A 
ATOM     49  H   UNL A   1      43.378  27.368  27.875  1.00  0.00     0.167 HD
ATOM     50  C   UNL A   1      40.196  29.295  30.192  1.00  0.00     0.037 A 
ATOM     51  C   UNL A   1      45.854  27.294  26.583  1.00  0.00     0.037 A 
ATOM     52  C   UNL A   1      41.272  30.247  30.181  1.00  0.00     0.049 A 
ATOM     53  C   UNL A   1      45.762  28.653  27.239  1.00  0.00     0.074 A 
ATOM     54  C   UNL A   1      41.333  31.485  30.795  1.00  0.00     0.029 A 
ATOM     55  N   UNL A   1      42.471  30.069  29.508  1.00  0.00    -0.354 N 
ATOM     56  N   UNL A   1      44.795  29.159  27.967  1.00  0.00    -0.248 NA
ATOM     57  C   UNL A   1      46.901  29.564  27.049  1.00  0.00     0.031 C 
ATOM     58  C   UNL A   1      42.551  32.079  30.451  1.00  0.00     0.029 A 
ATOM     59  C   UNL A   1      43.272  31.184  29.676  1.00  0.00     0.049 A 
ATOM     60  H   UNL A   1      42.715  29.269  28.989  1.00  0.00     0.167 HD
ATOM     61  C   UNL A   1      45.227  30.422  28.355  1.00  0.00     0.074 A 
ATOM     62  C   UNL A   1      46.541  30.612  27.778  1.00  0.00     0.031 C 
ATOM     63  C   UNL A   1      44.594  31.341  29.124  1.00  0.00     0.037 A 
BRANCH  50  64
ATOM     64  C   UNL A   1      38.942  29.631  30.939  1.00  0.00     0.057 A 
ATOM     65  C   UNL A   1      37.891  30.342  30.347  1.00  0.00     0.134 A 
ATOM     66  C   UNL A   1      38.790  29.239  32.275  1.00  0.00     0.134 A 
ATOM     67  F   UNL A   1      37.986  30.767  29.079  1.00  0.00    -0.206 F 
ATOM     68  C   UNL A   1      36.742  30.673  31.067  1.00  0.00     0.040 A 
ATOM     69  C   UNL A   1      37.635  29.540  32.996  1.00  0.00     0.040 A 
ATOM     70  F   UNL A   1      39.762  28.559  32.901  1.00  0.00    -0.206 F 
ATOM     71  C   UNL A   1      36.610  30.266  32.394  1.00  0.00     0.006 A 
ENDBRANCH  50  64
BRANCH  51  72
ATOM     72  C   UNL A   1      47.063  26.923  25.800  1.00  0.00     0.057 A 
ATOM     73  C   UNL A   1      48.139  26.257  26.397  1.00  0.00     0.134 A 
ATOM     74  C   UNL A   1      47.196  27.278  24.452  1.00  0.00     0.134 A 
ATOM     75  F   UNL A   1      48.090  25.919  27.693  1.00  0.00    -0.206 F 
ATOM     76  C   UNL A   1      49.310  25.974  25.689  1.00  0.00     0.040 A 
ATOM     77  C   UNL A   1      48.349  26.977  23.724  1.00  0.00     0.040 A 
ATOM     78  F   UNL A   1      46.208  27.928  23.821  1.00  0.00    -0.206 F 
ATOM     79  C   UNL A   1      49.415  26.330  24.346  1.00  0.00     0.006 A 
ENDBRANCH  51  72
BRANCH  63  80
ATOM     80  C   UNL A   1      45.328  32.606  29.462  1.00  0.00     0.057 A 
ATOM     81  C   UNL A   1      45.187  33.776  28.708  1.00  0.00     0.134 A 
ATOM     82  C   UNL A   1      46.108  32.675  30.626  1.00  0.00     0.134 A 
ATOM     83  F   UNL A   1      44.461  33.775  27.579  1.00  0.00    -0.206 F 
ATOM     84  C   UNL A   1      45.799  34.970  29.096  1.00  0.00     0.040 A 
ATOM     85  C   UNL A   1      46.703  33.868  31.038  1.00  0.00     0.040 A 
ATOM     86  F   UNL A   1      46.273  31.592  31.399  1.00  0.00    -0.206 F 
ATOM     87  C   UNL A   1      46.549  35.021  30.271  1.00  0.00     0.006 A 
ENDBRANCH  63  80
ENDBRANCH  37  38
ENDBRANCH  30  32
ENDBRANCH  29  30
ENDBRANCH  28  29
ENDBRANCH   1  28
TORSDOF 17
ENDMDL
MODEL 2
REMARK VINA RESULT:     -11.4      3.743      8.903
REMARK SMILES COCC[C@]1(C(=O)OCCOC(=O)c2ccc(-c3c4nc(c(-c5c(F)cccc5F)c5ccc([nH]5)c(-c5c(F)cccc5F)c5nc(c(-c6c(F)cccc6F)c6ccc3[nH]6)C=C5)C=C4)cc2)CCCN(C(=O)Cc2c(C)nc(C)[nH]c2=O)C1
REMARK SMILES IDX 9 1 8 2 6 3 7 4 5 5 68 6 84 7 69 8 71 9 70 10 4 11 3 12 2 13
REMARK SMILES IDX 1 14 72 15 73 16 74 17 75 18 76 19 82 20 77 21 78 22 81 23
REMARK SMILES IDX 83 24 79 25 80 27 10 28 11 29 12 30 13 31 14 32 15 33 67 34
REMARK SMILES IDX 16 35 66 36 17 37 18 38 19 39 60 40 20 41 65 42 59 43 61 44
REMARK SMILES IDX 21 45 64 46 58 47 57 48 22 50 48 51 31 52 47 53 32 54 35 55
REMARK SMILES IDX 46 56 62 57 33 58 34 59 45 61 63 62 36 63 23 64 24 65 29 66
REMARK SMILES IDX 25 67 26 68 28 69 30 70 27 71 49 72 50 73 55 74 51 75 52 76
REMARK SMILES IDX 54 77 56 78 53 79 37 80 38 81 43 82 39 83 40 84 42 85 44 86
REMARK SMILES IDX 41 87
REMARK H PARENT 81 26 61 49 35 60
REMARK Flexibility Score: inf
ROOT
ATOM      1  C   UNL A   1      31.215  28.896  25.036  1.00  0.00     0.274 C 
ENDROOT
BRANCH   1   2
ATOM      2  O   UNL A   1      31.454  27.645  25.704  1.00  0.00    -0.462 OA
BRANCH   2   3
ATOM      3  C   UNL A   1      30.738  26.567  25.284  1.00  0.00     0.314 C 
ATOM      4  O   UNL A   1      29.529  26.446  25.439  1.00  0.00    -0.252 OA
BRANCH   3   5
ATOM      5  C   UNL A   1      31.628  25.534  24.581  1.00  0.00     0.088 C 
ATOM      6  C   UNL A   1      31.237  25.486  23.064  1.00  0.00     0.022 C 
ATOM      7  C   UNL A   1      33.099  26.017  24.703  1.00  0.00     0.138 C 
ATOM      8  C   UNL A   1      32.272  24.839  22.141  1.00  0.00     0.023 C 
ATOM      9  N   UNL A   1      33.975  25.250  23.799  1.00  0.00    -0.341 N 
ATOM     10  C   UNL A   1      33.652  25.431  22.394  1.00  0.00     0.119 C 
BRANCH   5  11
ATOM     11  C   UNL A   1      31.495  24.132  25.233  1.00  0.00     0.049 C 
BRANCH  11  12
ATOM     12  C   UNL A   1      32.103  23.933  26.625  1.00  0.00     0.161 C 
BRANCH  12  13
ATOM     13  O   UNL A   1      31.139  23.333  27.490  1.00  0.00    -0.385 OA
ATOM     14  C   UNL A   1      29.907  23.005  26.873  1.00  0.00     0.194 C 
ENDBRANCH  12  13
ENDBRANCH  11  12
ENDBRANCH   5  11
BRANCH   9  15
ATOM     15  C   UNL A   1      34.800  24.258  24.317  1.00  0.00     0.227 C 
ATOM     16  O   UNL A   1      35.394  24.423  25.388  1.00  0.00    -0.275 OA
BRANCH  15  17
ATOM     17  C   UNL A   1      34.993  22.939  23.556  1.00  0.00     0.143 C 
BRANCH  17  18
ATOM     18  C   UNL A   1      34.259  21.740  24.105  1.00  0.00     0.048 A 
ATOM     19  C   UNL A   1      33.074  21.225  23.709  1.00  0.00     0.049 A 
ATOM     20  C   UNL A   1      34.912  21.057  25.256  1.00  0.00     0.254 A 
ATOM     21  C   UNL A   1      32.201  21.834  22.643  1.00  0.00     0.067 C 
ATOM     22  N   UNL A   1      32.527  20.068  24.226  1.00  0.00    -0.240 NA
ATOM     23  N   UNL A   1      34.319  19.919  25.702  1.00  0.00    -0.311 N 
ATOM     24  O   UNL A   1      35.944  21.472  25.775  1.00  0.00    -0.269 OA
ATOM     25  C   UNL A   1      33.155  19.461  25.175  1.00  0.00     0.105 A 
ATOM     26  H   UNL A   1      34.746  19.412  26.430  1.00  0.00     0.171 HD
ATOM     27  C   UNL A   1      32.620  18.181  25.750  1.00  0.00     0.087 C 
ENDBRANCH  17  18
ENDBRANCH  15  17
ENDBRANCH   9  15
ENDBRANCH   3   5
ENDBRANCH   2   3
ENDBRANCH   1   2
BRANCH   1  28
ATOM     28  C   UNL A   1      32.363  29.861  25.343  1.00  0.00     0.275 C 
BRANCH  28  29
ATOM     29  O   UNL A   1      32.458  30.103  26.762  1.00  0.00    -0.458 OA
BRANCH  29  30
ATOM     30  C   UNL A   1      32.943  31.323  27.105  1.00  0.00     0.338 C 
ATOM     31  O   UNL A   1      32.359  32.394  27.040  1.00  0.00    -0.246 OA
BRANCH  30  32
ATOM     32  C   UNL A   1      34.261  31.162  27.749  1.00  0.00     0.060 A 
ATOM     33  C   UNL A   1      34.627  29.873  28.142  1.00  0.00     0.016 A 
ATOM     34  C   UNL A   1      35.127  32.232  27.969  1.00  0.00     0.016 A 
ATOM     35  C   UNL A   1      35.895  29.620  28.660  1.00  0.00     0.010 A 
ATOM     36  C   UNL A   1      36.369  31.995  28.570  1.00  0.00     0.010 A 
ATOM     37  C   UNL A   1      36.765  30.686  28.906  1.00  0.00    -0.014 A 
BRANCH  37  38
ATOM     38  C   UNL A   1      37.999  30.467  29.696  1.00  0.00     0.031 A 
ATOM     39  C   UNL A   1      39.051  29.561  29.126  1.00  0.00     0.074 A 
ATOM     40  C   UNL A   1      38.183  31.042  30.897  1.00  0.00     0.049 A 
ATOM     41  N   UNL A   1      40.118  29.066  29.693  1.00  0.00    -0.248 NA
ATOM     42  C   UNL A   1      38.874  29.166  27.718  1.00  0.00     0.031 C 
ATOM     43  C   UNL A   1      37.300  32.033  31.508  1.00  0.00     0.029 A 
ATOM     44  N   UNL A   1      39.177  30.855  31.826  1.00  0.00    -0.354 N 
ATOM     45  C   UNL A   1      40.732  28.289  28.719  1.00  0.00     0.074 A 
ATOM     46  C   UNL A   1      39.923  28.383  27.523  1.00  0.00     0.031 C 
ATOM     47  C   UNL A   1      37.774  32.339  32.730  1.00  0.00     0.029 A 
ATOM     48  C   UNL A   1      38.960  31.528  33.004  1.00  0.00     0.049 A 
ATOM     49  H   UNL A   1      39.970  30.292  31.664  1.00  0.00     0.167 HD
ATOM     50  C   UNL A   1      41.858  27.547  28.818  1.00  0.00     0.037 A 
ATOM     51  C   UNL A   1      39.619  31.455  34.180  1.00  0.00     0.037 A 
ATOM     52  C   UNL A   1      42.640  27.429  30.018  1.00  0.00     0.049 A 
ATOM     53  C   UNL A   1      40.796  30.516  34.311  1.00  0.00     0.074 A 
ATOM     54  C   UNL A   1      43.769  26.662  30.238  1.00  0.00     0.029 A 
ATOM     55  N   UNL A   1      42.362  28.090  31.204  1.00  0.00    -0.354 N 
ATOM     56  N   UNL A   1      41.350  29.749  33.402  1.00  0.00    -0.248 NA
ATOM     57  C   UNL A   1      41.430  30.421  35.635  1.00  0.00     0.031 C 
ATOM     58  C   UNL A   1      44.145  26.819  31.575  1.00  0.00     0.029 A 
ATOM     59  C   UNL A   1      43.288  27.733  32.168  1.00  0.00     0.049 A 
ATOM     60  H   UNL A   1      41.617  28.719  31.340  1.00  0.00     0.167 HD
ATOM     61  C   UNL A   1      42.419  29.119  34.030  1.00  0.00     0.074 A 
ATOM     62  C   UNL A   1      42.434  29.586  35.401  1.00  0.00     0.031 C 
ATOM     63  C   UNL A   1      43.310  28.236  33.517  1.00  0.00     0.037 A 
BRANCH  50  64
ATOM     64  C   UNL A   1      42.259  26.750  27.614  1.00  0.00     0.057 A 
ATOM     65  C   UNL A   1      41.829  25.432  27.417  1.00  0.00     0.134 A 
ATOM     66  C   UNL A   1      43.093  27.314  26.641  1.00  0.00     0.134 A 
ATOM     67  F   UNL A   1      41.048  24.828  28.325  1.00  0.00    -0.206 F 
ATOM     68  C   UNL A   1      42.235  24.694  26.304  1.00  0.00     0.040 A 
ATOM     69  C   UNL A   1      43.484  26.595  25.511  1.00  0.00     0.040 A 
ATOM     70  F   UNL A   1      43.542  28.571  26.772  1.00  0.00    -0.206 F 
ATOM     71  C   UNL A   1      43.061  25.278  25.345  1.00  0.00     0.006 A 
ENDBRANCH  50  64
BRANCH  51  72
ATOM     72  C   UNL A   1      39.159  32.243  35.354  1.00  0.00     0.057 A 
ATOM     73  C   UNL A   1      38.257  31.707  36.281  1.00  0.00     0.134 A 
ATOM     74  C   UNL A   1      39.564  33.570  35.547  1.00  0.00     0.134 A 
ATOM     75  F   UNL A   1      37.803  30.454  36.135  1.00  0.00    -0.206 F 
ATOM     76  C   UNL A   1      37.760  32.466  37.344  1.00  0.00     0.040 A 
ATOM     77  C   UNL A   1      39.097  34.331  36.620  1.00  0.00     0.040 A 
ATOM     78  F   UNL A   1      40.418  34.149  34.691  1.00  0.00    -0.206 F 
ATOM     79  C   UNL A   1      38.184  33.782  37.518  1.00  0.00     0.006 A 
ENDBRANCH  51  72
BRANCH  63  80
ATOM     80  C   UNL A   1      44.429  27.767  34.402  1.00  0.00     0.057 A 
ATOM     81  C   UNL A   1      45.623  28.483  34.539  1.00  0.00     0.134 A 
ATOM     82  C   UNL A   1      44.257  26.632  35.207  1.00  0.00     0.134 A 
ATOM     83  F   UNL A   1      45.853  29.573  33.792  1.00  0.00    -0.206 F 
ATOM     84  C   UNL A   1      46.610  28.084  35.443  1.00  0.00     0.040 A 
ATOM     85  C   UNL A   1      45.224  26.238  36.132  1.00  0.00     0.040 A 
ATOM     86  F   UNL A   1      43.130  25.908  35.132  1.00  0.00    -0.206 F 
ATOM     87  C   UNL A   1      46.406  26.966  36.252  1.00  0.00     0.006 A 
ENDBRANCH  63  80
ENDBRANCH  37  38
ENDBRANCH  30  32
ENDBRANCH  29  30
ENDBRANCH  28  29
ENDBRANCH   1  28
TORSDOF 17
ENDMDL
MODEL 3
REMARK VINA RESULT:     -11.4      3.790      9.077
REMARK SMILES COCC[C@]1(C(=O)OCCOC(=O)c2ccc(-c3c4nc(c(-c5c(F)cccc5F)c5ccc([nH]5)c(-c5c(F)cccc5F)c5nc(c(-c6c(F)cccc6F)c6ccc3[nH]6)C=C5)C=C4)cc2)CCCN(C(=O)Cc2c(C)nc(C)[nH]c2=O)C1
REMARK SMILES IDX 9 1 8 2 6 3 7 4 5 5 68 6 84 7 69 8 71 9 70 10 4 11 3 12 2 13
REMARK SMILES IDX 1 14 72 15 73 16 74 17 75 18 76 19 82 20 77 21 78 22 81 23
REMARK SMILES IDX 83 24 79 25 80 27 10 28 11 29 12 30 13 31 14 32 15 33 67 34
REMARK SMILES IDX 16 35 66 36 17 37 18 38 19 39 60 40 20 41 65 42 59 43 61 44
REMARK SMILES IDX 21 45 64 46 58 47 57 48 22 50 48 51 31 52 47 53 32 54 35 55
REMARK SMILES IDX 46 56 62 57 33 58 34 59 45 61 63 62 36 63 23 64 24 65 29 66
REMARK SMILES IDX 25 67 26 68 28 69 30 70 27 71 49 72 50 73 55 74 51 75 52 76
REMARK SMILES IDX 54 77 56 78 53 79 37 80 38 81 43 82 39 83 40 84 42 85 44 86
REMARK SMILES IDX 41 87
REMARK H PARENT 81 26 61 49 35 60
REMARK Flexibility Score: inf
ROOT
ATOM      1  C   UNL A   1      31.531  29.474  24.192  1.00  0.00     0.274 C 
ENDROOT
BRANCH   1   2
ATOM      2  O   UNL A   1      30.539  28.435  24.110  1.00  0.00    -0.462 OA
BRANCH   2   3
ATOM      3  C   UNL A   1      30.824  27.363  23.323  1.00  0.00     0.314 C 
ATOM      4  O   UNL A   1      30.630  27.328  22.115  1.00  0.00    -0.252 OA
BRANCH   3   5
ATOM      5  C   UNL A   1      31.431  26.211  24.135  1.00  0.00     0.088 C 
ATOM      6  C   UNL A   1      31.244  26.521  25.660  1.00  0.00     0.022 C 
ATOM      7  C   UNL A   1      30.641  24.920  23.787  1.00  0.00     0.138 C 
ATOM      8  C   UNL A   1      31.402  25.321  26.596  1.00  0.00     0.023 C 
ATOM      9  N   UNL A   1      30.956  23.844  24.743  1.00  0.00    -0.341 N 
ATOM     10  C   UNL A   1      30.560  24.150  26.107  1.00  0.00     0.119 C 
BRANCH   5  11
ATOM     11  C   UNL A   1      32.930  26.000  23.792  1.00  0.00     0.049 C 
BRANCH  11  12
ATOM     12  C   UNL A   1      33.276  25.527  22.377  1.00  0.00     0.161 C 
BRANCH  12  13
ATOM     13  O   UNL A   1      33.799  26.617  21.619  1.00  0.00    -0.385 OA
ATOM     14  C   UNL A   1      34.153  27.758  22.381  1.00  0.00     0.194 C 
ENDBRANCH  12  13
ENDBRANCH  11  12
ENDBRANCH   5  11
BRANCH   9  15
ATOM     15  C   UNL A   1      31.804  22.810  24.362  1.00  0.00     0.227 C 
ATOM     16  O   UNL A   1      32.119  22.652  23.178  1.00  0.00    -0.275 OA
BRANCH  15  17
ATOM     17  C   UNL A   1      32.357  21.837  25.413  1.00  0.00     0.143 C 
BRANCH  17  18
ATOM     18  C   UNL A   1      33.811  21.456  25.266  1.00  0.00     0.048 A 
ATOM     19  C   UNL A   1      34.904  22.230  25.435  1.00  0.00     0.049 A 
ATOM     20  C   UNL A   1      34.068  20.050  24.849  1.00  0.00     0.254 A 
ATOM     21  C   UNL A   1      34.858  23.705  25.744  1.00  0.00     0.067 C 
ATOM     22  N   UNL A   1      36.200  21.760  25.359  1.00  0.00    -0.240 NA
ATOM     23  N   UNL A   1      35.368  19.658  24.806  1.00  0.00    -0.311 N 
ATOM     24  O   UNL A   1      33.167  19.264  24.573  1.00  0.00    -0.269 OA
ATOM     25  C   UNL A   1      36.386  20.518  25.064  1.00  0.00     0.105 A 
ATOM     26  H   UNL A   1      35.578  18.723  24.581  1.00  0.00     0.171 HD
ATOM     27  C   UNL A   1      37.775  19.947  25.000  1.00  0.00     0.087 C 
ENDBRANCH  17  18
ENDBRANCH  15  17
ENDBRANCH   9  15
ENDBRANCH   3   5
ENDBRANCH   2   3
ENDBRANCH   1   2
BRANCH   1  28
ATOM     28  C   UNL A   1      31.495  30.097  25.590  1.00  0.00     0.275 C 
BRANCH  28  29
ATOM     29  O   UNL A   1      32.818  30.132  26.165  1.00  0.00    -0.458 OA
BRANCH  29  30
ATOM     30  C   UNL A   1      33.077  31.212  26.944  1.00  0.00     0.338 C 
ATOM     31  O   UNL A   1      32.320  32.139  27.195  1.00  0.00    -0.246 OA
BRANCH  30  32
ATOM     32  C   UNL A   1      34.380  31.033  27.611  1.00  0.00     0.060 A 
ATOM     33  C   UNL A   1      34.751  29.730  27.953  1.00  0.00     0.016 A 
ATOM     34  C   UNL A   1      35.231  32.100  27.900  1.00  0.00     0.016 A 
ATOM     35  C   UNL A   1      36.009  29.466  28.488  1.00  0.00     0.010 A 
ATOM     36  C   UNL A   1      36.461  31.845  28.518  1.00  0.00     0.010 A 
ATOM     37  C   UNL A   1      36.862  30.527  28.803  1.00  0.00    -0.014 A 
BRANCH  37  38
ATOM     38  C   UNL A   1      38.080  30.282  29.611  1.00  0.00     0.031 A 
ATOM     39  C   UNL A   1      39.132  29.375  29.045  1.00  0.00     0.074 A 
ATOM     40  C   UNL A   1      38.248  30.836  30.824  1.00  0.00     0.049 A 
ATOM     41  N   UNL A   1      40.185  28.859  29.622  1.00  0.00    -0.248 NA
ATOM     42  C   UNL A   1      38.977  29.003  27.628  1.00  0.00     0.031 C 
ATOM     43  C   UNL A   1      37.366  31.826  31.436  1.00  0.00     0.029 A 
ATOM     44  N   UNL A   1      39.225  30.624  31.767  1.00  0.00    -0.354 N 
ATOM     45  C   UNL A   1      40.807  28.091  28.646  1.00  0.00     0.074 A 
ATOM     46  C   UNL A   1      40.021  28.213  27.439  1.00  0.00     0.031 C 
ATOM     47  C   UNL A   1      37.821  32.108  32.671  1.00  0.00     0.029 A 
ATOM     48  C   UNL A   1      38.994  31.281  32.952  1.00  0.00     0.049 A 
ATOM     49  H   UNL A   1      40.014  30.056  31.610  1.00  0.00     0.167 HD
ATOM     50  C   UNL A   1      41.924  27.336  28.754  1.00  0.00     0.037 A 
ATOM     51  C   UNL A   1      39.631  31.182  34.137  1.00  0.00     0.037 A 
ATOM     52  C   UNL A   1      42.683  27.191  29.965  1.00  0.00     0.049 A 
ATOM     53  C   UNL A   1      40.797  30.229  34.274  1.00  0.00     0.074 A 
ATOM     54  C   UNL A   1      43.801  26.409  30.192  1.00  0.00     0.029 A 
ATOM     55  N   UNL A   1      42.391  27.836  31.156  1.00  0.00    -0.354 N 
ATOM     56  N   UNL A   1      41.358  29.471  33.363  1.00  0.00    -0.248 NA
ATOM     57  C   UNL A   1      41.406  30.107  35.607  1.00  0.00     0.031 C 
ATOM     58  C   UNL A   1      44.155  26.541  31.538  1.00  0.00     0.029 A 
ATOM     59  C   UNL A   1      43.297  27.454  32.130  1.00  0.00     0.049 A 
ATOM     60  H   UNL A   1      41.651  28.471  31.289  1.00  0.00     0.167 HD
ATOM     61  C   UNL A   1      42.409  28.819  33.999  1.00  0.00     0.074 A 
ATOM     62  C   UNL A   1      42.405  29.265  35.377  1.00  0.00     0.031 C 
ATOM     63  C   UNL A   1      43.301  27.936  33.488  1.00  0.00     0.037 A 
BRANCH  50  64
ATOM     64  C   UNL A   1      42.337  26.555  27.544  1.00  0.00     0.057 A 
ATOM     65  C   UNL A   1      41.921  25.234  27.334  1.00  0.00     0.134 A 
ATOM     66  C   UNL A   1      43.170  27.135  26.579  1.00  0.00     0.134 A 
ATOM     67  F   UNL A   1      41.143  24.614  28.232  1.00  0.00    -0.206 F 
ATOM     68  C   UNL A   1      42.340  24.511  26.216  1.00  0.00     0.040 A 
ATOM     69  C   UNL A   1      43.573  26.431  25.445  1.00  0.00     0.040 A 
ATOM     70  F   UNL A   1      43.607  28.395  26.724  1.00  0.00    -0.206 F 
ATOM     71  C   UNL A   1      43.163  25.111  25.265  1.00  0.00     0.006 A 
ENDBRANCH  50  64
BRANCH  51  72
ATOM     72  C   UNL A   1      39.159  31.956  35.316  1.00  0.00     0.057 A 
ATOM     73  C   UNL A   1      38.288  31.392  36.255  1.00  0.00     0.134 A 
ATOM     74  C   UNL A   1      39.520  33.297  35.501  1.00  0.00     0.134 A 
ATOM     75  F   UNL A   1      37.876  30.123  36.117  1.00  0.00    -0.206 F 
ATOM     76  C   UNL A   1      37.777  32.135  37.323  1.00  0.00     0.040 A 
ATOM     77  C   UNL A   1      39.040  34.044  36.579  1.00  0.00     0.040 A 
ATOM     78  F   UNL A   1      40.342  33.904  34.634  1.00  0.00    -0.206 F 
ATOM     79  C   UNL A   1      38.158  33.465  37.489  1.00  0.00     0.006 A 
ENDBRANCH  51  72
BRANCH  63  80
ATOM     80  C   UNL A   1      44.398  27.441  34.384  1.00  0.00     0.057 A 
ATOM     81  C   UNL A   1      44.298  26.241  35.096  1.00  0.00     0.134 A 
ATOM     82  C   UNL A   1      45.617  28.133  34.447  1.00  0.00     0.134 A 
ATOM     83  F   UNL A   1      43.157  25.536  35.084  1.00  0.00    -0.206 F 
ATOM     84  C   UNL A   1      45.369  25.748  35.845  1.00  0.00     0.040 A 
ATOM     85  C   UNL A   1      46.702  27.637  35.170  1.00  0.00     0.040 A 
ATOM     86  F   UNL A   1      45.782  29.283  33.778  1.00  0.00    -0.206 F 
ATOM     87  C   UNL A   1      46.580  26.440  35.872  1.00  0.00     0.006 A 
ENDBRANCH  63  80
ENDBRANCH  37  38
ENDBRANCH  30  32
ENDBRANCH  29  30
ENDBRANCH  28  29
ENDBRANCH   1  28
TORSDOF 17
ENDMDL
