MODEL 1
REMARK VINA RESULT:     -10.4      0.000      0.000
REMARK SMILES CC[C@](C)([NH3+])C(=O)N1CC[NH+]([C@H](C)C(=O)OCCOC(=O)c2ccc(-c3c4nc(c(-c5c(F)cccc5F)c5ccc([nH]5)c(-c5c(F)cccc5F)c5nc(c(-c6c(F)cccc6F)c6ccc3[nH]6)C=C5)C=C4)cc2)CC1
REMARK SMILES IDX 17 1 16 2 14 3 15 4 12 5 13 6 11 7 6 8 7 9 8 10 9 11 77 12
REMARK SMILES IDX 10 13 76 14 3 16 4 17 2 18 1 19 5 20 18 24 19 25 20 26 21 27
REMARK SMILES IDX 22 28 23 29 75 30 24 31 74 32 25 33 26 34 27 35 68 36 28 37
REMARK SMILES IDX 73 38 67 39 69 40 29 41 72 42 66 43 65 44 30 46 56 47 39 48
REMARK SMILES IDX 55 49 40 50 43 51 54 52 70 53 41 54 42 55 53 57 71 58 44 59
REMARK SMILES IDX 31 60 32 61 37 62 33 63 34 64 36 65 38 66 35 67 57 68 58 69
REMARK SMILES IDX 63 70 59 71 60 72 62 73 64 74 61 75 45 76 46 77 51 78 47 79
REMARK SMILES IDX 48 80 50 81 52 82 49 83
REMARK H PARENT 11 15 5 21 5 22 5 23 69 45 43 56
REMARK Flexibility Score: inf
ROOT
ATOM      1  C   UNL A   1      31.135  32.105  26.693  1.00  0.00     0.274 C 
ENDROOT
BRANCH   1   2
ATOM      2  O   UNL A   1      31.509  31.084  25.749  1.00  0.00    -0.458 OA
BRANCH   2   3
ATOM      3  C   UNL A   1      32.097  29.970  26.265  1.00  0.00     0.364 C 
ATOM      4  O   UNL A   1      32.082  29.666  27.455  1.00  0.00    -0.245 OA
BRANCH   3   5
ATOM      5  C   UNL A   1      32.800  29.119  25.188  1.00  0.00     0.292 C 
ATOM      6  C   UNL A   1      34.028  28.364  25.715  1.00  0.00     0.088 C 
BRANCH   5   7
ATOM      7  N   UNL A   1      31.804  28.313  24.442  1.00  0.00    -0.321 N 
ATOM      8  C   UNL A   1      31.363  24.530  22.992  1.00  0.00     0.283 C 
ATOM      9  O   UNL A   1      30.656  23.664  23.527  1.00  0.00    -0.268 OA
ATOM     10  N   UNL A   1      31.024  25.862  23.155  1.00  0.00    -0.326 N 
ATOM     11  C   UNL A   1      30.337  26.264  24.380  1.00  0.00     0.181 C 
ATOM     12  C   UNL A   1      31.375  27.007  22.326  1.00  0.00     0.181 C 
ATOM     13  C   UNL A   1      31.295  27.154  25.204  1.00  0.00     0.284 C 
ATOM     14  C   UNL A   1      32.307  27.955  23.096  1.00  0.00     0.284 C 
ATOM     15  H   UNL A   1      30.986  28.906  24.307  1.00  0.00     0.348 HD
BRANCH   8  16
ATOM     16  C   UNL A   1      32.754  24.108  22.391  1.00  0.00     0.171 C 
ATOM     17  C   UNL A   1      32.894  22.578  22.498  1.00  0.00     0.090 C 
BRANCH  16  18
ATOM     18  C   UNL A   1      33.900  24.812  23.166  1.00  0.00     0.075 C 
ATOM     19  C   UNL A   1      33.954  24.523  24.664  1.00  0.00     0.011 C 
ENDBRANCH  16  18
BRANCH  16  20
ATOM     20  N   UNL A   1      32.897  24.434  20.950  1.00  0.00    -0.345 N 
ATOM     21  H   UNL A   1      33.858  24.260  20.657  1.00  0.00     0.345 HD
ATOM     22  H   UNL A   1      32.669  25.417  20.799  1.00  0.00     0.345 HD
ATOM     23  H   UNL A   1      32.263  23.850  20.404  1.00  0.00     0.345 HD
ENDBRANCH  16  20
ENDBRANCH   8  16
ENDBRANCH   5   7
ENDBRANCH   3   5
ENDBRANCH   2   3
ENDBRANCH   1   2
BRANCH   1  24
ATOM     24  C   UNL A   1      32.242  33.152  26.858  1.00  0.00     0.275 C 
BRANCH  24  25
ATOM     25  O   UNL A   1      32.153  33.828  28.127  1.00  0.00    -0.458 OA
BRANCH  25  26
ATOM     26  C   UNL A   1      33.181  34.662  28.406  1.00  0.00     0.338 C 
ATOM     27  O   UNL A   1      33.158  35.881  28.430  1.00  0.00    -0.246 OA
BRANCH  26  28
ATOM     28  C   UNL A   1      34.350  33.887  28.852  1.00  0.00     0.060 A 
ATOM     29  C   UNL A   1      34.113  32.754  29.632  1.00  0.00     0.016 A 
ATOM     30  C   UNL A   1      35.654  34.302  28.586  1.00  0.00     0.016 A 
ATOM     31  C   UNL A   1      35.172  32.015  30.142  1.00  0.00     0.010 A 
ATOM     32  C   UNL A   1      36.725  33.564  29.108  1.00  0.00     0.010 A 
ATOM     33  C   UNL A   1      36.487  32.421  29.892  1.00  0.00    -0.014 A 
BRANCH  33  34
ATOM     34  C   UNL A   1      37.600  31.663  30.508  1.00  0.00     0.031 A 
ATOM     35  C   UNL A   1      37.943  31.880  31.952  1.00  0.00     0.074 A 
ATOM     36  C   UNL A   1      38.256  30.737  29.786  1.00  0.00     0.049 A 
ATOM     37  N   UNL A   1      38.900  31.344  32.664  1.00  0.00    -0.248 NA
ATOM     38  C   UNL A   1      37.092  32.822  32.695  1.00  0.00     0.031 C 
ATOM     39  C   UNL A   1      37.971  30.398  28.390  1.00  0.00     0.029 A 
ATOM     40  N   UNL A   1      39.292  29.908  30.128  1.00  0.00    -0.354 N 
ATOM     41  C   UNL A   1      38.782  31.896  33.932  1.00  0.00     0.074 A 
ATOM     42  C   UNL A   1      37.665  32.817  33.890  1.00  0.00     0.031 C 
ATOM     43  C   UNL A   1      38.810  29.425  27.999  1.00  0.00     0.029 A 
ATOM     44  C   UNL A   1      39.715  29.105  29.098  1.00  0.00     0.049 A 
ATOM     45  H   UNL A   1      39.695  29.889  31.027  1.00  0.00     0.167 HD
ATOM     46  C   UNL A   1      39.536  31.654  35.030  1.00  0.00     0.037 A 
ATOM     47  C   UNL A   1      40.734  28.226  29.043  1.00  0.00     0.037 A 
ATOM     48  C   UNL A   1      40.637  30.728  35.071  1.00  0.00     0.049 A 
ATOM     49  C   UNL A   1      41.589  28.017  30.261  1.00  0.00     0.074 A 
ATOM     50  C   UNL A   1      41.464  30.414  36.137  1.00  0.00     0.029 A 
ATOM     51  N   UNL A   1      41.065  29.964  33.996  1.00  0.00    -0.354 N 
ATOM     52  N   UNL A   1      41.482  28.560  31.449  1.00  0.00    -0.248 NA
ATOM     53  C   UNL A   1      42.710  27.077  30.127  1.00  0.00     0.031 C 
ATOM     54  C   UNL A   1      42.413  29.484  35.695  1.00  0.00     0.029 A 
ATOM     55  C   UNL A   1      42.153  29.191  34.366  1.00  0.00     0.049 A 
ATOM     56  H   UNL A   1      40.655  29.970  33.101  1.00  0.00     0.167 HD
ATOM     57  C   UNL A   1      42.512  28.022  32.207  1.00  0.00     0.074 A 
ATOM     58  C   UNL A   1      43.220  27.092  31.350  1.00  0.00     0.031 C 
ATOM     59  C   UNL A   1      42.847  28.276  33.496  1.00  0.00     0.037 A 
BRANCH  46  60
ATOM     60  C   UNL A   1      39.212  32.433  36.271  1.00  0.00     0.057 A 
ATOM     61  C   UNL A   1      38.320  31.951  37.236  1.00  0.00     0.134 A 
ATOM     62  C   UNL A   1      39.820  33.672  36.508  1.00  0.00     0.134 A 
ATOM     63  F   UNL A   1      37.693  30.779  37.058  1.00  0.00    -0.206 F 
ATOM     64  C   UNL A   1      38.030  32.685  38.389  1.00  0.00     0.040 A 
ATOM     65  C   UNL A   1      39.552  34.405  37.666  1.00  0.00     0.040 A 
ATOM     66  F   UNL A   1      40.685  34.188  35.623  1.00  0.00    -0.206 F 
ATOM     67  C   UNL A   1      38.651  33.914  38.608  1.00  0.00     0.006 A 
ENDBRANCH  46  60
BRANCH  47  68
ATOM     68  C   UNL A   1      41.017  27.499  27.781  1.00  0.00     0.057 A 
ATOM     69  C   UNL A   1      41.887  28.025  26.820  1.00  0.00     0.134 A 
ATOM     70  C   UNL A   1      40.420  26.263  27.506  1.00  0.00     0.134 A 
ATOM     71  F   UNL A   1      42.469  29.217  27.018  1.00  0.00    -0.206 F 
ATOM     72  C   UNL A   1      42.144  27.354  25.624  1.00  0.00     0.040 A 
ATOM     73  C   UNL A   1      40.686  25.570  26.325  1.00  0.00     0.040 A 
ATOM     74  F   UNL A   1      39.576  25.708  28.389  1.00  0.00    -0.206 F 
ATOM     75  C   UNL A   1      41.547  26.119  25.377  1.00  0.00     0.006 A 
ENDBRANCH  47  68
BRANCH  59  76
ATOM     76  C   UNL A   1      44.018  27.524  34.053  1.00  0.00     0.057 A 
ATOM     77  C   UNL A   1      43.868  26.262  34.640  1.00  0.00     0.134 A 
ATOM     78  C   UNL A   1      45.310  28.062  33.987  1.00  0.00     0.134 A 
ATOM     79  F   UNL A   1      42.655  25.701  34.745  1.00  0.00    -0.206 F 
ATOM     80  C   UNL A   1      44.961  25.571  35.167  1.00  0.00     0.040 A 
ATOM     81  C   UNL A   1      46.412  27.371  34.491  1.00  0.00     0.040 A 
ATOM     82  F   UNL A   1      45.520  29.264  33.430  1.00  0.00    -0.206 F 
ATOM     83  C   UNL A   1      46.238  26.123  35.088  1.00  0.00     0.006 A 
ENDBRANCH  59  76
ENDBRANCH  33  34
ENDBRANCH  26  28
ENDBRANCH  25  26
ENDBRANCH  24  25
ENDBRANCH   1  24
TORSDOF 15
ENDMDL
MODEL 2
REMARK VINA RESULT:     -10.3      2.156      3.648
REMARK SMILES CC[C@](C)([NH3+])C(=O)N1CC[NH+]([C@H](C)C(=O)OCCOC(=O)c2ccc(-c3c4nc(c(-c5c(F)cccc5F)c5ccc([nH]5)c(-c5c(F)cccc5F)c5nc(c(-c6c(F)cccc6F)c6ccc3[nH]6)C=C5)C=C4)cc2)CC1
REMARK SMILES IDX 17 1 16 2 14 3 15 4 12 5 13 6 11 7 6 8 7 9 8 10 9 11 77 12
REMARK SMILES IDX 10 13 76 14 3 16 4 17 2 18 1 19 5 20 18 24 19 25 20 26 21 27
REMARK SMILES IDX 22 28 23 29 75 30 24 31 74 32 25 33 26 34 27 35 68 36 28 37
REMARK SMILES IDX 73 38 67 39 69 40 29 41 72 42 66 43 65 44 30 46 56 47 39 48
REMARK SMILES IDX 55 49 40 50 43 51 54 52 70 53 41 54 42 55 53 57 71 58 44 59
REMARK SMILES IDX 31 60 32 61 37 62 33 63 34 64 36 65 38 66 35 67 57 68 58 69
REMARK SMILES IDX 63 70 59 71 60 72 62 73 64 74 61 75 45 76 46 77 51 78 47 79
REMARK SMILES IDX 48 80 50 81 52 82 49 83
REMARK H PARENT 11 15 5 21 5 22 5 23 69 45 43 56
REMARK Flexibility Score: inf
ROOT
ATOM      1  C   UNL A   1      33.940  35.137  28.862  1.00  0.00     0.274 C 
ENDROOT
BRANCH   1   2
ATOM      2  O   UNL A   1      33.387  33.872  28.453  1.00  0.00    -0.458 OA
BRANCH   2   3
ATOM      3  C   UNL A   1      34.030  32.759  28.904  1.00  0.00     0.364 C 
ATOM      4  O   UNL A   1      34.231  32.508  30.089  1.00  0.00    -0.245 OA
BRANCH   3   5
ATOM      5  C   UNL A   1      34.490  31.837  27.758  1.00  0.00     0.292 C 
ATOM      6  C   UNL A   1      35.989  31.511  27.803  1.00  0.00     0.088 C 
BRANCH   5   7
ATOM      7  N   UNL A   1      33.570  30.680  27.630  1.00  0.00    -0.321 N 
ATOM      8  C   UNL A   1      32.740  27.678  25.003  1.00  0.00     0.283 C 
ATOM      9  O   UNL A   1      33.105  26.503  25.159  1.00  0.00    -0.268 OA
ATOM     10  N   UNL A   1      32.528  28.464  26.122  1.00  0.00    -0.326 N 
ATOM     11  C   UNL A   1      33.308  28.191  27.326  1.00  0.00     0.181 C 
ATOM     12  C   UNL A   1      31.712  29.663  26.260  1.00  0.00     0.181 C 
ATOM     13  C   UNL A   1      34.268  29.379  27.563  1.00  0.00     0.284 C 
ATOM     14  C   UNL A   1      32.603  30.885  26.528  1.00  0.00     0.284 C 
ATOM     15  H   UNL A   1      33.033  30.634  28.495  1.00  0.00     0.348 HD
BRANCH   8  16
ATOM     16  C   UNL A   1      32.799  28.305  23.562  1.00  0.00     0.171 C 
ATOM     17  C   UNL A   1      31.371  28.698  23.135  1.00  0.00     0.090 C 
BRANCH  16  18
ATOM     18  C   UNL A   1      33.397  27.278  22.563  1.00  0.00     0.075 C 
ATOM     19  C   UNL A   1      32.381  26.432  21.801  1.00  0.00     0.011 C 
ENDBRANCH  16  18
BRANCH  16  20
ATOM     20  N   UNL A   1      33.606  29.548  23.492  1.00  0.00    -0.345 N 
ATOM     21  H   UNL A   1      33.121  30.296  23.988  1.00  0.00     0.345 HD
ATOM     22  H   UNL A   1      33.735  29.816  22.517  1.00  0.00     0.345 HD
ATOM     23  H   UNL A   1      34.516  29.388  23.924  1.00  0.00     0.345 HD
ENDBRANCH  16  20
ENDBRANCH   8  16
ENDBRANCH   5   7
ENDBRANCH   3   5
ENDBRANCH   2   3
ENDBRANCH   1   2
BRANCH   1  24
ATOM     24  C   UNL A   1      32.917  35.976  29.635  1.00  0.00     0.275 C 
BRANCH  24  25
ATOM     25  O   UNL A   1      32.425  35.282  30.797  1.00  0.00    -0.458 OA
BRANCH  25  26
ATOM     26  C   UNL A   1      32.840  35.782  31.983  1.00  0.00     0.338 C 
ATOM     27  O   UNL A   1      32.294  36.641  32.655  1.00  0.00    -0.246 OA
BRANCH  26  28
ATOM     28  C   UNL A   1      34.002  35.021  32.470  1.00  0.00     0.060 A 
ATOM     29  C   UNL A   1      35.270  35.547  32.217  1.00  0.00     0.016 A 
ATOM     30  C   UNL A   1      33.863  33.778  33.088  1.00  0.00     0.016 A 
ATOM     31  C   UNL A   1      36.410  34.849  32.590  1.00  0.00     0.010 A 
ATOM     32  C   UNL A   1      35.012  33.067  33.455  1.00  0.00     0.010 A 
ATOM     33  C   UNL A   1      36.290  33.597  33.203  1.00  0.00    -0.014 A 
BRANCH  33  34
ATOM     34  C   UNL A   1      37.519  32.835  33.523  1.00  0.00     0.031 A 
ATOM     35  C   UNL A   1      38.233  33.081  34.818  1.00  0.00     0.074 A 
ATOM     36  C   UNL A   1      37.951  31.882  32.678  1.00  0.00     0.049 A 
ATOM     37  N   UNL A   1      39.340  32.546  35.266  1.00  0.00    -0.248 NA
ATOM     38  C   UNL A   1      37.619  34.055  35.734  1.00  0.00     0.031 C 
ATOM     39  C   UNL A   1      37.303  31.514  31.418  1.00  0.00     0.029 A 
ATOM     40  N   UNL A   1      39.033  31.044  32.757  1.00  0.00    -0.354 N 
ATOM     41  C   UNL A   1      39.566  33.130  36.504  1.00  0.00     0.074 A 
ATOM     42  C   UNL A   1      38.488  34.068  36.734  1.00  0.00     0.031 C 
ATOM     43  C   UNL A   1      37.999  30.519  30.845  1.00  0.00     0.029 A 
ATOM     44  C   UNL A   1      39.161  30.210  31.674  1.00  0.00     0.049 A 
ATOM     45  H   UNL A   1      39.659  31.041  33.517  1.00  0.00     0.167 HD
ATOM     46  C   UNL A   1      40.582  32.902  37.371  1.00  0.00     0.037 A 
ATOM     47  C   UNL A   1      40.120  29.314  31.375  1.00  0.00     0.037 A 
ATOM     48  C   UNL A   1      41.646  31.959  37.144  1.00  0.00     0.049 A 
ATOM     49  C   UNL A   1      41.265  29.120  32.329  1.00  0.00     0.074 A 
ATOM     50  C   UNL A   1      42.723  31.657  37.961  1.00  0.00     0.029 A 
ATOM     51  N   UNL A   1      41.767  31.163  36.015  1.00  0.00    -0.354 N 
ATOM     52  N   UNL A   1      41.482  29.692  33.488  1.00  0.00    -0.248 NA
ATOM     53  C   UNL A   1      42.302  28.158  31.929  1.00  0.00     0.031 C 
ATOM     54  C   UNL A   1      43.512  30.702  37.310  1.00  0.00     0.029 A 
ATOM     55  C   UNL A   1      42.907  30.382  36.105  1.00  0.00     0.049 A 
ATOM     56  H   UNL A   1      41.134  31.154  35.260  1.00  0.00     0.167 HD
ATOM     57  C   UNL A   1      42.670  29.156  33.961  1.00  0.00     0.074 A 
ATOM     58  C   UNL A   1      43.117  28.194  32.973  1.00  0.00     0.031 C 
ATOM     59  C   UNL A   1      43.337  29.435  35.108  1.00  0.00     0.037 A 
BRANCH  46  60
ATOM     60  C   UNL A   1      40.606  33.716  38.631  1.00  0.00     0.057 A 
ATOM     61  C   UNL A   1      39.887  33.337  39.771  1.00  0.00     0.134 A 
ATOM     62  C   UNL A   1      41.377  34.883  38.707  1.00  0.00     0.134 A 
ATOM     63  F   UNL A   1      39.117  32.239  39.755  1.00  0.00    -0.206 F 
ATOM     64  C   UNL A   1      39.920  34.101  40.939  1.00  0.00     0.040 A 
ATOM     65  C   UNL A   1      41.433  35.644  39.875  1.00  0.00     0.040 A 
ATOM     66  F   UNL A   1      42.089  35.299  37.649  1.00  0.00    -0.206 F 
ATOM     67  C   UNL A   1      40.699  35.256  40.994  1.00  0.00     0.006 A 
ENDBRANCH  46  60
BRANCH  47  68
ATOM     68  C   UNL A   1      40.052  28.553  30.104  1.00  0.00     0.057 A 
ATOM     69  C   UNL A   1      39.338  27.354  30.014  1.00  0.00     0.134 A 
ATOM     70  C   UNL A   1      40.705  29.005  28.951  1.00  0.00     0.134 A 
ATOM     71  F   UNL A   1      38.712  26.858  31.093  1.00  0.00    -0.206 F 
ATOM     72  C   UNL A   1      39.283  26.624  28.826  1.00  0.00     0.040 A 
ATOM     73  C   UNL A   1      40.639  28.298  27.750  1.00  0.00     0.040 A 
ATOM     74  F   UNL A   1      41.407  30.148  28.975  1.00  0.00    -0.206 F 
ATOM     75  C   UNL A   1      39.931  27.100  27.687  1.00  0.00     0.006 A 
ENDBRANCH  47  68
BRANCH  59  76
ATOM     76  C   UNL A   1      44.607  28.678  35.355  1.00  0.00     0.057 A 
ATOM     77  C   UNL A   1      45.849  29.173  34.940  1.00  0.00     0.134 A 
ATOM     78  C   UNL A   1      44.588  27.450  36.028  1.00  0.00     0.134 A 
ATOM     79  F   UNL A   1      45.932  30.336  34.278  1.00  0.00    -0.206 F 
ATOM     80  C   UNL A   1      47.028  28.458  35.164  1.00  0.00     0.040 A 
ATOM     81  C   UNL A   1      45.762  26.738  36.277  1.00  0.00     0.040 A 
ATOM     82  F   UNL A   1      43.430  26.926  36.457  1.00  0.00    -0.206 F 
ATOM     83  C   UNL A   1      46.986  27.240  35.838  1.00  0.00     0.006 A 
ENDBRANCH  59  76
ENDBRANCH  33  34
ENDBRANCH  26  28
ENDBRANCH  25  26
ENDBRANCH  24  25
ENDBRANCH   1  24
TORSDOF 15
ENDMDL
MODEL 3
REMARK VINA RESULT:     -10.3      4.368      7.717
REMARK SMILES CC[C@](C)([NH3+])C(=O)N1CC[NH+]([C@H](C)C(=O)OCCOC(=O)c2ccc(-c3c4nc(c(-c5c(F)cccc5F)c5ccc([nH]5)c(-c5c(F)cccc5F)c5nc(c(-c6c(F)cccc6F)c6ccc3[nH]6)C=C5)C=C4)cc2)CC1
REMARK SMILES IDX 17 1 16 2 14 3 15 4 12 5 13 6 11 7 6 8 7 9 8 10 9 11 77 12
REMARK SMILES IDX 10 13 76 14 3 16 4 17 2 18 1 19 5 20 18 24 19 25 20 26 21 27
REMARK SMILES IDX 22 28 23 29 75 30 24 31 74 32 25 33 26 34 27 35 68 36 28 37
REMARK SMILES IDX 73 38 67 39 69 40 29 41 72 42 66 43 65 44 30 46 56 47 39 48
REMARK SMILES IDX 55 49 40 50 43 51 54 52 70 53 41 54 42 55 53 57 71 58 44 59
REMARK SMILES IDX 31 60 32 61 37 62 33 63 34 64 36 65 38 66 35 67 57 68 58 69
REMARK SMILES IDX 63 70 59 71 60 72 62 73 64 74 61 75 45 76 46 77 51 78 47 79
REMARK SMILES IDX 48 80 50 81 52 82 49 83
REMARK H PARENT 11 15 5 21 5 22 5 23 69 45 43 56
REMARK Flexibility Score: inf
ROOT
ATOM      1  C   UNL A   1      35.019  20.108  25.001  1.00  0.00     0.274 C 
ENDROOT
BRANCH   1   2
ATOM      2  O   UNL A   1      34.079  20.703  25.916  1.00  0.00    -0.458 OA
BRANCH   2   3
ATOM      3  C   UNL A   1      32.790  20.794  25.483  1.00  0.00     0.364 C 
ATOM      4  O   UNL A   1      32.153  19.860  25.003  1.00  0.00    -0.245 OA
BRANCH   3   5
ATOM      5  C   UNL A   1      32.208  22.211  25.654  1.00  0.00     0.292 C 
ATOM      6  C   UNL A   1      32.990  23.073  26.654  1.00  0.00     0.088 C 
BRANCH   5   7
ATOM      7  N   UNL A   1      31.945  22.821  24.328  1.00  0.00    -0.321 N 
ATOM      8  C   UNL A   1      32.795  26.242  22.284  1.00  0.00     0.283 C 
ATOM      9  O   UNL A   1      33.653  26.319  21.392  1.00  0.00    -0.268 OA
ATOM     10  N   UNL A   1      32.163  25.030  22.500  1.00  0.00    -0.326 N 
ATOM     11  C   UNL A   1      32.893  23.799  22.207  1.00  0.00     0.181 C 
ATOM     12  C   UNL A   1      30.875  24.764  23.126  1.00  0.00     0.181 C 
ATOM     13  C   UNL A   1      33.171  23.070  23.541  1.00  0.00     0.284 C 
ATOM     14  C   UNL A   1      31.074  24.012  24.450  1.00  0.00     0.284 C 
ATOM     15  H   UNL A   1      31.431  22.129  23.782  1.00  0.00     0.348 HD
BRANCH   8  16
ATOM     16  C   UNL A   1      32.656  27.429  23.307  1.00  0.00     0.171 C 
ATOM     17  C   UNL A   1      33.550  28.593  22.837  1.00  0.00     0.090 C 
BRANCH  16  18
ATOM     18  C   UNL A   1      33.083  26.959  24.723  1.00  0.00     0.075 C 
ATOM     19  C   UNL A   1      33.860  27.980  25.549  1.00  0.00     0.011 C 
ENDBRANCH  16  18
BRANCH  16  20
ATOM     20  N   UNL A   1      31.280  27.977  23.392  1.00  0.00    -0.345 N 
ATOM     21  H   UNL A   1      31.188  28.532  24.243  1.00  0.00     0.345 HD
ATOM     22  H   UNL A   1      30.609  27.209  23.413  1.00  0.00     0.345 HD
ATOM     23  H   UNL A   1      31.097  28.566  22.579  1.00  0.00     0.345 HD
ENDBRANCH  16  20
ENDBRANCH   8  16
ENDBRANCH   5   7
ENDBRANCH   3   5
ENDBRANCH   2   3
ENDBRANCH   1   2
BRANCH   1  24
ATOM     24  C   UNL A   1      36.151  21.078  24.647  1.00  0.00     0.275 C 
BRANCH  24  25
ATOM     25  O   UNL A   1      36.857  21.527  25.820  1.00  0.00    -0.458 OA
BRANCH  25  26
ATOM     26  C   UNL A   1      38.182  21.259  25.830  1.00  0.00     0.338 C 
ATOM     27  O   UNL A   1      38.741  20.276  25.375  1.00  0.00    -0.246 OA
BRANCH  26  28
ATOM     28  C   UNL A   1      38.926  22.423  26.340  1.00  0.00     0.060 A 
ATOM     29  C   UNL A   1      38.437  23.691  26.021  1.00  0.00     0.016 A 
ATOM     30  C   UNL A   1      40.122  22.282  27.044  1.00  0.00     0.016 A 
ATOM     31  C   UNL A   1      39.127  24.831  26.414  1.00  0.00     0.010 A 
ATOM     32  C   UNL A   1      40.824  23.430  27.432  1.00  0.00     0.010 A 
ATOM     33  C   UNL A   1      40.332  24.709  27.113  1.00  0.00    -0.014 A 
BRANCH  33  34
ATOM     34  C   UNL A   1      41.088  25.935  27.455  1.00  0.00     0.031 A 
ATOM     35  C   UNL A   1      40.447  26.998  28.296  1.00  0.00     0.074 A 
ATOM     36  C   UNL A   1      42.369  26.059  27.063  1.00  0.00     0.049 A 
ATOM     37  N   UNL A   1      40.927  28.156  28.672  1.00  0.00    -0.248 NA
ATOM     38  C   UNL A   1      39.086  26.721  28.781  1.00  0.00     0.031 C 
ATOM     39  C   UNL A   1      43.116  25.063  26.293  1.00  0.00     0.029 A 
ATOM     40  N   UNL A   1      43.270  27.072  27.265  1.00  0.00    -0.354 N 
ATOM     41  C   UNL A   1      39.923  28.754  29.421  1.00  0.00     0.074 A 
ATOM     42  C   UNL A   1      38.803  27.837  29.438  1.00  0.00     0.031 C 
ATOM     43  C   UNL A   1      44.365  25.513  26.094  1.00  0.00     0.029 A 
ATOM     44  C   UNL A   1      44.492  26.843  26.683  1.00  0.00     0.049 A 
ATOM     45  H   UNL A   1      43.061  27.886  27.779  1.00  0.00     0.167 HD
ATOM     46  C   UNL A   1      39.937  29.959  30.039  1.00  0.00     0.037 A 
ATOM     47  C   UNL A   1      45.583  27.629  26.615  1.00  0.00     0.037 A 
ATOM     48  C   UNL A   1      41.057  30.863  30.030  1.00  0.00     0.049 A 
ATOM     49  C   UNL A   1      45.553  28.984  27.264  1.00  0.00     0.074 A 
ATOM     50  C   UNL A   1      41.168  32.108  30.626  1.00  0.00     0.029 A 
ATOM     51  N   UNL A   1      42.264  30.616  29.393  1.00  0.00    -0.354 N 
ATOM     52  N   UNL A   1      44.591  29.550  27.952  1.00  0.00    -0.248 NA
ATOM     53  C   UNL A   1      46.758  29.812  27.120  1.00  0.00     0.031 C 
ATOM     54  C   UNL A   1      42.432  32.628  30.319  1.00  0.00     0.029 A 
ATOM     55  C   UNL A   1      43.120  31.691  29.566  1.00  0.00     0.049 A 
ATOM     56  H   UNL A   1      42.481  29.797  28.891  1.00  0.00     0.167 HD
ATOM     57  C   UNL A   1      45.076  30.793  28.332  1.00  0.00     0.074 A 
ATOM     58  C   UNL A   1      46.427  30.890  27.817  1.00  0.00     0.031 C 
ATOM     59  C   UNL A   1      44.459  31.770  29.040  1.00  0.00     0.037 A 
BRANCH  46  60
ATOM     60  C   UNL A   1      38.685  30.382  30.748  1.00  0.00     0.057 A 
ATOM     61  C   UNL A   1      37.679  31.111  30.103  1.00  0.00     0.134 A 
ATOM     62  C   UNL A   1      38.477  30.034  32.089  1.00  0.00     0.134 A 
ATOM     63  F   UNL A   1      37.826  31.490  28.824  1.00  0.00    -0.206 F 
ATOM     64  C   UNL A   1      36.516  31.497  30.774  1.00  0.00     0.040 A 
ATOM     65  C   UNL A   1      37.310  30.396  32.763  1.00  0.00     0.040 A 
ATOM     66  F   UNL A   1      39.402  29.335  32.762  1.00  0.00    -0.206 F 
ATOM     67  C   UNL A   1      36.327  31.135  32.107  1.00  0.00     0.006 A 
ENDBRANCH  46  60
BRANCH  47  68
ATOM     68  C   UNL A   1      46.786  27.163  25.882  1.00  0.00     0.057 A 
ATOM     69  C   UNL A   1      46.982  27.480  24.534  1.00  0.00     0.134 A 
ATOM     70  C   UNL A   1      47.765  26.387  26.514  1.00  0.00     0.134 A 
ATOM     71  F   UNL A   1      46.066  28.200  23.870  1.00  0.00    -0.206 F 
ATOM     72  C   UNL A   1      48.103  27.032  23.835  1.00  0.00     0.040 A 
ATOM     73  C   UNL A   1      48.902  25.952  25.834  1.00  0.00     0.040 A 
ATOM     74  F   UNL A   1      47.633  26.050  27.805  1.00  0.00    -0.206 F 
ATOM     75  C   UNL A   1      49.071  26.269  24.487  1.00  0.00     0.006 A 
ENDBRANCH  47  68
BRANCH  59  76
ATOM     76  C   UNL A   1      45.250  33.015  29.308  1.00  0.00     0.057 A 
ATOM     77  C   UNL A   1      46.082  33.129  30.429  1.00  0.00     0.134 A 
ATOM     78  C   UNL A   1      45.190  34.104  28.429  1.00  0.00     0.134 A 
ATOM     79  F   UNL A   1      46.170  32.127  31.315  1.00  0.00    -0.206 F 
ATOM     80  C   UNL A   1      46.808  34.295  30.680  1.00  0.00     0.040 A 
ATOM     81  C   UNL A   1      45.928  35.265  28.658  1.00  0.00     0.040 A 
ATOM     82  F   UNL A   1      44.417  34.054  27.334  1.00  0.00    -0.206 F 
ATOM     83  C   UNL A   1      46.736  35.365  29.790  1.00  0.00     0.006 A 
ENDBRANCH  59  76
ENDBRANCH  33  34
ENDBRANCH  26  28
ENDBRANCH  25  26
ENDBRANCH  24  25
ENDBRANCH   1  24
TORSDOF 15
ENDMDL
