MODEL 1
REMARK VINA RESULT:     -13.4      0.000      0.000
REMARK SMILES O=C(OCCOC(=O)c1ccc(-n2cc(CSc3nc4ccccc4c(=O)n3-c3ccc(Br)cc3)nn2)cc1)c1ccc(-c2c3nc(c(-c4c(F)cccc4F)c4ccc([nH]4)c(-c4c(F)cccc4F)c4nc(c(-c5c(F)cccc5F)c5ccc2[nH]5)C=C4)C=C3)cc1
REMARK SMILES IDX 6 1 5 2 4 3 3 4 2 5 1 6 40 7 41 8 93 9 42 10 92 11 43 12
REMARK SMILES IDX 44 13 45 14 86 15 46 16 91 17 85 18 87 19 47 20 90 21 84 22
REMARK SMILES IDX 83 23 48 25 74 26 57 27 73 28 58 29 61 30 72 31 88 32 59 33
REMARK SMILES IDX 60 34 71 36 89 37 62 38 49 39 50 40 55 41 51 42 52 43 54 44
REMARK SMILES IDX 56 45 53 46 75 47 76 48 81 49 77 50 78 51 80 52 82 53 79 54
REMARK SMILES IDX 63 55 64 56 69 57 65 58 66 59 68 60 70 61 67 62 7 63 8 64
REMARK SMILES IDX 9 65 10 66 39 67 11 68 38 69 12 70 13 71 14 72 37 73 15 74
REMARK SMILES IDX 36 75 16 76 17 77 18 78 19 79 28 80 20 81 26 82 21 83 25 84
REMARK SMILES IDX 27 85 22 86 24 87 23 88 29 89 30 90 35 91 31 92 34 93 32 94
REMARK SMILES IDX 33 95
REMARK H PARENT 87 24 61 35
REMARK Flexibility Score: inf
ROOT
ATOM      1  O   UNL A   1      40.311  20.479  26.177  1.00  0.00    -0.458 OA
ENDROOT
BRANCH   1   2
ATOM      2  C   UNL A   1      41.292  19.900  27.055  1.00  0.00     0.275 C 
BRANCH   2   3
ATOM      3  C   UNL A   1      42.414  19.253  26.242  1.00  0.00     0.275 C 
BRANCH   3   4
ATOM      4  O   UNL A   1      42.927  19.977  25.104  1.00  0.00    -0.458 OA
BRANCH   4   5
ATOM      5  C   UNL A   1      44.103  20.630  25.203  1.00  0.00     0.338 C 
ATOM      6  O   UNL A   1      45.141  20.255  24.682  1.00  0.00    -0.246 OA
BRANCH   5   7
ATOM      7  C   UNL A   1      43.949  21.987  25.780  1.00  0.00     0.060 A 
ATOM      8  C   UNL A   1      44.721  22.451  26.850  1.00  0.00     0.016 A 
ATOM      9  C   UNL A   1      42.994  22.826  25.193  1.00  0.00     0.016 A 
ATOM     10  C   UNL A   1      44.474  23.709  27.385  1.00  0.00     0.010 A 
ATOM     11  C   UNL A   1      42.778  24.097  25.701  1.00  0.00     0.010 A 
ATOM     12  C   UNL A   1      43.469  24.515  26.838  1.00  0.00    -0.014 A 
BRANCH  12  13
ATOM     13  C   UNL A   1      43.212  25.822  27.440  1.00  0.00     0.031 A 
ATOM     14  C   UNL A   1      44.204  26.888  27.103  1.00  0.00     0.074 A 
ATOM     15  C   UNL A   1      42.085  26.106  28.126  1.00  0.00     0.049 A 
ATOM     16  N   UNL A   1      45.016  27.526  27.881  1.00  0.00    -0.248 NA
ATOM     17  C   UNL A   1      44.386  27.200  25.682  1.00  0.00     0.031 C 
ATOM     18  C   UNL A   1      40.891  25.277  28.321  1.00  0.00     0.029 A 
ATOM     19  N   UNL A   1      41.739  27.269  28.743  1.00  0.00    -0.354 N 
ATOM     20  C   UNL A   1      45.687  28.451  27.072  1.00  0.00     0.074 A 
ATOM     21  C   UNL A   1      45.366  28.104  25.718  1.00  0.00     0.031 C 
ATOM     22  C   UNL A   1      39.882  26.040  28.800  1.00  0.00     0.029 A 
ATOM     23  C   UNL A   1      40.401  27.362  29.100  1.00  0.00     0.049 A 
ATOM     24  H   UNL A   1      42.388  27.988  28.923  1.00  0.00     0.167 HD
ATOM     25  C   UNL A   1      46.296  29.557  27.585  1.00  0.00     0.037 A 
ATOM     26  C   UNL A   1      39.765  28.461  29.579  1.00  0.00     0.037 A 
ATOM     27  C   UNL A   1      46.511  29.417  28.999  1.00  0.00     0.049 A 
ATOM     28  C   UNL A   1      40.806  29.378  30.102  1.00  0.00     0.074 A 
ATOM     29  C   UNL A   1      47.236  28.546  29.786  1.00  0.00     0.029 A 
ATOM     30  N   UNL A   1      45.613  30.025  29.840  1.00  0.00    -0.354 N 
ATOM     31  N   UNL A   1      41.544  29.111  31.145  1.00  0.00    -0.248 NA
ATOM     32  C   UNL A   1      41.351  30.365  29.183  1.00  0.00     0.031 C 
ATOM     33  C   UNL A   1      46.392  28.293  30.906  1.00  0.00     0.029 A 
ATOM     34  C   UNL A   1      45.253  29.089  30.773  1.00  0.00     0.049 A 
ATOM     35  H   UNL A   1      45.290  30.953  29.784  1.00  0.00     0.167 HD
ATOM     36  C   UNL A   1      42.811  29.558  30.804  1.00  0.00     0.074 A 
ATOM     37  C   UNL A   1      42.617  30.382  29.610  1.00  0.00     0.031 C 
ATOM     38  C   UNL A   1      43.932  28.995  31.342  1.00  0.00     0.037 A 
BRANCH  25  39
ATOM     39  C   UNL A   1      46.373  30.906  26.905  1.00  0.00     0.057 A 
ATOM     40  C   UNL A   1      47.601  31.598  26.885  1.00  0.00     0.134 A 
ATOM     41  C   UNL A   1      45.249  31.684  26.566  1.00  0.00     0.134 A 
ATOM     42  F   UNL A   1      48.749  30.973  27.187  1.00  0.00    -0.206 F 
ATOM     43  C   UNL A   1      47.688  32.974  26.643  1.00  0.00     0.040 A 
ATOM     44  C   UNL A   1      45.332  33.049  26.272  1.00  0.00     0.040 A 
ATOM     45  F   UNL A   1      44.004  31.198  26.605  1.00  0.00    -0.206 F 
ATOM     46  C   UNL A   1      46.547  33.708  26.348  1.00  0.00     0.006 A 
ENDBRANCH  25  39
BRANCH  26  47
ATOM     47  C   UNL A   1      38.379  28.911  29.310  1.00  0.00     0.057 A 
ATOM     48  C   UNL A   1      37.456  29.100  30.348  1.00  0.00     0.134 A 
ATOM     49  C   UNL A   1      38.017  29.442  28.059  1.00  0.00     0.134 A 
ATOM     50  F   UNL A   1      37.730  28.670  31.588  1.00  0.00    -0.206 F 
ATOM     51  C   UNL A   1      36.252  29.795  30.159  1.00  0.00     0.040 A 
ATOM     52  C   UNL A   1      36.819  30.136  27.857  1.00  0.00     0.040 A 
ATOM     53  F   UNL A   1      38.857  29.384  27.015  1.00  0.00    -0.206 F 
ATOM     54  C   UNL A   1      35.937  30.326  28.912  1.00  0.00     0.006 A 
ENDBRANCH  26  47
BRANCH  38  55
ATOM     55  C   UNL A   1      43.768  28.012  32.468  1.00  0.00     0.057 A 
ATOM     56  C   UNL A   1      43.747  26.619  32.299  1.00  0.00     0.134 A 
ATOM     57  C   UNL A   1      43.845  28.487  33.781  1.00  0.00     0.134 A 
ATOM     58  F   UNL A   1      43.768  26.065  31.082  1.00  0.00    -0.206 F 
ATOM     59  C   UNL A   1      43.781  25.742  33.389  1.00  0.00     0.040 A 
ATOM     60  C   UNL A   1      43.913  27.624  34.875  1.00  0.00     0.040 A 
ATOM     61  F   UNL A   1      43.928  29.807  34.016  1.00  0.00    -0.206 F 
ATOM     62  C   UNL A   1      43.875  26.246  34.682  1.00  0.00     0.006 A 
ENDBRANCH  38  55
ENDBRANCH  12  13
ENDBRANCH   5   7
ENDBRANCH   4   5
ENDBRANCH   3   4
ENDBRANCH   2   3
ENDBRANCH   1   2
BRANCH   1  63
ATOM     63  C   UNL A   1      39.740  21.633  26.601  1.00  0.00     0.338 C 
ATOM     64  O   UNL A   1      40.167  22.426  27.424  1.00  0.00    -0.246 OA
BRANCH  63  65
ATOM     65  C   UNL A   1      38.520  21.841  25.808  1.00  0.00     0.060 A 
ATOM     66  C   UNL A   1      37.991  23.131  25.713  1.00  0.00     0.018 A 
ATOM     67  C   UNL A   1      37.902  20.761  25.169  1.00  0.00     0.018 A 
ATOM     68  C   UNL A   1      36.867  23.363  24.921  1.00  0.00     0.029 A 
ATOM     69  C   UNL A   1      36.754  20.981  24.403  1.00  0.00     0.029 A 
ATOM     70  C   UNL A   1      36.267  22.289  24.257  1.00  0.00     0.066 A 
BRANCH  70  71
ATOM     71  N   UNL A   1      35.001  22.499  23.697  1.00  0.00    -0.220 N 
ATOM     72  C   UNL A   1      34.687  23.538  22.877  1.00  0.00     0.141 A 
ATOM     73  N   UNL A   1      33.899  21.790  23.969  1.00  0.00    -0.062 NA
ATOM     74  C   UNL A   1      33.347  23.434  22.613  1.00  0.00     0.093 A 
ATOM     75  N   UNL A   1      32.886  22.329  23.296  1.00  0.00    -0.134 NA
BRANCH  74  76
ATOM     76  C   UNL A   1      32.391  24.420  22.054  1.00  0.00     0.138 C 
BRANCH  76  77
ATOM     77  S   UNL A   1      32.709  26.168  21.842  1.00  0.00    -0.081 SA
BRANCH  77  78
ATOM     78  C   UNL A   1      31.688  27.219  22.781  1.00  0.00     0.176 A 
ATOM     79  N   UNL A   1      30.822  27.844  22.036  1.00  0.00    -0.223 NA
ATOM     80  N   UNL A   1      31.739  27.428  24.149  1.00  0.00    -0.255 N 
ATOM     81  C   UNL A   1      30.042  28.847  22.620  1.00  0.00     0.079 A 
ATOM     82  C   UNL A   1      31.544  28.768  24.512  1.00  0.00     0.266 A 
ATOM     83  C   UNL A   1      28.889  29.323  21.999  1.00  0.00     0.029 A 
ATOM     84  C   UNL A   1      30.487  29.475  23.774  1.00  0.00     0.066 A 
ATOM     85  O   UNL A   1      32.187  29.391  25.355  1.00  0.00    -0.268 OA
ATOM     86  C   UNL A   1      28.248  30.466  22.493  1.00  0.00     0.002 A 
ATOM     87  C   UNL A   1      29.903  30.655  24.240  1.00  0.00     0.016 A 
ATOM     88  C   UNL A   1      28.781  31.157  23.585  1.00  0.00     0.001 A 
BRANCH  80  89
ATOM     89  C   UNL A   1      32.052  26.464  25.186  1.00  0.00     0.051 A 
ATOM     90  C   UNL A   1      33.395  26.093  25.421  1.00  0.00     0.028 A 
ATOM     91  C   UNL A   1      31.088  25.784  25.941  1.00  0.00     0.028 A 
ATOM     92  C   UNL A   1      33.729  24.932  26.126  1.00  0.00     0.018 A 
ATOM     93  C   UNL A   1      31.404  24.581  26.595  1.00  0.00     0.018 A 
ATOM     94  C   UNL A   1      32.718  24.136  26.639  1.00  0.00     0.018 A 
ATOM     95  Br  UNL A   1      33.125  22.438  27.353  1.00  0.00    -0.051 Br
ENDBRANCH  80  89
ENDBRANCH  77  78
ENDBRANCH  76  77
ENDBRANCH  74  76
ENDBRANCH  70  71
ENDBRANCH  63  65
ENDBRANCH   1  63
TORSDOF 16
ENDMDL
MODEL 2
REMARK VINA RESULT:     -13.1      1.836      2.515
REMARK SMILES O=C(OCCOC(=O)c1ccc(-n2cc(CSc3nc4ccccc4c(=O)n3-c3ccc(Br)cc3)nn2)cc1)c1ccc(-c2c3nc(c(-c4c(F)cccc4F)c4ccc([nH]4)c(-c4c(F)cccc4F)c4nc(c(-c5c(F)cccc5F)c5ccc2[nH]5)C=C4)C=C3)cc1
REMARK SMILES IDX 6 1 5 2 4 3 3 4 2 5 1 6 40 7 41 8 93 9 42 10 92 11 43 12
REMARK SMILES IDX 44 13 45 14 86 15 46 16 91 17 85 18 87 19 47 20 90 21 84 22
REMARK SMILES IDX 83 23 48 25 74 26 57 27 73 28 58 29 61 30 72 31 88 32 59 33
REMARK SMILES IDX 60 34 71 36 89 37 62 38 49 39 50 40 55 41 51 42 52 43 54 44
REMARK SMILES IDX 56 45 53 46 75 47 76 48 81 49 77 50 78 51 80 52 82 53 79 54
REMARK SMILES IDX 63 55 64 56 69 57 65 58 66 59 68 60 70 61 67 62 7 63 8 64
REMARK SMILES IDX 9 65 10 66 39 67 11 68 38 69 12 70 13 71 14 72 37 73 15 74
REMARK SMILES IDX 36 75 16 76 17 77 18 78 19 79 28 80 20 81 26 82 21 83 25 84
REMARK SMILES IDX 27 85 22 86 24 87 23 88 29 89 30 90 35 91 31 92 34 93 32 94
REMARK SMILES IDX 33 95
REMARK H PARENT 87 24 61 35
REMARK Flexibility Score: inf
ROOT
ATOM      1  O   UNL A   1      39.932  21.461  26.478  1.00  0.00    -0.458 OA
ENDROOT
BRANCH   1   2
ATOM      2  C   UNL A   1      41.173  21.190  27.151  1.00  0.00     0.275 C 
BRANCH   2   3
ATOM      3  C   UNL A   1      42.351  21.410  26.200  1.00  0.00     0.275 C 
BRANCH   3   4
ATOM      4  O   UNL A   1      42.256  22.489  25.247  1.00  0.00    -0.458 OA
BRANCH   4   5
ATOM      5  C   UNL A   1      43.192  23.461  25.245  1.00  0.00     0.338 C 
ATOM      6  O   UNL A   1      44.188  23.452  24.538  1.00  0.00    -0.246 OA
BRANCH   5   7
ATOM      7  C   UNL A   1      42.755  24.669  25.985  1.00  0.00     0.060 A 
ATOM      8  C   UNL A   1      41.868  25.609  25.451  1.00  0.00     0.016 A 
ATOM      9  C   UNL A   1      43.253  24.838  27.283  1.00  0.00     0.016 A 
ATOM     10  C   UNL A   1      41.556  26.753  26.174  1.00  0.00     0.010 A 
ATOM     11  C   UNL A   1      42.908  25.959  28.020  1.00  0.00     0.010 A 
ATOM     12  C   UNL A   1      42.115  26.950  27.442  1.00  0.00    -0.014 A 
BRANCH  12  13
ATOM     13  C   UNL A   1      41.791  28.177  28.168  1.00  0.00     0.031 A 
ATOM     14  C   UNL A   1      42.805  29.271  28.061  1.00  0.00     0.074 A 
ATOM     15  C   UNL A   1      40.600  28.383  28.769  1.00  0.00     0.049 A 
ATOM     16  N   UNL A   1      43.532  29.807  28.986  1.00  0.00    -0.248 NA
ATOM     17  C   UNL A   1      43.124  29.750  26.713  1.00  0.00     0.031 C 
ATOM     18  C   UNL A   1      39.398  27.543  28.745  1.00  0.00     0.029 A 
ATOM     19  N   UNL A   1      40.188  29.465  29.484  1.00  0.00    -0.354 N 
ATOM     20  C   UNL A   1      44.273  30.818  28.364  1.00  0.00     0.074 A 
ATOM     21  C   UNL A   1      44.090  30.638  26.953  1.00  0.00     0.031 C 
ATOM     22  C   UNL A   1      38.342  28.248  29.209  1.00  0.00     0.029 A 
ATOM     23  C   UNL A   1      38.820  29.522  29.715  1.00  0.00     0.049 A 
ATOM     24  H   UNL A   1      40.811  30.154  29.812  1.00  0.00     0.167 HD
ATOM     25  C   UNL A   1      44.822  31.852  29.063  1.00  0.00     0.037 A 
ATOM     26  C   UNL A   1      38.133  30.559  30.257  1.00  0.00     0.037 A 
ATOM     27  C   UNL A   1      44.896  31.541  30.465  1.00  0.00     0.049 A 
ATOM     28  C   UNL A   1      39.111  31.402  30.987  1.00  0.00     0.074 A 
ATOM     29  C   UNL A   1      45.546  30.579  31.210  1.00  0.00     0.029 A 
ATOM     30  N   UNL A   1      43.916  32.050  31.280  1.00  0.00    -0.354 N 
ATOM     31  N   UNL A   1      39.744  31.007  32.058  1.00  0.00    -0.248 NA
ATOM     32  C   UNL A   1      39.737  32.489  30.251  1.00  0.00     0.031 C 
ATOM     33  C   UNL A   1      44.597  30.198  32.202  1.00  0.00     0.029 A 
ATOM     34  C   UNL A   1      43.472  31.011  32.054  1.00  0.00     0.049 A 
ATOM     35  H   UNL A   1      43.594  32.979  31.304  1.00  0.00     0.167 HD
ATOM     36  C   UNL A   1      41.036  31.486  31.900  1.00  0.00     0.074 A 
ATOM     37  C   UNL A   1      40.955  32.447  30.800  1.00  0.00     0.031 C 
ATOM     38  C   UNL A   1      42.101  30.856  32.475  1.00  0.00     0.037 A 
BRANCH  25  39
ATOM     39  C   UNL A   1      44.956  33.272  28.561  1.00  0.00     0.057 A 
ATOM     40  C   UNL A   1      43.794  34.023  28.299  1.00  0.00     0.134 A 
ATOM     41  C   UNL A   1      46.143  33.810  28.028  1.00  0.00     0.134 A 
ATOM     42  F   UNL A   1      42.596  33.621  28.753  1.00  0.00    -0.206 F 
ATOM     43  C   UNL A   1      43.799  35.163  27.486  1.00  0.00     0.040 A 
ATOM     44  C   UNL A   1      46.167  34.978  27.257  1.00  0.00     0.040 A 
ATOM     45  F   UNL A   1      47.321  33.186  28.126  1.00  0.00    -0.206 F 
ATOM     46  C   UNL A   1      44.989  35.637  26.950  1.00  0.00     0.006 A 
ENDBRANCH  25  39
BRANCH  26  47
ATOM     47  C   UNL A   1      36.777  31.046  29.909  1.00  0.00     0.057 A 
ATOM     48  C   UNL A   1      35.928  31.603  30.875  1.00  0.00     0.134 A 
ATOM     49  C   UNL A   1      36.396  31.239  28.569  1.00  0.00     0.134 A 
ATOM     50  F   UNL A   1      36.229  31.511  32.179  1.00  0.00    -0.206 F 
ATOM     51  C   UNL A   1      34.778  32.328  30.529  1.00  0.00     0.040 A 
ATOM     52  C   UNL A   1      35.252  31.959  28.210  1.00  0.00     0.040 A 
ATOM     53  F   UNL A   1      37.173  30.814  27.562  1.00  0.00    -0.206 F 
ATOM     54  C   UNL A   1      34.444  32.518  29.192  1.00  0.00     0.006 A 
ENDBRANCH  26  47
BRANCH  38  55
ATOM     55  C   UNL A   1      41.834  29.746  33.453  1.00  0.00     0.057 A 
ATOM     56  C   UNL A   1      41.758  28.389  33.102  1.00  0.00     0.134 A 
ATOM     57  C   UNL A   1      41.864  30.043  34.818  1.00  0.00     0.134 A 
ATOM     58  F   UNL A   1      41.818  27.996  31.825  1.00  0.00    -0.206 F 
ATOM     59  C   UNL A   1      41.694  27.379  34.068  1.00  0.00     0.040 A 
ATOM     60  C   UNL A   1      41.834  29.044  35.793  1.00  0.00     0.040 A 
ATOM     61  F   UNL A   1      41.994  31.315  35.229  1.00  0.00    -0.206 F 
ATOM     62  C   UNL A   1      41.744  27.706  35.419  1.00  0.00     0.006 A 
ENDBRANCH  38  55
ENDBRANCH  12  13
ENDBRANCH   5   7
ENDBRANCH   4   5
ENDBRANCH   3   4
ENDBRANCH   2   3
ENDBRANCH   1   2
BRANCH   1  63
ATOM     63  C   UNL A   1      39.361  22.662  26.744  1.00  0.00     0.338 C 
ATOM     64  O   UNL A   1      39.787  23.558  27.454  1.00  0.00    -0.246 OA
BRANCH  63  65
ATOM     65  C   UNL A   1      38.142  22.762  25.929  1.00  0.00     0.060 A 
ATOM     66  C   UNL A   1      37.340  23.900  26.053  1.00  0.00     0.018 A 
ATOM     67  C   UNL A   1      37.792  21.728  25.052  1.00  0.00     0.018 A 
ATOM     68  C   UNL A   1      36.210  24.043  25.250  1.00  0.00     0.029 A 
ATOM     69  C   UNL A   1      36.640  21.850  24.271  1.00  0.00     0.029 A 
ATOM     70  C   UNL A   1      35.877  23.025  24.352  1.00  0.00     0.066 A 
BRANCH  70  71
ATOM     71  N   UNL A   1      34.607  23.069  23.763  1.00  0.00    -0.220 N 
ATOM     72  C   UNL A   1      34.104  24.149  23.106  1.00  0.00     0.141 A 
ATOM     73  N   UNL A   1      33.671  22.118  23.853  1.00  0.00    -0.062 NA
ATOM     74  C   UNL A   1      32.820  23.825  22.753  1.00  0.00     0.093 A 
ATOM     75  N   UNL A   1      32.583  22.550  23.220  1.00  0.00    -0.134 NA
BRANCH  74  76
ATOM     76  C   UNL A   1      31.694  24.680  22.308  1.00  0.00     0.138 C 
BRANCH  76  77
ATOM     77  S   UNL A   1      31.832  26.380  21.768  1.00  0.00    -0.081 SA
BRANCH  77  78
ATOM     78  C   UNL A   1      30.943  27.529  22.726  1.00  0.00     0.176 A 
ATOM     79  N   UNL A   1      30.116  28.226  22.001  1.00  0.00    -0.223 NA
ATOM     80  N   UNL A   1      31.056  27.744  24.090  1.00  0.00    -0.255 N 
ATOM     81  C   UNL A   1      29.450  29.301  22.597  1.00  0.00     0.079 A 
ATOM     82  C   UNL A   1      30.997  29.100  24.442  1.00  0.00     0.266 A 
ATOM     83  C   UNL A   1      28.327  29.877  22.006  1.00  0.00     0.029 A 
ATOM     84  C   UNL A   1      29.987  29.895  23.730  1.00  0.00     0.066 A 
ATOM     85  O   UNL A   1      31.721  29.667  25.258  1.00  0.00    -0.268 OA
ATOM     86  C   UNL A   1      27.810  31.078  22.507  1.00  0.00     0.002 A 
ATOM     87  C   UNL A   1      29.530  31.128  24.200  1.00  0.00     0.016 A 
ATOM     88  C   UNL A   1      28.439  31.726  23.574  1.00  0.00     0.001 A 
BRANCH  80  89
ATOM     89  C   UNL A   1      31.312  26.764  25.127  1.00  0.00     0.051 A 
ATOM     90  C   UNL A   1      32.631  26.554  25.588  1.00  0.00     0.028 A 
ATOM     91  C   UNL A   1      30.333  25.920  25.666  1.00  0.00     0.028 A 
ATOM     92  C   UNL A   1      32.992  25.402  26.296  1.00  0.00     0.018 A 
ATOM     93  C   UNL A   1      30.691  24.728  26.318  1.00  0.00     0.018 A 
ATOM     94  C   UNL A   1      32.026  24.453  26.585  1.00  0.00     0.018 A 
ATOM     95  Br  UNL A   1      32.530  22.779  27.293  1.00  0.00    -0.051 Br
ENDBRANCH  80  89
ENDBRANCH  77  78
ENDBRANCH  76  77
ENDBRANCH  74  76
ENDBRANCH  70  71
ENDBRANCH  63  65
ENDBRANCH   1  63
TORSDOF 16
ENDMDL
MODEL 3
REMARK VINA RESULT:     -12.6      4.028      9.738
REMARK SMILES O=C(OCCOC(=O)c1ccc(-n2cc(CSc3nc4ccccc4c(=O)n3-c3ccc(Br)cc3)nn2)cc1)c1ccc(-c2c3nc(c(-c4c(F)cccc4F)c4ccc([nH]4)c(-c4c(F)cccc4F)c4nc(c(-c5c(F)cccc5F)c5ccc2[nH]5)C=C4)C=C3)cc1
REMARK SMILES IDX 6 1 5 2 4 3 3 4 2 5 1 6 40 7 41 8 93 9 42 10 92 11 43 12
REMARK SMILES IDX 44 13 45 14 86 15 46 16 91 17 85 18 87 19 47 20 90 21 84 22
REMARK SMILES IDX 83 23 48 25 74 26 57 27 73 28 58 29 61 30 72 31 88 32 59 33
REMARK SMILES IDX 60 34 71 36 89 37 62 38 49 39 50 40 55 41 51 42 52 43 54 44
REMARK SMILES IDX 56 45 53 46 75 47 76 48 81 49 77 50 78 51 80 52 82 53 79 54
REMARK SMILES IDX 63 55 64 56 69 57 65 58 66 59 68 60 70 61 67 62 7 63 8 64
REMARK SMILES IDX 9 65 10 66 39 67 11 68 38 69 12 70 13 71 14 72 37 73 15 74
REMARK SMILES IDX 36 75 16 76 17 77 18 78 19 79 28 80 20 81 26 82 21 83 25 84
REMARK SMILES IDX 27 85 22 86 24 87 23 88 29 89 30 90 35 91 31 92 34 93 32 94
REMARK SMILES IDX 33 95
REMARK H PARENT 87 24 61 35
REMARK Flexibility Score: inf
ROOT
ATOM      1  O   UNL A   1      33.014  36.496  31.173  1.00  0.00    -0.458 OA
ENDROOT
BRANCH   1   2
ATOM      2  C   UNL A   1      33.631  37.445  32.059  1.00  0.00     0.275 C 
BRANCH   2   3
ATOM      3  C   UNL A   1      33.799  36.836  33.453  1.00  0.00     0.275 C 
BRANCH   3   4
ATOM      4  O   UNL A   1      34.757  35.770  33.612  1.00  0.00    -0.458 OA
BRANCH   4   5
ATOM      5  C   UNL A   1      34.391  34.499  33.345  1.00  0.00     0.338 C 
ATOM      6  O   UNL A   1      33.233  34.127  33.244  1.00  0.00    -0.246 OA
BRANCH   5   7
ATOM      7  C   UNL A   1      35.536  33.658  32.921  1.00  0.00     0.060 A 
ATOM      8  C   UNL A   1      35.405  32.305  32.594  1.00  0.00     0.016 A 
ATOM      9  C   UNL A   1      36.787  34.280  32.832  1.00  0.00     0.016 A 
ATOM     10  C   UNL A   1      36.533  31.560  32.271  1.00  0.00     0.010 A 
ATOM     11  C   UNL A   1      37.905  33.545  32.470  1.00  0.00     0.010 A 
ATOM     12  C   UNL A   1      37.791  32.173  32.255  1.00  0.00    -0.014 A 
BRANCH  12  13
ATOM     13  C   UNL A   1      38.964  31.358  31.940  1.00  0.00     0.031 A 
ATOM     14  C   UNL A   1      39.807  30.970  33.112  1.00  0.00     0.074 A 
ATOM     15  C   UNL A   1      39.199  30.853  30.710  1.00  0.00     0.049 A 
ATOM     16  N   UNL A   1      41.032  31.286  33.379  1.00  0.00    -0.248 NA
ATOM     17  C   UNL A   1      39.149  30.215  34.183  1.00  0.00     0.031 C 
ATOM     18  C   UNL A   1      38.348  30.900  29.517  1.00  0.00     0.029 A 
ATOM     19  N   UNL A   1      40.254  30.102  30.290  1.00  0.00    -0.354 N 
ATOM     20  C   UNL A   1      41.358  30.621  34.567  1.00  0.00     0.074 A 
ATOM     21  C   UNL A   1      40.125  30.102  35.085  1.00  0.00     0.031 C 
ATOM     22  C   UNL A   1      38.808  30.022  28.597  1.00  0.00     0.029 A 
ATOM     23  C   UNL A   1      40.070  29.477  29.065  1.00  0.00     0.049 A 
ATOM     24  H   UNL A   1      41.082  30.009  30.816  1.00  0.00     0.167 HD
ATOM     25  C   UNL A   1      42.647  30.374  34.932  1.00  0.00     0.037 A 
ATOM     26  C   UNL A   1      40.887  28.556  28.495  1.00  0.00     0.037 A 
ATOM     27  C   UNL A   1      43.557  31.214  34.201  1.00  0.00     0.049 A 
ATOM     28  C   UNL A   1      42.214  28.681  29.147  1.00  0.00     0.074 A 
ATOM     29  C   UNL A   1      43.754  32.576  34.106  1.00  0.00     0.029 A 
ATOM     30  N   UNL A   1      44.192  30.666  33.115  1.00  0.00    -0.354 N 
ATOM     31  N   UNL A   1      42.982  29.728  29.021  1.00  0.00    -0.248 NA
ATOM     32  C   UNL A   1      42.463  27.855  30.318  1.00  0.00     0.031 C 
ATOM     33  C   UNL A   1      44.016  32.802  32.724  1.00  0.00     0.029 A 
ATOM     34  C   UNL A   1      44.052  31.560  32.086  1.00  0.00     0.049 A 
ATOM     35  H   UNL A   1      44.657  29.799  33.080  1.00  0.00     0.167 HD
ATOM     36  C   UNL A   1      43.510  29.932  30.288  1.00  0.00     0.074 A 
ATOM     37  C   UNL A   1      43.207  28.707  31.029  1.00  0.00     0.031 C 
ATOM     38  C   UNL A   1      43.889  31.174  30.707  1.00  0.00     0.037 A 
BRANCH  25  39
ATOM     39  C   UNL A   1      43.128  29.143  35.667  1.00  0.00     0.057 A 
ATOM     40  C   UNL A   1      43.975  29.293  36.782  1.00  0.00     0.134 A 
ATOM     41  C   UNL A   1      43.061  27.836  35.144  1.00  0.00     0.134 A 
ATOM     42  F   UNL A   1      44.127  30.487  37.376  1.00  0.00    -0.206 F 
ATOM     43  C   UNL A   1      44.769  28.249  37.273  1.00  0.00     0.040 A 
ATOM     44  C   UNL A   1      43.811  26.774  35.660  1.00  0.00     0.040 A 
ATOM     45  F   UNL A   1      42.359  27.539  34.046  1.00  0.00    -0.206 F 
ATOM     46  C   UNL A   1      44.698  26.985  36.703  1.00  0.00     0.006 A 
ENDBRANCH  25  39
BRANCH  26  47
ATOM     47  C   UNL A   1      40.515  27.373  27.684  1.00  0.00     0.057 A 
ATOM     48  C   UNL A   1      41.099  27.129  26.434  1.00  0.00     0.134 A 
ATOM     49  C   UNL A   1      39.793  26.305  28.247  1.00  0.00     0.134 A 
ATOM     50  F   UNL A   1      41.844  28.069  25.836  1.00  0.00    -0.206 F 
ATOM     51  C   UNL A   1      40.988  25.888  25.788  1.00  0.00     0.040 A 
ATOM     52  C   UNL A   1      39.675  25.063  27.614  1.00  0.00     0.040 A 
ATOM     53  F   UNL A   1      39.257  26.403  29.472  1.00  0.00    -0.206 F 
ATOM     54  C   UNL A   1      40.284  24.846  26.385  1.00  0.00     0.006 A 
ENDBRANCH  26  47
BRANCH  38  55
ATOM     55  C   UNL A   1      43.914  32.292  29.702  1.00  0.00     0.057 A 
ATOM     56  C   UNL A   1      42.852  33.185  29.493  1.00  0.00     0.134 A 
ATOM     57  C   UNL A   1      45.128  32.598  29.080  1.00  0.00     0.134 A 
ATOM     58  F   UNL A   1      41.680  33.031  30.118  1.00  0.00    -0.206 F 
ATOM     59  C   UNL A   1      42.990  34.319  28.685  1.00  0.00     0.040 A 
ATOM     60  C   UNL A   1      45.289  33.743  28.298  1.00  0.00     0.040 A 
ATOM     61  F   UNL A   1      46.204  31.820  29.282  1.00  0.00    -0.206 F 
ATOM     62  C   UNL A   1      44.216  34.606  28.093  1.00  0.00     0.006 A 
ENDBRANCH  38  55
ENDBRANCH  12  13
ENDBRANCH   5   7
ENDBRANCH   4   5
ENDBRANCH   3   4
ENDBRANCH   2   3
ENDBRANCH   1   2
BRANCH   1  63
ATOM     63  C   UNL A   1      33.254  36.673  29.850  1.00  0.00     0.338 C 
ATOM     64  O   UNL A   1      33.275  37.719  29.222  1.00  0.00    -0.246 OA
BRANCH  63  65
ATOM     65  C   UNL A   1      33.599  35.361  29.283  1.00  0.00     0.060 A 
ATOM     66  C   UNL A   1      32.705  34.754  28.397  1.00  0.00     0.018 A 
ATOM     67  C   UNL A   1      34.800  34.735  29.635  1.00  0.00     0.018 A 
ATOM     68  C   UNL A   1      33.036  33.538  27.804  1.00  0.00     0.029 A 
ATOM     69  C   UNL A   1      35.121  33.498  29.071  1.00  0.00     0.029 A 
ATOM     70  C   UNL A   1      34.250  32.926  28.131  1.00  0.00     0.066 A 
BRANCH  70  71
ATOM     71  N   UNL A   1      34.432  31.595  27.736  1.00  0.00    -0.220 N 
ATOM     72  C   UNL A   1      33.420  30.706  27.544  1.00  0.00     0.141 A 
ATOM     73  N   UNL A   1      35.610  30.975  27.601  1.00  0.00    -0.062 NA
ATOM     74  C   UNL A   1      34.009  29.505  27.246  1.00  0.00     0.093 A 
ATOM     75  N   UNL A   1      35.372  29.706  27.277  1.00  0.00    -0.134 NA
BRANCH  74  76
ATOM     76  C   UNL A   1      33.456  28.129  27.245  1.00  0.00     0.138 C 
BRANCH  76  77
ATOM     77  S   UNL A   1      31.769  27.690  26.838  1.00  0.00    -0.081 SA
BRANCH  77  78
ATOM     78  C   UNL A   1      31.602  26.556  25.528  1.00  0.00     0.176 A 
ATOM     79  N   UNL A   1      31.724  25.325  25.936  1.00  0.00    -0.223 NA
ATOM     80  N   UNL A   1      31.379  26.849  24.193  1.00  0.00    -0.255 N 
ATOM     81  C   UNL A   1      31.778  24.308  24.978  1.00  0.00     0.079 A 
ATOM     82  C   UNL A   1      32.110  26.033  23.319  1.00  0.00     0.266 A 
ATOM     83  C   UNL A   1      31.576  22.974  25.324  1.00  0.00     0.029 A 
ATOM     84  C   UNL A   1      32.168  24.610  23.682  1.00  0.00     0.066 A 
ATOM     85  O   UNL A   1      32.714  26.407  22.315  1.00  0.00    -0.268 OA
ATOM     86  C   UNL A   1      31.845  21.961  24.396  1.00  0.00     0.002 A 
ATOM     87  C   UNL A   1      32.509  23.612  22.766  1.00  0.00     0.016 A 
ATOM     88  C   UNL A   1      32.354  22.278  23.134  1.00  0.00     0.001 A 
BRANCH  80  89
ATOM     89  C   UNL A   1      30.579  27.924  23.639  1.00  0.00     0.051 A 
ATOM     90  C   UNL A   1      31.056  29.253  23.686  1.00  0.00     0.028 A 
ATOM     91  C   UNL A   1      29.290  27.754  23.122  1.00  0.00     0.028 A 
ATOM     92  C   UNL A   1      30.205  30.351  23.514  1.00  0.00     0.018 A 
ATOM     93  C   UNL A   1      28.409  28.844  23.012  1.00  0.00     0.018 A 
ATOM     94  C   UNL A   1      28.862  30.133  23.259  1.00  0.00     0.018 A 
ATOM     95  Br  UNL A   1      27.650  31.578  23.292  1.00  0.00    -0.051 Br
ENDBRANCH  80  89
ENDBRANCH  77  78
ENDBRANCH  76  77
ENDBRANCH  74  76
ENDBRANCH  70  71
ENDBRANCH  63  65
ENDBRANCH   1  63
TORSDOF 16
ENDMDL
