MODEL 1
REMARK VINA RESULT:     -12.2      0.000      0.000
REMARK SMILES C[C@H](C(=O)OCCOC(=O)c1ccc(-c2c3nc(c(-c4c(F)cccc4F)c4ccc([nH]4)c(-c4c(F)cccc4F)c4nc(c(-c5c(F)cccc5F)c5ccc2[nH]5)C=C4)C=C3)cc1)c1ccc2c3cc(Cl)ccc3n(C(=O)c3cocn3)c2c1
REMARK SMILES IDX 6 1 5 2 3 3 4 4 2 5 1 6 65 7 66 8 85 9 67 10 84 11 68 12
REMARK SMILES IDX 76 13 69 14 75 15 70 16 74 17 71 18 73 19 72 20 77 21 78 22
REMARK SMILES IDX 79 23 80 24 83 25 81 26 82 27 7 28 8 29 9 30 10 31 11 32
REMARK SMILES IDX 12 33 64 34 13 35 63 36 14 37 15 38 16 39 57 40 17 41 62 42
REMARK SMILES IDX 56 43 58 44 18 45 61 46 55 47 54 48 19 50 45 51 28 52 44 53
REMARK SMILES IDX 29 54 32 55 43 56 59 57 30 58 31 59 42 61 60 62 33 63 20 64
REMARK SMILES IDX 21 65 26 66 22 67 23 68 25 69 27 70 24 71 46 72 47 73 52 74
REMARK SMILES IDX 48 75 49 76 51 77 53 78 50 79 34 80 35 81 40 82 36 83 37 84
REMARK SMILES IDX 39 85 41 86 38 87
REMARK H PARENT 58 49 32 60
REMARK Flexibility Score: inf
ROOT
ATOM      1  C   UNL A   1      31.231  29.176  24.144  1.00  0.00     0.274 C 
ENDROOT
BRANCH   1   2
ATOM      2  O   UNL A   1      32.366  28.294  24.105  1.00  0.00    -0.462 OA
BRANCH   2   3
ATOM      3  C   UNL A   1      32.081  26.986  24.343  1.00  0.00     0.313 C 
ATOM      4  O   UNL A   1      31.447  26.274  23.571  1.00  0.00    -0.252 OA
BRANCH   3   5
ATOM      5  C   UNL A   1      32.662  26.471  25.660  1.00  0.00     0.126 C 
ATOM      6  C   UNL A   1      31.920  26.984  26.897  1.00  0.00     0.025 C 
BRANCH   5   7
ATOM      7  C   UNL A   1      32.841  24.963  25.699  1.00  0.00    -0.032 A 
ATOM      8  C   UNL A   1      31.867  24.171  26.319  1.00  0.00     0.005 A 
ATOM      9  C   UNL A   1      33.969  24.347  25.140  1.00  0.00     0.032 A 
ATOM     10  C   UNL A   1      31.934  22.776  26.267  1.00  0.00     0.011 A 
ATOM     11  C   UNL A   1      34.075  22.950  25.178  1.00  0.00     0.058 A 
ATOM     12  C   UNL A   1      33.036  22.161  25.641  1.00  0.00     0.008 A 
ATOM     13  N   UNL A   1      35.131  22.118  24.792  1.00  0.00    -0.274 N 
ATOM     14  C   UNL A   1      33.358  20.821  25.309  1.00  0.00     0.009 A 
ATOM     15  C   UNL A   1      34.674  20.795  24.821  1.00  0.00     0.057 A 
ATOM     16  C   UNL A   1      32.619  19.624  25.409  1.00  0.00     0.031 A 
ATOM     17  C   UNL A   1      35.306  19.567  24.554  1.00  0.00     0.029 A 
ATOM     18  C   UNL A   1      33.225  18.421  25.068  1.00  0.00     0.041 A 
ATOM     19  C   UNL A   1      34.556  18.388  24.672  1.00  0.00     0.023 A 
ATOM     20  Cl  UNL A   1      32.314  16.964  25.160  1.00  0.00    -0.084 Cl
BRANCH  13  21
ATOM     21  C   UNL A   1      36.429  22.613  24.503  1.00  0.00     0.284 C 
ATOM     22  O   UNL A   1      36.664  22.801  23.308  1.00  0.00    -0.266 OA
BRANCH  21  23
ATOM     23  C   UNL A   1      37.488  22.838  25.478  1.00  0.00     0.167 A 
ATOM     24  C   UNL A   1      38.545  22.026  25.826  1.00  0.00     0.231 A 
ATOM     25  N   UNL A   1      37.654  24.065  26.111  1.00  0.00    -0.211 NA
ATOM     26  O   UNL A   1      39.366  22.721  26.668  1.00  0.00    -0.451 OA
ATOM     27  C   UNL A   1      38.773  23.939  26.779  1.00  0.00     0.308 A 
ENDBRANCH  21  23
ENDBRANCH  13  21
ENDBRANCH   5   7
ENDBRANCH   3   5
ENDBRANCH   2   3
ENDBRANCH   1   2
BRANCH   1  28
ATOM     28  C   UNL A   1      31.385  30.168  25.297  1.00  0.00     0.275 C 
BRANCH  28  29
ATOM     29  O   UNL A   1      32.739  30.155  25.797  1.00  0.00    -0.458 OA
BRANCH  29  30
ATOM     30  C   UNL A   1      33.008  31.053  26.774  1.00  0.00     0.338 C 
ATOM     31  O   UNL A   1      32.262  31.921  27.195  1.00  0.00    -0.246 OA
BRANCH  30  32
ATOM     32  C   UNL A   1      34.351  30.837  27.355  1.00  0.00     0.060 A 
ATOM     33  C   UNL A   1      34.794  29.567  27.721  1.00  0.00     0.016 A 
ATOM     34  C   UNL A   1      35.120  31.951  27.687  1.00  0.00     0.016 A 
ATOM     35  C   UNL A   1      35.923  29.421  28.528  1.00  0.00     0.010 A 
ATOM     36  C   UNL A   1      36.334  31.786  28.361  1.00  0.00     0.010 A 
ATOM     37  C   UNL A   1      36.739  30.521  28.821  1.00  0.00    -0.014 A 
BRANCH  37  38
ATOM     38  C   UNL A   1      38.027  30.364  29.556  1.00  0.00     0.031 A 
ATOM     39  C   UNL A   1      39.147  29.540  28.974  1.00  0.00     0.074 A 
ATOM     40  C   UNL A   1      38.173  30.898  30.787  1.00  0.00     0.049 A 
ATOM     41  N   UNL A   1      40.209  29.047  29.561  1.00  0.00    -0.248 NA
ATOM     42  C   UNL A   1      39.046  29.203  27.544  1.00  0.00     0.031 C 
ATOM     43  C   UNL A   1      37.195  31.748  31.472  1.00  0.00     0.029 A 
ATOM     44  N   UNL A   1      39.198  30.786  31.696  1.00  0.00    -0.354 N 
ATOM     45  C   UNL A   1      40.865  28.292  28.596  1.00  0.00     0.074 A 
ATOM     46  C   UNL A   1      40.081  28.389  27.383  1.00  0.00     0.031 C 
ATOM     47  C   UNL A   1      37.673  32.098  32.673  1.00  0.00     0.029 A 
ATOM     48  C   UNL A   1      38.936  31.410  32.893  1.00  0.00     0.049 A 
ATOM     49  H   UNL A   1      40.036  30.304  31.509  1.00  0.00     0.167 HD
ATOM     50  C   UNL A   1      42.012  27.580  28.715  1.00  0.00     0.037 A 
ATOM     51  C   UNL A   1      39.597  31.386  34.065  1.00  0.00     0.037 A 
ATOM     52  C   UNL A   1      42.812  27.530  29.914  1.00  0.00     0.049 A 
ATOM     53  C   UNL A   1      40.838  30.553  34.187  1.00  0.00     0.074 A 
ATOM     54  C   UNL A   1      44.011  26.867  30.124  1.00  0.00     0.029 A 
ATOM     55  N   UNL A   1      42.500  28.173  31.102  1.00  0.00    -0.354 N 
ATOM     56  N   UNL A   1      41.430  29.815  33.281  1.00  0.00    -0.248 NA
ATOM     57  C   UNL A   1      41.493  30.536  35.501  1.00  0.00     0.031 C 
ATOM     58  C   UNL A   1      44.399  27.071  31.452  1.00  0.00     0.029 A 
ATOM     59  C   UNL A   1      43.472  27.907  32.054  1.00  0.00     0.049 A 
ATOM     60  H   UNL A   1      41.707  28.737  31.248  1.00  0.00     0.167 HD
ATOM     61  C   UNL A   1      42.540  29.266  33.907  1.00  0.00     0.074 A 
ATOM     62  C   UNL A   1      42.546  29.768  35.266  1.00  0.00     0.031 C 
ATOM     63  C   UNL A   1      43.471  28.421  33.400  1.00  0.00     0.037 A 
BRANCH  50  64
ATOM     64  C   UNL A   1      42.461  26.765  27.534  1.00  0.00     0.057 A 
ATOM     65  C   UNL A   1      43.219  27.309  26.490  1.00  0.00     0.134 A 
ATOM     66  C   UNL A   1      42.168  25.394  27.467  1.00  0.00     0.134 A 
ATOM     67  F   UNL A   1      43.529  28.615  26.485  1.00  0.00    -0.206 F 
ATOM     68  C   UNL A   1      43.649  26.529  25.414  1.00  0.00     0.040 A 
ATOM     69  C   UNL A   1      42.615  24.599  26.411  1.00  0.00     0.040 A 
ATOM     70  F   UNL A   1      41.454  24.803  28.436  1.00  0.00    -0.206 F 
ATOM     71  C   UNL A   1      43.353  25.168  25.376  1.00  0.00     0.006 A 
ENDBRANCH  50  64
BRANCH  51  72
ATOM     72  C   UNL A   1      39.068  32.142  35.229  1.00  0.00     0.057 A 
ATOM     73  C   UNL A   1      39.327  33.509  35.376  1.00  0.00     0.134 A 
ATOM     74  C   UNL A   1      38.285  31.524  36.213  1.00  0.00     0.134 A 
ATOM     75  F   UNL A   1      40.088  34.151  34.478  1.00  0.00    -0.206 F 
ATOM     76  C   UNL A   1      38.837  34.231  36.465  1.00  0.00     0.040 A 
ATOM     77  C   UNL A   1      37.763  32.241  37.290  1.00  0.00     0.040 A 
ATOM     78  F   UNL A   1      37.995  30.217  36.128  1.00  0.00    -0.206 F 
ATOM     79  C   UNL A   1      38.045  33.598  37.422  1.00  0.00     0.006 A 
ENDBRANCH  51  72
BRANCH  63  80
ATOM     80  C   UNL A   1      44.598  28.027  34.308  1.00  0.00     0.057 A 
ATOM     81  C   UNL A   1      44.526  26.903  35.139  1.00  0.00     0.134 A 
ATOM     82  C   UNL A   1      45.781  28.778  34.335  1.00  0.00     0.134 A 
ATOM     83  F   UNL A   1      43.414  26.153  35.173  1.00  0.00    -0.206 F 
ATOM     84  C   UNL A   1      45.579  26.553  35.984  1.00  0.00     0.040 A 
ATOM     85  C   UNL A   1      46.852  28.422  35.154  1.00  0.00     0.040 A 
ATOM     86  F   UNL A   1      45.917  29.864  33.558  1.00  0.00    -0.206 F 
ATOM     87  C   UNL A   1      46.749  27.310  35.988  1.00  0.00     0.006 A 
ENDBRANCH  63  80
ENDBRANCH  37  38
ENDBRANCH  30  32
ENDBRANCH  29  30
ENDBRANCH  28  29
ENDBRANCH   1  28
TORSDOF 14
ENDMDL
MODEL 2
REMARK VINA RESULT:     -12.2      1.632      3.040
REMARK SMILES C[C@H](C(=O)OCCOC(=O)c1ccc(-c2c3nc(c(-c4c(F)cccc4F)c4ccc([nH]4)c(-c4c(F)cccc4F)c4nc(c(-c5c(F)cccc5F)c5ccc2[nH]5)C=C4)C=C3)cc1)c1ccc2c3cc(Cl)ccc3n(C(=O)c3cocn3)c2c1
REMARK SMILES IDX 6 1 5 2 3 3 4 4 2 5 1 6 65 7 66 8 85 9 67 10 84 11 68 12
REMARK SMILES IDX 76 13 69 14 75 15 70 16 74 17 71 18 73 19 72 20 77 21 78 22
REMARK SMILES IDX 79 23 80 24 83 25 81 26 82 27 7 28 8 29 9 30 10 31 11 32
REMARK SMILES IDX 12 33 64 34 13 35 63 36 14 37 15 38 16 39 57 40 17 41 62 42
REMARK SMILES IDX 56 43 58 44 18 45 61 46 55 47 54 48 19 50 45 51 28 52 44 53
REMARK SMILES IDX 29 54 32 55 43 56 59 57 30 58 31 59 42 61 60 62 33 63 20 64
REMARK SMILES IDX 21 65 26 66 22 67 23 68 25 69 27 70 24 71 46 72 47 73 52 74
REMARK SMILES IDX 48 75 49 76 51 77 53 78 50 79 34 80 35 81 40 82 36 83 37 84
REMARK SMILES IDX 39 85 41 86 38 87
REMARK H PARENT 58 49 32 60
REMARK Flexibility Score: inf
ROOT
ATOM      1  C   UNL A   1      31.391  29.242  23.951  1.00  0.00     0.274 C 
ENDROOT
BRANCH   1   2
ATOM      2  O   UNL A   1      31.561  27.830  23.741  1.00  0.00    -0.462 OA
BRANCH   2   3
ATOM      3  C   UNL A   1      30.558  27.055  24.236  1.00  0.00     0.313 C 
ATOM      4  O   UNL A   1      29.454  26.950  23.711  1.00  0.00    -0.252 OA
BRANCH   3   5
ATOM      5  C   UNL A   1      30.954  26.291  25.500  1.00  0.00     0.126 C 
ATOM      6  C   UNL A   1      29.870  25.329  25.995  1.00  0.00     0.025 C 
BRANCH   5   7
ATOM      7  C   UNL A   1      32.307  25.609  25.401  1.00  0.00    -0.032 A 
ATOM      8  C   UNL A   1      33.469  26.342  25.672  1.00  0.00     0.005 A 
ATOM      9  C   UNL A   1      32.419  24.262  25.030  1.00  0.00     0.032 A 
ATOM     10  C   UNL A   1      34.718  25.719  25.712  1.00  0.00     0.011 A 
ATOM     11  C   UNL A   1      33.689  23.670  24.979  1.00  0.00     0.058 A 
ATOM     12  C   UNL A   1      34.817  24.348  25.407  1.00  0.00     0.008 A 
ATOM     13  N   UNL A   1      34.070  22.397  24.544  1.00  0.00    -0.274 N 
ATOM     14  C   UNL A   1      35.870  23.399  25.466  1.00  0.00     0.009 A 
ATOM     15  C   UNL A   1      35.413  22.202  24.892  1.00  0.00     0.057 A 
ATOM     16  C   UNL A   1      37.188  23.488  25.957  1.00  0.00     0.031 A 
ATOM     17  C   UNL A   1      36.302  21.132  24.683  1.00  0.00     0.029 A 
ATOM     18  C   UNL A   1      38.039  22.397  25.819  1.00  0.00     0.041 A 
ATOM     19  C   UNL A   1      37.613  21.247  25.168  1.00  0.00     0.023 A 
ATOM     20  Cl  UNL A   1      39.639  22.494  26.445  1.00  0.00    -0.084 Cl
BRANCH  13  21
ATOM     21  C   UNL A   1      33.198  21.542  23.822  1.00  0.00     0.284 C 
ATOM     22  O   UNL A   1      32.713  22.029  22.800  1.00  0.00    -0.266 OA
BRANCH  21  23
ATOM     23  C   UNL A   1      32.795  20.201  24.229  1.00  0.00     0.167 A 
ATOM     24  C   UNL A   1      32.397  19.133  23.456  1.00  0.00     0.231 A 
ATOM     25  N   UNL A   1      32.926  19.764  25.543  1.00  0.00    -0.211 NA
ATOM     26  O   UNL A   1      32.272  18.037  24.261  1.00  0.00    -0.451 OA
ATOM     27  C   UNL A   1      32.620  18.491  25.494  1.00  0.00     0.308 A 
ENDBRANCH  21  23
ENDBRANCH  13  21
ENDBRANCH   5   7
ENDBRANCH   3   5
ENDBRANCH   2   3
ENDBRANCH   1   2
BRANCH   1  28
ATOM     28  C   UNL A   1      31.471  29.557  25.445  1.00  0.00     0.275 C 
BRANCH  28  29
ATOM     29  O   UNL A   1      32.810  29.955  25.805  1.00  0.00    -0.458 OA
BRANCH  29  30
ATOM     30  C   UNL A   1      32.897  31.000  26.663  1.00  0.00     0.338 C 
ATOM     31  O   UNL A   1      32.090  31.905  26.797  1.00  0.00    -0.246 OA
BRANCH  30  32
ATOM     32  C   UNL A   1      34.106  30.907  27.511  1.00  0.00     0.060 A 
ATOM     33  C   UNL A   1      34.840  32.039  27.862  1.00  0.00     0.016 A 
ATOM     34  C   UNL A   1      34.603  29.644  27.827  1.00  0.00     0.016 A 
ATOM     35  C   UNL A   1      36.121  31.907  28.401  1.00  0.00     0.010 A 
ATOM     36  C   UNL A   1      35.817  29.522  28.509  1.00  0.00     0.010 A 
ATOM     37  C   UNL A   1      36.611  30.651  28.779  1.00  0.00    -0.014 A 
BRANCH  37  38
ATOM     38  C   UNL A   1      37.914  30.503  29.491  1.00  0.00     0.031 A 
ATOM     39  C   UNL A   1      39.025  29.680  28.891  1.00  0.00     0.074 A 
ATOM     40  C   UNL A   1      38.080  31.043  30.716  1.00  0.00     0.049 A 
ATOM     41  N   UNL A   1      40.100  29.195  29.460  1.00  0.00    -0.248 NA
ATOM     42  C   UNL A   1      38.899  29.337  27.465  1.00  0.00     0.031 C 
ATOM     43  C   UNL A   1      37.112  31.893  31.415  1.00  0.00     0.029 A 
ATOM     44  N   UNL A   1      39.122  30.939  31.606  1.00  0.00    -0.354 N 
ATOM     45  C   UNL A   1      40.741  28.437  28.486  1.00  0.00     0.074 A 
ATOM     46  C   UNL A   1      39.934  28.526  27.288  1.00  0.00     0.031 C 
ATOM     47  C   UNL A   1      37.611  32.250  32.606  1.00  0.00     0.029 A 
ATOM     48  C   UNL A   1      38.880  31.568  32.805  1.00  0.00     0.049 A 
ATOM     49  H   UNL A   1      39.959  30.461  31.406  1.00  0.00     0.167 HD
ATOM     50  C   UNL A   1      41.893  27.731  28.588  1.00  0.00     0.037 A 
ATOM     51  C   UNL A   1      39.563  31.552  33.964  1.00  0.00     0.037 A 
ATOM     52  C   UNL A   1      42.716  27.689  29.771  1.00  0.00     0.049 A 
ATOM     53  C   UNL A   1      40.810  30.725  34.067  1.00  0.00     0.074 A 
ATOM     54  C   UNL A   1      43.921  27.033  29.962  1.00  0.00     0.029 A 
ATOM     55  N   UNL A   1      42.424  28.337  30.962  1.00  0.00    -0.354 N 
ATOM     56  N   UNL A   1      41.388  29.985  33.153  1.00  0.00    -0.248 NA
ATOM     57  C   UNL A   1      41.490  30.717  35.368  1.00  0.00     0.031 C 
ATOM     58  C   UNL A   1      44.333  27.245  31.282  1.00  0.00     0.029 A 
ATOM     59  C   UNL A   1      43.415  28.080  31.897  1.00  0.00     0.049 A 
ATOM     60  H   UNL A   1      41.631  28.898  31.120  1.00  0.00     0.167 HD
ATOM     61  C   UNL A   1      42.512  29.444  33.760  1.00  0.00     0.074 A 
ATOM     62  C   UNL A   1      42.541  29.952  35.116  1.00  0.00     0.031 C 
ATOM     63  C   UNL A   1      43.436  28.600  33.240  1.00  0.00     0.037 A 
BRANCH  50  64
ATOM     64  C   UNL A   1      42.323  26.912  27.402  1.00  0.00     0.057 A 
ATOM     65  C   UNL A   1      41.947  25.573  27.237  1.00  0.00     0.134 A 
ATOM     66  C   UNL A   1      43.088  27.494  26.380  1.00  0.00     0.134 A 
ATOM     67  F   UNL A   1      41.222  24.950  28.179  1.00  0.00    -0.206 F 
ATOM     68  C   UNL A   1      42.335  24.837  26.115  1.00  0.00     0.040 A 
ATOM     69  C   UNL A   1      43.458  26.777  25.241  1.00  0.00     0.040 A 
ATOM     70  F   UNL A   1      43.476  28.775  26.465  1.00  0.00    -0.206 F 
ATOM     71  C   UNL A   1      43.087  25.441  25.109  1.00  0.00     0.006 A 
ENDBRANCH  50  64
BRANCH  51  72
ATOM     72  C   UNL A   1      39.054  32.312  35.135  1.00  0.00     0.057 A 
ATOM     73  C   UNL A   1      38.291  31.682  36.123  1.00  0.00     0.134 A 
ATOM     74  C   UNL A   1      39.325  33.677  35.300  1.00  0.00     0.134 A 
ATOM     75  F   UNL A   1      37.980  30.383  36.010  1.00  0.00    -0.206 F 
ATOM     76  C   UNL A   1      37.805  32.384  37.227  1.00  0.00     0.040 A 
ATOM     77  C   UNL A   1      38.872  34.383  36.415  1.00  0.00     0.040 A 
ATOM     78  F   UNL A   1      40.057  34.339  34.391  1.00  0.00    -0.206 F 
ATOM     79  C   UNL A   1      38.103  33.737  37.380  1.00  0.00     0.006 A 
ENDBRANCH  51  72
BRANCH  63  80
ATOM     80  C   UNL A   1      44.582  28.215  34.128  1.00  0.00     0.057 A 
ATOM     81  C   UNL A   1      45.745  28.990  34.218  1.00  0.00     0.134 A 
ATOM     82  C   UNL A   1      44.511  27.060  34.919  1.00  0.00     0.134 A 
ATOM     83  F   UNL A   1      45.884  30.098  33.474  1.00  0.00    -0.206 F 
ATOM     84  C   UNL A   1      46.807  28.617  35.043  1.00  0.00     0.040 A 
ATOM     85  C   UNL A   1      45.553  26.693  35.768  1.00  0.00     0.040 A 
ATOM     86  F   UNL A   1      43.421  26.277  34.883  1.00  0.00    -0.206 F 
ATOM     87  C   UNL A   1      46.709  27.468  35.826  1.00  0.00     0.006 A 
ENDBRANCH  63  80
ENDBRANCH  37  38
ENDBRANCH  30  32
ENDBRANCH  29  30
ENDBRANCH  28  29
ENDBRANCH   1  28
TORSDOF 14
ENDMDL
MODEL 3
REMARK VINA RESULT:     -12.1      4.229      8.288
REMARK SMILES C[C@H](C(=O)OCCOC(=O)c1ccc(-c2c3nc(c(-c4c(F)cccc4F)c4ccc([nH]4)c(-c4c(F)cccc4F)c4nc(c(-c5c(F)cccc5F)c5ccc2[nH]5)C=C4)C=C3)cc1)c1ccc2c3cc(Cl)ccc3n(C(=O)c3cocn3)c2c1
REMARK SMILES IDX 6 1 5 2 3 3 4 4 2 5 1 6 65 7 66 8 85 9 67 10 84 11 68 12
REMARK SMILES IDX 76 13 69 14 75 15 70 16 74 17 71 18 73 19 72 20 77 21 78 22
REMARK SMILES IDX 79 23 80 24 83 25 81 26 82 27 7 28 8 29 9 30 10 31 11 32
REMARK SMILES IDX 12 33 64 34 13 35 63 36 14 37 15 38 16 39 57 40 17 41 62 42
REMARK SMILES IDX 56 43 58 44 18 45 61 46 55 47 54 48 19 50 45 51 28 52 44 53
REMARK SMILES IDX 29 54 32 55 43 56 59 57 30 58 31 59 42 61 60 62 33 63 20 64
REMARK SMILES IDX 21 65 26 66 22 67 23 68 25 69 27 70 24 71 46 72 47 73 52 74
REMARK SMILES IDX 48 75 49 76 51 77 53 78 50 79 34 80 35 81 40 82 36 83 37 84
REMARK SMILES IDX 39 85 41 86 38 87
REMARK H PARENT 58 49 32 60
REMARK Flexibility Score: inf
ROOT
ATOM      1  C   UNL A   1      34.507  33.820  28.610  1.00  0.00     0.274 C 
ENDROOT
BRANCH   1   2
ATOM      2  O   UNL A   1      33.312  33.400  27.928  1.00  0.00    -0.462 OA
BRANCH   2   3
ATOM      3  C   UNL A   1      33.339  32.120  27.467  1.00  0.00     0.313 C 
ATOM      4  O   UNL A   1      34.369  31.470  27.320  1.00  0.00    -0.252 OA
BRANCH   3   5
ATOM      5  C   UNL A   1      31.949  31.551  27.184  1.00  0.00     0.126 C 
ATOM      6  C   UNL A   1      31.110  32.427  26.249  1.00  0.00     0.025 C 
BRANCH   5   7
ATOM      7  C   UNL A   1      31.964  30.101  26.730  1.00  0.00    -0.032 A 
ATOM      8  C   UNL A   1      32.529  29.127  27.562  1.00  0.00     0.005 A 
ATOM      9  C   UNL A   1      31.438  29.720  25.489  1.00  0.00     0.032 A 
ATOM     10  C   UNL A   1      32.451  27.771  27.235  1.00  0.00     0.011 A 
ATOM     11  C   UNL A   1      31.451  28.365  25.127  1.00  0.00     0.058 A 
ATOM     12  C   UNL A   1      31.857  27.387  26.018  1.00  0.00     0.008 A 
ATOM     13  N   UNL A   1      31.090  27.754  23.923  1.00  0.00    -0.274 N 
ATOM     14  C   UNL A   1      31.511  26.138  25.441  1.00  0.00     0.009 A 
ATOM     15  C   UNL A   1      31.074  26.368  24.127  1.00  0.00     0.057 A 
ATOM     16  C   UNL A   1      31.557  24.823  25.949  1.00  0.00     0.031 A 
ATOM     17  C   UNL A   1      30.806  25.286  23.269  1.00  0.00     0.029 A 
ATOM     18  C   UNL A   1      31.215  23.762  25.119  1.00  0.00     0.041 A 
ATOM     19  C   UNL A   1      30.871  23.986  23.792  1.00  0.00     0.023 A 
ATOM     20  Cl  UNL A   1      31.242  22.160  25.747  1.00  0.00    -0.084 Cl
BRANCH  13  21
ATOM     21  C   UNL A   1      30.862  28.487  22.729  1.00  0.00     0.284 C 
ATOM     22  O   UNL A   1      31.858  28.674  22.030  1.00  0.00    -0.266 OA
BRANCH  21  23
ATOM     23  C   UNL A   1      29.590  29.074  22.325  1.00  0.00     0.167 A 
ATOM     24  C   UNL A   1      28.341  28.929  22.886  1.00  0.00     0.231 A 
ATOM     25  N   UNL A   1      29.515  30.050  21.337  1.00  0.00    -0.211 NA
ATOM     26  O   UNL A   1      27.484  29.792  22.264  1.00  0.00    -0.451 OA
ATOM     27  C   UNL A   1      28.265  30.440  21.359  1.00  0.00     0.308 A 
ENDBRANCH  21  23
ENDBRANCH  13  21
ENDBRANCH   5   7
ENDBRANCH   3   5
ENDBRANCH   2   3
ENDBRANCH   1   2
BRANCH   1  28
ATOM     28  C   UNL A   1      34.307  33.707  30.122  1.00  0.00     0.275 C 
BRANCH  28  29
ATOM     29  O   UNL A   1      34.540  32.353  30.562  1.00  0.00    -0.458 OA
BRANCH  29  30
ATOM     30  C   UNL A   1      35.404  32.216  31.596  1.00  0.00     0.338 C 
ATOM     31  O   UNL A   1      35.151  32.349  32.782  1.00  0.00    -0.246 OA
BRANCH  30  32
ATOM     32  C   UNL A   1      36.750  31.817  31.130  1.00  0.00     0.060 A 
ATOM     33  C   UNL A   1      37.096  31.849  29.780  1.00  0.00     0.016 A 
ATOM     34  C   UNL A   1      37.630  31.247  32.048  1.00  0.00     0.016 A 
ATOM     35  C   UNL A   1      38.245  31.198  29.332  1.00  0.00     0.010 A 
ATOM     36  C   UNL A   1      38.856  30.734  31.613  1.00  0.00     0.010 A 
ATOM     37  C   UNL A   1      39.169  30.673  30.244  1.00  0.00    -0.014 A 
BRANCH  37  38
ATOM     38  C   UNL A   1      40.474  30.105  29.795  1.00  0.00     0.031 A 
ATOM     39  C   UNL A   1      41.686  30.990  29.650  1.00  0.00     0.074 A 
ATOM     40  C   UNL A   1      40.560  28.805  29.441  1.00  0.00     0.049 A 
ATOM     41  N   UNL A   1      42.808  30.764  29.012  1.00  0.00    -0.248 NA
ATOM     42  C   UNL A   1      41.617  32.316  30.285  1.00  0.00     0.031 C 
ATOM     43  C   UNL A   1      39.486  27.815  29.557  1.00  0.00     0.029 A 
ATOM     44  N   UNL A   1      41.598  28.095  28.888  1.00  0.00    -0.354 N 
ATOM     45  C   UNL A   1      43.548  31.937  29.113  1.00  0.00     0.074 A 
ATOM     46  C   UNL A   1      42.747  32.874  29.872  1.00  0.00     0.031 C 
ATOM     47  C   UNL A   1      39.925  26.628  29.116  1.00  0.00     0.029 A 
ATOM     48  C   UNL A   1      41.268  26.795  28.583  1.00  0.00     0.049 A 
ATOM     49  H   UNL A   1      42.490  28.479  28.727  1.00  0.00     0.167 HD
ATOM     50  C   UNL A   1      44.778  32.205  28.612  1.00  0.00     0.037 A 
ATOM     51  C   UNL A   1      41.937  25.853  27.893  1.00  0.00     0.037 A 
ATOM     52  C   UNL A   1      45.589  31.248  27.900  1.00  0.00     0.049 A 
ATOM     53  C   UNL A   1      43.276  26.188  27.308  1.00  0.00     0.074 A 
ATOM     54  C   UNL A   1      46.865  31.411  27.386  1.00  0.00     0.029 A 
ATOM     55  N   UNL A   1      45.206  29.947  27.610  1.00  0.00    -0.354 N 
ATOM     56  N   UNL A   1      43.951  27.309  27.378  1.00  0.00    -0.248 NA
ATOM     57  C   UNL A   1      43.940  25.131  26.533  1.00  0.00     0.031 C 
ATOM     58  C   UNL A   1      47.234  30.225  26.743  1.00  0.00     0.029 A 
ATOM     59  C   UNL A   1      46.213  29.303  26.906  1.00  0.00     0.049 A 
ATOM     60  H   UNL A   1      44.348  29.540  27.866  1.00  0.00     0.167 HD
ATOM     61  C   UNL A   1      45.129  27.086  26.678  1.00  0.00     0.074 A 
ATOM     62  C   UNL A   1      45.081  25.717  26.205  1.00  0.00     0.031 C 
ATOM     63  C   UNL A   1      46.156  27.939  26.449  1.00  0.00     0.037 A 
BRANCH  50  64
ATOM     64  C   UNL A   1      45.318  33.598  28.782  1.00  0.00     0.057 A 
ATOM     65  C   UNL A   1      46.140  33.960  29.856  1.00  0.00     0.134 A 
ATOM     66  C   UNL A   1      45.049  34.584  27.820  1.00  0.00     0.134 A 
ATOM     67  F   UNL A   1      46.432  33.070  30.818  1.00  0.00    -0.206 F 
ATOM     68  C   UNL A   1      46.654  35.253  29.982  1.00  0.00     0.040 A 
ATOM     69  C   UNL A   1      45.579  35.871  27.921  1.00  0.00     0.040 A 
ATOM     70  F   UNL A   1      44.277  34.306  26.759  1.00  0.00    -0.206 F 
ATOM     71  C   UNL A   1      46.379  36.211  29.008  1.00  0.00     0.006 A 
ENDBRANCH  50  64
BRANCH  51  72
ATOM     72  C   UNL A   1      41.325  24.516  27.681  1.00  0.00     0.057 A 
ATOM     73  C   UNL A   1      40.331  24.326  26.716  1.00  0.00     0.134 A 
ATOM     74  C   UNL A   1      41.725  23.398  28.425  1.00  0.00     0.134 A 
ATOM     75  F   UNL A   1      39.891  25.362  25.987  1.00  0.00    -0.206 F 
ATOM     76  C   UNL A   1      39.747  23.076  26.507  1.00  0.00     0.040 A 
ATOM     77  C   UNL A   1      41.172  22.137  28.205  1.00  0.00     0.040 A 
ATOM     78  F   UNL A   1      42.679  23.512  29.362  1.00  0.00    -0.206 F 
ATOM     79  C   UNL A   1      40.174  21.974  27.247  1.00  0.00     0.006 A 
ENDBRANCH  51  72
BRANCH  63  80
ATOM     80  C   UNL A   1      47.333  27.398  25.692  1.00  0.00     0.057 A 
ATOM     81  C   UNL A   1      48.387  26.735  26.332  1.00  0.00     0.134 A 
ATOM     82  C   UNL A   1      47.402  27.529  24.298  1.00  0.00     0.134 A 
ATOM     83  F   UNL A   1      48.391  26.592  27.666  1.00  0.00    -0.206 F 
ATOM     84  C   UNL A   1      49.480  26.243  25.617  1.00  0.00     0.040 A 
ATOM     85  C   UNL A   1      48.474  27.017  23.570  1.00  0.00     0.040 A 
ATOM     86  F   UNL A   1      46.421  28.150  23.624  1.00  0.00    -0.206 F 
ATOM     87  C   UNL A   1      49.521  26.378  24.230  1.00  0.00     0.006 A 
ENDBRANCH  63  80
ENDBRANCH  37  38
ENDBRANCH  30  32
ENDBRANCH  29  30
ENDBRANCH  28  29
ENDBRANCH   1  28
TORSDOF 14
ENDMDL
