MODEL 1
REMARK VINA RESULT:     -11.0      0.000      0.000
REMARK SMILES CC[C@@H](Oc1cccc(/C=C2/SC(=O)N(c3cccc(OC)c3)C2=O)c1)C(=O)OCCOC(=O)c1ccc(-c2c3nc(c(-c4c(F)cccc4F)c4ccc([nH]4)c(-c4c(F)cccc4F)c4nc(c(-c5c(F)cccc5F)c5ccc2[nH]5)C=C4)C=C3)cc1
REMARK SMILES IDX 29 1 27 2 28 3 3 4 2 5 1 6 4 7 5 8 6 9 26 10 7 11 9 12 8 13
REMARK SMILES IDX 10 14 11 15 12 16 24 17 13 18 15 19 25 20 14 21 16 22 17 23
REMARK SMILES IDX 23 24 18 25 20 26 19 27 21 28 22 29 30 30 31 31 32 32 33 33
REMARK SMILES IDX 34 34 35 35 36 36 88 37 37 38 87 39 38 40 39 41 40 42 81 43
REMARK SMILES IDX 41 44 86 45 80 46 82 47 42 48 85 49 79 50 78 51 43 53 69 54
REMARK SMILES IDX 52 55 68 56 53 57 56 58 67 59 83 60 54 61 55 62 66 64 84 65
REMARK SMILES IDX 57 66 44 67 45 68 50 69 46 70 47 71 49 72 51 73 48 74 70 75
REMARK SMILES IDX 71 76 76 77 72 78 73 79 75 80 77 81 74 82 58 83 59 84 64 85
REMARK SMILES IDX 60 86 61 87 63 88 65 89 62 90
REMARK H PARENT 82 52 56 63
REMARK Flexibility Score: inf
ROOT
ATOM      1  O   UNL A   1      33.714  32.752  28.641  1.00  0.00    -0.459 OA
ENDROOT
BRANCH   1   2
ATOM      2  C   UNL A   1      34.730  32.323  27.840  1.00  0.00     0.347 C 
ATOM      3  O   UNL A   1      35.672  33.017  27.472  1.00  0.00    -0.248 OA
BRANCH   2   4
ATOM      4  C   UNL A   1      34.581  30.848  27.460  1.00  0.00     0.282 C 
BRANCH   4   5
ATOM      5  C   UNL A   1      35.497  29.961  28.334  1.00  0.00     0.054 C 
ATOM      6  C   UNL A   1      36.845  29.663  27.679  1.00  0.00     0.008 C 
ENDBRANCH   4   5
BRANCH   4   7
ATOM      7  O   UNL A   1      33.181  30.555  27.607  1.00  0.00    -0.479 OA
BRANCH   7   8
ATOM      8  C   UNL A   1      32.715  29.717  26.633  1.00  0.00     0.121 A 
ATOM      9  C   UNL A   1      32.802  30.059  25.291  1.00  0.00     0.046 A 
ATOM     10  C   UNL A   1      32.057  28.553  27.008  1.00  0.00     0.054 A 
ATOM     11  C   UNL A   1      32.266  29.194  24.329  1.00  0.00     0.004 A 
ATOM     12  C   UNL A   1      31.506  27.681  26.062  1.00  0.00    -0.021 A 
ATOM     13  C   UNL A   1      31.635  28.001  24.710  1.00  0.00     0.008 A 
BRANCH  12  14
ATOM     14  C   UNL A   1      30.918  26.412  26.523  1.00  0.00     0.029 C 
ATOM     15  C   UNL A   1      31.542  25.224  26.472  1.00  0.00     0.083 C 
ATOM     16  S   UNL A   1      30.727  23.716  26.521  1.00  0.00    -0.022 SA
ATOM     17  C   UNL A   1      32.980  24.988  26.146  1.00  0.00     0.272 C 
ATOM     18  C   UNL A   1      32.028  22.922  25.624  1.00  0.00     0.298 C 
ATOM     19  N   UNL A   1      33.126  23.757  25.521  1.00  0.00    -0.236 N 
ATOM     20  O   UNL A   1      33.840  25.814  26.414  1.00  0.00    -0.268 OA
ATOM     21  O   UNL A   1      31.884  21.780  25.218  1.00  0.00    -0.260 OA
BRANCH  19  22
ATOM     22  C   UNL A   1      34.331  23.386  24.828  1.00  0.00     0.057 A 
ATOM     23  C   UNL A   1      34.497  23.647  23.458  1.00  0.00     0.027 A 
ATOM     24  C   UNL A   1      35.371  22.697  25.485  1.00  0.00     0.073 A 
ATOM     25  C   UNL A   1      35.646  23.248  22.770  1.00  0.00     0.006 A 
ATOM     26  C   UNL A   1      36.516  22.273  24.796  1.00  0.00     0.120 A 
ATOM     27  C   UNL A   1      36.651  22.565  23.440  1.00  0.00     0.046 A 
BRANCH  26  28
ATOM     28  O   UNL A   1      37.564  21.571  25.325  1.00  0.00    -0.497 OA
ATOM     29  C   UNL A   1      37.700  20.213  24.927  1.00  0.00     0.278 C 
ENDBRANCH  26  28
ENDBRANCH  19  22
ENDBRANCH  12  14
ENDBRANCH   7   8
ENDBRANCH   4   7
ENDBRANCH   2   4
ENDBRANCH   1   2
BRANCH   1  30
ATOM     30  C   UNL A   1      34.078  33.595  29.750  1.00  0.00     0.274 C 
BRANCH  30  31
ATOM     31  C   UNL A   1      33.274  34.897  29.737  1.00  0.00     0.275 C 
BRANCH  31  32
ATOM     32  O   UNL A   1      32.456  35.003  30.917  1.00  0.00    -0.458 OA
BRANCH  32  33
ATOM     33  C   UNL A   1      32.981  35.714  31.939  1.00  0.00     0.338 C 
ATOM     34  O   UNL A   1      32.566  36.752  32.424  1.00  0.00    -0.246 OA
BRANCH  33  35
ATOM     35  C   UNL A   1      34.134  34.989  32.490  1.00  0.00     0.060 A 
ATOM     36  C   UNL A   1      35.415  35.485  32.243  1.00  0.00     0.016 A 
ATOM     37  C   UNL A   1      33.958  33.775  33.151  1.00  0.00     0.016 A 
ATOM     38  C   UNL A   1      36.535  34.761  32.639  1.00  0.00     0.010 A 
ATOM     39  C   UNL A   1      35.083  33.058  33.570  1.00  0.00     0.010 A 
ATOM     40  C   UNL A   1      36.377  33.539  33.302  1.00  0.00    -0.014 A 
BRANCH  40  41
ATOM     41  C   UNL A   1      37.569  32.741  33.673  1.00  0.00     0.031 A 
ATOM     42  C   UNL A   1      38.292  33.031  34.955  1.00  0.00     0.074 A 
ATOM     43  C   UNL A   1      37.992  31.753  32.864  1.00  0.00     0.049 A 
ATOM     44  N   UNL A   1      39.411  32.525  35.408  1.00  0.00    -0.248 NA
ATOM     45  C   UNL A   1      37.675  34.025  35.847  1.00  0.00     0.031 C 
ATOM     46  C   UNL A   1      37.343  31.345  31.617  1.00  0.00     0.029 A 
ATOM     47  N   UNL A   1      39.074  30.917  32.969  1.00  0.00    -0.354 N 
ATOM     48  C   UNL A   1      39.646  33.157  36.622  1.00  0.00     0.074 A 
ATOM     49  C   UNL A   1      38.561  34.091  36.832  1.00  0.00     0.031 C 
ATOM     50  C   UNL A   1      38.044  30.337  31.072  1.00  0.00     0.029 A 
ATOM     51  C   UNL A   1      39.212  30.063  31.903  1.00  0.00     0.049 A 
ATOM     52  H   UNL A   1      39.693  30.930  33.734  1.00  0.00     0.167 HD
ATOM     53  C   UNL A   1      40.676  32.972  37.481  1.00  0.00     0.037 A 
ATOM     54  C   UNL A   1      40.188  29.183  31.613  1.00  0.00     0.037 A 
ATOM     55  C   UNL A   1      41.743  32.028  37.277  1.00  0.00     0.049 A 
ATOM     56  C   UNL A   1      41.349  29.038  32.556  1.00  0.00     0.074 A 
ATOM     57  C   UNL A   1      42.824  31.755  38.097  1.00  0.00     0.029 A 
ATOM     58  N   UNL A   1      41.863  31.200  36.170  1.00  0.00    -0.354 N 
ATOM     59  N   UNL A   1      41.571  29.648  33.695  1.00  0.00    -0.248 NA
ATOM     60  C   UNL A   1      42.403  28.089  32.167  1.00  0.00     0.031 C 
ATOM     61  C   UNL A   1      43.618  30.788  37.470  1.00  0.00     0.029 A 
ATOM     62  C   UNL A   1      43.009  30.429  36.278  1.00  0.00     0.049 A 
ATOM     63  H   UNL A   1      41.227  31.165  35.419  1.00  0.00     0.167 HD
ATOM     64  C   UNL A   1      42.774  29.144  34.169  1.00  0.00     0.074 A 
ATOM     65  C   UNL A   1      43.231  28.168  33.200  1.00  0.00     0.031 C 
ATOM     66  C   UNL A   1      43.443  29.460  35.305  1.00  0.00     0.037 A 
BRANCH  53  67
ATOM     67  C   UNL A   1      40.713  33.831  38.709  1.00  0.00     0.057 A 
ATOM     68  C   UNL A   1      40.060  33.465  39.892  1.00  0.00     0.134 A 
ATOM     69  C   UNL A   1      41.437  35.031  38.714  1.00  0.00     0.134 A 
ATOM     70  F   UNL A   1      39.337  32.336  39.947  1.00  0.00    -0.206 F 
ATOM     71  C   UNL A   1      40.110  34.270  41.032  1.00  0.00     0.040 A 
ATOM     72  C   UNL A   1      41.512  35.834  39.854  1.00  0.00     0.040 A 
ATOM     73  F   UNL A   1      42.088  35.439  37.614  1.00  0.00    -0.206 F 
ATOM     74  C   UNL A   1      40.843  35.456  41.016  1.00  0.00     0.006 A 
ENDBRANCH  53  67
BRANCH  54  75
ATOM     75  C   UNL A   1      40.120  28.387  30.363  1.00  0.00     0.057 A 
ATOM     76  C   UNL A   1      40.847  28.761  29.228  1.00  0.00     0.134 A 
ATOM     77  C   UNL A   1      39.325  27.239  30.272  1.00  0.00     0.134 A 
ATOM     78  F   UNL A   1      41.608  29.866  29.248  1.00  0.00    -0.206 F 
ATOM     79  C   UNL A   1      40.779  28.027  28.043  1.00  0.00     0.040 A 
ATOM     80  C   UNL A   1      39.265  26.483  29.102  1.00  0.00     0.040 A 
ATOM     81  F   UNL A   1      38.604  26.830  31.327  1.00  0.00    -0.206 F 
ATOM     82  C   UNL A   1      39.990  26.880  27.980  1.00  0.00     0.006 A 
ENDBRANCH  54  75
BRANCH  66  83
ATOM     83  C   UNL A   1      44.720  28.723  35.573  1.00  0.00     0.057 A 
ATOM     84  C   UNL A   1      44.739  27.512  36.278  1.00  0.00     0.134 A 
ATOM     85  C   UNL A   1      45.941  29.214  35.092  1.00  0.00     0.134 A 
ATOM     86  F   UNL A   1      43.605  26.998  36.775  1.00  0.00    -0.206 F 
ATOM     87  C   UNL A   1      45.931  26.826  36.510  1.00  0.00     0.040 A 
ATOM     88  C   UNL A   1      47.136  28.525  35.300  1.00  0.00     0.040 A 
ATOM     89  F   UNL A   1      45.988  30.365  34.405  1.00  0.00    -0.206 F 
ATOM     90  C   UNL A   1      47.134  27.329  36.016  1.00  0.00     0.006 A 
ENDBRANCH  66  83
ENDBRANCH  40  41
ENDBRANCH  33  35
ENDBRANCH  32  33
ENDBRANCH  31  32
ENDBRANCH  30  31
ENDBRANCH   1  30
TORSDOF 17
ENDMDL
MODEL 2
REMARK VINA RESULT:     -11.0      0.407      5.926
REMARK SMILES CC[C@@H](Oc1cccc(/C=C2/SC(=O)N(c3cccc(OC)c3)C2=O)c1)C(=O)OCCOC(=O)c1ccc(-c2c3nc(c(-c4c(F)cccc4F)c4ccc([nH]4)c(-c4c(F)cccc4F)c4nc(c(-c5c(F)cccc5F)c5ccc2[nH]5)C=C4)C=C3)cc1
REMARK SMILES IDX 29 1 27 2 28 3 3 4 2 5 1 6 4 7 5 8 6 9 26 10 7 11 9 12 8 13
REMARK SMILES IDX 10 14 11 15 12 16 24 17 13 18 15 19 25 20 14 21 16 22 17 23
REMARK SMILES IDX 23 24 18 25 20 26 19 27 21 28 22 29 30 30 31 31 32 32 33 33
REMARK SMILES IDX 34 34 35 35 36 36 88 37 37 38 87 39 38 40 39 41 40 42 81 43
REMARK SMILES IDX 41 44 86 45 80 46 82 47 42 48 85 49 79 50 78 51 43 53 69 54
REMARK SMILES IDX 52 55 68 56 53 57 56 58 67 59 83 60 54 61 55 62 66 64 84 65
REMARK SMILES IDX 57 66 44 67 45 68 50 69 46 70 47 71 49 72 51 73 48 74 70 75
REMARK SMILES IDX 71 76 76 77 72 78 73 79 75 80 77 81 74 82 58 83 59 84 64 85
REMARK SMILES IDX 60 86 61 87 63 88 65 89 62 90
REMARK H PARENT 82 52 56 63
REMARK Flexibility Score: inf
ROOT
ATOM      1  O   UNL A   1      33.776  32.821  28.604  1.00  0.00    -0.459 OA
ENDROOT
BRANCH   1   2
ATOM      2  C   UNL A   1      34.800  32.347  27.839  1.00  0.00     0.347 C 
ATOM      3  O   UNL A   1      35.751  33.018  27.450  1.00  0.00    -0.248 OA
BRANCH   2   4
ATOM      4  C   UNL A   1      34.647  30.856  27.530  1.00  0.00     0.282 C 
BRANCH   4   5
ATOM      5  C   UNL A   1      35.518  30.006  28.482  1.00  0.00     0.054 C 
ATOM      6  C   UNL A   1      36.870  29.626  27.879  1.00  0.00     0.008 C 
ENDBRANCH   4   5
BRANCH   4   7
ATOM      7  O   UNL A   1      33.239  30.586  27.638  1.00  0.00    -0.479 OA
BRANCH   7   8
ATOM      8  C   UNL A   1      32.790  29.742  26.662  1.00  0.00     0.121 A 
ATOM      9  C   UNL A   1      32.893  30.078  25.319  1.00  0.00     0.046 A 
ATOM     10  C   UNL A   1      32.131  28.577  27.033  1.00  0.00     0.054 A 
ATOM     11  C   UNL A   1      32.374  29.207  24.354  1.00  0.00     0.004 A 
ATOM     12  C   UNL A   1      31.597  27.698  26.083  1.00  0.00    -0.021 A 
ATOM     13  C   UNL A   1      31.743  28.012  24.732  1.00  0.00     0.008 A 
BRANCH  12  14
ATOM     14  C   UNL A   1      31.008  26.429  26.542  1.00  0.00     0.029 C 
ATOM     15  C   UNL A   1      31.629  25.239  26.481  1.00  0.00     0.083 C 
ATOM     16  S   UNL A   1      30.810  23.733  26.529  1.00  0.00    -0.022 SA
ATOM     17  C   UNL A   1      33.063  25.000  26.146  1.00  0.00     0.272 C 
ATOM     18  C   UNL A   1      32.103  22.940  25.620  1.00  0.00     0.298 C 
ATOM     19  N   UNL A   1      33.203  23.772  25.515  1.00  0.00    -0.236 N 
ATOM     20  O   UNL A   1      33.928  25.823  26.413  1.00  0.00    -0.268 OA
ATOM     21  O   UNL A   1      31.953  21.800  25.210  1.00  0.00    -0.260 OA
BRANCH  19  22
ATOM     22  C   UNL A   1      34.403  23.401  24.813  1.00  0.00     0.057 A 
ATOM     23  C   UNL A   1      34.540  23.620  23.432  1.00  0.00     0.027 A 
ATOM     24  C   UNL A   1      35.467  22.754  25.474  1.00  0.00     0.073 A 
ATOM     25  C   UNL A   1      35.685  23.220  22.738  1.00  0.00     0.006 A 
ATOM     26  C   UNL A   1      36.608  22.329  24.779  1.00  0.00     0.120 A 
ATOM     27  C   UNL A   1      36.714  22.578  23.412  1.00  0.00     0.046 A 
BRANCH  26  28
ATOM     28  O   UNL A   1      37.678  21.665  25.312  1.00  0.00    -0.497 OA
ATOM     29  C   UNL A   1      38.598  22.429  26.081  1.00  0.00     0.278 C 
ENDBRANCH  26  28
ENDBRANCH  19  22
ENDBRANCH  12  14
ENDBRANCH   7   8
ENDBRANCH   4   7
ENDBRANCH   2   4
ENDBRANCH   1   2
BRANCH   1  30
ATOM     30  C   UNL A   1      34.141  33.587  29.767  1.00  0.00     0.274 C 
BRANCH  30  31
ATOM     31  C   UNL A   1      33.321  34.876  29.854  1.00  0.00     0.275 C 
BRANCH  31  32
ATOM     32  O   UNL A   1      32.504  34.881  31.040  1.00  0.00    -0.458 OA
BRANCH  32  33
ATOM     33  C   UNL A   1      32.968  35.615  32.075  1.00  0.00     0.338 C 
ATOM     34  O   UNL A   1      32.465  36.601  32.584  1.00  0.00    -0.246 OA
BRANCH  33  35
ATOM     35  C   UNL A   1      34.184  34.984  32.606  1.00  0.00     0.060 A 
ATOM     36  C   UNL A   1      35.413  35.606  32.379  1.00  0.00     0.016 A 
ATOM     37  C   UNL A   1      34.123  33.739  33.229  1.00  0.00     0.016 A 
ATOM     38  C   UNL A   1      36.596  34.978  32.755  1.00  0.00     0.010 A 
ATOM     39  C   UNL A   1      35.310  33.118  33.628  1.00  0.00     0.010 A 
ATOM     40  C   UNL A   1      36.553  33.726  33.380  1.00  0.00    -0.014 A 
BRANCH  40  41
ATOM     41  C   UNL A   1      37.815  33.032  33.729  1.00  0.00     0.031 A 
ATOM     42  C   UNL A   1      38.358  31.968  32.820  1.00  0.00     0.074 A 
ATOM     43  C   UNL A   1      38.474  33.365  34.854  1.00  0.00     0.049 A 
ATOM     44  N   UNL A   1      39.381  31.172  32.997  1.00  0.00    -0.248 NA
ATOM     45  C   UNL A   1      37.654  31.773  31.543  1.00  0.00     0.031 C 
ATOM     46  C   UNL A   1      38.072  34.416  35.789  1.00  0.00     0.029 A 
ATOM     47  N   UNL A   1      39.620  32.848  35.401  1.00  0.00    -0.354 N 
ATOM     48  C   UNL A   1      39.428  30.364  31.869  1.00  0.00     0.074 A 
ATOM     49  C   UNL A   1      38.326  30.758  31.018  1.00  0.00     0.031 C 
ATOM     50  C   UNL A   1      38.958  34.463  36.798  1.00  0.00     0.029 A 
ATOM     51  C   UNL A   1      39.957  33.417  36.604  1.00  0.00     0.049 A 
ATOM     52  H   UNL A   1      40.148  32.135  34.974  1.00  0.00     0.167 HD
ATOM     53  C   UNL A   1      40.313  29.382  31.573  1.00  0.00     0.037 A 
ATOM     54  C   UNL A   1      40.941  33.107  37.468  1.00  0.00     0.037 A 
ATOM     55  C   UNL A   1      41.419  29.007  32.413  1.00  0.00     0.049 A 
ATOM     56  C   UNL A   1      41.875  31.976  37.142  1.00  0.00     0.074 A 
ATOM     57  C   UNL A   1      42.381  28.037  32.193  1.00  0.00     0.029 A 
ATOM     58  N   UNL A   1      41.712  29.589  33.638  1.00  0.00    -0.354 N 
ATOM     59  N   UNL A   1      41.906  31.209  36.080  1.00  0.00    -0.248 NA
ATOM     60  C   UNL A   1      42.906  31.660  38.141  1.00  0.00     0.031 C 
ATOM     61  C   UNL A   1      43.234  28.006  33.302  1.00  0.00     0.029 A 
ATOM     62  C   UNL A   1      42.828  28.985  34.194  1.00  0.00     0.049 A 
ATOM     63  H   UNL A   1      41.202  30.323  34.052  1.00  0.00     0.167 HD
ATOM     64  C   UNL A   1      42.968  30.335  36.271  1.00  0.00     0.074 A 
ATOM     65  C   UNL A   1      43.565  30.675  37.546  1.00  0.00     0.031 C 
ATOM     66  C   UNL A   1      43.410  29.341  35.463  1.00  0.00     0.037 A 
BRANCH  53  67
ATOM     67  C   UNL A   1      40.102  28.625  30.296  1.00  0.00     0.057 A 
ATOM     68  C   UNL A   1      40.727  28.996  29.099  1.00  0.00     0.134 A 
ATOM     69  C   UNL A   1      39.280  27.490  30.272  1.00  0.00     0.134 A 
ATOM     70  F   UNL A   1      41.514  30.082  29.053  1.00  0.00    -0.206 F 
ATOM     71  C   UNL A   1      40.530  28.276  27.920  1.00  0.00     0.040 A 
ATOM     72  C   UNL A   1      39.092  26.750  29.104  1.00  0.00     0.040 A 
ATOM     73  F   UNL A   1      38.653  27.079  31.384  1.00  0.00    -0.206 F 
ATOM     74  C   UNL A   1      39.714  27.145  27.921  1.00  0.00     0.006 A 
ENDBRANCH  53  67
BRANCH  54  75
ATOM     75  C   UNL A   1      41.079  33.865  38.736  1.00  0.00     0.057 A 
ATOM     76  C   UNL A   1      41.945  34.958  38.834  1.00  0.00     0.134 A 
ATOM     77  C   UNL A   1      40.353  33.510  39.880  1.00  0.00     0.134 A 
ATOM     78  F   UNL A   1      42.685  35.330  37.779  1.00  0.00    -0.206 F 
ATOM     79  C   UNL A   1      42.092  35.668  40.027  1.00  0.00     0.040 A 
ATOM     80  C   UNL A   1      40.472  34.225  41.071  1.00  0.00     0.040 A 
ATOM     81  F   UNL A   1      39.506  32.470  39.848  1.00  0.00    -0.206 F 
ATOM     82  C   UNL A   1      41.349  35.305  41.148  1.00  0.00     0.006 A 
ENDBRANCH  54  75
BRANCH  66  83
ATOM     83  C   UNL A   1      44.611  28.572  35.922  1.00  0.00     0.057 A 
ATOM     84  C   UNL A   1      44.493  27.403  36.685  1.00  0.00     0.134 A 
ATOM     85  C   UNL A   1      45.902  28.988  35.568  1.00  0.00     0.134 A 
ATOM     86  F   UNL A   1      43.286  26.961  37.068  1.00  0.00    -0.206 F 
ATOM     87  C   UNL A   1      45.617  26.686  37.096  1.00  0.00     0.040 A 
ATOM     88  C   UNL A   1      47.031  28.268  35.954  1.00  0.00     0.040 A 
ATOM     89  F   UNL A   1      46.081  30.096  34.833  1.00  0.00    -0.206 F 
ATOM     90  C   UNL A   1      46.891  27.115  36.726  1.00  0.00     0.006 A 
ENDBRANCH  66  83
ENDBRANCH  40  41
ENDBRANCH  33  35
ENDBRANCH  32  33
ENDBRANCH  31  32
ENDBRANCH  30  31
ENDBRANCH   1  30
TORSDOF 17
ENDMDL
MODEL 3
REMARK VINA RESULT:     -10.9      4.454      9.775
REMARK SMILES CC[C@@H](Oc1cccc(/C=C2/SC(=O)N(c3cccc(OC)c3)C2=O)c1)C(=O)OCCOC(=O)c1ccc(-c2c3nc(c(-c4c(F)cccc4F)c4ccc([nH]4)c(-c4c(F)cccc4F)c4nc(c(-c5c(F)cccc5F)c5ccc2[nH]5)C=C4)C=C3)cc1
REMARK SMILES IDX 29 1 27 2 28 3 3 4 2 5 1 6 4 7 5 8 6 9 26 10 7 11 9 12 8 13
REMARK SMILES IDX 10 14 11 15 12 16 24 17 13 18 15 19 25 20 14 21 16 22 17 23
REMARK SMILES IDX 23 24 18 25 20 26 19 27 21 28 22 29 30 30 31 31 32 32 33 33
REMARK SMILES IDX 34 34 35 35 36 36 88 37 37 38 87 39 38 40 39 41 40 42 81 43
REMARK SMILES IDX 41 44 86 45 80 46 82 47 42 48 85 49 79 50 78 51 43 53 69 54
REMARK SMILES IDX 52 55 68 56 53 57 56 58 67 59 83 60 54 61 55 62 66 64 84 65
REMARK SMILES IDX 57 66 44 67 45 68 50 69 46 70 47 71 49 72 51 73 48 74 70 75
REMARK SMILES IDX 71 76 76 77 72 78 73 79 75 80 77 81 74 82 58 83 59 84 64 85
REMARK SMILES IDX 60 86 61 87 63 88 65 89 62 90
REMARK H PARENT 82 52 56 63
REMARK Flexibility Score: inf
ROOT
ATOM      1  O   UNL A   1      35.598  20.673  25.371  1.00  0.00    -0.459 OA
ENDROOT
BRANCH   1   2
ATOM      2  C   UNL A   1      34.888  19.622  24.871  1.00  0.00     0.347 C 
ATOM      3  O   UNL A   1      35.357  18.516  24.624  1.00  0.00    -0.248 OA
BRANCH   2   4
ATOM      4  C   UNL A   1      33.411  19.967  24.671  1.00  0.00     0.282 C 
BRANCH   4   5
ATOM      5  C   UNL A   1      32.574  18.688  24.436  1.00  0.00     0.054 C 
ATOM      6  C   UNL A   1      32.423  18.334  22.958  1.00  0.00     0.008 C 
ENDBRANCH   4   5
BRANCH   4   7
ATOM      7  O   UNL A   1      33.027  20.703  25.845  1.00  0.00    -0.479 OA
BRANCH   7   8
ATOM      8  C   UNL A   1      32.393  21.876  25.546  1.00  0.00     0.121 A 
ATOM      9  C   UNL A   1      31.286  22.297  26.270  1.00  0.00     0.046 A 
ATOM     10  C   UNL A   1      32.809  22.600  24.437  1.00  0.00     0.054 A 
ATOM     11  C   UNL A   1      30.635  23.480  25.898  1.00  0.00     0.004 A 
ATOM     12  C   UNL A   1      32.165  23.779  24.043  1.00  0.00    -0.021 A 
ATOM     13  C   UNL A   1      31.082  24.228  24.799  1.00  0.00     0.008 A 
BRANCH  12  14
ATOM     14  C   UNL A   1      32.725  24.554  22.923  1.00  0.00     0.029 C 
ATOM     15  C   UNL A   1      33.290  25.766  23.047  1.00  0.00     0.083 C 
ATOM     16  S   UNL A   1      33.477  26.868  21.746  1.00  0.00    -0.022 SA
ATOM     17  C   UNL A   1      33.643  26.457  24.322  1.00  0.00     0.272 C 
ATOM     18  C   UNL A   1      33.452  28.253  22.845  1.00  0.00     0.298 C 
ATOM     19  N   UNL A   1      33.536  27.831  24.159  1.00  0.00    -0.236 N 
ATOM     20  O   UNL A   1      33.959  25.829  25.323  1.00  0.00    -0.268 OA
ATOM     21  O   UNL A   1      33.395  29.388  22.399  1.00  0.00    -0.260 OA
BRANCH  19  22
ATOM     22  C   UNL A   1      33.521  28.737  25.277  1.00  0.00     0.057 A 
ATOM     23  C   UNL A   1      34.512  28.690  26.271  1.00  0.00     0.027 A 
ATOM     24  C   UNL A   1      32.480  29.673  25.447  1.00  0.00     0.073 A 
ATOM     25  C   UNL A   1      34.476  29.538  27.381  1.00  0.00     0.006 A 
ATOM     26  C   UNL A   1      32.425  30.509  26.571  1.00  0.00     0.120 A 
ATOM     27  C   UNL A   1      33.435  30.444  27.528  1.00  0.00     0.046 A 
BRANCH  26  28
ATOM     28  O   UNL A   1      31.446  31.423  26.851  1.00  0.00    -0.497 OA
ATOM     29  C   UNL A   1      31.817  32.795  26.833  1.00  0.00     0.278 C 
ENDBRANCH  26  28
ENDBRANCH  19  22
ENDBRANCH  12  14
ENDBRANCH   7   8
ENDBRANCH   4   7
ENDBRANCH   2   4
ENDBRANCH   1   2
BRANCH   1  30
ATOM     30  C   UNL A   1      36.973  20.777  24.959  1.00  0.00     0.274 C 
BRANCH  30  31
ATOM     31  C   UNL A   1      37.382  22.240  24.775  1.00  0.00     0.275 C 
BRANCH  31  32
ATOM     32  O   UNL A   1      37.797  22.815  26.029  1.00  0.00    -0.458 OA
BRANCH  32  33
ATOM     33  C   UNL A   1      39.092  22.627  26.365  1.00  0.00     0.338 C 
ATOM     34  O   UNL A   1      39.751  21.607  26.280  1.00  0.00    -0.246 OA
BRANCH  33  35
ATOM     35  C   UNL A   1      39.671  23.910  26.787  1.00  0.00     0.060 A 
ATOM     36  C   UNL A   1      39.719  24.205  28.151  1.00  0.00     0.016 A 
ATOM     37  C   UNL A   1      40.063  24.856  25.842  1.00  0.00     0.016 A 
ATOM     38  C   UNL A   1      40.143  25.457  28.582  1.00  0.00     0.010 A 
ATOM     39  C   UNL A   1      40.511  26.108  26.276  1.00  0.00     0.010 A 
ATOM     40  C   UNL A   1      40.538  26.421  27.647  1.00  0.00    -0.014 A 
BRANCH  40  41
ATOM     41  C   UNL A   1      40.935  27.774  28.103  1.00  0.00     0.031 A 
ATOM     42  C   UNL A   1      42.386  28.157  28.128  1.00  0.00     0.074 A 
ATOM     43  C   UNL A   1      39.993  28.656  28.482  1.00  0.00     0.049 A 
ATOM     44  N   UNL A   1      42.946  29.245  28.592  1.00  0.00    -0.248 NA
ATOM     45  C   UNL A   1      43.332  27.186  27.557  1.00  0.00     0.031 C 
ATOM     46  C   UNL A   1      38.550  28.416  28.453  1.00  0.00     0.029 A 
ATOM     47  N   UNL A   1      40.112  29.931  28.972  1.00  0.00    -0.354 N 
ATOM     48  C   UNL A   1      44.311  29.078  28.395  1.00  0.00     0.074 A 
ATOM     49  C   UNL A   1      44.496  27.782  27.779  1.00  0.00     0.031 C 
ATOM     50  C   UNL A   1      37.917  29.510  28.910  1.00  0.00     0.029 A 
ATOM     51  C   UNL A   1      38.910  30.504  29.306  1.00  0.00     0.049 A 
ATOM     52  H   UNL A   1      40.977  30.390  29.076  1.00  0.00     0.167 HD
ATOM     53  C   UNL A   1      45.316  29.933  28.701  1.00  0.00     0.037 A 
ATOM     54  C   UNL A   1      38.643  31.683  29.896  1.00  0.00     0.037 A 
ATOM     55  C   UNL A   1      45.125  31.230  29.296  1.00  0.00     0.049 A 
ATOM     56  C   UNL A   1      39.780  32.588  30.278  1.00  0.00     0.074 A 
ATOM     57  C   UNL A   1      46.078  32.176  29.629  1.00  0.00     0.029 A 
ATOM     58  N   UNL A   1      43.893  31.763  29.645  1.00  0.00    -0.354 N 
ATOM     59  N   UNL A   1      41.067  32.419  30.100  1.00  0.00    -0.248 NA
ATOM     60  C   UNL A   1      39.427  33.845  30.953  1.00  0.00     0.031 C 
ATOM     61  C   UNL A   1      45.427  33.267  30.214  1.00  0.00     0.029 A 
ATOM     62  C   UNL A   1      44.064  33.017  30.208  1.00  0.00     0.049 A 
ATOM     63  H   UNL A   1      43.026  31.317  29.513  1.00  0.00     0.167 HD
ATOM     64  C   UNL A   1      41.677  33.552  30.619  1.00  0.00     0.074 A 
ATOM     65  C   UNL A   1      40.617  34.410  31.110  1.00  0.00     0.031 C 
ATOM     66  C   UNL A   1      42.996  33.857  30.685  1.00  0.00     0.037 A 
BRANCH  53  67
ATOM     67  C   UNL A   1      46.717  29.477  28.424  1.00  0.00     0.057 A 
ATOM     68  C   UNL A   1      47.367  29.765  27.217  1.00  0.00     0.134 A 
ATOM     69  C   UNL A   1      47.436  28.763  29.391  1.00  0.00     0.134 A 
ATOM     70  F   UNL A   1      46.728  30.432  26.244  1.00  0.00    -0.206 F 
ATOM     71  C   UNL A   1      48.676  29.344  26.975  1.00  0.00     0.040 A 
ATOM     72  C   UNL A   1      48.752  28.355  29.170  1.00  0.00     0.040 A 
ATOM     73  F   UNL A   1      46.873  28.457  30.570  1.00  0.00    -0.206 F 
ATOM     74  C   UNL A   1      49.374  28.640  27.956  1.00  0.00     0.006 A 
ENDBRANCH  53  67
BRANCH  54  75
ATOM     75  C   UNL A   1      37.238  32.065  30.184  1.00  0.00     0.057 A 
ATOM     76  C   UNL A   1      36.640  31.752  31.409  1.00  0.00     0.134 A 
ATOM     77  C   UNL A   1      36.460  32.747  29.240  1.00  0.00     0.134 A 
ATOM     78  F   UNL A   1      37.328  31.079  32.343  1.00  0.00    -0.206 F 
ATOM     79  C   UNL A   1      35.315  32.095  31.683  1.00  0.00     0.040 A 
ATOM     80  C   UNL A   1      35.143  33.116  29.509  1.00  0.00     0.040 A 
ATOM     81  F   UNL A   1      36.978  33.075  28.046  1.00  0.00    -0.206 F 
ATOM     82  C   UNL A   1      34.565  32.785  30.733  1.00  0.00     0.006 A 
ENDBRANCH  54  75
BRANCH  66  83
ATOM     83  C   UNL A   1      43.361  35.183  31.282  1.00  0.00     0.057 A 
ATOM     84  C   UNL A   1      43.517  35.353  32.663  1.00  0.00     0.134 A 
ATOM     85  C   UNL A   1      43.591  36.295  30.460  1.00  0.00     0.134 A 
ATOM     86  F   UNL A   1      43.298  34.331  33.503  1.00  0.00    -0.206 F 
ATOM     87  C   UNL A   1      43.871  36.589  33.207  1.00  0.00     0.040 A 
ATOM     88  C   UNL A   1      43.966  37.528  30.991  1.00  0.00     0.040 A 
ATOM     89  F   UNL A   1      43.463  36.195  29.129  1.00  0.00    -0.206 F 
ATOM     90  C   UNL A   1      44.102  37.679  32.371  1.00  0.00     0.006 A 
ENDBRANCH  66  83
ENDBRANCH  40  41
ENDBRANCH  33  35
ENDBRANCH  32  33
ENDBRANCH  31  32
ENDBRANCH  30  31
ENDBRANCH   1  30
TORSDOF 17
ENDMDL
