MODEL 1
REMARK VINA RESULT:     -12.5      0.000      0.000
REMARK SMILES O=C(OCCOC(=O)[C@H]1[C@@H](C(=O)Nc2ccccc2-c2ccccc2)[C@@H]2C=C[C@H]1O2)c1ccc(-c2c3nc(c(-c4c(F)cccc4F)c4ccc([nH]4)c(-c4c(F)cccc4F)c4nc(c(-c5c(F)cccc5F)c5ccc2[nH]5)C=C4)C=C3)cc1
REMARK SMILES IDX 5 1 4 2 3 3 2 4 1 5 31 6 32 7 84 8 33 9 83 10 34 11 35 12
REMARK SMILES IDX 36 13 77 14 37 15 82 16 76 17 78 18 38 19 81 20 75 21 74 22
REMARK SMILES IDX 39 24 65 25 48 26 64 27 49 28 52 29 63 30 79 31 50 32 51 33
REMARK SMILES IDX 62 35 80 36 53 37 40 38 41 39 46 40 42 41 43 42 45 43 47 44
REMARK SMILES IDX 44 45 66 46 67 47 72 48 68 49 69 50 71 51 73 52 70 53 54 54
REMARK SMILES IDX 55 55 60 56 56 57 57 58 59 59 61 60 58 61 6 62 7 63 8 64
REMARK SMILES IDX 9 65 10 66 29 67 26 68 28 69 30 70 27 71 11 72 12 73 13 74
REMARK SMILES IDX 14 76 15 77 19 78 16 79 18 80 17 81 20 82 21 83 25 84 22 85
REMARK SMILES IDX 24 86 23 87
REMARK H PARENT 78 23 52 34 13 75
REMARK Flexibility Score: inf
ROOT
ATOM      1  C   UNL A   1      31.795  28.620  27.636  1.00  0.00     0.274 C 
ENDROOT
BRANCH   1   2
ATOM      2  C   UNL A   1      31.864  29.619  26.477  1.00  0.00     0.275 C 
BRANCH   2   3
ATOM      3  O   UNL A   1      33.076  30.376  26.281  1.00  0.00    -0.458 OA
BRANCH   3   4
ATOM      4  C   UNL A   1      33.500  31.293  27.172  1.00  0.00     0.338 C 
ATOM      5  O   UNL A   1      32.776  32.205  27.553  1.00  0.00    -0.246 OA
BRANCH   4   6
ATOM      6  C   UNL A   1      34.826  31.037  27.793  1.00  0.00     0.060 A 
ATOM      7  C   UNL A   1      35.229  29.765  28.210  1.00  0.00     0.016 A 
ATOM      8  C   UNL A   1      35.718  32.114  27.907  1.00  0.00     0.016 A 
ATOM      9  C   UNL A   1      36.531  29.544  28.638  1.00  0.00     0.010 A 
ATOM     10  C   UNL A   1      37.034  31.890  28.316  1.00  0.00     0.010 A 
ATOM     11  C   UNL A   1      37.446  30.599  28.680  1.00  0.00    -0.014 A 
BRANCH  11  12
ATOM     12  C   UNL A   1      38.759  30.343  29.300  1.00  0.00     0.031 A 
ATOM     13  C   UNL A   1      38.978  30.911  30.668  1.00  0.00     0.074 A 
ATOM     14  C   UNL A   1      39.647  29.507  28.728  1.00  0.00     0.049 A 
ATOM     15  N   UNL A   1      39.848  30.558  31.572  1.00  0.00    -0.248 NA
ATOM     16  C   UNL A   1      38.059  31.981  31.098  1.00  0.00     0.031 C 
ATOM     17  C   UNL A   1      39.504  28.882  27.410  1.00  0.00     0.029 A 
ATOM     18  N   UNL A   1      40.842  29.019  29.188  1.00  0.00    -0.354 N 
ATOM     19  C   UNL A   1      39.521  31.299  32.698  1.00  0.00     0.074 A 
ATOM     20  C   UNL A   1      38.460  32.204  32.337  1.00  0.00     0.031 C 
ATOM     21  C   UNL A   1      40.588  28.133  27.148  1.00  0.00     0.029 A 
ATOM     22  C   UNL A   1      41.457  28.149  28.318  1.00  0.00     0.049 A 
ATOM     23  H   UNL A   1      41.225  29.269  30.060  1.00  0.00     0.167 HD
ATOM     24  C   UNL A   1      40.019  31.182  33.947  1.00  0.00     0.037 A 
ATOM     25  C   UNL A   1      42.560  27.396  28.485  1.00  0.00     0.037 A 
ATOM     26  C   UNL A   1      41.110  30.313  34.268  1.00  0.00     0.049 A 
ATOM     27  C   UNL A   1      43.174  27.362  29.860  1.00  0.00     0.074 A 
ATOM     28  C   UNL A   1      41.758  30.135  35.472  1.00  0.00     0.029 A 
ATOM     29  N   UNL A   1      41.730  29.485  33.340  1.00  0.00    -0.354 N 
ATOM     30  N   UNL A   1      42.791  27.986  30.949  1.00  0.00    -0.248 NA
ATOM     31  C   UNL A   1      44.331  26.478  30.046  1.00  0.00     0.031 C 
ATOM     32  C   UNL A   1      42.801  29.225  35.262  1.00  0.00     0.029 A 
ATOM     33  C   UNL A   1      42.773  28.807  33.939  1.00  0.00     0.049 A 
ATOM     34  H   UNL A   1      41.466  29.395  32.396  1.00  0.00     0.167 HD
ATOM     35  C   UNL A   1      43.620  27.530  31.963  1.00  0.00     0.074 A 
ATOM     36  C   UNL A   1      44.530  26.579  31.353  1.00  0.00     0.031 C 
ATOM     37  C   UNL A   1      43.633  27.855  33.280  1.00  0.00     0.037 A 
BRANCH  24  38
ATOM     38  C   UNL A   1      39.366  32.033  34.991  1.00  0.00     0.057 A 
ATOM     39  C   UNL A   1      39.800  33.347  35.231  1.00  0.00     0.134 A 
ATOM     40  C   UNL A   1      38.407  31.499  35.857  1.00  0.00     0.134 A 
ATOM     41  F   UNL A   1      40.751  33.901  34.462  1.00  0.00    -0.206 F 
ATOM     42  C   UNL A   1      39.337  34.081  36.325  1.00  0.00     0.040 A 
ATOM     43  C   UNL A   1      37.921  32.232  36.942  1.00  0.00     0.040 A 
ATOM     44  F   UNL A   1      37.969  30.243  35.695  1.00  0.00    -0.206 F 
ATOM     45  C   UNL A   1      38.397  33.520  37.186  1.00  0.00     0.006 A 
ENDBRANCH  24  38
BRANCH  25  46
ATOM     46  C   UNL A   1      43.071  26.534  27.386  1.00  0.00     0.057 A 
ATOM     47  C   UNL A   1      43.984  27.017  26.440  1.00  0.00     0.134 A 
ATOM     48  C   UNL A   1      42.640  25.209  27.239  1.00  0.00     0.134 A 
ATOM     49  F   UNL A   1      44.434  28.278  26.520  1.00  0.00    -0.206 F 
ATOM     50  C   UNL A   1      44.428  26.228  25.376  1.00  0.00     0.040 A 
ATOM     51  C   UNL A   1      43.088  24.403  26.189  1.00  0.00     0.040 A 
ATOM     52  F   UNL A   1      41.775  24.679  28.114  1.00  0.00    -0.206 F 
ATOM     53  C   UNL A   1      43.979  24.916  25.247  1.00  0.00     0.006 A 
ENDBRANCH  25  46
BRANCH  37  54
ATOM     54  C   UNL A   1      44.632  27.148  34.140  1.00  0.00     0.057 A 
ATOM     55  C   UNL A   1      45.902  27.684  34.378  1.00  0.00     0.134 A 
ATOM     56  C   UNL A   1      44.285  25.961  34.796  1.00  0.00     0.134 A 
ATOM     57  F   UNL A   1      46.290  28.814  33.768  1.00  0.00    -0.206 F 
ATOM     58  C   UNL A   1      46.804  27.051  35.233  1.00  0.00     0.040 A 
ATOM     59  C   UNL A   1      45.168  25.334  35.672  1.00  0.00     0.040 A 
ATOM     60  F   UNL A   1      43.077  25.408  34.612  1.00  0.00    -0.206 F 
ATOM     61  C   UNL A   1      46.432  25.879  35.890  1.00  0.00     0.006 A 
ENDBRANCH  37  54
ENDBRANCH  11  12
ENDBRANCH   4   6
ENDBRANCH   3   4
ENDBRANCH   2   3
ENDBRANCH   1   2
BRANCH   1  62
ATOM     62  O   UNL A   1      31.565  27.246  27.265  1.00  0.00    -0.462 OA
BRANCH  62  63
ATOM     63  C   UNL A   1      32.517  26.789  26.393  1.00  0.00     0.312 C 
ATOM     64  O   UNL A   1      33.705  27.079  26.503  1.00  0.00    -0.252 OA
BRANCH  63  65
ATOM     65  C   UNL A   1      31.978  26.068  25.178  1.00  0.00     0.147 C 
ATOM     66  C   UNL A   1      32.114  24.522  25.203  1.00  0.00     0.129 C 
ATOM     67  C   UNL A   1      30.487  26.203  24.879  1.00  0.00     0.157 C 
ATOM     68  C   UNL A   1      30.756  24.064  24.719  1.00  0.00     0.155 C 
ATOM     69  C   UNL A   1      30.184  25.849  23.452  1.00  0.00     0.004 C 
ATOM     70  O   UNL A   1      29.944  25.008  25.458  1.00  0.00    -0.365 OA
ATOM     71  C   UNL A   1      30.421  24.537  23.336  1.00  0.00     0.004 C 
BRANCH  66  72
ATOM     72  C   UNL A   1      32.534  23.830  26.498  1.00  0.00     0.231 C 
ATOM     73  O   UNL A   1      31.746  23.911  27.457  1.00  0.00    -0.274 OA
ATOM     74  N   UNL A   1      33.608  23.023  26.704  1.00  0.00    -0.325 N 
ATOM     75  H   UNL A   1      33.461  22.433  27.479  1.00  0.00     0.169 HD
BRANCH  74  76
ATOM     76  C   UNL A   1      34.875  22.786  26.126  1.00  0.00     0.049 A 
ATOM     77  C   UNL A   1      35.825  23.787  26.412  1.00  0.00     0.027 A 
ATOM     78  C   UNL A   1      35.197  21.798  25.160  1.00  0.00     0.005 A 
ATOM     79  C   UNL A   1      37.107  23.765  25.866  1.00  0.00     0.002 A 
ATOM     80  C   UNL A   1      36.522  21.781  24.652  1.00  0.00     0.011 A 
ATOM     81  C   UNL A   1      37.467  22.743  25.004  1.00  0.00     0.001 A 
BRANCH  78  82
ATOM     82  C   UNL A   1      34.232  20.861  24.535  1.00  0.00    -0.016 A 
ATOM     83  C   UNL A   1      34.325  19.469  24.753  1.00  0.00     0.009 A 
ATOM     84  C   UNL A   1      33.190  21.321  23.716  1.00  0.00     0.009 A 
ATOM     85  C   UNL A   1      33.376  18.584  24.235  1.00  0.00     0.001 A 
ATOM     86  C   UNL A   1      32.237  20.437  23.199  1.00  0.00     0.001 A 
ATOM     87  C   UNL A   1      32.323  19.072  23.467  1.00  0.00     0.000 A 
ENDBRANCH  78  82
ENDBRANCH  74  76
ENDBRANCH  66  72
ENDBRANCH  63  65
ENDBRANCH  62  63
ENDBRANCH   1  62
TORSDOF 14
ENDMDL
MODEL 2
REMARK VINA RESULT:     -12.4      5.223     10.730
REMARK SMILES O=C(OCCOC(=O)[C@H]1[C@@H](C(=O)Nc2ccccc2-c2ccccc2)[C@@H]2C=C[C@H]1O2)c1ccc(-c2c3nc(c(-c4c(F)cccc4F)c4ccc([nH]4)c(-c4c(F)cccc4F)c4nc(c(-c5c(F)cccc5F)c5ccc2[nH]5)C=C4)C=C3)cc1
REMARK SMILES IDX 5 1 4 2 3 3 2 4 1 5 31 6 32 7 84 8 33 9 83 10 34 11 35 12
REMARK SMILES IDX 36 13 77 14 37 15 82 16 76 17 78 18 38 19 81 20 75 21 74 22
REMARK SMILES IDX 39 24 65 25 48 26 64 27 49 28 52 29 63 30 79 31 50 32 51 33
REMARK SMILES IDX 62 35 80 36 53 37 40 38 41 39 46 40 42 41 43 42 45 43 47 44
REMARK SMILES IDX 44 45 66 46 67 47 72 48 68 49 69 50 71 51 73 52 70 53 54 54
REMARK SMILES IDX 55 55 60 56 56 57 57 58 59 59 61 60 58 61 6 62 7 63 8 64
REMARK SMILES IDX 9 65 10 66 29 67 26 68 28 69 30 70 27 71 11 72 12 73 13 74
REMARK SMILES IDX 14 76 15 77 19 78 16 79 18 80 17 81 20 82 21 83 25 84 22 85
REMARK SMILES IDX 24 86 23 87
REMARK H PARENT 78 23 52 34 13 75
REMARK Flexibility Score: inf
ROOT
ATOM      1  C   UNL A   1      41.154  19.995  26.405  1.00  0.00     0.274 C 
ENDROOT
BRANCH   1   2
ATOM      2  C   UNL A   1      39.889  20.802  26.098  1.00  0.00     0.275 C 
BRANCH   2   3
ATOM      3  O   UNL A   1      39.584  21.956  26.908  1.00  0.00    -0.458 OA
BRANCH   3   4
ATOM      4  C   UNL A   1      38.996  23.054  26.398  1.00  0.00     0.338 C 
ATOM      5  O   UNL A   1      38.104  22.980  25.560  1.00  0.00    -0.246 OA
BRANCH   4   6
ATOM      6  C   UNL A   1      39.365  24.348  27.031  1.00  0.00     0.060 A 
ATOM      7  C   UNL A   1      39.139  24.615  28.385  1.00  0.00     0.016 A 
ATOM      8  C   UNL A   1      40.015  25.306  26.239  1.00  0.00     0.016 A 
ATOM      9  C   UNL A   1      39.641  25.771  28.967  1.00  0.00     0.010 A 
ATOM     10  C   UNL A   1      40.540  26.459  26.828  1.00  0.00     0.010 A 
ATOM     11  C   UNL A   1      40.357  26.692  28.198  1.00  0.00    -0.014 A 
BRANCH  11  12
ATOM     12  C   UNL A   1      40.718  27.976  28.828  1.00  0.00     0.031 A 
ATOM     13  C   UNL A   1      42.180  28.278  28.943  1.00  0.00     0.074 A 
ATOM     14  C   UNL A   1      39.777  28.890  29.134  1.00  0.00     0.049 A 
ATOM     15  N   UNL A   1      42.767  29.430  29.106  1.00  0.00    -0.248 NA
ATOM     16  C   UNL A   1      43.108  27.142  28.799  1.00  0.00     0.031 C 
ATOM     17  C   UNL A   1      38.330  28.693  29.025  1.00  0.00     0.029 A 
ATOM     18  N   UNL A   1      39.895  30.180  29.581  1.00  0.00    -0.354 N 
ATOM     19  C   UNL A   1      44.124  29.165  28.995  1.00  0.00     0.074 A 
ATOM     20  C   UNL A   1      44.285  27.737  28.873  1.00  0.00     0.031 C 
ATOM     21  C   UNL A   1      37.693  29.802  29.439  1.00  0.00     0.029 A 
ATOM     22  C   UNL A   1      38.689  30.819  29.750  1.00  0.00     0.049 A 
ATOM     23  H   UNL A   1      40.762  30.609  29.764  1.00  0.00     0.167 HD
ATOM     24  C   UNL A   1      45.145  30.045  28.929  1.00  0.00     0.037 A 
ATOM     25  C   UNL A   1      38.428  32.105  30.052  1.00  0.00     0.037 A 
ATOM     26  C   UNL A   1      44.965  31.454  29.106  1.00  0.00     0.049 A 
ATOM     27  C   UNL A   1      39.592  33.059  30.086  1.00  0.00     0.074 A 
ATOM     28  C   UNL A   1      45.910  32.458  29.127  1.00  0.00     0.029 A 
ATOM     29  N   UNL A   1      43.728  32.048  29.322  1.00  0.00    -0.354 N 
ATOM     30  N   UNL A   1      40.864  32.815  29.873  1.00  0.00    -0.248 NA
ATOM     31  C   UNL A   1      39.284  34.471  30.342  1.00  0.00     0.031 C 
ATOM     32  C   UNL A   1      45.245  33.661  29.397  1.00  0.00     0.029 A 
ATOM     33  C   UNL A   1      43.884  33.408  29.500  1.00  0.00     0.049 A 
ATOM     34  H   UNL A   1      42.867  31.571  29.345  1.00  0.00     0.167 HD
ATOM     35  C   UNL A   1      41.502  34.046  29.911  1.00  0.00     0.074 A 
ATOM     36  C   UNL A   1      40.472  35.034  30.173  1.00  0.00     0.031 C 
ATOM     37  C   UNL A   1      42.814  34.345  29.740  1.00  0.00     0.037 A 
BRANCH  24  38
ATOM     38  C   UNL A   1      46.497  29.457  28.670  1.00  0.00     0.057 A 
ATOM     39  C   UNL A   1      47.213  28.808  29.689  1.00  0.00     0.134 A 
ATOM     40  C   UNL A   1      47.149  29.666  27.451  1.00  0.00     0.134 A 
ATOM     41  F   UNL A   1      46.657  28.618  30.895  1.00  0.00    -0.206 F 
ATOM     42  C   UNL A   1      48.546  28.430  29.518  1.00  0.00     0.040 A 
ATOM     43  C   UNL A   1      48.477  29.274  27.262  1.00  0.00     0.040 A 
ATOM     44  F   UNL A   1      46.528  30.301  26.447  1.00  0.00    -0.206 F 
ATOM     45  C   UNL A   1      49.182  28.668  28.301  1.00  0.00     0.006 A 
ENDBRANCH  24  38
BRANCH  25  46
ATOM     46  C   UNL A   1      37.029  32.582  30.216  1.00  0.00     0.057 A 
ATOM     47  C   UNL A   1      36.295  33.089  29.135  1.00  0.00     0.134 A 
ATOM     48  C   UNL A   1      36.395  32.565  31.465  1.00  0.00     0.134 A 
ATOM     49  F   UNL A   1      36.843  33.138  27.913  1.00  0.00    -0.206 F 
ATOM     50  C   UNL A   1      34.999  33.587  29.295  1.00  0.00     0.040 A 
ATOM     51  C   UNL A   1      35.094  33.044  31.637  1.00  0.00     0.040 A 
ATOM     52  F   UNL A   1      37.035  32.083  32.541  1.00  0.00    -0.206 F 
ATOM     53  C   UNL A   1      34.394  33.566  30.549  1.00  0.00     0.006 A 
ENDBRANCH  25  46
BRANCH  37  54
ATOM     54  C   UNL A   1      43.190  35.791  29.793  1.00  0.00     0.057 A 
ATOM     55  C   UNL A   1      43.664  36.382  30.969  1.00  0.00     0.134 A 
ATOM     56  C   UNL A   1      43.149  36.576  28.634  1.00  0.00     0.134 A 
ATOM     57  F   UNL A   1      43.715  35.679  32.111  1.00  0.00    -0.206 F 
ATOM     58  C   UNL A   1      44.073  37.714  30.994  1.00  0.00     0.040 A 
ATOM     59  C   UNL A   1      43.579  37.900  28.641  1.00  0.00     0.040 A 
ATOM     60  F   UNL A   1      42.712  36.058  27.476  1.00  0.00    -0.206 F 
ATOM     61  C   UNL A   1      44.041  38.473  29.825  1.00  0.00     0.006 A 
ENDBRANCH  37  54
ENDBRANCH  11  12
ENDBRANCH   4   6
ENDBRANCH   3   4
ENDBRANCH   2   3
ENDBRANCH   1   2
BRANCH   1  62
ATOM     62  O   UNL A   1      42.337  20.389  25.681  1.00  0.00    -0.462 OA
BRANCH  62  63
ATOM     63  C   UNL A   1      42.648  21.705  25.895  1.00  0.00     0.312 C 
ATOM     64  O   UNL A   1      42.657  22.536  24.991  1.00  0.00    -0.252 OA
BRANCH  63  65
ATOM     65  C   UNL A   1      43.171  22.021  27.278  1.00  0.00     0.147 C 
ATOM     66  C   UNL A   1      44.682  22.366  27.360  1.00  0.00     0.129 C 
ATOM     67  C   UNL A   1      42.579  23.230  28.000  1.00  0.00     0.157 C 
ATOM     68  C   UNL A   1      44.696  23.573  28.272  1.00  0.00     0.155 C 
ATOM     69  C   UNL A   1      42.828  23.157  29.478  1.00  0.00     0.004 C 
ATOM     70  O   UNL A   1      43.542  24.257  27.727  1.00  0.00    -0.365 OA
ATOM     71  C   UNL A   1      44.148  23.297  29.640  1.00  0.00     0.004 C 
BRANCH  66  72
ATOM     72  C   UNL A   1      45.465  22.604  26.070  1.00  0.00     0.231 C 
ATOM     73  O   UNL A   1      46.089  21.633  25.607  1.00  0.00    -0.274 OA
ATOM     74  N   UNL A   1      45.467  23.715  25.286  1.00  0.00    -0.325 N 
ATOM     75  H   UNL A   1      45.743  23.496  24.367  1.00  0.00     0.169 HD
BRANCH  74  76
ATOM     76  C   UNL A   1      45.185  25.093  25.411  1.00  0.00     0.049 A 
ATOM     77  C   UNL A   1      43.883  25.446  25.002  1.00  0.00     0.027 A 
ATOM     78  C   UNL A   1      46.114  26.128  25.693  1.00  0.00     0.005 A 
ATOM     79  C   UNL A   1      43.450  26.770  24.981  1.00  0.00     0.002 A 
ATOM     80  C   UNL A   1      45.630  27.463  25.701  1.00  0.00     0.011 A 
ATOM     81  C   UNL A   1      44.317  27.781  25.358  1.00  0.00     0.001 A 
BRANCH  78  82
ATOM     82  C   UNL A   1      47.577  25.948  25.852  1.00  0.00    -0.016 A 
ATOM     83  C   UNL A   1      48.480  26.435  24.882  1.00  0.00     0.009 A 
ATOM     84  C   UNL A   1      48.118  25.298  26.972  1.00  0.00     0.009 A 
ATOM     85  C   UNL A   1      49.863  26.341  25.058  1.00  0.00     0.001 A 
ATOM     86  C   UNL A   1      49.502  25.206  27.152  1.00  0.00     0.001 A 
ATOM     87  C   UNL A   1      50.373  25.737  26.203  1.00  0.00     0.000 A 
ENDBRANCH  78  82
ENDBRANCH  74  76
ENDBRANCH  66  72
ENDBRANCH  63  65
ENDBRANCH  62  63
ENDBRANCH   1  62
TORSDOF 14
ENDMDL
MODEL 3
REMARK VINA RESULT:     -12.4      3.756      8.864
REMARK SMILES O=C(OCCOC(=O)[C@H]1[C@@H](C(=O)Nc2ccccc2-c2ccccc2)[C@@H]2C=C[C@H]1O2)c1ccc(-c2c3nc(c(-c4c(F)cccc4F)c4ccc([nH]4)c(-c4c(F)cccc4F)c4nc(c(-c5c(F)cccc5F)c5ccc2[nH]5)C=C4)C=C3)cc1
REMARK SMILES IDX 5 1 4 2 3 3 2 4 1 5 31 6 32 7 84 8 33 9 83 10 34 11 35 12
REMARK SMILES IDX 36 13 77 14 37 15 82 16 76 17 78 18 38 19 81 20 75 21 74 22
REMARK SMILES IDX 39 24 65 25 48 26 64 27 49 28 52 29 63 30 79 31 50 32 51 33
REMARK SMILES IDX 62 35 80 36 53 37 40 38 41 39 46 40 42 41 43 42 45 43 47 44
REMARK SMILES IDX 44 45 66 46 67 47 72 48 68 49 69 50 71 51 73 52 70 53 54 54
REMARK SMILES IDX 55 55 60 56 56 57 57 58 59 59 61 60 58 61 6 62 7 63 8 64
REMARK SMILES IDX 9 65 10 66 29 67 26 68 28 69 30 70 27 71 11 72 12 73 13 74
REMARK SMILES IDX 14 76 15 77 19 78 16 79 18 80 17 81 20 82 21 83 25 84 22 85
REMARK SMILES IDX 24 86 23 87
REMARK H PARENT 78 23 52 34 13 75
REMARK Flexibility Score: inf
ROOT
ATOM      1  C   UNL A   1      36.918  23.019  23.609  1.00  0.00     0.274 C 
ENDROOT
BRANCH   1   2
ATOM      2  C   UNL A   1      37.029  21.680  24.343  1.00  0.00     0.275 C 
BRANCH   2   3
ATOM      3  O   UNL A   1      37.497  21.670  25.708  1.00  0.00    -0.458 OA
BRANCH   3   4
ATOM      4  C   UNL A   1      38.799  21.521  26.017  1.00  0.00     0.338 C 
ATOM      5  O   UNL A   1      39.413  20.494  25.751  1.00  0.00    -0.246 OA
BRANCH   4   6
ATOM      6  C   UNL A   1      39.489  22.729  26.540  1.00  0.00     0.060 A 
ATOM      7  C   UNL A   1      39.082  24.027  26.217  1.00  0.00     0.016 A 
ATOM      8  C   UNL A   1      40.554  22.544  27.434  1.00  0.00     0.016 A 
ATOM      9  C   UNL A   1      39.655  25.123  26.850  1.00  0.00     0.010 A 
ATOM     10  C   UNL A   1      41.116  23.643  28.088  1.00  0.00     0.010 A 
ATOM     11  C   UNL A   1      40.663  24.938  27.799  1.00  0.00    -0.014 A 
BRANCH  11  12
ATOM     12  C   UNL A   1      41.349  26.139  28.313  1.00  0.00     0.031 A 
ATOM     13  C   UNL A   1      42.771  26.332  27.888  1.00  0.00     0.074 A 
ATOM     14  C   UNL A   1      40.675  27.086  28.993  1.00  0.00     0.049 A 
ATOM     15  N   UNL A   1      43.481  27.425  27.878  1.00  0.00    -0.248 NA
ATOM     16  C   UNL A   1      43.471  25.152  27.350  1.00  0.00     0.031 C 
ATOM     17  C   UNL A   1      39.278  26.996  29.424  1.00  0.00     0.029 A 
ATOM     18  N   UNL A   1      41.068  28.324  29.429  1.00  0.00    -0.354 N 
ATOM     19  C   UNL A   1      44.671  27.079  27.255  1.00  0.00     0.074 A 
ATOM     20  C   UNL A   1      44.642  25.659  27.010  1.00  0.00     0.031 C 
ATOM     21  C   UNL A   1      38.944  28.107  30.102  1.00  0.00     0.029 A 
ATOM     22  C   UNL A   1      40.074  29.027  30.069  1.00  0.00     0.049 A 
ATOM     23  H   UNL A   1      41.977  28.678  29.296  1.00  0.00     0.167 HD
ATOM     24  C   UNL A   1      45.672  27.892  26.856  1.00  0.00     0.037 A 
ATOM     25  C   UNL A   1      40.062  30.299  30.511  1.00  0.00     0.037 A 
ATOM     26  C   UNL A   1      45.701  29.290  27.159  1.00  0.00     0.049 A 
ATOM     27  C   UNL A   1      41.240  31.167  30.157  1.00  0.00     0.074 A 
ATOM     28  C   UNL A   1      46.676  30.224  26.876  1.00  0.00     0.029 A 
ATOM     29  N   UNL A   1      44.691  29.947  27.852  1.00  0.00    -0.354 N 
ATOM     30  N   UNL A   1      42.316  30.856  29.471  1.00  0.00    -0.248 NA
ATOM     31  C   UNL A   1      41.180  32.570  30.580  1.00  0.00     0.031 C 
ATOM     32  C   UNL A   1      46.272  31.442  27.436  1.00  0.00     0.029 A 
ATOM     33  C   UNL A   1      45.028  31.274  28.028  1.00  0.00     0.049 A 
ATOM     34  H   UNL A   1      43.859  29.528  28.170  1.00  0.00     0.167 HD
ATOM     35  C   UNL A   1      43.034  32.034  29.331  1.00  0.00     0.074 A 
ATOM     36  C   UNL A   1      42.269  33.064  30.008  1.00  0.00     0.031 C 
ATOM     37  C   UNL A   1      44.212  32.257  28.697  1.00  0.00     0.037 A 
BRANCH  24  38
ATOM     38  C   UNL A   1      46.773  27.237  26.081  1.00  0.00     0.057 A 
ATOM     39  C   UNL A   1      47.888  26.683  26.732  1.00  0.00     0.134 A 
ATOM     40  C   UNL A   1      46.798  27.290  24.685  1.00  0.00     0.134 A 
ATOM     41  F   UNL A   1      47.944  26.645  28.072  1.00  0.00    -0.206 F 
ATOM     42  C   UNL A   1      49.007  26.249  26.020  1.00  0.00     0.040 A 
ATOM     43  C   UNL A   1      47.904  26.839  23.961  1.00  0.00     0.040 A 
ATOM     44  F   UNL A   1      45.774  27.828  24.006  1.00  0.00    -0.206 F 
ATOM     45  C   UNL A   1      49.017  26.330  24.629  1.00  0.00     0.006 A 
ENDBRANCH  24  38
BRANCH  25  46
ATOM     46  C   UNL A   1      38.873  30.854  31.210  1.00  0.00     0.057 A 
ATOM     47  C   UNL A   1      38.726  30.754  32.600  1.00  0.00     0.134 A 
ATOM     48  C   UNL A   1      37.838  31.480  30.503  1.00  0.00     0.134 A 
ATOM     49  F   UNL A   1      39.677  30.162  33.336  1.00  0.00    -0.206 F 
ATOM     50  C   UNL A   1      37.587  31.227  33.256  1.00  0.00     0.040 A 
ATOM     51  C   UNL A   1      36.701  31.973  31.148  1.00  0.00     0.040 A 
ATOM     52  F   UNL A   1      37.918  31.620  29.172  1.00  0.00    -0.206 F 
ATOM     53  C   UNL A   1      36.569  31.839  32.529  1.00  0.00     0.006 A 
ENDBRANCH  25  46
BRANCH  37  54
ATOM     54  C   UNL A   1      44.714  33.666  28.679  1.00  0.00     0.057 A 
ATOM     55  C   UNL A   1      45.566  34.153  29.676  1.00  0.00     0.134 A 
ATOM     56  C   UNL A   1      44.399  34.515  27.610  1.00  0.00     0.134 A 
ATOM     57  F   UNL A   1      45.891  33.386  30.727  1.00  0.00    -0.206 F 
ATOM     58  C   UNL A   1      46.080  35.447  29.617  1.00  0.00     0.040 A 
ATOM     59  C   UNL A   1      44.928  35.801  27.528  1.00  0.00     0.040 A 
ATOM     60  F   UNL A   1      43.594  34.097  26.622  1.00  0.00    -0.206 F 
ATOM     61  C   UNL A   1      45.769  36.270  28.536  1.00  0.00     0.006 A 
ENDBRANCH  37  54
ENDBRANCH  11  12
ENDBRANCH   4   6
ENDBRANCH   3   4
ENDBRANCH   2   3
ENDBRANCH   1   2
BRANCH   1  62
ATOM     62  O   UNL A   1      35.587  23.404  23.208  1.00  0.00    -0.462 OA
BRANCH  62  63
ATOM     63  C   UNL A   1      34.934  24.083  24.202  1.00  0.00     0.312 C 
ATOM     64  O   UNL A   1      35.527  24.615  25.137  1.00  0.00    -0.252 OA
BRANCH  63  65
ATOM     65  C   UNL A   1      33.427  23.963  24.174  1.00  0.00     0.147 C 
ATOM     66  C   UNL A   1      32.664  25.230  23.699  1.00  0.00     0.129 C 
ATOM     67  C   UNL A   1      32.817  22.917  23.244  1.00  0.00     0.157 C 
ATOM     68  C   UNL A   1      31.633  24.657  22.752  1.00  0.00     0.155 C 
ATOM     69  C   UNL A   1      31.408  22.590  23.643  1.00  0.00     0.004 C 
ATOM     70  O   UNL A   1      32.479  23.690  22.084  1.00  0.00    -0.365 OA
ATOM     71  C   UNL A   1      30.689  23.693  23.406  1.00  0.00     0.004 C 
BRANCH  66  72
ATOM     72  C   UNL A   1      33.448  26.384  23.075  1.00  0.00     0.231 C 
ATOM     73  O   UNL A   1      34.028  26.150  22.001  1.00  0.00    -0.274 OA
ATOM     74  N   UNL A   1      33.491  27.680  23.483  1.00  0.00    -0.325 N 
ATOM     75  H   UNL A   1      33.752  28.273  22.740  1.00  0.00     0.169 HD
BRANCH  74  76
ATOM     76  C   UNL A   1      33.268  28.422  24.663  1.00  0.00     0.049 A 
ATOM     77  C   UNL A   1      34.297  28.292  25.618  1.00  0.00     0.027 A 
ATOM     78  C   UNL A   1      32.068  29.078  25.042  1.00  0.00     0.005 A 
ATOM     79  C   UNL A   1      34.217  28.889  26.875  1.00  0.00     0.002 A 
ATOM     80  C   UNL A   1      32.034  29.707  26.313  1.00  0.00     0.011 A 
ATOM     81  C   UNL A   1      33.094  29.622  27.214  1.00  0.00     0.001 A 
BRANCH  78  82
ATOM     82  C   UNL A   1      30.798  29.052  24.277  1.00  0.00    -0.016 A 
ATOM     83  C   UNL A   1      30.165  30.249  23.876  1.00  0.00     0.009 A 
ATOM     84  C   UNL A   1      30.183  27.843  23.917  1.00  0.00     0.009 A 
ATOM     85  C   UNL A   1      29.011  30.237  23.088  1.00  0.00     0.001 A 
ATOM     86  C   UNL A   1      29.030  27.828  23.126  1.00  0.00     0.001 A 
ATOM     87  C   UNL A   1      28.452  29.023  22.702  1.00  0.00     0.000 A 
ENDBRANCH  78  82
ENDBRANCH  74  76
ENDBRANCH  66  72
ENDBRANCH  63  65
ENDBRANCH  62  63
ENDBRANCH   1  62
TORSDOF 14
ENDMDL
