MODEL 1
REMARK VINA RESULT:     -11.7      0.000      0.000
REMARK SMILES Cc1cscc1CNC(=O)N[C@@H](C)c1nc(C(=O)OCCOC(=O)c2ccc(-c3c4nc(c(-c5c(F)cccc5F)c5ccc([nH]5)c(-c5c(F)cccc5F)c5nc(c(-c6c(F)cccc6F)c6ccc3[nH]6)C=C5)C=C4)cc2)cs1
REMARK SMILES IDX 20 1 19 2 17 3 18 4 16 5 14 6 15 7 80 8 79 9 12 10 13 11
REMARK SMILES IDX 11 12 8 13 9 14 10 16 7 18 6 19 1 20 2 21 3 22 4 23 5 24
REMARK SMILES IDX 21 25 22 26 23 27 24 28 25 29 26 30 78 31 27 32 77 33 28 34
REMARK SMILES IDX 29 35 30 36 71 37 31 38 76 39 70 40 72 41 32 42 75 43 69 44
REMARK SMILES IDX 68 45 33 47 59 48 42 49 58 50 43 51 46 52 57 53 73 54 44 55
REMARK SMILES IDX 45 56 56 58 74 59 47 60 34 61 35 62 40 63 36 64 37 65 39 66
REMARK SMILES IDX 41 67 38 68 60 69 61 70 66 71 62 72 63 73 65 74 67 75 64 76
REMARK SMILES IDX 48 77 49 78 54 79 50 80 51 81 53 82 55 83 52 84
REMARK H PARENT 8 15 11 17 72 46 46 57
REMARK Flexibility Score: inf
ROOT
ATOM      1  C   UNL A   1      42.640  20.996  26.064  1.00  0.00     0.275 C 
ENDROOT
BRANCH   1   2
ATOM      2  O   UNL A   1      41.313  21.310  25.597  1.00  0.00    -0.457 OA
BRANCH   2   3
ATOM      3  C   UNL A   1      40.315  21.181  26.518  1.00  0.00     0.357 C 
ATOM      4  O   UNL A   1      40.444  20.597  27.592  1.00  0.00    -0.244 OA
BRANCH   3   5
ATOM      5  C   UNL A   1      39.065  21.860  26.152  1.00  0.00     0.159 A 
ATOM      6  C   UNL A   1      36.963  22.084  25.453  1.00  0.00     0.116 A 
ATOM      7  N   UNL A   1      37.951  21.218  25.608  1.00  0.00    -0.232 NA
ATOM      8  S   UNL A   1      37.355  23.724  25.794  1.00  0.00    -0.124 S 
ATOM      9  C   UNL A   1      38.874  23.216  26.368  1.00  0.00     0.102 A 
BRANCH   6  10
ATOM     10  C   UNL A   1      35.531  21.738  25.132  1.00  0.00     0.140 C 
ATOM     11  C   UNL A   1      35.045  22.602  23.968  1.00  0.00     0.039 C 
BRANCH  10  12
ATOM     12  N   UNL A   1      34.703  21.946  26.304  1.00  0.00    -0.329 N 
ATOM     13  N   UNL A   1      32.668  20.768  26.009  1.00  0.00    -0.334 N 
ATOM     14  C   UNL A   1      33.510  21.522  26.713  1.00  0.00     0.315 C 
ATOM     15  H   UNL A   1      31.876  20.526  26.541  1.00  0.00     0.165 HD
ATOM     16  O   UNL A   1      33.148  21.853  27.847  1.00  0.00    -0.249 OA
ATOM     17  H   UNL A   1      35.127  22.549  26.957  1.00  0.00     0.166 HD
BRANCH  13  18
ATOM     18  C   UNL A   1      32.600  20.207  24.679  1.00  0.00     0.154 C 
BRANCH  18  19
ATOM     19  C   UNL A   1      32.880  18.729  24.694  1.00  0.00    -0.015 A 
ATOM     20  C   UNL A   1      32.519  18.368  22.131  1.00  0.00     0.045 C 
ATOM     21  C   UNL A   1      32.823  17.886  23.513  1.00  0.00    -0.035 A 
ATOM     22  C   UNL A   1      33.082  16.562  23.820  1.00  0.00     0.068 A 
ATOM     23  S   UNL A   1      33.423  16.318  25.471  1.00  0.00    -0.152 S 
ATOM     24  C   UNL A   1      33.218  17.978  25.809  1.00  0.00     0.070 A 
ENDBRANCH  18  19
ENDBRANCH  13  18
ENDBRANCH  10  12
ENDBRANCH   6  10
ENDBRANCH   3   5
ENDBRANCH   2   3
ENDBRANCH   1   2
BRANCH   1  25
ATOM     25  C   UNL A   1      43.715  21.827  25.354  1.00  0.00     0.275 C 
BRANCH  25  26
ATOM     26  O   UNL A   1      43.170  23.042  24.798  1.00  0.00    -0.458 OA
BRANCH  26  27
ATOM     27  C   UNL A   1      43.874  24.161  25.078  1.00  0.00     0.338 C 
ATOM     28  O   UNL A   1      44.935  24.510  24.588  1.00  0.00    -0.246 OA
BRANCH  27  29
ATOM     29  C   UNL A   1      43.119  25.035  25.988  1.00  0.00     0.060 A 
ATOM     30  C   UNL A   1      43.475  26.379  26.013  1.00  0.00     0.016 A 
ATOM     31  C   UNL A   1      42.236  24.530  26.938  1.00  0.00     0.016 A 
ATOM     32  C   UNL A   1      43.016  27.220  27.018  1.00  0.00     0.010 A 
ATOM     33  C   UNL A   1      41.719  25.393  27.916  1.00  0.00     0.010 A 
ATOM     34  C   UNL A   1      42.131  26.739  27.987  1.00  0.00    -0.014 A 
BRANCH  34  35
ATOM     35  C   UNL A   1      41.713  27.629  29.107  1.00  0.00     0.031 A 
ATOM     36  C   UNL A   1      42.500  27.645  30.391  1.00  0.00     0.074 A 
ATOM     37  C   UNL A   1      40.661  28.460  28.965  1.00  0.00     0.049 A 
ATOM     38  N   UNL A   1      42.219  28.226  31.530  1.00  0.00    -0.248 NA
ATOM     39  C   UNL A   1      43.767  26.896  30.397  1.00  0.00     0.031 C 
ATOM     40  C   UNL A   1      39.850  28.603  27.755  1.00  0.00     0.029 A 
ATOM     41  N   UNL A   1      40.095  29.348  29.848  1.00  0.00    -0.354 N 
ATOM     42  C   UNL A   1      43.244  27.870  32.400  1.00  0.00     0.074 A 
ATOM     43  C   UNL A   1      44.147  27.015  31.661  1.00  0.00     0.031 C 
ATOM     44  C   UNL A   1      38.909  29.538  27.962  1.00  0.00     0.029 A 
ATOM     45  C   UNL A   1      38.994  29.998  29.344  1.00  0.00     0.049 A 
ATOM     46  H   UNL A   1      40.444  29.503  30.755  1.00  0.00     0.167 HD
ATOM     47  C   UNL A   1      43.416  28.227  33.697  1.00  0.00     0.037 A 
ATOM     48  C   UNL A   1      38.120  30.834  29.937  1.00  0.00     0.037 A 
ATOM     49  C   UNL A   1      42.543  29.122  34.413  1.00  0.00     0.049 A 
ATOM     50  C   UNL A   1      38.301  31.171  31.390  1.00  0.00     0.074 A 
ATOM     51  C   UNL A   1      42.638  29.556  35.724  1.00  0.00     0.029 A 
ATOM     52  N   UNL A   1      41.418  29.729  33.873  1.00  0.00    -0.354 N 
ATOM     53  N   UNL A   1      39.245  30.792  32.217  1.00  0.00    -0.248 NA
ATOM     54  C   UNL A   1      37.284  32.041  31.998  1.00  0.00     0.031 C 
ATOM     55  C   UNL A   1      41.547  30.389  35.991  1.00  0.00     0.029 A 
ATOM     56  C   UNL A   1      40.802  30.519  34.830  1.00  0.00     0.049 A 
ATOM     57  H   UNL A   1      41.105  29.616  32.946  1.00  0.00     0.167 HD
ATOM     58  C   UNL A   1      38.950  31.395  33.433  1.00  0.00     0.074 A 
ATOM     59  C   UNL A   1      37.749  32.178  33.232  1.00  0.00     0.031 C 
ATOM     60  C   UNL A   1      39.614  31.304  34.611  1.00  0.00     0.037 A 
BRANCH  47  61
ATOM     61  C   UNL A   1      44.572  27.620  34.438  1.00  0.00     0.057 A 
ATOM     62  C   UNL A   1      45.830  28.234  34.499  1.00  0.00     0.134 A 
ATOM     63  C   UNL A   1      44.412  26.411  35.129  1.00  0.00     0.134 A 
ATOM     64  F   UNL A   1      46.056  29.387  33.852  1.00  0.00    -0.206 F 
ATOM     65  C   UNL A   1      46.892  27.654  35.197  1.00  0.00     0.040 A 
ATOM     66  C   UNL A   1      45.458  25.837  35.853  1.00  0.00     0.040 A 
ATOM     67  F   UNL A   1      43.232  25.772  35.120  1.00  0.00    -0.206 F 
ATOM     68  C   UNL A   1      46.706  26.454  35.883  1.00  0.00     0.006 A 
ENDBRANCH  47  61
BRANCH  48  69
ATOM     69  C   UNL A   1      36.968  31.374  29.170  1.00  0.00     0.057 A 
ATOM     70  C   UNL A   1      35.864  30.573  28.858  1.00  0.00     0.134 A 
ATOM     71  C   UNL A   1      36.948  32.700  28.720  1.00  0.00     0.134 A 
ATOM     72  F   UNL A   1      35.833  29.288  29.238  1.00  0.00    -0.206 F 
ATOM     73  C   UNL A   1      34.789  31.066  28.114  1.00  0.00     0.040 A 
ATOM     74  C   UNL A   1      35.868  33.216  28.003  1.00  0.00     0.040 A 
ATOM     75  F   UNL A   1      37.974  33.522  28.987  1.00  0.00    -0.206 F 
ATOM     76  C   UNL A   1      34.787  32.393  27.691  1.00  0.00     0.006 A 
ENDBRANCH  48  69
BRANCH  60  77
ATOM     77  C   UNL A   1      39.083  32.111  35.761  1.00  0.00     0.057 A 
ATOM     78  C   UNL A   1      38.239  31.556  36.730  1.00  0.00     0.134 A 
ATOM     79  C   UNL A   1      39.448  33.454  35.913  1.00  0.00     0.134 A 
ATOM     80  F   UNL A   1      37.839  30.279  36.634  1.00  0.00    -0.206 F 
ATOM     81  C   UNL A   1      37.757  32.315  37.798  1.00  0.00     0.040 A 
ATOM     82  C   UNL A   1      38.996  34.216  36.991  1.00  0.00     0.040 A 
ATOM     83  F   UNL A   1      40.260  34.045  35.023  1.00  0.00    -0.206 F 
ATOM     84  C   UNL A   1      38.143  33.648  37.935  1.00  0.00     0.006 A 
ENDBRANCH  60  77
ENDBRANCH  34  35
ENDBRANCH  27  29
ENDBRANCH  26  27
ENDBRANCH  25  26
ENDBRANCH   1  25
TORSDOF 15
ENDMDL
MODEL 2
REMARK VINA RESULT:     -11.6      5.812     10.583
REMARK SMILES Cc1cscc1CNC(=O)N[C@@H](C)c1nc(C(=O)OCCOC(=O)c2ccc(-c3c4nc(c(-c5c(F)cccc5F)c5ccc([nH]5)c(-c5c(F)cccc5F)c5nc(c(-c6c(F)cccc6F)c6ccc3[nH]6)C=C5)C=C4)cc2)cs1
REMARK SMILES IDX 20 1 19 2 17 3 18 4 16 5 14 6 15 7 80 8 79 9 12 10 13 11
REMARK SMILES IDX 11 12 8 13 9 14 10 16 7 18 6 19 1 20 2 21 3 22 4 23 5 24
REMARK SMILES IDX 21 25 22 26 23 27 24 28 25 29 26 30 78 31 27 32 77 33 28 34
REMARK SMILES IDX 29 35 30 36 71 37 31 38 76 39 70 40 72 41 32 42 75 43 69 44
REMARK SMILES IDX 68 45 33 47 59 48 42 49 58 50 43 51 46 52 57 53 73 54 44 55
REMARK SMILES IDX 45 56 56 58 74 59 47 60 34 61 35 62 40 63 36 64 37 65 39 66
REMARK SMILES IDX 41 67 38 68 60 69 61 70 66 71 62 72 63 73 65 74 67 75 64 76
REMARK SMILES IDX 48 77 49 78 54 79 50 80 51 81 53 82 55 83 52 84
REMARK H PARENT 8 15 11 17 72 46 46 57
REMARK Flexibility Score: inf
ROOT
ATOM      1  C   UNL A   1      33.732  34.518  29.796  1.00  0.00     0.275 C 
ENDROOT
BRANCH   1   2
ATOM      2  O   UNL A   1      34.105  33.600  28.750  1.00  0.00    -0.457 OA
BRANCH   2   3
ATOM      3  C   UNL A   1      33.088  33.171  27.948  1.00  0.00     0.357 C 
ATOM      4  O   UNL A   1      32.156  33.884  27.583  1.00  0.00    -0.244 OA
BRANCH   3   5
ATOM      5  C   UNL A   1      33.226  31.782  27.491  1.00  0.00     0.159 A 
ATOM      6  C   UNL A   1      32.736  29.912  26.385  1.00  0.00     0.116 A 
ATOM      7  N   UNL A   1      32.297  31.124  26.681  1.00  0.00    -0.232 NA
ATOM      8  S   UNL A   1      34.186  29.435  27.178  1.00  0.00    -0.124 S 
ATOM      9  C   UNL A   1      34.338  31.013  27.797  1.00  0.00     0.102 A 
BRANCH   6  10
ATOM     10  C   UNL A   1      32.149  28.992  25.344  1.00  0.00     0.140 C 
ATOM     11  C   UNL A   1      31.847  27.633  25.975  1.00  0.00     0.039 C 
BRANCH  10  12
ATOM     12  N   UNL A   1      33.077  28.849  24.239  1.00  0.00    -0.329 N 
ATOM     13  N   UNL A   1      31.886  28.044  22.355  1.00  0.00    -0.334 N 
ATOM     14  C   UNL A   1      32.986  28.485  22.963  1.00  0.00     0.315 C 
ATOM     15  H   UNL A   1      32.044  27.897  21.394  1.00  0.00     0.165 HD
ATOM     16  O   UNL A   1      34.009  28.564  22.276  1.00  0.00    -0.249 OA
ATOM     17  H   UNL A   1      34.000  29.076  24.496  1.00  0.00     0.166 HD
BRANCH  13  18
ATOM     18  C   UNL A   1      30.525  27.722  22.720  1.00  0.00     0.154 C 
BRANCH  18  19
ATOM     19  C   UNL A   1      29.602  28.882  22.460  1.00  0.00    -0.015 A 
ATOM     20  C   UNL A   1      27.503  27.799  23.580  1.00  0.00     0.045 C 
ATOM     21  C   UNL A   1      28.202  28.899  22.848  1.00  0.00    -0.035 A 
ATOM     22  C   UNL A   1      27.579  30.068  22.450  1.00  0.00     0.068 A 
ATOM     23  S   UNL A   1      28.634  31.147  21.661  1.00  0.00    -0.152 S 
ATOM     24  C   UNL A   1      29.944  30.066  21.826  1.00  0.00     0.070 A 
ENDBRANCH  18  19
ENDBRANCH  13  18
ENDBRANCH  10  12
ENDBRANCH   6  10
ENDBRANCH   3   5
ENDBRANCH   2   3
ENDBRANCH   1   2
BRANCH   1  25
ATOM     25  C   UNL A   1      34.278  34.089  31.164  1.00  0.00     0.275 C 
BRANCH  25  26
ATOM     26  O   UNL A   1      34.502  32.665  31.227  1.00  0.00    -0.458 OA
BRANCH  26  27
ATOM     27  C   UNL A   1      35.477  32.280  32.080  1.00  0.00     0.338 C 
ATOM     28  O   UNL A   1      35.496  32.416  33.292  1.00  0.00    -0.246 OA
BRANCH  27  29
ATOM     29  C   UNL A   1      36.512  31.514  31.372  1.00  0.00     0.060 A 
ATOM     30  C   UNL A   1      37.353  30.722  32.147  1.00  0.00     0.016 A 
ATOM     31  C   UNL A   1      36.793  31.716  30.024  1.00  0.00     0.016 A 
ATOM     32  C   UNL A   1      38.516  30.181  31.614  1.00  0.00     0.010 A 
ATOM     33  C   UNL A   1      37.932  31.116  29.466  1.00  0.00     0.010 A 
ATOM     34  C   UNL A   1      38.824  30.371  30.264  1.00  0.00    -0.014 A 
BRANCH  34  35
ATOM     35  C   UNL A   1      40.115  29.856  29.726  1.00  0.00     0.031 A 
ATOM     36  C   UNL A   1      41.319  30.760  29.663  1.00  0.00     0.074 A 
ATOM     37  C   UNL A   1      40.232  28.571  29.338  1.00  0.00     0.049 A 
ATOM     38  N   UNL A   1      42.481  30.557  29.095  1.00  0.00    -0.248 NA
ATOM     39  C   UNL A   1      41.193  32.073  30.317  1.00  0.00     0.031 C 
ATOM     40  C   UNL A   1      39.171  27.563  29.409  1.00  0.00     0.029 A 
ATOM     41  N   UNL A   1      41.301  27.888  28.810  1.00  0.00    -0.354 N 
ATOM     42  C   UNL A   1      43.202  31.732  29.276  1.00  0.00     0.074 A 
ATOM     43  C   UNL A   1      42.344  32.646  29.998  1.00  0.00     0.031 C 
ATOM     44  C   UNL A   1      39.648  26.389  28.967  1.00  0.00     0.029 A 
ATOM     45  C   UNL A   1      41.017  26.579  28.501  1.00  0.00     0.049 A 
ATOM     46  H   UNL A   1      42.185  28.296  28.668  1.00  0.00     0.167 HD
ATOM     47  C   UNL A   1      44.466  32.019  28.879  1.00  0.00     0.037 A 
ATOM     48  C   UNL A   1      41.756  25.646  27.869  1.00  0.00     0.037 A 
ATOM     49  C   UNL A   1      45.335  31.086  28.208  1.00  0.00     0.049 A 
ATOM     50  C   UNL A   1      43.134  26.006  27.389  1.00  0.00     0.074 A 
ATOM     51  C   UNL A   1      46.637  31.277  27.776  1.00  0.00     0.029 A 
ATOM     52  N   UNL A   1      44.994  29.782  27.881  1.00  0.00    -0.354 N 
ATOM     53  N   UNL A   1      43.789  27.133  27.522  1.00  0.00    -0.248 NA
ATOM     54  C   UNL A   1      43.870  24.967  26.655  1.00  0.00     0.031 C 
ATOM     55  C   UNL A   1      47.067  30.104  27.148  1.00  0.00     0.029 A 
ATOM     56  C   UNL A   1      46.053  29.163  27.238  1.00  0.00     0.049 A 
ATOM     57  H   UNL A   1      44.127  29.359  28.078  1.00  0.00     0.167 HD
ATOM     58  C   UNL A   1      45.021  26.933  26.912  1.00  0.00     0.074 A 
ATOM     59  C   UNL A   1      45.028  25.570  26.423  1.00  0.00     0.031 C 
ATOM     60  C   UNL A   1      46.051  27.801  26.768  1.00  0.00     0.037 A 
BRANCH  47  61
ATOM     61  C   UNL A   1      44.974  33.411  29.126  1.00  0.00     0.057 A 
ATOM     62  C   UNL A   1      45.684  33.756  30.282  1.00  0.00     0.134 A 
ATOM     63  C   UNL A   1      44.771  34.416  28.170  1.00  0.00     0.134 A 
ATOM     64  F   UNL A   1      45.905  32.846  31.242  1.00  0.00    -0.206 F 
ATOM     65  C   UNL A   1      46.150  35.057  30.491  1.00  0.00     0.040 A 
ATOM     66  C   UNL A   1      45.257  35.712  28.355  1.00  0.00     0.040 A 
ATOM     67  F   UNL A   1      44.105  34.153  27.035  1.00  0.00    -0.206 F 
ATOM     68  C   UNL A   1      45.943  36.037  29.522  1.00  0.00     0.006 A 
ENDBRANCH  47  61
BRANCH  48  69
ATOM     69  C   UNL A   1      41.191  24.296  27.612  1.00  0.00     0.057 A 
ATOM     70  C   UNL A   1      41.623  23.178  28.335  1.00  0.00     0.134 A 
ATOM     71  C   UNL A   1      40.215  24.089  26.629  1.00  0.00     0.134 A 
ATOM     72  F   UNL A   1      42.573  23.306  29.272  1.00  0.00    -0.206 F 
ATOM     73  C   UNL A   1      41.117  21.902  28.079  1.00  0.00     0.040 A 
ATOM     74  C   UNL A   1      39.677  22.825  26.384  1.00  0.00     0.040 A 
ATOM     75  F   UNL A   1      39.756  25.118  25.901  1.00  0.00    -0.206 F 
ATOM     76  C   UNL A   1      40.135  21.725  27.106  1.00  0.00     0.006 A 
ENDBRANCH  48  69
BRANCH  60  77
ATOM     77  C   UNL A   1      47.291  27.287  26.096  1.00  0.00     0.057 A 
ATOM     78  C   UNL A   1      48.320  26.664  26.812  1.00  0.00     0.134 A 
ATOM     79  C   UNL A   1      47.439  27.390  24.707  1.00  0.00     0.134 A 
ATOM     80  F   UNL A   1      48.246  26.547  28.146  1.00  0.00    -0.206 F 
ATOM     81  C   UNL A   1      49.465  26.184  26.174  1.00  0.00     0.040 A 
ATOM     82  C   UNL A   1      48.566  26.889  24.054  1.00  0.00     0.040 A 
ATOM     83  F   UNL A   1      46.487  27.969  23.960  1.00  0.00    -0.206 F 
ATOM     84  C   UNL A   1      49.586  26.289  24.789  1.00  0.00     0.006 A 
ENDBRANCH  60  77
ENDBRANCH  34  35
ENDBRANCH  27  29
ENDBRANCH  26  27
ENDBRANCH  25  26
ENDBRANCH   1  25
TORSDOF 15
ENDMDL
MODEL 3
REMARK VINA RESULT:     -11.5      1.670      2.815
REMARK SMILES Cc1cscc1CNC(=O)N[C@@H](C)c1nc(C(=O)OCCOC(=O)c2ccc(-c3c4nc(c(-c5c(F)cccc5F)c5ccc([nH]5)c(-c5c(F)cccc5F)c5nc(c(-c6c(F)cccc6F)c6ccc3[nH]6)C=C5)C=C4)cc2)cs1
REMARK SMILES IDX 20 1 19 2 17 3 18 4 16 5 14 6 15 7 80 8 79 9 12 10 13 11
REMARK SMILES IDX 11 12 8 13 9 14 10 16 7 18 6 19 1 20 2 21 3 22 4 23 5 24
REMARK SMILES IDX 21 25 22 26 23 27 24 28 25 29 26 30 78 31 27 32 77 33 28 34
REMARK SMILES IDX 29 35 30 36 71 37 31 38 76 39 70 40 72 41 32 42 75 43 69 44
REMARK SMILES IDX 68 45 33 47 59 48 42 49 58 50 43 51 46 52 57 53 73 54 44 55
REMARK SMILES IDX 45 56 56 58 74 59 47 60 34 61 35 62 40 63 36 64 37 65 39 66
REMARK SMILES IDX 41 67 38 68 60 69 61 70 66 71 62 72 63 73 65 74 67 75 64 76
REMARK SMILES IDX 48 77 49 78 54 79 50 80 51 81 53 82 55 83 52 84
REMARK H PARENT 8 15 11 17 72 46 46 57
REMARK Flexibility Score: inf
ROOT
ATOM      1  C   UNL A   1      42.662  21.044  26.002  1.00  0.00     0.275 C 
ENDROOT
BRANCH   1   2
ATOM      2  O   UNL A   1      41.327  21.340  25.549  1.00  0.00    -0.457 OA
BRANCH   2   3
ATOM      3  C   UNL A   1      40.340  21.203  26.482  1.00  0.00     0.357 C 
ATOM      4  O   UNL A   1      40.482  20.604  27.546  1.00  0.00    -0.244 OA
BRANCH   3   5
ATOM      5  C   UNL A   1      39.089  21.892  26.142  1.00  0.00     0.159 A 
ATOM      6  C   UNL A   1      36.986  22.137  25.454  1.00  0.00     0.116 A 
ATOM      7  N   UNL A   1      37.975  21.268  25.575  1.00  0.00    -0.232 NA
ATOM      8  S   UNL A   1      37.373  23.764  25.855  1.00  0.00    -0.124 S 
ATOM      9  C   UNL A   1      38.894  23.238  26.409  1.00  0.00     0.102 A 
BRANCH   6  10
ATOM     10  C   UNL A   1      35.554  21.800  25.121  1.00  0.00     0.140 C 
ATOM     11  C   UNL A   1      35.378  20.282  25.097  1.00  0.00     0.039 C 
BRANCH  10  12
ATOM     12  N   UNL A   1      35.201  22.376  23.838  1.00  0.00    -0.329 N 
ATOM     13  N   UNL A   1      33.715  24.185  24.207  1.00  0.00    -0.334 N 
ATOM     14  C   UNL A   1      34.458  23.401  23.428  1.00  0.00     0.315 C 
ATOM     15  H   UNL A   1      33.305  24.916  23.690  1.00  0.00     0.165 HD
ATOM     16  O   UNL A   1      34.454  23.651  22.219  1.00  0.00    -0.249 OA
ATOM     17  H   UNL A   1      35.612  21.891  23.086  1.00  0.00     0.166 HD
BRANCH  13  18
ATOM     18  C   UNL A   1      33.347  24.257  25.603  1.00  0.00     0.154 C 
BRANCH  18  19
ATOM     19  C   UNL A   1      32.881  25.640  25.973  1.00  0.00    -0.015 A 
ATOM     20  C   UNL A   1      30.351  25.018  26.170  1.00  0.00     0.045 C 
ATOM     21  C   UNL A   1      31.492  25.983  26.216  1.00  0.00    -0.035 A 
ATOM     22  C   UNL A   1      31.342  27.330  26.496  1.00  0.00     0.068 A 
ATOM     23  S   UNL A   1      32.820  28.174  26.506  1.00  0.00    -0.152 S 
ATOM     24  C   UNL A   1      33.690  26.756  26.125  1.00  0.00     0.070 A 
ENDBRANCH  18  19
ENDBRANCH  13  18
ENDBRANCH  10  12
ENDBRANCH   6  10
ENDBRANCH   3   5
ENDBRANCH   2   3
ENDBRANCH   1   2
BRANCH   1  25
ATOM     25  C   UNL A   1      43.721  21.867  25.260  1.00  0.00     0.275 C 
BRANCH  25  26
ATOM     26  O   UNL A   1      43.174  23.098  24.741  1.00  0.00    -0.458 OA
BRANCH  26  27
ATOM     27  C   UNL A   1      43.883  24.208  25.043  1.00  0.00     0.338 C 
ATOM     28  O   UNL A   1      44.950  24.557  24.566  1.00  0.00    -0.246 OA
BRANCH  27  29
ATOM     29  C   UNL A   1      43.128  25.072  25.961  1.00  0.00     0.060 A 
ATOM     30  C   UNL A   1      43.472  26.419  25.987  1.00  0.00     0.016 A 
ATOM     31  C   UNL A   1      42.255  24.557  26.915  1.00  0.00     0.016 A 
ATOM     32  C   UNL A   1      43.014  27.254  26.998  1.00  0.00     0.010 A 
ATOM     33  C   UNL A   1      41.738  25.413  27.900  1.00  0.00     0.010 A 
ATOM     34  C   UNL A   1      42.140  26.763  27.972  1.00  0.00    -0.014 A 
BRANCH  34  35
ATOM     35  C   UNL A   1      41.722  27.647  29.097  1.00  0.00     0.031 A 
ATOM     36  C   UNL A   1      42.509  27.653  30.381  1.00  0.00     0.074 A 
ATOM     37  C   UNL A   1      40.671  28.479  28.960  1.00  0.00     0.049 A 
ATOM     38  N   UNL A   1      42.228  28.227  31.524  1.00  0.00    -0.248 NA
ATOM     39  C   UNL A   1      43.775  26.903  30.383  1.00  0.00     0.031 C 
ATOM     40  C   UNL A   1      39.860  28.631  27.750  1.00  0.00     0.029 A 
ATOM     41  N   UNL A   1      40.106  29.362  29.848  1.00  0.00    -0.354 N 
ATOM     42  C   UNL A   1      43.252  27.865  32.392  1.00  0.00     0.074 A 
ATOM     43  C   UNL A   1      44.154  27.014  31.648  1.00  0.00     0.031 C 
ATOM     44  C   UNL A   1      38.921  29.566  27.963  1.00  0.00     0.029 A 
ATOM     45  C   UNL A   1      39.006  30.017  29.347  1.00  0.00     0.049 A 
ATOM     46  H   UNL A   1      40.455  29.512  30.756  1.00  0.00     0.167 HD
ATOM     47  C   UNL A   1      43.424  28.214  33.691  1.00  0.00     0.037 A 
ATOM     48  C   UNL A   1      38.133  30.850  29.945  1.00  0.00     0.037 A 
ATOM     49  C   UNL A   1      42.551  29.105  34.412  1.00  0.00     0.049 A 
ATOM     50  C   UNL A   1      38.313  31.178  31.401  1.00  0.00     0.074 A 
ATOM     51  C   UNL A   1      42.647  29.531  35.726  1.00  0.00     0.029 A 
ATOM     52  N   UNL A   1      41.427  29.717  33.875  1.00  0.00    -0.354 N 
ATOM     53  N   UNL A   1      39.256  30.792  32.225  1.00  0.00    -0.248 NA
ATOM     54  C   UNL A   1      37.297  32.045  32.014  1.00  0.00     0.031 C 
ATOM     55  C   UNL A   1      41.556  30.363  35.998  1.00  0.00     0.029 A 
ATOM     56  C   UNL A   1      40.811  30.502  34.837  1.00  0.00     0.049 A 
ATOM     57  H   UNL A   1      41.114  29.610  32.948  1.00  0.00     0.167 HD
ATOM     58  C   UNL A   1      38.961  31.388  33.445  1.00  0.00     0.074 A 
ATOM     59  C   UNL A   1      37.761  32.174  33.249  1.00  0.00     0.031 C 
ATOM     60  C   UNL A   1      39.625  31.289  34.623  1.00  0.00     0.037 A 
BRANCH  47  61
ATOM     61  C   UNL A   1      44.579  27.601  34.429  1.00  0.00     0.057 A 
ATOM     62  C   UNL A   1      45.851  28.187  34.452  1.00  0.00     0.134 A 
ATOM     63  C   UNL A   1      44.404  26.414  35.154  1.00  0.00     0.134 A 
ATOM     64  F   UNL A   1      46.091  29.318  33.771  1.00  0.00    -0.206 F 
ATOM     65  C   UNL A   1      46.912  27.602  35.147  1.00  0.00     0.040 A 
ATOM     66  C   UNL A   1      45.449  25.836  35.877  1.00  0.00     0.040 A 
ATOM     67  F   UNL A   1      43.210  25.802  35.183  1.00  0.00    -0.206 F 
ATOM     68  C   UNL A   1      46.711  26.426  35.868  1.00  0.00     0.006 A 
ENDBRANCH  47  61
BRANCH  48  69
ATOM     69  C   UNL A   1      36.981  31.396  29.181  1.00  0.00     0.057 A 
ATOM     70  C   UNL A   1      35.838  30.625  28.940  1.00  0.00     0.134 A 
ATOM     71  C   UNL A   1      37.000  32.698  28.664  1.00  0.00     0.134 A 
ATOM     72  F   UNL A   1      35.768  29.363  29.387  1.00  0.00    -0.206 F 
ATOM     73  C   UNL A   1      34.763  31.122  28.199  1.00  0.00     0.040 A 
ATOM     74  C   UNL A   1      35.921  33.219  27.949  1.00  0.00     0.040 A 
ATOM     75  F   UNL A   1      38.064  33.490  28.860  1.00  0.00    -0.206 F 
ATOM     76  C   UNL A   1      34.801  32.426  27.708  1.00  0.00     0.006 A 
ENDBRANCH  48  69
BRANCH  60  77
ATOM     77  C   UNL A   1      39.094  32.089  35.777  1.00  0.00     0.057 A 
ATOM     78  C   UNL A   1      38.245  31.530  36.740  1.00  0.00     0.134 A 
ATOM     79  C   UNL A   1      39.465  33.430  35.941  1.00  0.00     0.134 A 
ATOM     80  F   UNL A   1      37.841  30.256  36.633  1.00  0.00    -0.206 F 
ATOM     81  C   UNL A   1      37.764  32.283  37.813  1.00  0.00     0.040 A 
ATOM     82  C   UNL A   1      39.013  34.186  37.023  1.00  0.00     0.040 A 
ATOM     83  F   UNL A   1      40.281  34.024  35.057  1.00  0.00    -0.206 F 
ATOM     84  C   UNL A   1      38.154  33.614  37.960  1.00  0.00     0.006 A 
ENDBRANCH  60  77
ENDBRANCH  34  35
ENDBRANCH  27  29
ENDBRANCH  26  27
ENDBRANCH  25  26
ENDBRANCH   1  25
TORSDOF 15
ENDMDL
