MODEL 1
REMARK VINA RESULT:     -11.4      0.000      0.000
REMARK SMILES C/C=C/c1cncc(-c2ccc([C@@H](C)C(=O)OCCOC(=O)c3ccc(-c4c5nc(c(-c6c(F)cccc6F)c6ccc([nH]6)c(-c6c(F)cccc6F)c6nc(c(-c7c(F)cccc7F)c7ccc4[nH]7)C=C6)C=C5)cc3)cc2)c1
REMARK SMILES IDX 18 1 17 2 15 3 16 4 13 5 14 6 12 7 9 8 10 9 78 10 11 11
REMARK SMILES IDX 77 12 8 13 4 14 5 15 79 16 6 17 7 18 3 19 1 20 2 21 19 22
REMARK SMILES IDX 20 23 21 24 22 25 23 26 24 27 76 28 25 29 75 30 26 31 27 32
REMARK SMILES IDX 28 33 69 34 29 35 74 36 68 37 70 38 30 39 73 40 67 41 66 42
REMARK SMILES IDX 31 44 57 45 40 46 56 47 41 48 44 49 55 50 71 51 42 52 43 53
REMARK SMILES IDX 54 55 72 56 45 57 32 58 33 59 38 60 34 61 35 62 37 63 39 64
REMARK SMILES IDX 36 65 58 66 59 67 64 68 60 69 61 70 63 71 65 72 62 73 46 74
REMARK SMILES IDX 47 75 52 76 48 77 49 78 51 79 53 80 50 81
REMARK H PARENT 70 43 44 54
REMARK Flexibility Score: inf
ROOT
ATOM      1  C   UNL A   1      43.864  21.521  25.541  1.00  0.00     0.274 C 
ENDROOT
BRANCH   1   2
ATOM      2  O   UNL A   1      42.636  20.788  25.370  1.00  0.00    -0.462 OA
BRANCH   2   3
ATOM      3  C   UNL A   1      41.857  20.630  26.473  1.00  0.00     0.313 C 
ATOM      4  O   UNL A   1      41.581  19.544  26.973  1.00  0.00    -0.252 OA
BRANCH   3   5
ATOM      5  C   UNL A   1      41.298  21.937  27.019  1.00  0.00     0.126 C 
ATOM      6  C   UNL A   1      41.337  21.918  28.546  1.00  0.00     0.025 C 
BRANCH   5   7
ATOM      7  C   UNL A   1      39.943  22.362  26.472  1.00  0.00    -0.034 A 
ATOM      8  C   UNL A   1      37.433  23.129  25.372  1.00  0.00    -0.017 A 
ATOM      9  C   UNL A   1      38.218  24.036  26.100  1.00  0.00     0.009 A 
ATOM     10  C   UNL A   1      37.916  21.820  25.227  1.00  0.00     0.009 A 
ATOM     11  C   UNL A   1      39.454  23.662  26.637  1.00  0.00     0.005 A 
ATOM     12  C   UNL A   1      39.152  21.443  25.765  1.00  0.00     0.005 A 
BRANCH   8  13
ATOM     13  C   UNL A   1      36.171  23.553  24.748  1.00  0.00     0.001 A 
ATOM     14  C   UNL A   1      34.052  24.757  24.764  1.00  0.00    -0.007 A 
ATOM     15  C   UNL A   1      33.826  24.250  23.487  1.00  0.00     0.119 A 
ATOM     16  C   UNL A   1      35.246  24.385  25.397  1.00  0.00     0.020 A 
ATOM     17  N   UNL A   1      34.682  23.445  22.817  1.00  0.00    -0.263 NA
ATOM     18  C   UNL A   1      35.824  23.122  23.464  1.00  0.00     0.119 A 
BRANCH  14  19
ATOM     19  C   UNL A   1      33.023  25.590  25.398  1.00  0.00     0.005 C 
ATOM     20  C   UNL A   1      32.209  27.498  26.792  1.00  0.00     0.035 C 
ATOM     21  C   UNL A   1      33.280  26.645  26.189  1.00  0.00    -0.030 C 
ENDBRANCH  14  19
ENDBRANCH   8  13
ENDBRANCH   5   7
ENDBRANCH   3   5
ENDBRANCH   2   3
ENDBRANCH   1   2
BRANCH   1  22
ATOM     22  C   UNL A   1      44.080  22.517  24.401  1.00  0.00     0.275 C 
BRANCH  22  23
ATOM     23  O   UNL A   1      43.466  23.785  24.697  1.00  0.00    -0.458 OA
BRANCH  23  24
ATOM     24  C   UNL A   1      44.311  24.747  25.130  1.00  0.00     0.338 C 
ATOM     25  O   UNL A   1      45.434  24.992  24.726  1.00  0.00    -0.246 OA
BRANCH  24  26
ATOM     26  C   UNL A   1      43.632  25.573  26.138  1.00  0.00     0.060 A 
ATOM     27  C   UNL A   1      43.965  26.927  26.214  1.00  0.00     0.016 A 
ATOM     28  C   UNL A   1      42.754  25.002  27.057  1.00  0.00     0.016 A 
ATOM     29  C   UNL A   1      43.429  27.721  27.224  1.00  0.00     0.010 A 
ATOM     30  C   UNL A   1      42.212  25.799  28.069  1.00  0.00     0.010 A 
ATOM     31  C   UNL A   1      42.559  27.159  28.167  1.00  0.00    -0.014 A 
BRANCH  31  32
ATOM     32  C   UNL A   1      42.068  27.984  29.294  1.00  0.00     0.031 A 
ATOM     33  C   UNL A   1      42.812  27.981  30.598  1.00  0.00     0.074 A 
ATOM     34  C   UNL A   1      40.975  28.754  29.140  1.00  0.00     0.049 A 
ATOM     35  N   UNL A   1      42.502  28.560  31.730  1.00  0.00    -0.248 NA
ATOM     36  C   UNL A   1      44.077  27.228  30.631  1.00  0.00     0.031 C 
ATOM     37  C   UNL A   1      40.198  28.879  27.907  1.00  0.00     0.029 A 
ATOM     38  N   UNL A   1      40.330  29.573  30.030  1.00  0.00    -0.354 N 
ATOM     39  C   UNL A   1      43.524  28.235  32.612  1.00  0.00     0.074 A 
ATOM     40  C   UNL A   1      44.455  27.393  31.891  1.00  0.00     0.031 C 
ATOM     41  C   UNL A   1      39.175  29.723  28.120  1.00  0.00     0.029 A 
ATOM     42  C   UNL A   1      39.202  30.163  29.513  1.00  0.00     0.049 A 
ATOM     43  H   UNL A   1      40.643  29.724  30.951  1.00  0.00     0.167 HD
ATOM     44  C   UNL A   1      43.675  28.611  33.904  1.00  0.00     0.037 A 
ATOM     45  C   UNL A   1      38.283  30.947  30.105  1.00  0.00     0.037 A 
ATOM     46  C   UNL A   1      42.748  29.447  34.620  1.00  0.00     0.049 A 
ATOM     47  C   UNL A   1      38.442  31.302  31.558  1.00  0.00     0.074 A 
ATOM     48  C   UNL A   1      42.793  29.853  35.942  1.00  0.00     0.029 A 
ATOM     49  N   UNL A   1      41.611  30.014  34.065  1.00  0.00    -0.354 N 
ATOM     50  N   UNL A   1      39.394  30.961  32.392  1.00  0.00    -0.248 NA
ATOM     51  C   UNL A   1      37.396  32.146  32.153  1.00  0.00     0.031 C 
ATOM     52  C   UNL A   1      41.669  30.650  36.194  1.00  0.00     0.029 A 
ATOM     53  C   UNL A   1      40.945  30.766  35.019  1.00  0.00     0.049 A 
ATOM     54  H   UNL A   1      41.320  29.901  33.132  1.00  0.00     0.167 HD
ATOM     55  C   UNL A   1      39.074  31.563  33.602  1.00  0.00     0.074 A 
ATOM     56  C   UNL A   1      37.847  32.302  33.390  1.00  0.00     0.031 C 
ATOM     57  C   UNL A   1      39.733  31.505  34.784  1.00  0.00     0.037 A 
BRANCH  44  58
ATOM     58  C   UNL A   1      44.881  28.103  34.632  1.00  0.00     0.057 A 
ATOM     59  C   UNL A   1      46.060  28.854  34.710  1.00  0.00     0.134 A 
ATOM     60  C   UNL A   1      44.853  26.867  35.289  1.00  0.00     0.134 A 
ATOM     61  F   UNL A   1      46.154  30.039  34.088  1.00  0.00    -0.206 F 
ATOM     62  C   UNL A   1      47.175  28.387  35.408  1.00  0.00     0.040 A 
ATOM     63  C   UNL A   1      45.956  26.398  36.005  1.00  0.00     0.040 A 
ATOM     64  F   UNL A   1      43.753  26.101  35.252  1.00  0.00    -0.206 F 
ATOM     65  C   UNL A   1      47.122  27.158  36.064  1.00  0.00     0.006 A 
ENDBRANCH  44  58
BRANCH  45  66
ATOM     66  C   UNL A   1      37.111  31.431  29.336  1.00  0.00     0.057 A 
ATOM     67  C   UNL A   1      35.995  30.614  29.124  1.00  0.00     0.134 A 
ATOM     68  C   UNL A   1      37.090  32.713  28.775  1.00  0.00     0.134 A 
ATOM     69  F   UNL A   1      35.967  29.368  29.616  1.00  0.00    -0.206 F 
ATOM     70  C   UNL A   1      34.907  31.049  28.365  1.00  0.00     0.040 A 
ATOM     71  C   UNL A   1      36.000  33.170  28.034  1.00  0.00     0.040 A 
ATOM     72  F   UNL A   1      38.130  33.543  28.943  1.00  0.00    -0.206 F 
ATOM     73  C   UNL A   1      34.906  32.332  27.821  1.00  0.00     0.006 A 
ENDBRANCH  45  66
BRANCH  57  74
ATOM     74  C   UNL A   1      39.159  32.291  35.923  1.00  0.00     0.057 A 
ATOM     75  C   UNL A   1      39.492  33.633  36.134  1.00  0.00     0.134 A 
ATOM     76  C   UNL A   1      38.238  31.703  36.800  1.00  0.00     0.134 A 
ATOM     77  F   UNL A   1      40.379  34.246  35.335  1.00  0.00    -0.206 F 
ATOM     78  C   UNL A   1      38.943  34.362  37.190  1.00  0.00     0.040 A 
ATOM     79  C   UNL A   1      37.668  32.426  37.848  1.00  0.00     0.040 A 
ATOM     80  F   UNL A   1      37.873  30.421  36.646  1.00  0.00    -0.206 F 
ATOM     81  C   UNL A   1      38.023  33.759  38.047  1.00  0.00     0.006 A 
ENDBRANCH  57  74
ENDBRANCH  31  32
ENDBRANCH  24  26
ENDBRANCH  23  24
ENDBRANCH  22  23
ENDBRANCH   1  22
TORSDOF 14
ENDMDL
MODEL 2
REMARK VINA RESULT:     -11.1      0.581      6.330
REMARK SMILES C/C=C/c1cncc(-c2ccc([C@@H](C)C(=O)OCCOC(=O)c3ccc(-c4c5nc(c(-c6c(F)cccc6F)c6ccc([nH]6)c(-c6c(F)cccc6F)c6nc(c(-c7c(F)cccc7F)c7ccc4[nH]7)C=C6)C=C5)cc3)cc2)c1
REMARK SMILES IDX 18 1 17 2 15 3 16 4 13 5 14 6 12 7 9 8 10 9 78 10 11 11
REMARK SMILES IDX 77 12 8 13 4 14 5 15 79 16 6 17 7 18 3 19 1 20 2 21 19 22
REMARK SMILES IDX 20 23 21 24 22 25 23 26 24 27 76 28 25 29 75 30 26 31 27 32
REMARK SMILES IDX 28 33 69 34 29 35 74 36 68 37 70 38 30 39 73 40 67 41 66 42
REMARK SMILES IDX 31 44 57 45 40 46 56 47 41 48 44 49 55 50 71 51 42 52 43 53
REMARK SMILES IDX 54 55 72 56 45 57 32 58 33 59 38 60 34 61 35 62 37 63 39 64
REMARK SMILES IDX 36 65 58 66 59 67 64 68 60 69 61 70 63 71 65 72 62 73 46 74
REMARK SMILES IDX 47 75 52 76 48 77 49 78 51 79 53 80 50 81
REMARK H PARENT 70 43 44 54
REMARK Flexibility Score: inf
ROOT
ATOM      1  C   UNL A   1      44.105  22.016  24.473  1.00  0.00     0.274 C 
ENDROOT
BRANCH   1   2
ATOM      2  O   UNL A   1      42.754  22.270  24.900  1.00  0.00    -0.462 OA
BRANCH   2   3
ATOM      3  C   UNL A   1      42.312  21.579  25.984  1.00  0.00     0.313 C 
ATOM      4  O   UNL A   1      42.503  20.380  26.164  1.00  0.00    -0.252 OA
BRANCH   3   5
ATOM      5  C   UNL A   1      41.497  22.422  26.956  1.00  0.00     0.126 C 
ATOM      6  C   UNL A   1      41.616  21.846  28.366  1.00  0.00     0.025 C 
BRANCH   5   7
ATOM      7  C   UNL A   1      40.055  22.694  26.554  1.00  0.00    -0.034 A 
ATOM      8  C   UNL A   1      37.376  23.175  25.722  1.00  0.00    -0.017 A 
ATOM      9  C   UNL A   1      38.146  24.184  26.323  1.00  0.00     0.009 A 
ATOM     10  C   UNL A   1      37.965  21.912  25.569  1.00  0.00     0.009 A 
ATOM     11  C   UNL A   1      39.464  23.950  26.728  1.00  0.00     0.005 A 
ATOM     12  C   UNL A   1      39.283  21.675  25.974  1.00  0.00     0.005 A 
BRANCH   8  13
ATOM     13  C   UNL A   1      36.018  23.452  25.232  1.00  0.00     0.001 A 
ATOM     14  C   UNL A   1      34.016  24.834  25.083  1.00  0.00    -0.007 A 
ATOM     15  C   UNL A   1      33.466  23.840  24.278  1.00  0.00     0.119 A 
ATOM     16  C   UNL A   1      35.312  24.618  25.570  1.00  0.00     0.020 A 
ATOM     17  N   UNL A   1      34.100  22.700  23.924  1.00  0.00    -0.263 NA
ATOM     18  C   UNL A   1      35.352  22.540  24.409  1.00  0.00     0.119 A 
BRANCH  14  19
ATOM     19  C   UNL A   1      33.207  26.009  25.428  1.00  0.00     0.005 C 
ATOM     20  C   UNL A   1      32.813  28.258  26.444  1.00  0.00     0.035 C 
ATOM     21  C   UNL A   1      33.652  27.057  26.140  1.00  0.00    -0.030 C 
ENDBRANCH  14  19
ENDBRANCH   8  13
ENDBRANCH   5   7
ENDBRANCH   3   5
ENDBRANCH   2   3
ENDBRANCH   1   2
BRANCH   1  22
ATOM     22  C   UNL A   1      44.965  23.277  24.574  1.00  0.00     0.275 C 
BRANCH  22  23
ATOM     23  O   UNL A   1      44.148  24.449  24.749  1.00  0.00    -0.458 OA
BRANCH  23  24
ATOM     24  C   UNL A   1      44.810  25.558  25.149  1.00  0.00     0.338 C 
ATOM     25  O   UNL A   1      45.829  26.031  24.679  1.00  0.00    -0.246 OA
BRANCH  24  26
ATOM     26  C   UNL A   1      44.050  26.218  26.220  1.00  0.00     0.060 A 
ATOM     27  C   UNL A   1      44.311  27.564  26.481  1.00  0.00     0.016 A 
ATOM     28  C   UNL A   1      43.164  25.495  27.019  1.00  0.00     0.016 A 
ATOM     29  C   UNL A   1      43.696  28.198  27.556  1.00  0.00     0.010 A 
ATOM     30  C   UNL A   1      42.542  26.133  28.096  1.00  0.00     0.010 A 
ATOM     31  C   UNL A   1      42.817  27.483  28.380  1.00  0.00    -0.014 A 
BRANCH  31  32
ATOM     32  C   UNL A   1      42.239  28.135  29.578  1.00  0.00     0.031 A 
ATOM     33  C   UNL A   1      40.955  28.902  29.459  1.00  0.00     0.074 A 
ATOM     34  C   UNL A   1      42.849  28.014  30.771  1.00  0.00     0.049 A 
ATOM     35  N   UNL A   1      40.331  29.617  30.361  1.00  0.00    -0.248 NA
ATOM     36  C   UNL A   1      40.280  28.857  28.151  1.00  0.00     0.031 C 
ATOM     37  C   UNL A   1      44.073  27.253  31.020  1.00  0.00     0.029 A 
ATOM     38  N   UNL A   1      42.520  28.536  31.995  1.00  0.00    -0.354 N 
ATOM     39  C   UNL A   1      39.197  30.114  29.731  1.00  0.00     0.074 A 
ATOM     40  C   UNL A   1      39.228  29.636  28.364  1.00  0.00     0.031 C 
ATOM     41  C   UNL A   1      44.396  27.362  32.320  1.00  0.00     0.029 A 
ATOM     42  C   UNL A   1      43.427  28.231  32.981  1.00  0.00     0.049 A 
ATOM     43  H   UNL A   1      41.713  29.077  32.153  1.00  0.00     0.167 HD
ATOM     44  C   UNL A   1      38.218  30.893  30.247  1.00  0.00     0.037 A 
ATOM     45  C   UNL A   1      43.481  28.632  34.265  1.00  0.00     0.037 A 
ATOM     46  C   UNL A   1      38.190  31.368  31.605  1.00  0.00     0.049 A 
ATOM     47  C   UNL A   1      42.413  29.546  34.798  1.00  0.00     0.074 A 
ATOM     48  C   UNL A   1      37.260  32.194  32.213  1.00  0.00     0.029 A 
ATOM     49  N   UNL A   1      39.133  31.049  32.570  1.00  0.00    -0.354 N 
ATOM     50  N   UNL A   1      41.365  30.039  34.184  1.00  0.00    -0.248 NA
ATOM     51  C   UNL A   1      42.538  29.964  36.202  1.00  0.00     0.031 C 
ATOM     52  C   UNL A   1      37.653  32.392  33.542  1.00  0.00     0.029 A 
ATOM     53  C   UNL A   1      38.808  31.662  33.768  1.00  0.00     0.049 A 
ATOM     54  H   UNL A   1      39.917  30.471  32.425  1.00  0.00     0.167 HD
ATOM     55  C   UNL A   1      40.696  30.806  35.128  1.00  0.00     0.074 A 
ATOM     56  C   UNL A   1      41.449  30.704  36.361  1.00  0.00     0.031 C 
ATOM     57  C   UNL A   1      39.563  31.535  34.987  1.00  0.00     0.037 A 
BRANCH  44  58
ATOM     58  C   UNL A   1      37.104  31.295  29.331  1.00  0.00     0.057 A 
ATOM     59  C   UNL A   1      36.058  30.418  29.019  1.00  0.00     0.134 A 
ATOM     60  C   UNL A   1      37.058  32.582  28.781  1.00  0.00     0.134 A 
ATOM     61  F   UNL A   1      36.054  29.166  29.502  1.00  0.00    -0.206 F 
ATOM     62  C   UNL A   1      35.010  30.803  28.182  1.00  0.00     0.040 A 
ATOM     63  C   UNL A   1      36.005  32.984  27.957  1.00  0.00     0.040 A 
ATOM     64  F   UNL A   1      38.030  33.469  29.041  1.00  0.00    -0.206 F 
ATOM     65  C   UNL A   1      34.978  32.093  27.654  1.00  0.00     0.006 A 
ENDBRANCH  44  58
BRANCH  45  66
ATOM     66  C   UNL A   1      44.603  28.198  35.133  1.00  0.00     0.057 A 
ATOM     67  C   UNL A   1      45.786  28.940  35.216  1.00  0.00     0.134 A 
ATOM     68  C   UNL A   1      44.526  27.017  35.880  1.00  0.00     0.134 A 
ATOM     69  F   UNL A   1      45.928  30.067  34.504  1.00  0.00    -0.206 F 
ATOM     70  C   UNL A   1      46.861  28.514  35.998  1.00  0.00     0.040 A 
ATOM     71  C   UNL A   1      45.583  26.591  36.685  1.00  0.00     0.040 A 
ATOM     72  F   UNL A   1      43.418  26.263  35.843  1.00  0.00    -0.206 F 
ATOM     73  C   UNL A   1      46.759  27.337  36.739  1.00  0.00     0.006 A 
ENDBRANCH  45  66
BRANCH  57  74
ATOM     74  C   UNL A   1      39.054  32.245  36.204  1.00  0.00     0.057 A 
ATOM     75  C   UNL A   1      39.436  33.557  36.504  1.00  0.00     0.134 A 
ATOM     76  C   UNL A   1      38.147  31.617  37.067  1.00  0.00     0.134 A 
ATOM     77  F   UNL A   1      40.312  34.206  35.722  1.00  0.00    -0.206 F 
ATOM     78  C   UNL A   1      38.948  34.216  37.634  1.00  0.00     0.040 A 
ATOM     79  C   UNL A   1      37.638  32.272  38.188  1.00  0.00     0.040 A 
ATOM     80  F   UNL A   1      37.737  30.362  36.829  1.00  0.00    -0.206 F 
ATOM     81  C   UNL A   1      38.041  33.575  38.476  1.00  0.00     0.006 A 
ENDBRANCH  57  74
ENDBRANCH  31  32
ENDBRANCH  24  26
ENDBRANCH  23  24
ENDBRANCH  22  23
ENDBRANCH   1  22
TORSDOF 14
ENDMDL
MODEL 3
REMARK VINA RESULT:     -11.1      4.408     10.385
REMARK SMILES C/C=C/c1cncc(-c2ccc([C@@H](C)C(=O)OCCOC(=O)c3ccc(-c4c5nc(c(-c6c(F)cccc6F)c6ccc([nH]6)c(-c6c(F)cccc6F)c6nc(c(-c7c(F)cccc7F)c7ccc4[nH]7)C=C6)C=C5)cc3)cc2)c1
REMARK SMILES IDX 18 1 17 2 15 3 16 4 13 5 14 6 12 7 9 8 10 9 78 10 11 11
REMARK SMILES IDX 77 12 8 13 4 14 5 15 79 16 6 17 7 18 3 19 1 20 2 21 19 22
REMARK SMILES IDX 20 23 21 24 22 25 23 26 24 27 76 28 25 29 75 30 26 31 27 32
REMARK SMILES IDX 28 33 69 34 29 35 74 36 68 37 70 38 30 39 73 40 67 41 66 42
REMARK SMILES IDX 31 44 57 45 40 46 56 47 41 48 44 49 55 50 71 51 42 52 43 53
REMARK SMILES IDX 54 55 72 56 45 57 32 58 33 59 38 60 34 61 35 62 37 63 39 64
REMARK SMILES IDX 36 65 58 66 59 67 64 68 60 69 61 70 63 71 65 72 62 73 46 74
REMARK SMILES IDX 47 75 52 76 48 77 49 78 51 79 53 80 50 81
REMARK H PARENT 70 43 44 54
REMARK Flexibility Score: inf
ROOT
ATOM      1  C   UNL A   1      33.906  34.614  29.165  1.00  0.00     0.274 C 
ENDROOT
BRANCH   1   2
ATOM      2  O   UNL A   1      33.571  34.196  30.501  1.00  0.00    -0.462 OA
BRANCH   2   3
ATOM      3  C   UNL A   1      34.490  34.443  31.471  1.00  0.00     0.313 C 
ATOM      4  O   UNL A   1      34.528  35.470  32.141  1.00  0.00    -0.252 OA
BRANCH   3   5
ATOM      5  C   UNL A   1      35.528  33.338  31.626  1.00  0.00     0.126 C 
ATOM      6  C   UNL A   1      35.527  32.827  33.065  1.00  0.00     0.025 C 
BRANCH   5   7
ATOM      7  C   UNL A   1      36.925  33.662  31.119  1.00  0.00    -0.034 A 
ATOM      8  C   UNL A   1      39.548  34.185  30.146  1.00  0.00    -0.017 A 
ATOM      9  C   UNL A   1      39.188  34.484  31.469  1.00  0.00     0.009 A 
ATOM     10  C   UNL A   1      38.562  33.644  29.310  1.00  0.00     0.009 A 
ATOM     11  C   UNL A   1      37.901  34.223  31.950  1.00  0.00     0.005 A 
ATOM     12  C   UNL A   1      37.273  33.382  29.788  1.00  0.00     0.005 A 
BRANCH   8  13
ATOM     13  C   UNL A   1      40.924  34.395  29.672  1.00  0.00     0.001 A 
ATOM     14  C   UNL A   1      43.282  33.789  29.549  1.00  0.00    -0.007 A 
ATOM     15  C   UNL A   1      43.464  34.912  28.746  1.00  0.00     0.119 A 
ATOM     16  C   UNL A   1      41.985  33.544  30.021  1.00  0.00     0.020 A 
ATOM     17  N   UNL A   1      42.479  35.763  28.381  1.00  0.00    -0.263 NA
ATOM     18  C   UNL A   1      41.243  35.481  28.852  1.00  0.00     0.119 A 
BRANCH  14  19
ATOM     19  C   UNL A   1      44.443  32.965  29.906  1.00  0.00     0.005 C 
ATOM     20  C   UNL A   1      45.571  30.946  30.852  1.00  0.00     0.035 C 
ATOM     21  C   UNL A   1      44.371  31.780  30.534  1.00  0.00    -0.030 C 
ENDBRANCH  14  19
ENDBRANCH   8  13
ENDBRANCH   5   7
ENDBRANCH   3   5
ENDBRANCH   2   3
ENDBRANCH   1   2
BRANCH   1  22
ATOM     22  C   UNL A   1      33.784  33.456  28.173  1.00  0.00     0.275 C 
BRANCH  22  23
ATOM     23  O   UNL A   1      34.115  32.202  28.798  1.00  0.00    -0.458 OA
BRANCH  23  24
ATOM     24  C   UNL A   1      34.345  31.177  27.947  1.00  0.00     0.338 C 
ATOM     25  O   UNL A   1      33.703  30.867  26.960  1.00  0.00    -0.246 OA
BRANCH  24  26
ATOM     26  C   UNL A   1      35.595  30.504  28.325  1.00  0.00     0.060 A 
ATOM     27  C   UNL A   1      35.648  29.857  29.561  1.00  0.00     0.016 A 
ATOM     28  C   UNL A   1      36.728  30.591  27.517  1.00  0.00     0.016 A 
ATOM     29  C   UNL A   1      36.843  29.301  30.007  1.00  0.00     0.010 A 
ATOM     30  C   UNL A   1      37.929  30.030  27.962  1.00  0.00     0.010 A 
ATOM     31  C   UNL A   1      37.996  29.396  29.217  1.00  0.00    -0.014 A 
BRANCH  31  32
ATOM     32  C   UNL A   1      39.286  28.889  29.737  1.00  0.00     0.031 A 
ATOM     33  C   UNL A   1      39.915  29.543  30.933  1.00  0.00     0.074 A 
ATOM     34  C   UNL A   1      39.877  27.828  29.156  1.00  0.00     0.049 A 
ATOM     35  N   UNL A   1      41.077  29.310  31.489  1.00  0.00    -0.248 NA
ATOM     36  C   UNL A   1      39.129  30.598  31.594  1.00  0.00     0.031 C 
ATOM     37  C   UNL A   1      39.338  27.079  28.021  1.00  0.00     0.029 A 
ATOM     38  N   UNL A   1      41.062  27.202  29.442  1.00  0.00    -0.354 N 
ATOM     39  C   UNL A   1      41.167  30.193  32.557  1.00  0.00     0.074 A 
ATOM     40  C   UNL A   1      39.951  30.980  32.561  1.00  0.00     0.031 C 
ATOM     41  C   UNL A   1      40.196  26.095  27.702  1.00  0.00     0.029 A 
ATOM     42  C   UNL A   1      41.358  26.172  28.583  1.00  0.00     0.049 A 
ATOM     43  H   UNL A   1      41.646  27.465  30.190  1.00  0.00     0.167 HD
ATOM     44  C   UNL A   1      42.170  30.330  33.455  1.00  0.00     0.037 A 
ATOM     45  C   UNL A   1      42.456  25.398  28.501  1.00  0.00     0.037 A 
ATOM     46  C   UNL A   1      43.378  29.549  33.449  1.00  0.00     0.049 A 
ATOM     47  C   UNL A   1      43.583  25.610  29.475  1.00  0.00     0.074 A 
ATOM     48  C   UNL A   1      44.471  29.639  34.294  1.00  0.00     0.029 A 
ATOM     49  N   UNL A   1      43.647  28.524  32.555  1.00  0.00    -0.354 N 
ATOM     50  N   UNL A   1      43.673  26.471  30.459  1.00  0.00    -0.248 NA
ATOM     51  C   UNL A   1      44.762  24.747  29.322  1.00  0.00     0.031 C 
ATOM     52  C   UNL A   1      45.411  28.680  33.898  1.00  0.00     0.029 A 
ATOM     53  C   UNL A   1      44.889  27.974  32.827  1.00  0.00     0.049 A 
ATOM     54  H   UNL A   1      43.045  28.229  31.834  1.00  0.00     0.167 HD
ATOM     55  C   UNL A   1      44.906  26.241  31.054  1.00  0.00     0.074 A 
ATOM     56  C   UNL A   1      45.524  25.150  30.330  1.00  0.00     0.031 C 
ATOM     57  C   UNL A   1      45.479  26.879  32.103  1.00  0.00     0.037 A 
BRANCH  44  58
ATOM     58  C   UNL A   1      42.009  31.380  34.511  1.00  0.00     0.057 A 
ATOM     59  C   UNL A   1      42.387  32.710  34.286  1.00  0.00     0.134 A 
ATOM     60  C   UNL A   1      41.442  31.067  35.752  1.00  0.00     0.134 A 
ATOM     61  F   UNL A   1      42.951  33.069  33.123  1.00  0.00    -0.206 F 
ATOM     62  C   UNL A   1      42.215  33.691  35.265  1.00  0.00     0.040 A 
ATOM     63  C   UNL A   1      41.249  32.043  36.732  1.00  0.00     0.040 A 
ATOM     64  F   UNL A   1      41.060  29.812  36.029  1.00  0.00    -0.206 F 
ATOM     65  C   UNL A   1      41.638  33.359  36.490  1.00  0.00     0.006 A 
ENDBRANCH  44  58
BRANCH  45  66
ATOM     66  C   UNL A   1      42.562  24.366  27.440  1.00  0.00     0.057 A 
ATOM     67  C   UNL A   1      42.193  23.038  27.682  1.00  0.00     0.134 A 
ATOM     68  C   UNL A   1      43.056  24.680  26.170  1.00  0.00     0.134 A 
ATOM     69  F   UNL A   1      41.735  22.672  28.887  1.00  0.00    -0.206 F 
ATOM     70  C   UNL A   1      42.330  22.054  26.700  1.00  0.00     0.040 A 
ATOM     71  C   UNL A   1      43.176  23.712  25.172  1.00  0.00     0.040 A 
ATOM     72  F   UNL A   1      43.426  25.936  25.878  1.00  0.00    -0.206 F 
ATOM     73  C   UNL A   1      42.819  22.391  25.440  1.00  0.00     0.006 A 
ENDBRANCH  45  66
BRANCH  57  74
ATOM     74  C   UNL A   1      46.822  26.386  32.549  1.00  0.00     0.057 A 
ATOM     75  C   UNL A   1      46.955  25.309  33.431  1.00  0.00     0.134 A 
ATOM     76  C   UNL A   1      47.994  26.980  32.064  1.00  0.00     0.134 A 
ATOM     77  F   UNL A   1      45.868  24.709  33.940  1.00  0.00    -0.206 F 
ATOM     78  C   UNL A   1      48.209  24.848  33.832  1.00  0.00     0.040 A 
ATOM     79  C   UNL A   1      49.254  26.516  32.442  1.00  0.00     0.040 A 
ATOM     80  F   UNL A   1      47.932  28.013  31.210  1.00  0.00    -0.206 F 
ATOM     81  C   UNL A   1      49.364  25.449  33.332  1.00  0.00     0.006 A 
ENDBRANCH  57  74
ENDBRANCH  31  32
ENDBRANCH  24  26
ENDBRANCH  23  24
ENDBRANCH  22  23
ENDBRANCH   1  22
TORSDOF 14
ENDMDL
