MODEL 1
REMARK VINA RESULT:     -10.6      0.000      0.000
REMARK SMILES CCCCCn1c(SCC(=O)OCCOC(=O)c2ccc(-c3c4nc(c(-c5c(F)cccc5F)c5ccc([nH]5)c(-c5c(F)cccc5F)c5nc(c(-c6c(F)cccc6F)c6ccc3[nH]6)C=C5)C=C4)cc2)nc2ccccc2c1=O
REMARK SMILES IDX 10 1 11 2 9 3 8 4 7 5 6 6 79 7 72 8 78 9 80 10 73 11 77 12
REMARK SMILES IDX 74 13 76 14 75 15 5 16 4 17 3 18 2 19 1 20 12 21 13 22 14 23
REMARK SMILES IDX 15 24 16 25 17 26 18 27 19 28 71 29 20 30 70 31 21 32 22 33
REMARK SMILES IDX 23 34 64 35 24 36 69 37 63 38 65 39 25 40 68 41 62 42 61 43
REMARK SMILES IDX 26 45 52 46 35 47 51 48 36 49 39 50 50 51 66 52 37 53 38 54
REMARK SMILES IDX 49 56 67 57 40 58 27 59 28 60 33 61 29 62 30 63 32 64 34 65
REMARK SMILES IDX 31 66 53 67 54 68 59 69 55 70 56 71 58 72 60 73 57 74 41 75
REMARK SMILES IDX 42 76 47 77 43 78 44 79 46 80 48 81 45 82
REMARK H PARENT 65 44 39 55
REMARK Flexibility Score: inf
ROOT
ATOM      1  C   UNL A   1      32.001  26.521  25.394  1.00  0.00     0.316 C 
ATOM      2  O   UNL A   1      30.852  26.093  25.314  1.00  0.00    -0.251 OA
ENDROOT
BRANCH   1   3
ATOM      3  C   UNL A   1      33.167  25.590  25.305  1.00  0.00     0.200 C 
BRANCH   3   4
ATOM      4  S   UNL A   1      33.019  23.865  25.682  1.00  0.00    -0.076 SA
BRANCH   4   5
ATOM      5  C   UNL A   1      34.504  22.955  25.590  1.00  0.00     0.171 A 
ATOM      6  N   UNL A   1      34.612  21.585  25.424  1.00  0.00    -0.287 N 
ATOM      7  C   UNL A   1      35.887  20.997  25.300  1.00  0.00     0.262 A 
ATOM      8  N   UNL A   1      35.524  23.716  25.840  1.00  0.00    -0.224 NA
ATOM      9  C   UNL A   1      37.049  21.837  25.613  1.00  0.00     0.066 A 
ATOM     10  O   UNL A   1      36.084  19.819  25.000  1.00  0.00    -0.269 OA
ATOM     11  C   UNL A   1      36.798  23.160  25.937  1.00  0.00     0.079 A 
ATOM     12  C   UNL A   1      38.343  21.306  25.679  1.00  0.00     0.016 A 
ATOM     13  C   UNL A   1      37.854  23.950  26.400  1.00  0.00     0.029 A 
ATOM     14  C   UNL A   1      39.395  22.108  26.123  1.00  0.00     0.001 A 
ATOM     15  C   UNL A   1      39.145  23.425  26.503  1.00  0.00     0.002 A 
BRANCH   6  16
ATOM     16  C   UNL A   1      33.520  20.628  25.331  1.00  0.00     0.128 C 
BRANCH  16  17
ATOM     17  C   UNL A   1      32.883  20.499  23.944  1.00  0.00     0.022 C 
BRANCH  17  18
ATOM     18  C   UNL A   1      32.535  19.082  23.493  1.00  0.00     0.002 C 
BRANCH  18  19
ATOM     19  C   UNL A   1      33.316  17.929  24.132  1.00  0.00    -0.003 C 
ATOM     20  C   UNL A   1      34.014  16.983  23.166  1.00  0.00     0.004 C 
ENDBRANCH  18  19
ENDBRANCH  17  18
ENDBRANCH  16  17
ENDBRANCH   6  16
ENDBRANCH   4   5
ENDBRANCH   3   4
ENDBRANCH   1   3
BRANCH   1  21
ATOM     21  O   UNL A   1      32.316  27.780  25.783  1.00  0.00    -0.461 OA
BRANCH  21  22
ATOM     22  C   UNL A   1      31.937  28.816  24.852  1.00  0.00     0.274 C 
BRANCH  22  23
ATOM     23  C   UNL A   1      31.779  30.193  25.497  1.00  0.00     0.275 C 
BRANCH  23  24
ATOM     24  O   UNL A   1      32.252  30.217  26.857  1.00  0.00    -0.458 OA
BRANCH  24  25
ATOM     25  C   UNL A   1      32.903  31.349  27.209  1.00  0.00     0.338 C 
ATOM     26  O   UNL A   1      32.465  32.485  27.193  1.00  0.00    -0.246 OA
BRANCH  25  27
ATOM     27  C   UNL A   1      34.274  31.037  27.645  1.00  0.00     0.060 A 
ATOM     28  C   UNL A   1      35.132  32.074  28.004  1.00  0.00     0.016 A 
ATOM     29  C   UNL A   1      34.631  29.713  27.893  1.00  0.00     0.016 A 
ATOM     30  C   UNL A   1      36.354  31.776  28.617  1.00  0.00     0.010 A 
ATOM     31  C   UNL A   1      35.794  29.431  28.613  1.00  0.00     0.010 A 
ATOM     32  C   UNL A   1      36.686  30.452  28.962  1.00  0.00    -0.014 A 
BRANCH  32  33
ATOM     33  C   UNL A   1      37.965  30.143  29.662  1.00  0.00     0.031 A 
ATOM     34  C   UNL A   1      38.193  30.598  31.083  1.00  0.00     0.074 A 
ATOM     35  C   UNL A   1      38.946  29.466  29.030  1.00  0.00     0.049 A 
ATOM     36  N   UNL A   1      39.201  30.344  31.883  1.00  0.00    -0.248 NA
ATOM     37  C   UNL A   1      37.179  31.487  31.673  1.00  0.00     0.031 C 
ATOM     38  C   UNL A   1      38.933  29.057  27.624  1.00  0.00     0.029 A 
ATOM     39  N   UNL A   1      40.145  28.985  29.502  1.00  0.00    -0.354 N 
ATOM     40  C   UNL A   1      38.949  31.057  33.048  1.00  0.00     0.074 A 
ATOM     41  C   UNL A   1      37.737  31.811  32.828  1.00  0.00     0.031 C 
ATOM     42  C   UNL A   1      40.032  28.327  27.368  1.00  0.00     0.029 A 
ATOM     43  C   UNL A   1      40.833  28.228  28.584  1.00  0.00     0.049 A 
ATOM     44  H   UNL A   1      40.477  29.166  30.410  1.00  0.00     0.167 HD
ATOM     45  C   UNL A   1      39.631  31.055  34.217  1.00  0.00     0.037 A 
ATOM     46  C   UNL A   1      41.962  27.507  28.721  1.00  0.00     0.037 A 
ATOM     47  C   UNL A   1      40.796  30.259  34.480  1.00  0.00     0.049 A 
ATOM     48  C   UNL A   1      42.660  27.449  30.051  1.00  0.00     0.074 A 
ATOM     49  C   UNL A   1      41.491  30.108  35.667  1.00  0.00     0.029 A 
ATOM     50  N   UNL A   1      41.431  29.468  33.538  1.00  0.00    -0.354 N 
ATOM     51  N   UNL A   1      42.340  28.028  31.182  1.00  0.00    -0.248 NA
ATOM     52  C   UNL A   1      43.874  26.618  30.126  1.00  0.00     0.031 C 
ATOM     53  C   UNL A   1      42.559  29.231  35.439  1.00  0.00     0.029 A 
ATOM     54  C   UNL A   1      42.515  28.829  34.115  1.00  0.00     0.049 A 
ATOM     55  H   UNL A   1      41.154  29.375  32.598  1.00  0.00     0.167 HD
ATOM     56  C   UNL A   1      43.288  27.609  32.105  1.00  0.00     0.074 A 
ATOM     57  C   UNL A   1      44.195  26.722  31.408  1.00  0.00     0.031 C 
ATOM     58  C   UNL A   1      43.394  27.930  33.417  1.00  0.00     0.037 A 
BRANCH  45  59
ATOM     59  C   UNL A   1      39.090  31.922  35.314  1.00  0.00     0.057 A 
ATOM     60  C   UNL A   1      38.253  31.393  36.302  1.00  0.00     0.134 A 
ATOM     61  C   UNL A   1      39.423  33.281  35.401  1.00  0.00     0.134 A 
ATOM     62  F   UNL A   1      37.895  30.101  36.274  1.00  0.00    -0.206 F 
ATOM     63  C   UNL A   1      37.777  32.185  37.349  1.00  0.00     0.040 A 
ATOM     64  C   UNL A   1      38.972  34.075  36.454  1.00  0.00     0.040 A 
ATOM     65  F   UNL A   1      40.238  33.839  34.493  1.00  0.00    -0.206 F 
ATOM     66  C   UNL A   1      38.145  33.526  37.432  1.00  0.00     0.006 A 
ENDBRANCH  45  59
BRANCH  46  67
ATOM     67  C   UNL A   1      42.471  26.697  27.587  1.00  0.00     0.057 A 
ATOM     68  C   UNL A   1      42.157  25.342  27.453  1.00  0.00     0.134 A 
ATOM     69  C   UNL A   1      43.252  27.287  26.586  1.00  0.00     0.134 A 
ATOM     70  F   UNL A   1      41.408  24.725  28.378  1.00  0.00    -0.206 F 
ATOM     71  C   UNL A   1      42.599  24.599  26.356  1.00  0.00     0.040 A 
ATOM     72  C   UNL A   1      43.687  26.561  25.477  1.00  0.00     0.040 A 
ATOM     73  F   UNL A   1      43.563  28.590  26.653  1.00  0.00    -0.206 F 
ATOM     74  C   UNL A   1      43.361  25.211  25.361  1.00  0.00     0.006 A 
ENDBRANCH  46  67
BRANCH  58  75
ATOM     75  C   UNL A   1      44.503  27.291  34.194  1.00  0.00     0.057 A 
ATOM     76  C   UNL A   1      45.759  27.904  34.280  1.00  0.00     0.134 A 
ATOM     77  C   UNL A   1      44.340  26.050  34.821  1.00  0.00     0.134 A 
ATOM     78  F   UNL A   1      45.978  29.092  33.696  1.00  0.00    -0.206 F 
ATOM     79  C   UNL A   1      46.818  27.302  34.959  1.00  0.00     0.040 A 
ATOM     80  C   UNL A   1      45.388  25.445  35.518  1.00  0.00     0.040 A 
ATOM     81  F   UNL A   1      43.157  25.421  34.785  1.00  0.00    -0.206 F 
ATOM     82  C   UNL A   1      46.633  26.069  35.583  1.00  0.00     0.006 A 
ENDBRANCH  58  75
ENDBRANCH  32  33
ENDBRANCH  25  27
ENDBRANCH  24  25
ENDBRANCH  23  24
ENDBRANCH  22  23
ENDBRANCH  21  22
ENDBRANCH   1  21
TORSDOF 17
ENDMDL
MODEL 2
REMARK VINA RESULT:     -10.4      1.422      2.523
REMARK SMILES CCCCCn1c(SCC(=O)OCCOC(=O)c2ccc(-c3c4nc(c(-c5c(F)cccc5F)c5ccc([nH]5)c(-c5c(F)cccc5F)c5nc(c(-c6c(F)cccc6F)c6ccc3[nH]6)C=C5)C=C4)cc2)nc2ccccc2c1=O
REMARK SMILES IDX 10 1 11 2 9 3 8 4 7 5 6 6 79 7 72 8 78 9 80 10 73 11 77 12
REMARK SMILES IDX 74 13 76 14 75 15 5 16 4 17 3 18 2 19 1 20 12 21 13 22 14 23
REMARK SMILES IDX 15 24 16 25 17 26 18 27 19 28 71 29 20 30 70 31 21 32 22 33
REMARK SMILES IDX 23 34 64 35 24 36 69 37 63 38 65 39 25 40 68 41 62 42 61 43
REMARK SMILES IDX 26 45 52 46 35 47 51 48 36 49 39 50 50 51 66 52 37 53 38 54
REMARK SMILES IDX 49 56 67 57 40 58 27 59 28 60 33 61 29 62 30 63 32 64 34 65
REMARK SMILES IDX 31 66 53 67 54 68 59 69 55 70 56 71 58 72 60 73 57 74 41 75
REMARK SMILES IDX 42 76 47 77 43 78 44 79 46 80 48 81 45 82
REMARK H PARENT 65 44 39 55
REMARK Flexibility Score: inf
ROOT
ATOM      1  C   UNL A   1      32.611  28.285  23.117  1.00  0.00     0.316 C 
ATOM      2  O   UNL A   1      32.582  29.238  22.342  1.00  0.00    -0.251 OA
ENDROOT
BRANCH   1   3
ATOM      3  C   UNL A   1      33.514  27.122  22.858  1.00  0.00     0.200 C 
BRANCH   3   4
ATOM      4  S   UNL A   1      32.940  25.650  22.055  1.00  0.00    -0.076 SA
BRANCH   4   5
ATOM      5  C   UNL A   1      33.350  24.157  22.857  1.00  0.00     0.171 A 
ATOM      6  N   UNL A   1      32.467  23.307  23.500  1.00  0.00    -0.287 N 
ATOM      7  C   UNL A   1      32.939  22.097  24.048  1.00  0.00     0.262 A 
ATOM      8  N   UNL A   1      34.636  24.000  22.903  1.00  0.00    -0.224 NA
ATOM      9  C   UNL A   1      34.393  21.921  24.137  1.00  0.00     0.066 A 
ATOM     10  O   UNL A   1      32.215  21.210  24.502  1.00  0.00    -0.269 OA
ATOM     11  C   UNL A   1      35.181  22.930  23.610  1.00  0.00     0.079 A 
ATOM     12  C   UNL A   1      34.961  20.832  24.811  1.00  0.00     0.016 A 
ATOM     13  C   UNL A   1      36.562  22.882  23.819  1.00  0.00     0.029 A 
ATOM     14  C   UNL A   1      36.342  20.782  24.998  1.00  0.00     0.001 A 
ATOM     15  C   UNL A   1      37.141  21.819  24.518  1.00  0.00     0.002 A 
BRANCH   6  16
ATOM     16  C   UNL A   1      31.034  23.501  23.668  1.00  0.00     0.128 C 
BRANCH  16  17
ATOM     17  C   UNL A   1      30.635  24.676  24.566  1.00  0.00     0.022 C 
BRANCH  17  18
ATOM     18  C   UNL A   1      31.365  24.778  25.903  1.00  0.00     0.002 C 
BRANCH  18  19
ATOM     19  C   UNL A   1      31.221  23.602  26.874  1.00  0.00    -0.003 C 
ATOM     20  C   UNL A   1      29.839  22.968  26.952  1.00  0.00     0.004 C 
ENDBRANCH  18  19
ENDBRANCH  17  18
ENDBRANCH  16  17
ENDBRANCH   6  16
ENDBRANCH   4   5
ENDBRANCH   3   4
ENDBRANCH   1   3
BRANCH   1  21
ATOM     21  O   UNL A   1      31.710  28.085  24.109  1.00  0.00    -0.461 OA
BRANCH  21  22
ATOM     22  C   UNL A   1      32.139  28.522  25.416  1.00  0.00     0.274 C 
BRANCH  22  23
ATOM     23  C   UNL A   1      31.825  29.989  25.706  1.00  0.00     0.275 C 
BRANCH  23  24
ATOM     24  O   UNL A   1      32.106  30.349  27.072  1.00  0.00    -0.458 OA
BRANCH  24  25
ATOM     25  C   UNL A   1      32.835  31.478  27.221  1.00  0.00     0.338 C 
ATOM     26  O   UNL A   1      32.460  32.624  27.045  1.00  0.00    -0.246 OA
BRANCH  25  27
ATOM     27  C   UNL A   1      34.204  31.152  27.650  1.00  0.00     0.060 A 
ATOM     28  C   UNL A   1      35.078  32.180  27.996  1.00  0.00     0.016 A 
ATOM     29  C   UNL A   1      34.546  29.825  27.904  1.00  0.00     0.016 A 
ATOM     30  C   UNL A   1      36.300  31.870  28.603  1.00  0.00     0.010 A 
ATOM     31  C   UNL A   1      35.710  29.532  28.618  1.00  0.00     0.010 A 
ATOM     32  C   UNL A   1      36.617  30.545  28.954  1.00  0.00    -0.014 A 
BRANCH  32  33
ATOM     33  C   UNL A   1      37.897  30.223  29.648  1.00  0.00     0.031 A 
ATOM     34  C   UNL A   1      38.129  30.661  31.074  1.00  0.00     0.074 A 
ATOM     35  C   UNL A   1      38.875  29.552  29.005  1.00  0.00     0.049 A 
ATOM     36  N   UNL A   1      39.138  30.395  31.868  1.00  0.00    -0.248 NA
ATOM     37  C   UNL A   1      37.119  31.546  31.676  1.00  0.00     0.031 C 
ATOM     38  C   UNL A   1      38.857  29.158  27.595  1.00  0.00     0.029 A 
ATOM     39  N   UNL A   1      40.073  29.061  29.470  1.00  0.00    -0.354 N 
ATOM     40  C   UNL A   1      38.891  31.095  33.042  1.00  0.00     0.074 A 
ATOM     41  C   UNL A   1      37.681  31.855  32.834  1.00  0.00     0.031 C 
ATOM     42  C   UNL A   1      39.953  28.428  27.328  1.00  0.00     0.029 A 
ATOM     43  C   UNL A   1      40.757  28.313  28.541  1.00  0.00     0.049 A 
ATOM     44  H   UNL A   1      40.408  29.231  30.379  1.00  0.00     0.167 HD
ATOM     45  C   UNL A   1      39.576  31.077  34.210  1.00  0.00     0.037 A 
ATOM     46  C   UNL A   1      41.884  27.587  28.667  1.00  0.00     0.037 A 
ATOM     47  C   UNL A   1      40.739  30.275  34.461  1.00  0.00     0.049 A 
ATOM     48  C   UNL A   1      42.585  27.511  29.995  1.00  0.00     0.074 A 
ATOM     49  C   UNL A   1      41.436  30.108  35.644  1.00  0.00     0.029 A 
ATOM     50  N   UNL A   1      41.369  29.493  33.508  1.00  0.00    -0.354 N 
ATOM     51  N   UNL A   1      42.269  28.078  31.133  1.00  0.00    -0.248 NA
ATOM     52  C   UNL A   1      43.796  26.676  30.058  1.00  0.00     0.031 C 
ATOM     53  C   UNL A   1      42.501  29.231  35.404  1.00  0.00     0.029 A 
ATOM     54  C   UNL A   1      42.453  28.844  34.075  1.00  0.00     0.049 A 
ATOM     55  H   UNL A   1      41.090  29.412  32.568  1.00  0.00     0.167 HD
ATOM     56  C   UNL A   1      43.218  27.645  32.049  1.00  0.00     0.074 A 
ATOM     57  C   UNL A   1      44.121  26.764  31.340  1.00  0.00     0.031 C 
ATOM     58  C   UNL A   1      43.328  27.951  33.365  1.00  0.00     0.037 A 
BRANCH  45  59
ATOM     59  C   UNL A   1      39.040  31.932  35.318  1.00  0.00     0.057 A 
ATOM     60  C   UNL A   1      38.245  31.384  36.330  1.00  0.00     0.134 A 
ATOM     61  C   UNL A   1      39.335  33.301  35.391  1.00  0.00     0.134 A 
ATOM     62  F   UNL A   1      37.925  30.082  36.317  1.00  0.00    -0.206 F 
ATOM     63  C   UNL A   1      37.775  32.166  37.387  1.00  0.00     0.040 A 
ATOM     64  C   UNL A   1      38.889  34.086  36.453  1.00  0.00     0.040 A 
ATOM     65  F   UNL A   1      40.107  33.879  34.458  1.00  0.00    -0.206 F 
ATOM     66  C   UNL A   1      38.106  33.518  37.455  1.00  0.00     0.006 A 
ENDBRANCH  45  59
BRANCH  46  67
ATOM     67  C   UNL A   1      42.388  26.789  27.523  1.00  0.00     0.057 A 
ATOM     68  C   UNL A   1      43.283  27.323  26.592  1.00  0.00     0.134 A 
ATOM     69  C   UNL A   1      42.011  25.449  27.369  1.00  0.00     0.134 A 
ATOM     70  F   UNL A   1      43.684  28.598  26.691  1.00  0.00    -0.206 F 
ATOM     71  C   UNL A   1      43.791  26.549  25.546  1.00  0.00     0.040 A 
ATOM     72  C   UNL A   1      42.522  24.661  26.338  1.00  0.00     0.040 A 
ATOM     73  F   UNL A   1      41.173  24.879  28.248  1.00  0.00    -0.206 F 
ATOM     74  C   UNL A   1      43.416  25.212  25.422  1.00  0.00     0.006 A 
ENDBRANCH  46  67
BRANCH  58  75
ATOM     75  C   UNL A   1      44.436  27.299  34.132  1.00  0.00     0.057 A 
ATOM     76  C   UNL A   1      44.236  26.068  34.766  1.00  0.00     0.134 A 
ATOM     77  C   UNL A   1      45.687  27.910  34.276  1.00  0.00     0.134 A 
ATOM     78  F   UNL A   1      43.057  25.435  34.667  1.00  0.00    -0.206 F 
ATOM     79  C   UNL A   1      45.241  25.467  35.524  1.00  0.00     0.040 A 
ATOM     80  C   UNL A   1      46.707  27.312  35.020  1.00  0.00     0.040 A 
ATOM     81  F   UNL A   1      45.944  29.084  33.681  1.00  0.00    -0.206 F 
ATOM     82  C   UNL A   1      46.482  26.089  35.650  1.00  0.00     0.006 A 
ENDBRANCH  58  75
ENDBRANCH  32  33
ENDBRANCH  25  27
ENDBRANCH  24  25
ENDBRANCH  23  24
ENDBRANCH  22  23
ENDBRANCH  21  22
ENDBRANCH   1  21
TORSDOF 17
ENDMDL
MODEL 3
REMARK VINA RESULT:     -10.4      3.679      9.565
REMARK SMILES CCCCCn1c(SCC(=O)OCCOC(=O)c2ccc(-c3c4nc(c(-c5c(F)cccc5F)c5ccc([nH]5)c(-c5c(F)cccc5F)c5nc(c(-c6c(F)cccc6F)c6ccc3[nH]6)C=C5)C=C4)cc2)nc2ccccc2c1=O
REMARK SMILES IDX 10 1 11 2 9 3 8 4 7 5 6 6 79 7 72 8 78 9 80 10 73 11 77 12
REMARK SMILES IDX 74 13 76 14 75 15 5 16 4 17 3 18 2 19 1 20 12 21 13 22 14 23
REMARK SMILES IDX 15 24 16 25 17 26 18 27 19 28 71 29 20 30 70 31 21 32 22 33
REMARK SMILES IDX 23 34 64 35 24 36 69 37 63 38 65 39 25 40 68 41 62 42 61 43
REMARK SMILES IDX 26 45 52 46 35 47 51 48 36 49 39 50 50 51 66 52 37 53 38 54
REMARK SMILES IDX 49 56 67 57 40 58 27 59 28 60 33 61 29 62 30 63 32 64 34 65
REMARK SMILES IDX 31 66 53 67 54 68 59 69 55 70 56 71 58 72 60 73 57 74 41 75
REMARK SMILES IDX 42 76 47 77 43 78 44 79 46 80 48 81 45 82
REMARK H PARENT 65 44 39 55
REMARK Flexibility Score: inf
ROOT
ATOM      1  C   UNL A   1      33.865  22.963  24.945  1.00  0.00     0.316 C 
ATOM      2  O   UNL A   1      33.698  22.257  25.938  1.00  0.00    -0.251 OA
ENDROOT
BRANCH   1   3
ATOM      3  C   UNL A   1      33.134  24.259  24.803  1.00  0.00     0.200 C 
BRANCH   3   4
ATOM      4  S   UNL A   1      33.634  25.717  25.679  1.00  0.00    -0.076 SA
BRANCH   4   5
ATOM      5  C   UNL A   1      32.722  27.156  25.307  1.00  0.00     0.171 A 
ATOM      6  N   UNL A   1      32.733  28.338  26.028  1.00  0.00    -0.287 N 
ATOM      7  C   UNL A   1      31.990  29.443  25.564  1.00  0.00     0.262 A 
ATOM      8  N   UNL A   1      31.902  26.938  24.326  1.00  0.00    -0.224 NA
ATOM      9  C   UNL A   1      31.034  29.203  24.477  1.00  0.00     0.066 A 
ATOM     10  O   UNL A   1      32.053  30.575  26.045  1.00  0.00    -0.269 OA
ATOM     11  C   UNL A   1      30.991  27.923  23.950  1.00  0.00     0.079 A 
ATOM     12  C   UNL A   1      30.135  30.192  24.058  1.00  0.00     0.016 A 
ATOM     13  C   UNL A   1      29.986  27.609  23.031  1.00  0.00     0.029 A 
ATOM     14  C   UNL A   1      29.147  29.874  23.125  1.00  0.00     0.001 A 
ATOM     15  C   UNL A   1      29.061  28.576  22.627  1.00  0.00     0.002 A 
BRANCH   6  16
ATOM     16  C   UNL A   1      33.472  28.607  27.252  1.00  0.00     0.128 C 
BRANCH  16  17
ATOM     17  C   UNL A   1      34.950  28.959  27.057  1.00  0.00     0.022 C 
BRANCH  17  18
ATOM     18  C   UNL A   1      35.518  30.020  27.995  1.00  0.00     0.002 C 
BRANCH  18  19
ATOM     19  C   UNL A   1      35.273  31.487  27.628  1.00  0.00    -0.003 C 
ATOM     20  C   UNL A   1      34.191  32.201  28.426  1.00  0.00     0.004 C 
ENDBRANCH  18  19
ENDBRANCH  17  18
ENDBRANCH  16  17
ENDBRANCH   6  16
ENDBRANCH   4   5
ENDBRANCH   3   4
ENDBRANCH   1   3
BRANCH   1  21
ATOM     21  O   UNL A   1      34.510  22.557  23.825  1.00  0.00    -0.461 OA
BRANCH  21  22
ATOM     22  C   UNL A   1      35.937  22.772  23.835  1.00  0.00     0.274 C 
BRANCH  22  23
ATOM     23  C   UNL A   1      36.740  21.542  24.257  1.00  0.00     0.275 C 
BRANCH  23  24
ATOM     24  O   UNL A   1      37.149  21.603  25.636  1.00  0.00    -0.458 OA
BRANCH  24  25
ATOM     25  C   UNL A   1      38.476  21.440  25.840  1.00  0.00     0.338 C 
ATOM     26  O   UNL A   1      39.153  20.472  25.541  1.00  0.00    -0.246 OA
BRANCH  25  27
ATOM     27  C   UNL A   1      39.045  22.630  26.492  1.00  0.00     0.060 A 
ATOM     28  C   UNL A   1      40.190  22.502  27.275  1.00  0.00     0.016 A 
ATOM     29  C   UNL A   1      38.562  23.894  26.157  1.00  0.00     0.016 A 
ATOM     30  C   UNL A   1      40.853  23.652  27.720  1.00  0.00     0.010 A 
ATOM     31  C   UNL A   1      39.294  25.031  26.501  1.00  0.00     0.010 A 
ATOM     32  C   UNL A   1      40.434  24.932  27.309  1.00  0.00    -0.014 A 
BRANCH  32  33
ATOM     33  C   UNL A   1      41.173  26.152  27.741  1.00  0.00     0.031 A 
ATOM     34  C   UNL A   1      42.582  26.406  27.265  1.00  0.00     0.074 A 
ATOM     35  C   UNL A   1      40.598  27.040  28.580  1.00  0.00     0.049 A 
ATOM     36  N   UNL A   1      43.346  27.454  27.461  1.00  0.00    -0.248 NA
ATOM     37  C   UNL A   1      43.237  25.330  26.504  1.00  0.00     0.031 C 
ATOM     38  C   UNL A   1      39.291  26.887  29.221  1.00  0.00     0.029 A 
ATOM     39  N   UNL A   1      41.041  28.265  29.020  1.00  0.00    -0.354 N 
ATOM     40  C   UNL A   1      44.566  27.149  26.871  1.00  0.00     0.074 A 
ATOM     41  C   UNL A   1      44.469  25.795  26.376  1.00  0.00     0.031 C 
ATOM     42  C   UNL A   1      39.007  28.004  29.913  1.00  0.00     0.029 A 
ATOM     43  C   UNL A   1      40.115  28.945  29.775  1.00  0.00     0.049 A 
ATOM     44  H   UNL A   1      41.934  28.621  28.814  1.00  0.00     0.167 HD
ATOM     45  C   UNL A   1      45.659  27.932  26.708  1.00  0.00     0.037 A 
ATOM     46  C   UNL A   1      40.142  30.198  30.269  1.00  0.00     0.037 A 
ATOM     47  C   UNL A   1      45.750  29.301  27.129  1.00  0.00     0.049 A 
ATOM     48  C   UNL A   1      41.329  31.082  30.005  1.00  0.00     0.074 A 
ATOM     49  C   UNL A   1      46.773  30.207  26.911  1.00  0.00     0.029 A 
ATOM     50  N   UNL A   1      44.770  29.965  27.846  1.00  0.00    -0.354 N 
ATOM     51  N   UNL A   1      42.425  30.823  29.335  1.00  0.00    -0.248 NA
ATOM     52  C   UNL A   1      41.272  32.447  30.555  1.00  0.00     0.031 C 
ATOM     53  C   UNL A   1      46.416  31.422  27.510  1.00  0.00     0.029 A 
ATOM     54  C   UNL A   1      45.165  31.271  28.085  1.00  0.00     0.049 A 
ATOM     55  H   UNL A   1      43.919  29.569  28.143  1.00  0.00     0.167 HD
ATOM     56  C   UNL A   1      43.169  31.994  29.356  1.00  0.00     0.074 A 
ATOM     57  C   UNL A   1      42.402  32.971  30.100  1.00  0.00     0.031 C 
ATOM     58  C   UNL A   1      44.382  32.238  28.804  1.00  0.00     0.037 A 
BRANCH  45  59
ATOM     59  C   UNL A   1      46.827  27.318  25.999  1.00  0.00     0.057 A 
ATOM     60  C   UNL A   1      46.960  27.418  24.610  1.00  0.00     0.134 A 
ATOM     61  C   UNL A   1      47.837  26.647  26.703  1.00  0.00     0.134 A 
ATOM     62  F   UNL A   1      46.028  28.046  23.879  1.00  0.00    -0.206 F 
ATOM     63  C   UNL A   1      48.067  26.884  23.947  1.00  0.00     0.040 A 
ATOM     64  C   UNL A   1      48.957  26.129  26.054  1.00  0.00     0.040 A 
ATOM     65  F   UNL A   1      47.773  26.536  28.039  1.00  0.00    -0.206 F 
ATOM     66  C   UNL A   1      49.073  26.246  24.671  1.00  0.00     0.006 A 
ENDBRANCH  45  59
BRANCH  46  67
ATOM     67  C   UNL A   1      38.968  30.739  30.995  1.00  0.00     0.057 A 
ATOM     68  C   UNL A   1      38.000  31.516  30.353  1.00  0.00     0.134 A 
ATOM     69  C   UNL A   1      38.772  30.444  32.350  1.00  0.00     0.134 A 
ATOM     70  F   UNL A   1      38.132  31.826  29.055  1.00  0.00    -0.206 F 
ATOM     71  C   UNL A   1      36.872  31.980  31.033  1.00  0.00     0.040 A 
ATOM     72  C   UNL A   1      37.643  30.888  33.038  1.00  0.00     0.040 A 
ATOM     73  F   UNL A   1      39.658  29.682  33.009  1.00  0.00    -0.206 F 
ATOM     74  C   UNL A   1      36.688  31.659  32.378  1.00  0.00     0.006 A 
ENDBRANCH  46  67
BRANCH  58  75
ATOM     75  C   UNL A   1      44.937  33.622  28.948  1.00  0.00     0.057 A 
ATOM     76  C   UNL A   1      45.748  33.955  30.039  1.00  0.00     0.134 A 
ATOM     77  C   UNL A   1      44.635  34.633  28.029  1.00  0.00     0.134 A 
ATOM     78  F   UNL A   1      46.070  33.029  30.956  1.00  0.00    -0.206 F 
ATOM     79  C   UNL A   1      46.236  35.249  30.215  1.00  0.00     0.040 A 
ATOM     80  C   UNL A   1      45.130  35.929  28.185  1.00  0.00     0.040 A 
ATOM     81  F   UNL A   1      43.874  34.372  26.956  1.00  0.00    -0.206 F 
ATOM     82  C   UNL A   1      45.929  36.241  29.285  1.00  0.00     0.006 A 
ENDBRANCH  58  75
ENDBRANCH  32  33
ENDBRANCH  25  27
ENDBRANCH  24  25
ENDBRANCH  23  24
ENDBRANCH  22  23
ENDBRANCH  21  22
ENDBRANCH   1  21
TORSDOF 17
ENDMDL
