MODEL 1
REMARK VINA RESULT:     -12.5      0.000      0.000
REMARK SMILES O=C(Cc1cc(=O)[nH]c(=O)[nH]1)Nc1cccc(C(=O)OCCOC(=O)c2ccc(-c3c4nc(c(-c5c(F)cccc5F)c5ccc([nH]5)c(-c5c(F)cccc5F)c5nc(c(-c6c(F)cccc6F)c6ccc3[nH]6)C=C5)C=C4)cc2)c1
REMARK SMILES IDX 21 1 20 2 18 3 19 4 17 5 13 6 14 7 80 8 15 9 16 10 12 11
REMARK SMILES IDX 1 12 2 13 3 15 4 16 5 17 11 18 6 19 9 20 7 22 8 23 10 24
REMARK SMILES IDX 22 26 23 27 24 28 25 29 26 30 27 31 79 32 28 33 78 34 29 35
REMARK SMILES IDX 30 36 31 37 72 38 32 39 77 40 71 41 73 42 33 43 76 44 70 45
REMARK SMILES IDX 69 46 34 48 60 49 43 50 59 51 44 52 47 53 58 54 74 55 45 56
REMARK SMILES IDX 46 57 57 59 75 60 48 61 35 62 36 63 41 64 37 65 38 66 40 67
REMARK SMILES IDX 42 68 39 69 61 70 62 71 67 72 63 73 64 74 66 75 68 76 65 77
REMARK SMILES IDX 49 78 50 79 55 80 51 81 52 82 54 83 56 84 53 85
REMARK H PARENT 12 14 11 21 8 25 73 47 47 58
REMARK Flexibility Score: inf
ROOT
ATOM      1  C   UNL A   1      42.586  20.761  26.150  1.00  0.00     0.275 C 
ENDROOT
BRANCH   1   2
ATOM      2  O   UNL A   1      41.302  21.384  26.336  1.00  0.00    -0.458 OA
BRANCH   2   3
ATOM      3  C   UNL A   1      40.205  20.680  25.960  1.00  0.00     0.338 C 
ATOM      4  O   UNL A   1      40.131  19.475  25.790  1.00  0.00    -0.246 OA
BRANCH   3   5
ATOM      5  C   UNL A   1      39.031  21.588  25.928  1.00  0.00     0.062 A 
ATOM      6  C   UNL A   1      36.734  22.026  25.337  1.00  0.00     0.042 A 
ATOM      7  C   UNL A   1      36.901  23.377  25.651  1.00  0.00     0.026 A 
ATOM      8  C   UNL A   1      37.814  21.148  25.416  1.00  0.00     0.041 A 
ATOM      9  C   UNL A   1      38.100  23.808  26.216  1.00  0.00     0.003 A 
ATOM     10  C   UNL A   1      39.141  22.900  26.406  1.00  0.00     0.016 A 
BRANCH   6  11
ATOM     11  N   UNL A   1      35.439  21.571  25.041  1.00  0.00    -0.326 N 
ATOM     12  O   UNL A   1      34.652  21.459  27.235  1.00  0.00    -0.274 OA
ATOM     13  C   UNL A   1      34.470  21.390  26.022  1.00  0.00     0.230 C 
ATOM     14  H   UNL A   1      35.208  21.373  24.104  1.00  0.00     0.169 HD
BRANCH  13  15
ATOM     15  C   UNL A   1      33.074  21.164  25.467  1.00  0.00     0.154 C 
BRANCH  15  16
ATOM     16  C   UNL A   1      32.820  19.807  24.846  1.00  0.00     0.034 A 
ATOM     17  C   UNL A   1      32.547  19.554  23.555  1.00  0.00     0.093 A 
ATOM     18  N   UNL A   1      32.895  18.746  25.722  1.00  0.00    -0.311 N 
ATOM     19  C   UNL A   1      32.427  18.158  23.088  1.00  0.00     0.253 A 
ATOM     20  C   UNL A   1      32.728  17.435  25.372  1.00  0.00     0.325 A 
ATOM     21  H   UNL A   1      33.081  18.947  26.667  1.00  0.00     0.171 HD
ATOM     22  O   UNL A   1      32.297  17.907  21.896  1.00  0.00    -0.269 OA
ATOM     23  N   UNL A   1      32.507  17.196  24.050  1.00  0.00    -0.274 N 
ATOM     24  O   UNL A   1      32.792  16.536  26.203  1.00  0.00    -0.248 OA
ATOM     25  H   UNL A   1      32.395  16.259  23.768  1.00  0.00     0.175 HD
ENDBRANCH  15  16
ENDBRANCH  13  15
ENDBRANCH   6  11
ENDBRANCH   3   5
ENDBRANCH   2   3
ENDBRANCH   1   2
BRANCH   1  26
ATOM     26  C   UNL A   1      43.528  21.681  25.371  1.00  0.00     0.275 C 
BRANCH  26  27
ATOM     27  O   UNL A   1      42.869  22.924  25.059  1.00  0.00    -0.458 OA
BRANCH  27  28
ATOM     28  C   UNL A   1      43.622  24.036  25.211  1.00  0.00     0.338 C 
ATOM     29  O   UNL A   1      44.615  24.362  24.585  1.00  0.00    -0.246 OA
BRANCH  28  30
ATOM     30  C   UNL A   1      42.981  24.923  26.192  1.00  0.00     0.060 A 
ATOM     31  C   UNL A   1      43.417  26.241  26.229  1.00  0.00     0.016 A 
ATOM     32  C   UNL A   1      42.085  24.459  27.147  1.00  0.00     0.016 A 
ATOM     33  C   UNL A   1      43.031  27.095  27.253  1.00  0.00     0.010 A 
ATOM     34  C   UNL A   1      41.625  25.343  28.136  1.00  0.00     0.010 A 
ATOM     35  C   UNL A   1      42.114  26.662  28.217  1.00  0.00    -0.014 A 
BRANCH  35  36
ATOM     36  C   UNL A   1      41.716  27.583  29.317  1.00  0.00     0.031 A 
ATOM     37  C   UNL A   1      42.500  27.613  30.602  1.00  0.00     0.074 A 
ATOM     38  C   UNL A   1      40.675  28.426  29.157  1.00  0.00     0.049 A 
ATOM     39  N   UNL A   1      42.234  28.237  31.722  1.00  0.00    -0.248 NA
ATOM     40  C   UNL A   1      43.744  26.828  30.634  1.00  0.00     0.031 C 
ATOM     41  C   UNL A   1      39.861  28.549  27.944  1.00  0.00     0.029 A 
ATOM     42  N   UNL A   1      40.125  29.348  30.014  1.00  0.00    -0.354 N 
ATOM     43  C   UNL A   1      43.244  27.879  32.606  1.00  0.00     0.074 A 
ATOM     44  C   UNL A   1      44.125  26.976  31.895  1.00  0.00     0.031 C 
ATOM     45  C   UNL A   1      38.943  29.510  28.123  1.00  0.00     0.029 A 
ATOM     46  C   UNL A   1      39.041  30.010  29.490  1.00  0.00     0.049 A 
ATOM     47  H   UNL A   1      40.476  29.519  30.918  1.00  0.00     0.167 HD
ATOM     48  C   UNL A   1      43.422  28.268  33.891  1.00  0.00     0.037 A 
ATOM     49  C   UNL A   1      38.189  30.887  30.054  1.00  0.00     0.037 A 
ATOM     50  C   UNL A   1      42.569  29.202  34.580  1.00  0.00     0.049 A 
ATOM     51  C   UNL A   1      38.378  31.265  31.496  1.00  0.00     0.074 A 
ATOM     52  C   UNL A   1      42.673  29.670  35.879  1.00  0.00     0.029 A 
ATOM     53  N   UNL A   1      41.458  29.820  34.022  1.00  0.00    -0.354 N 
ATOM     54  N   UNL A   1      39.312  30.887  32.335  1.00  0.00    -0.248 NA
ATOM     55  C   UNL A   1      37.384  32.180  32.075  1.00  0.00     0.031 C 
ATOM     56  C   UNL A   1      41.601  30.536  36.121  1.00  0.00     0.029 A 
ATOM     57  C   UNL A   1      40.859  30.650  34.956  1.00  0.00     0.049 A 
ATOM     58  H   UNL A   1      41.143  29.688  33.099  1.00  0.00     0.167 HD
ATOM     59  C   UNL A   1      39.030  31.530  33.531  1.00  0.00     0.074 A 
ATOM     60  C   UNL A   1      37.850  32.338  33.305  1.00  0.00     0.031 C 
ATOM     61  C   UNL A   1      39.689  31.455  34.714  1.00  0.00     0.037 A 
BRANCH  48  62
ATOM     62  C   UNL A   1      44.562  27.654  34.653  1.00  0.00     0.057 A 
ATOM     63  C   UNL A   1      45.845  28.216  34.664  1.00  0.00     0.134 A 
ATOM     64  C   UNL A   1      44.360  26.495  35.416  1.00  0.00     0.134 A 
ATOM     65  F   UNL A   1      46.112  29.317  33.945  1.00  0.00    -0.206 F 
ATOM     66  C   UNL A   1      46.891  27.634  35.383  1.00  0.00     0.040 A 
ATOM     67  C   UNL A   1      45.390  25.921  36.162  1.00  0.00     0.040 A 
ATOM     68  F   UNL A   1      43.155  25.909  35.456  1.00  0.00    -0.206 F 
ATOM     69  C   UNL A   1      46.662  26.486  36.141  1.00  0.00     0.006 A 
ENDBRANCH  48  62
BRANCH  49  70
ATOM     70  C   UNL A   1      37.054  31.435  29.267  1.00  0.00     0.057 A 
ATOM     71  C   UNL A   1      37.096  32.729  28.734  1.00  0.00     0.134 A 
ATOM     72  C   UNL A   1      35.898  30.680  29.034  1.00  0.00     0.134 A 
ATOM     73  F   UNL A   1      38.165  33.510  28.944  1.00  0.00    -0.206 F 
ATOM     74  C   UNL A   1      36.026  33.256  28.009  1.00  0.00     0.040 A 
ATOM     75  C   UNL A   1      34.833  31.183  28.284  1.00  0.00     0.040 A 
ATOM     76  F   UNL A   1      35.792  29.433  29.515  1.00  0.00    -0.206 F 
ATOM     77  C   UNL A   1      34.893  32.479  27.776  1.00  0.00     0.006 A 
ENDBRANCH  49  70
BRANCH  61  78
ATOM     78  C   UNL A   1      39.171  32.303  35.839  1.00  0.00     0.057 A 
ATOM     79  C   UNL A   1      38.294  31.799  36.807  1.00  0.00     0.134 A 
ATOM     80  C   UNL A   1      39.576  33.638  35.967  1.00  0.00     0.134 A 
ATOM     81  F   UNL A   1      37.856  30.532  36.733  1.00  0.00    -0.206 F 
ATOM     82  C   UNL A   1      37.817  32.598  37.846  1.00  0.00     0.040 A 
ATOM     83  C   UNL A   1      39.128  34.440  37.018  1.00  0.00     0.040 A 
ATOM     84  F   UNL A   1      40.421  34.182  35.078  1.00  0.00    -0.206 F 
ATOM     85  C   UNL A   1      38.239  33.921  37.957  1.00  0.00     0.006 A 
ENDBRANCH  61  78
ENDBRANCH  35  36
ENDBRANCH  28  30
ENDBRANCH  27  28
ENDBRANCH  26  27
ENDBRANCH   1  26
TORSDOF 14
ENDMDL
MODEL 2
REMARK VINA RESULT:     -12.5      1.434      2.010
REMARK SMILES O=C(Cc1cc(=O)[nH]c(=O)[nH]1)Nc1cccc(C(=O)OCCOC(=O)c2ccc(-c3c4nc(c(-c5c(F)cccc5F)c5ccc([nH]5)c(-c5c(F)cccc5F)c5nc(c(-c6c(F)cccc6F)c6ccc3[nH]6)C=C5)C=C4)cc2)c1
REMARK SMILES IDX 21 1 20 2 18 3 19 4 17 5 13 6 14 7 80 8 15 9 16 10 12 11
REMARK SMILES IDX 1 12 2 13 3 15 4 16 5 17 11 18 6 19 9 20 7 22 8 23 10 24
REMARK SMILES IDX 22 26 23 27 24 28 25 29 26 30 27 31 79 32 28 33 78 34 29 35
REMARK SMILES IDX 30 36 31 37 72 38 32 39 77 40 71 41 73 42 33 43 76 44 70 45
REMARK SMILES IDX 69 46 34 48 60 49 43 50 59 51 44 52 47 53 58 54 74 55 45 56
REMARK SMILES IDX 46 57 57 59 75 60 48 61 35 62 36 63 41 64 37 65 38 66 40 67
REMARK SMILES IDX 42 68 39 69 61 70 62 71 67 72 63 73 64 74 66 75 68 76 65 77
REMARK SMILES IDX 49 78 50 79 55 80 51 81 52 82 54 83 56 84 53 85
REMARK H PARENT 12 14 11 21 8 25 73 47 47 58
REMARK Flexibility Score: inf
ROOT
ATOM      1  C   UNL A   1      42.954  21.089  26.027  1.00  0.00     0.275 C 
ENDROOT
BRANCH   1   2
ATOM      2  O   UNL A   1      41.579  21.365  25.702  1.00  0.00    -0.458 OA
BRANCH   2   3
ATOM      3  C   UNL A   1      40.645  21.077  26.643  1.00  0.00     0.338 C 
ATOM      4  O   UNL A   1      40.787  20.368  27.625  1.00  0.00    -0.246 OA
BRANCH   3   5
ATOM      5  C   UNL A   1      39.429  21.891  26.389  1.00  0.00     0.062 A 
ATOM      6  C   UNL A   1      37.247  22.146  25.395  1.00  0.00     0.042 A 
ATOM      7  C   UNL A   1      37.253  23.508  25.709  1.00  0.00     0.026 A 
ATOM      8  C   UNL A   1      38.359  21.356  25.679  1.00  0.00     0.041 A 
ATOM      9  C   UNL A   1      38.297  24.033  26.469  1.00  0.00     0.003 A 
ATOM     10  C   UNL A   1      39.353  23.210  26.855  1.00  0.00     0.016 A 
BRANCH   6  11
ATOM     11  N   UNL A   1      36.063  21.590  24.884  1.00  0.00    -0.326 N 
ATOM     12  O   UNL A   1      34.860  21.559  26.883  1.00  0.00    -0.274 OA
ATOM     13  C   UNL A   1      34.928  21.405  25.666  1.00  0.00     0.230 C 
ATOM     14  H   UNL A   1      36.035  21.322  23.937  1.00  0.00     0.169 HD
BRANCH  13  15
ATOM     15  C   UNL A   1      33.685  21.056  24.866  1.00  0.00     0.154 C 
BRANCH  15  16
ATOM     16  C   UNL A   1      32.550  22.056  24.933  1.00  0.00     0.034 A 
ATOM     17  C   UNL A   1      32.121  22.850  23.939  1.00  0.00     0.093 A 
ATOM     18  N   UNL A   1      31.910  22.123  26.151  1.00  0.00    -0.311 N 
ATOM     19  C   UNL A   1      30.929  23.699  24.138  1.00  0.00     0.253 A 
ATOM     20  C   UNL A   1      30.844  22.934  26.426  1.00  0.00     0.325 A 
ATOM     21  H   UNL A   1      32.245  21.545  26.875  1.00  0.00     0.171 HD
ATOM     22  O   UNL A   1      30.455  24.338  23.206  1.00  0.00    -0.269 OA
ATOM     23  N   UNL A   1      30.391  23.690  25.389  1.00  0.00    -0.274 N 
ATOM     24  O   UNL A   1      30.327  22.959  27.537  1.00  0.00    -0.248 OA
ATOM     25  H   UNL A   1      29.616  24.276  25.556  1.00  0.00     0.175 HD
ENDBRANCH  15  16
ENDBRANCH  13  15
ENDBRANCH   6  11
ENDBRANCH   3   5
ENDBRANCH   2   3
ENDBRANCH   1   2
BRANCH   1  26
ATOM     26  C   UNL A   1      43.894  21.948  25.180  1.00  0.00     0.275 C 
BRANCH  26  27
ATOM     27  O   UNL A   1      43.280  23.217  24.883  1.00  0.00    -0.458 OA
BRANCH  27  28
ATOM     28  C   UNL A   1      44.031  24.306  25.160  1.00  0.00     0.338 C 
ATOM     29  O   UNL A   1      45.065  24.662  24.623  1.00  0.00    -0.246 OA
BRANCH  28  30
ATOM     30  C   UNL A   1      43.336  25.131  26.158  1.00  0.00     0.060 A 
ATOM     31  C   UNL A   1      43.680  26.475  26.215  1.00  0.00     0.016 A 
ATOM     32  C   UNL A   1      42.479  24.591  27.109  1.00  0.00     0.016 A 
ATOM     33  C   UNL A   1      43.242  27.284  27.254  1.00  0.00     0.010 A 
ATOM     34  C   UNL A   1      41.964  25.425  28.114  1.00  0.00     0.010 A 
ATOM     35  C   UNL A   1      42.362  26.774  28.215  1.00  0.00    -0.014 A 
BRANCH  35  36
ATOM     36  C   UNL A   1      41.907  27.647  29.332  1.00  0.00     0.031 A 
ATOM     37  C   UNL A   1      42.659  27.664  30.636  1.00  0.00     0.074 A 
ATOM     38  C   UNL A   1      40.842  28.460  29.170  1.00  0.00     0.049 A 
ATOM     39  N   UNL A   1      42.346  28.244  31.767  1.00  0.00    -0.248 NA
ATOM     40  C   UNL A   1      43.928  26.920  30.675  1.00  0.00     0.031 C 
ATOM     41  C   UNL A   1      40.053  28.592  27.942  1.00  0.00     0.029 A 
ATOM     42  N   UNL A   1      40.242  29.337  30.041  1.00  0.00    -0.354 N 
ATOM     43  C   UNL A   1      43.347  27.894  32.664  1.00  0.00     0.074 A 
ATOM     44  C   UNL A   1      44.274  27.042  31.949  1.00  0.00     0.031 C 
ATOM     45  C   UNL A   1      39.099  29.517  28.127  1.00  0.00     0.029 A 
ATOM     46  C   UNL A   1      39.148  29.978  29.510  1.00  0.00     0.049 A 
ATOM     47  H   UNL A   1      40.565  29.492  30.958  1.00  0.00     0.167 HD
ATOM     48  C   UNL A   1      43.481  28.249  33.965  1.00  0.00     0.037 A 
ATOM     49  C   UNL A   1      38.254  30.809  30.079  1.00  0.00     0.037 A 
ATOM     50  C   UNL A   1      42.580  29.133  34.659  1.00  0.00     0.049 A 
ATOM     51  C   UNL A   1      38.396  31.149  31.535  1.00  0.00     0.074 A 
ATOM     52  C   UNL A   1      42.638  29.565  35.974  1.00  0.00     0.029 A 
ATOM     53  N   UNL A   1      41.463  29.731  34.093  1.00  0.00    -0.354 N 
ATOM     54  N   UNL A   1      39.322  30.777  32.385  1.00  0.00    -0.248 NA
ATOM     55  C   UNL A   1      37.359  32.013  32.116  1.00  0.00     0.031 C 
ATOM     56  C   UNL A   1      41.532  30.387  36.215  1.00  0.00     0.029 A 
ATOM     57  C   UNL A   1      40.814  30.512  35.035  1.00  0.00     0.049 A 
ATOM     58  H   UNL A   1      41.174  29.616  33.159  1.00  0.00     0.167 HD
ATOM     59  C   UNL A   1      38.991  31.374  33.593  1.00  0.00     0.074 A 
ATOM     60  C   UNL A   1      37.790  32.149  33.362  1.00  0.00     0.031 C 
ATOM     61  C   UNL A   1      39.624  31.284  34.789  1.00  0.00     0.037 A 
BRANCH  48  62
ATOM     62  C   UNL A   1      44.623  27.651  34.736  1.00  0.00     0.057 A 
ATOM     63  C   UNL A   1      45.884  28.257  34.800  1.00  0.00     0.134 A 
ATOM     64  C   UNL A   1      44.444  26.460  35.453  1.00  0.00     0.134 A 
ATOM     65  F   UNL A   1      46.128  29.392  34.126  1.00  0.00    -0.206 F 
ATOM     66  C   UNL A   1      46.932  27.688  35.528  1.00  0.00     0.040 A 
ATOM     67  C   UNL A   1      45.475  25.897  36.207  1.00  0.00     0.040 A 
ATOM     68  F   UNL A   1      43.260  25.829  35.441  1.00  0.00    -0.206 F 
ATOM     69  C   UNL A   1      46.726  26.507  36.240  1.00  0.00     0.006 A 
ENDBRANCH  48  62
BRANCH  49  70
ATOM     70  C   UNL A   1      37.120  31.342  29.280  1.00  0.00     0.057 A 
ATOM     71  C   UNL A   1      35.982  30.567  29.027  1.00  0.00     0.134 A 
ATOM     72  C   UNL A   1      37.149  32.636  28.745  1.00  0.00     0.134 A 
ATOM     73  F   UNL A   1      35.904  29.311  29.490  1.00  0.00    -0.206 F 
ATOM     74  C   UNL A   1      34.921  31.055  28.262  1.00  0.00     0.040 A 
ATOM     75  C   UNL A   1      36.082  33.148  28.005  1.00  0.00     0.040 A 
ATOM     76  F   UNL A   1      38.209  33.431  28.951  1.00  0.00    -0.206 F 
ATOM     77  C   UNL A   1      34.967  32.352  27.755  1.00  0.00     0.006 A 
ENDBRANCH  49  70
BRANCH  61  78
ATOM     78  C   UNL A   1      39.051  32.081  35.925  1.00  0.00     0.057 A 
ATOM     79  C   UNL A   1      38.164  31.520  36.852  1.00  0.00     0.134 A 
ATOM     80  C   UNL A   1      39.413  33.422  36.107  1.00  0.00     0.134 A 
ATOM     81  F   UNL A   1      37.765  30.244  36.727  1.00  0.00    -0.206 F 
ATOM     82  C   UNL A   1      37.636  32.271  37.903  1.00  0.00     0.040 A 
ATOM     83  C   UNL A   1      38.914  34.176  37.169  1.00  0.00     0.040 A 
ATOM     84  F   UNL A   1      40.265  34.018  35.259  1.00  0.00    -0.206 F 
ATOM     85  C   UNL A   1      38.016  33.602  38.067  1.00  0.00     0.006 A 
ENDBRANCH  61  78
ENDBRANCH  35  36
ENDBRANCH  28  30
ENDBRANCH  27  28
ENDBRANCH  26  27
ENDBRANCH   1  26
TORSDOF 14
ENDMDL
MODEL 3
REMARK VINA RESULT:     -12.2      4.771      9.458
REMARK SMILES O=C(Cc1cc(=O)[nH]c(=O)[nH]1)Nc1cccc(C(=O)OCCOC(=O)c2ccc(-c3c4nc(c(-c5c(F)cccc5F)c5ccc([nH]5)c(-c5c(F)cccc5F)c5nc(c(-c6c(F)cccc6F)c6ccc3[nH]6)C=C5)C=C4)cc2)c1
REMARK SMILES IDX 21 1 20 2 18 3 19 4 17 5 13 6 14 7 80 8 15 9 16 10 12 11
REMARK SMILES IDX 1 12 2 13 3 15 4 16 5 17 11 18 6 19 9 20 7 22 8 23 10 24
REMARK SMILES IDX 22 26 23 27 24 28 25 29 26 30 27 31 79 32 28 33 78 34 29 35
REMARK SMILES IDX 30 36 31 37 72 38 32 39 77 40 71 41 73 42 33 43 76 44 70 45
REMARK SMILES IDX 69 46 34 48 60 49 43 50 59 51 44 52 47 53 58 54 74 55 45 56
REMARK SMILES IDX 46 57 57 59 75 60 48 61 35 62 36 63 41 64 37 65 38 66 40 67
REMARK SMILES IDX 42 68 39 69 61 70 62 71 67 72 63 73 64 74 66 75 68 76 65 77
REMARK SMILES IDX 49 78 50 79 55 80 51 81 52 82 54 83 56 84 53 85
REMARK H PARENT 12 14 11 21 8 25 73 47 47 58
REMARK Flexibility Score: inf
ROOT
ATOM      1  C   UNL A   1      33.909  35.636  28.857  1.00  0.00     0.275 C 
ENDROOT
BRANCH   1   2
ATOM      2  O   UNL A   1      33.883  34.223  29.128  1.00  0.00    -0.458 OA
BRANCH   2   3
ATOM      3  C   UNL A   1      33.317  33.418  28.194  1.00  0.00     0.338 C 
ATOM      4  O   UNL A   1      32.293  33.630  27.566  1.00  0.00    -0.246 OA
BRANCH   3   5
ATOM      5  C   UNL A   1      34.224  32.275  27.921  1.00  0.00     0.062 A 
ATOM      6  C   UNL A   1      34.566  29.936  27.442  1.00  0.00     0.042 A 
ATOM      7  C   UNL A   1      35.940  30.084  27.650  1.00  0.00     0.026 A 
ATOM      8  C   UNL A   1      33.706  31.015  27.639  1.00  0.00     0.041 A 
ATOM      9  C   UNL A   1      36.467  31.354  27.876  1.00  0.00     0.003 A 
ATOM     10  C   UNL A   1      35.614  32.454  27.954  1.00  0.00     0.016 A 
BRANCH   6  11
ATOM     11  N   UNL A   1      34.101  28.709  26.939  1.00  0.00    -0.326 N 
ATOM     12  O   UNL A   1      33.494  29.467  24.817  1.00  0.00    -0.274 OA
ATOM     13  C   UNL A   1      33.663  28.560  25.628  1.00  0.00     0.230 C 
ATOM     14  H   UNL A   1      34.085  27.927  27.537  1.00  0.00     0.169 HD
BRANCH  13  15
ATOM     15  C   UNL A   1      33.469  27.112  25.211  1.00  0.00     0.154 C 
BRANCH  15  16
ATOM     16  C   UNL A   1      32.942  26.891  23.809  1.00  0.00     0.034 A 
ATOM     17  C   UNL A   1      33.508  26.143  22.848  1.00  0.00     0.093 A 
ATOM     18  N   UNL A   1      31.754  27.530  23.530  1.00  0.00    -0.311 N 
ATOM     19  C   UNL A   1      32.810  25.946  21.562  1.00  0.00     0.253 A 
ATOM     20  C   UNL A   1      31.086  27.447  22.340  1.00  0.00     0.325 A 
ATOM     21  H   UNL A   1      31.358  28.086  24.239  1.00  0.00     0.171 HD
ATOM     22  O   UNL A   1      33.255  25.173  20.721  1.00  0.00    -0.269 OA
ATOM     23  N   UNL A   1      31.650  26.640  21.399  1.00  0.00    -0.274 N 
ATOM     24  O   UNL A   1      30.038  28.053  22.149  1.00  0.00    -0.248 OA
ATOM     25  H   UNL A   1      31.183  26.553  20.535  1.00  0.00     0.175 HD
ENDBRANCH  15  16
ENDBRANCH  13  15
ENDBRANCH   6  11
ENDBRANCH   3   5
ENDBRANCH   2   3
ENDBRANCH   1   2
BRANCH   1  26
ATOM     26  C   UNL A   1      32.957  36.385  29.792  1.00  0.00     0.275 C 
BRANCH  26  27
ATOM     27  O   UNL A   1      32.464  35.501  30.817  1.00  0.00    -0.458 OA
BRANCH  27  28
ATOM     28  C   UNL A   1      32.678  35.907  32.089  1.00  0.00     0.338 C 
ATOM     29  O   UNL A   1      32.024  36.699  32.743  1.00  0.00    -0.246 OA
BRANCH  28  30
ATOM     30  C   UNL A   1      33.783  35.129  32.665  1.00  0.00     0.060 A 
ATOM     31  C   UNL A   1      35.049  35.695  32.608  1.00  0.00     0.016 A 
ATOM     32  C   UNL A   1      33.622  33.826  33.121  1.00  0.00     0.016 A 
ATOM     33  C   UNL A   1      36.179  34.956  32.928  1.00  0.00     0.010 A 
ATOM     34  C   UNL A   1      34.754  33.102  33.528  1.00  0.00     0.010 A 
ATOM     35  C   UNL A   1      36.048  33.649  33.409  1.00  0.00    -0.014 A 
BRANCH  35  36
ATOM     36  C   UNL A   1      37.268  32.862  33.740  1.00  0.00     0.031 A 
ATOM     37  C   UNL A   1      37.984  33.086  35.045  1.00  0.00     0.074 A 
ATOM     38  C   UNL A   1      37.718  31.913  32.892  1.00  0.00     0.049 A 
ATOM     39  N   UNL A   1      39.131  32.606  35.456  1.00  0.00    -0.248 NA
ATOM     40  C   UNL A   1      37.326  33.976  36.014  1.00  0.00     0.031 C 
ATOM     41  C   UNL A   1      37.091  31.546  31.619  1.00  0.00     0.029 A 
ATOM     42  N   UNL A   1      38.805  31.077  32.975  1.00  0.00    -0.354 N 
ATOM     43  C   UNL A   1      39.357  33.176  36.703  1.00  0.00     0.074 A 
ATOM     44  C   UNL A   1      38.233  34.044  36.979  1.00  0.00     0.031 C 
ATOM     45  C   UNL A   1      37.782  30.541  31.060  1.00  0.00     0.029 A 
ATOM     46  C   UNL A   1      38.949  30.251  31.886  1.00  0.00     0.049 A 
ATOM     47  H   UNL A   1      39.421  31.068  33.743  1.00  0.00     0.167 HD
ATOM     48  C   UNL A   1      40.406  32.991  37.541  1.00  0.00     0.037 A 
ATOM     49  C   UNL A   1      39.931  29.390  31.559  1.00  0.00     0.037 A 
ATOM     50  C   UNL A   1      41.500  32.091  37.281  1.00  0.00     0.049 A 
ATOM     51  C   UNL A   1      41.108  29.240  32.481  1.00  0.00     0.074 A 
ATOM     52  C   UNL A   1      42.604  31.823  38.074  1.00  0.00     0.029 A 
ATOM     53  N   UNL A   1      41.626  31.302  36.147  1.00  0.00    -0.354 N 
ATOM     54  N   UNL A   1      41.332  29.816  33.636  1.00  0.00    -0.248 NA
ATOM     55  C   UNL A   1      42.176  28.330  32.044  1.00  0.00     0.031 C 
ATOM     56  C   UNL A   1      43.418  30.907  37.399  1.00  0.00     0.029 A 
ATOM     57  C   UNL A   1      42.795  30.563  36.210  1.00  0.00     0.049 A 
ATOM     58  H   UNL A   1      40.978  31.272  35.405  1.00  0.00     0.167 HD
ATOM     59  C   UNL A   1      42.555  29.327  34.074  1.00  0.00     0.074 A 
ATOM     60  C   UNL A   1      43.015  28.391  33.069  1.00  0.00     0.031 C 
ATOM     61  C   UNL A   1      43.237  29.629  35.206  1.00  0.00     0.037 A 
BRANCH  48  62
ATOM     62  C   UNL A   1      40.443  33.808  38.801  1.00  0.00     0.057 A 
ATOM     63  C   UNL A   1      41.134  35.023  38.886  1.00  0.00     0.134 A 
ATOM     64  C   UNL A   1      39.745  33.382  39.940  1.00  0.00     0.134 A 
ATOM     65  F   UNL A   1      41.834  35.483  37.838  1.00  0.00    -0.206 F 
ATOM     66  C   UNL A   1      41.152  35.772  40.065  1.00  0.00     0.040 A 
ATOM     67  C   UNL A   1      39.732  34.135  41.114  1.00  0.00     0.040 A 
ATOM     68  F   UNL A   1      39.057  32.231  39.926  1.00  0.00    -0.206 F 
ATOM     69  C   UNL A   1      40.443  35.331  41.182  1.00  0.00     0.006 A 
ENDBRANCH  48  62
BRANCH  49  70
ATOM     70  C   UNL A   1      39.865  28.636  30.280  1.00  0.00     0.057 A 
ATOM     71  C   UNL A   1      40.416  29.154  29.102  1.00  0.00     0.134 A 
ATOM     72  C   UNL A   1      39.243  27.383  30.204  1.00  0.00     0.134 A 
ATOM     73  F   UNL A   1      41.002  30.360  29.104  1.00  0.00    -0.206 F 
ATOM     74  C   UNL A   1      40.341  28.459  27.894  1.00  0.00     0.040 A 
ATOM     75  C   UNL A   1      39.189  26.664  29.009  1.00  0.00     0.040 A 
ATOM     76  F   UNL A   1      38.696  26.830  31.295  1.00  0.00    -0.206 F 
ATOM     77  C   UNL A   1      39.732  27.207  27.847  1.00  0.00     0.006 A 
ENDBRANCH  49  70
BRANCH  61  78
ATOM     78  C   UNL A   1      44.532  28.906  35.435  1.00  0.00     0.057 A 
ATOM     79  C   UNL A   1      44.589  27.679  36.109  1.00  0.00     0.134 A 
ATOM     80  C   UNL A   1      45.737  29.434  34.951  1.00  0.00     0.134 A 
ATOM     81  F   UNL A   1      43.473  27.126  36.609  1.00  0.00    -0.206 F 
ATOM     82  C   UNL A   1      45.799  27.017  36.317  1.00  0.00     0.040 A 
ATOM     83  C   UNL A   1      46.950  28.768  35.130  1.00  0.00     0.040 A 
ATOM     84  F   UNL A   1      45.752  30.601  34.291  1.00  0.00    -0.206 F 
ATOM     85  C   UNL A   1      46.984  27.558  35.822  1.00  0.00     0.006 A 
ENDBRANCH  61  78
ENDBRANCH  35  36
ENDBRANCH  28  30
ENDBRANCH  27  28
ENDBRANCH  26  27
ENDBRANCH   1  26
TORSDOF 14
ENDMDL
