MODEL 1
REMARK VINA RESULT:     -12.3      0.000      0.000
REMARK SMILES C[NH+]1CCC2(CC1)OC[C@@H](C(=O)OCCOC(=O)c1ccc(-c3c4nc(c(-c5c(F)cccc5F)c5ccc([nH]5)c(-c5c(F)cccc5F)c5nc(c(-c6c(F)cccc6F)c6ccc3[nH]6)C=C5)C=C4)cc1)N2C(=O)c1ccc2ccccc2c1
REMARK SMILES IDX 14 1 13 2 11 3 12 4 10 5 1 6 2 7 3 8 7 9 4 11 6 12 5 13 8 14
REMARK SMILES IDX 73 15 9 16 74 17 75 18 76 19 77 20 85 21 78 22 84 23 79 24
REMARK SMILES IDX 83 25 80 26 82 27 81 28 15 29 16 30 17 31 18 32 19 33 20 34
REMARK SMILES IDX 72 35 21 36 71 37 22 38 23 39 24 40 65 41 25 42 70 43 64 44
REMARK SMILES IDX 66 45 26 46 69 47 63 48 62 49 27 51 53 52 36 53 52 54 37 55
REMARK SMILES IDX 40 56 51 57 67 58 38 59 39 60 50 62 68 63 41 64 28 65 29 66
REMARK SMILES IDX 34 67 30 68 31 69 33 70 35 71 32 72 54 73 55 74 60 75 56 76
REMARK SMILES IDX 57 77 59 78 61 79 58 80 42 81 43 82 48 83 44 84 45 85 47 86
REMARK SMILES IDX 49 87 46 88
REMARK H PARENT 2 10 66 50 40 61
REMARK Flexibility Score: inf
ROOT
ATOM      1  C   UNL A   1      32.551  27.834  24.102  1.00  0.00     0.274 C 
ENDROOT
BRANCH   1   2
ATOM      2  O   UNL A   1      32.957  26.478  24.377  1.00  0.00    -0.460 OA
BRANCH   2   3
ATOM      3  C   UNL A   1      33.071  25.700  23.271  1.00  0.00     0.331 C 
ATOM      4  O   UNL A   1      33.384  26.115  22.155  1.00  0.00    -0.250 OA
BRANCH   3   5
ATOM      5  C   UNL A   1      32.770  24.223  23.502  1.00  0.00     0.224 C 
ATOM      6  C   UNL A   1      32.541  18.523  25.809  1.00  0.00     0.332 C 
ATOM      7  N   UNL A   1      33.576  19.398  25.282  1.00  0.00    -0.337 N 
ATOM      8  C   UNL A   1      33.283  19.893  23.943  1.00  0.00     0.267 C 
ATOM      9  C   UNL A   1      33.988  20.432  26.228  1.00  0.00     0.267 C 
ATOM     10  H   UNL A   1      34.405  18.814  25.161  1.00  0.00     0.347 HD
ATOM     11  C   UNL A   1      32.377  21.108  23.898  1.00  0.00     0.120 C 
ATOM     12  C   UNL A   1      33.210  21.742  26.209  1.00  0.00     0.120 C 
ATOM     13  C   UNL A   1      32.812  22.259  24.828  1.00  0.00     0.155 C 
ATOM     14  O   UNL A   1      31.556  22.966  25.084  1.00  0.00    -0.352 OA
ATOM     15  N   UNL A   1      33.657  23.279  24.167  1.00  0.00    -0.293 N 
ATOM     16  C   UNL A   1      31.540  24.201  24.375  1.00  0.00     0.200 C 
BRANCH  15  17
ATOM     17  C   UNL A   1      34.924  23.126  23.607  1.00  0.00     0.256 C 
ATOM     18  O   UNL A   1      35.138  23.322  22.412  1.00  0.00    -0.269 OA
BRANCH  17  19
ATOM     19  C   UNL A   1      36.086  22.774  24.445  1.00  0.00     0.040 A 
ATOM     20  C   UNL A   1      36.698  21.524  24.337  1.00  0.00     0.014 A 
ATOM     21  C   UNL A   1      36.545  23.699  25.389  1.00  0.00     0.022 A 
ATOM     22  C   UNL A   1      37.848  21.252  25.091  1.00  0.00     0.009 A 
ATOM     23  C   UNL A   1      37.751  23.477  26.073  1.00  0.00    -0.018 A 
ATOM     24  C   UNL A   1      38.418  22.240  25.919  1.00  0.00    -0.018 A 
ATOM     25  C   UNL A   1      38.339  24.489  26.849  1.00  0.00     0.009 A 
ATOM     26  C   UNL A   1      39.654  22.048  26.561  1.00  0.00     0.009 A 
ATOM     27  C   UNL A   1      39.583  24.294  27.449  1.00  0.00     0.001 A 
ATOM     28  C   UNL A   1      40.238  23.074  27.309  1.00  0.00     0.001 A 
ENDBRANCH  17  19
ENDBRANCH  15  17
ENDBRANCH   3   5
ENDBRANCH   2   3
ENDBRANCH   1   2
BRANCH   1  29
ATOM     29  C   UNL A   1      32.357  28.590  25.416  1.00  0.00     0.275 C 
BRANCH  29  30
ATOM     30  O   UNL A   1      33.407  29.559  25.577  1.00  0.00    -0.458 OA
BRANCH  30  31
ATOM     31  C   UNL A   1      33.213  30.425  26.600  1.00  0.00     0.338 C 
ATOM     32  O   UNL A   1      32.221  31.109  26.794  1.00  0.00    -0.246 OA
BRANCH  31  33
ATOM     33  C   UNL A   1      34.435  30.524  27.432  1.00  0.00     0.060 A 
ATOM     34  C   UNL A   1      35.122  31.725  27.632  1.00  0.00     0.016 A 
ATOM     35  C   UNL A   1      34.930  29.343  27.990  1.00  0.00     0.016 A 
ATOM     36  C   UNL A   1      36.329  31.739  28.342  1.00  0.00     0.010 A 
ATOM     37  C   UNL A   1      36.101  29.366  28.748  1.00  0.00     0.010 A 
ATOM     38  C   UNL A   1      36.828  30.558  28.906  1.00  0.00    -0.014 A 
BRANCH  38  39
ATOM     39  C   UNL A   1      38.116  30.513  29.644  1.00  0.00     0.031 A 
ATOM     40  C   UNL A   1      39.285  29.769  29.056  1.00  0.00     0.074 A 
ATOM     41  C   UNL A   1      38.215  31.056  30.871  1.00  0.00     0.049 A 
ATOM     42  N   UNL A   1      40.413  29.413  29.618  1.00  0.00    -0.248 NA
ATOM     43  C   UNL A   1      39.154  29.353  27.651  1.00  0.00     0.031 C 
ATOM     44  C   UNL A   1      37.165  31.818  31.546  1.00  0.00     0.029 A 
ATOM     45  N   UNL A   1      39.242  31.021  31.781  1.00  0.00    -0.354 N 
ATOM     46  C   UNL A   1      41.106  28.695  28.651  1.00  0.00     0.074 A 
ATOM     47  C   UNL A   1      40.268  28.657  27.471  1.00  0.00     0.031 C 
ATOM     48  C   UNL A   1      37.599  32.177  32.765  1.00  0.00     0.029 A 
ATOM     49  C   UNL A   1      38.931  31.618  32.978  1.00  0.00     0.049 A 
ATOM     50  H   UNL A   1      40.116  30.608  31.594  1.00  0.00     0.167 HD
ATOM     51  C   UNL A   1      42.329  28.120  28.741  1.00  0.00     0.037 A 
ATOM     52  C   UNL A   1      39.623  31.675  34.132  1.00  0.00     0.037 A 
ATOM     53  C   UNL A   1      43.167  28.179  29.911  1.00  0.00     0.049 A 
ATOM     54  C   UNL A   1      40.959  30.997  34.224  1.00  0.00     0.074 A 
ATOM     55  C   UNL A   1      44.438  27.662  30.092  1.00  0.00     0.029 A 
ATOM     56  N   UNL A   1      42.813  28.795  31.102  1.00  0.00    -0.354 N 
ATOM     57  N   UNL A   1      41.606  30.318  33.307  1.00  0.00    -0.248 NA
ATOM     58  C   UNL A   1      41.657  31.082  35.514  1.00  0.00     0.031 C 
ATOM     59  C   UNL A   1      44.838  27.933  31.406  1.00  0.00     0.029 A 
ATOM     60  C   UNL A   1      43.832  28.654  32.030  1.00  0.00     0.049 A 
ATOM     61  H   UNL A   1      41.962  29.263  31.265  1.00  0.00     0.167 HD
ATOM     62  C   UNL A   1      42.792  29.911  33.902  1.00  0.00     0.074 A 
ATOM     63  C   UNL A   1      42.781  30.428  35.255  1.00  0.00     0.031 C 
ATOM     64  C   UNL A   1      43.801  29.174  33.374  1.00  0.00     0.037 A 
BRANCH  51  65
ATOM     65  C   UNL A   1      42.819  27.349  27.549  1.00  0.00     0.057 A 
ATOM     66  C   UNL A   1      42.790  25.948  27.504  1.00  0.00     0.134 A 
ATOM     67  C   UNL A   1      43.313  28.019  26.421  1.00  0.00     0.134 A 
ATOM     68  F   UNL A   1      42.342  25.244  28.555  1.00  0.00    -0.206 F 
ATOM     69  C   UNL A   1      43.263  25.243  26.395  1.00  0.00     0.040 A 
ATOM     70  C   UNL A   1      43.764  27.326  25.297  1.00  0.00     0.040 A 
ATOM     71  F   UNL A   1      43.363  29.359  26.393  1.00  0.00    -0.206 F 
ATOM     72  C   UNL A   1      43.747  25.933  25.285  1.00  0.00     0.006 A 
ENDBRANCH  51  65
BRANCH  52  73
ATOM     73  C   UNL A   1      39.050  32.399  35.293  1.00  0.00     0.057 A 
ATOM     74  C   UNL A   1      38.318  31.717  36.272  1.00  0.00     0.134 A 
ATOM     75  C   UNL A   1      39.248  33.772  35.473  1.00  0.00     0.134 A 
ATOM     76  F   UNL A   1      38.076  30.405  36.141  1.00  0.00    -0.206 F 
ATOM     77  C   UNL A   1      37.807  32.376  37.391  1.00  0.00     0.040 A 
ATOM     78  C   UNL A   1      38.762  34.439  36.598  1.00  0.00     0.040 A 
ATOM     79  F   UNL A   1      39.943  34.481  34.570  1.00  0.00    -0.206 F 
ATOM     80  C   UNL A   1      38.037  33.740  37.561  1.00  0.00     0.006 A 
ENDBRANCH  52  73
BRANCH  64  81
ATOM     81  C   UNL A   1      44.984  28.912  34.257  1.00  0.00     0.057 A 
ATOM     82  C   UNL A   1      45.078  27.754  35.038  1.00  0.00     0.134 A 
ATOM     83  C   UNL A   1      46.051  29.817  34.306  1.00  0.00     0.134 A 
ATOM     84  F   UNL A   1      44.083  26.855  35.045  1.00  0.00    -0.206 F 
ATOM     85  C   UNL A   1      46.186  27.516  35.855  1.00  0.00     0.040 A 
ATOM     86  C   UNL A   1      47.172  29.580  35.101  1.00  0.00     0.040 A 
ATOM     87  F   UNL A   1      46.024  30.943  33.576  1.00  0.00    -0.206 F 
ATOM     88  C   UNL A   1      47.238  28.429  35.884  1.00  0.00     0.006 A 
ENDBRANCH  64  81
ENDBRANCH  38  39
ENDBRANCH  31  33
ENDBRANCH  30  31
ENDBRANCH  29  30
ENDBRANCH   1  29
TORSDOF 13
ENDMDL
MODEL 2
REMARK VINA RESULT:     -12.2      1.185      3.170
REMARK SMILES C[NH+]1CCC2(CC1)OC[C@@H](C(=O)OCCOC(=O)c1ccc(-c3c4nc(c(-c5c(F)cccc5F)c5ccc([nH]5)c(-c5c(F)cccc5F)c5nc(c(-c6c(F)cccc6F)c6ccc3[nH]6)C=C5)C=C4)cc1)N2C(=O)c1ccc2ccccc2c1
REMARK SMILES IDX 14 1 13 2 11 3 12 4 10 5 1 6 2 7 3 8 7 9 4 11 6 12 5 13 8 14
REMARK SMILES IDX 73 15 9 16 74 17 75 18 76 19 77 20 85 21 78 22 84 23 79 24
REMARK SMILES IDX 83 25 80 26 82 27 81 28 15 29 16 30 17 31 18 32 19 33 20 34
REMARK SMILES IDX 72 35 21 36 71 37 22 38 23 39 24 40 65 41 25 42 70 43 64 44
REMARK SMILES IDX 66 45 26 46 69 47 63 48 62 49 27 51 53 52 36 53 52 54 37 55
REMARK SMILES IDX 40 56 51 57 67 58 38 59 39 60 50 62 68 63 41 64 28 65 29 66
REMARK SMILES IDX 34 67 30 68 31 69 33 70 35 71 32 72 54 73 55 74 60 75 56 76
REMARK SMILES IDX 57 77 59 78 61 79 58 80 42 81 43 82 48 83 44 84 45 85 47 86
REMARK SMILES IDX 49 87 46 88
REMARK H PARENT 2 10 66 50 40 61
REMARK Flexibility Score: inf
ROOT
ATOM      1  C   UNL A   1      31.400  27.757  25.658  1.00  0.00     0.274 C 
ENDROOT
BRANCH   1   2
ATOM      2  O   UNL A   1      30.570  27.049  24.715  1.00  0.00    -0.460 OA
BRANCH   2   3
ATOM      3  C   UNL A   1      31.248  26.184  23.920  1.00  0.00     0.331 C 
ATOM      4  O   UNL A   1      30.923  25.894  22.769  1.00  0.00    -0.250 OA
BRANCH   3   5
ATOM      5  C   UNL A   1      32.483  25.566  24.565  1.00  0.00     0.224 C 
ATOM      6  C   UNL A   1      37.439  22.117  25.751  1.00  0.00     0.332 C 
ATOM      7  N   UNL A   1      36.015  21.878  25.574  1.00  0.00    -0.337 N 
ATOM      8  C   UNL A   1      35.183  22.682  26.461  1.00  0.00     0.267 C 
ATOM      9  C   UNL A   1      35.600  21.902  24.175  1.00  0.00     0.267 C 
ATOM     10  H   UNL A   1      35.851  20.916  25.875  1.00  0.00     0.347 HD
ATOM     11  C   UNL A   1      34.903  24.088  25.969  1.00  0.00     0.120 C 
ATOM     12  C   UNL A   1      35.199  23.253  23.592  1.00  0.00     0.120 C 
ATOM     13  C   UNL A   1      34.392  24.163  24.516  1.00  0.00     0.155 C 
ATOM     14  O   UNL A   1      34.792  25.507  24.096  1.00  0.00    -0.352 OA
ATOM     15  N   UNL A   1      32.917  24.187  24.399  1.00  0.00    -0.293 N 
ATOM     16  C   UNL A   1      33.650  26.353  24.022  1.00  0.00     0.200 C 
BRANCH  15  17
ATOM     17  C   UNL A   1      32.001  23.204  24.772  1.00  0.00     0.256 C 
ATOM     18  O   UNL A   1      31.056  23.443  25.522  1.00  0.00    -0.269 OA
BRANCH  17  19
ATOM     19  C   UNL A   1      32.094  21.836  24.229  1.00  0.00     0.040 A 
ATOM     20  C   UNL A   1      31.981  21.597  22.858  1.00  0.00     0.014 A 
ATOM     21  C   UNL A   1      32.252  20.765  25.115  1.00  0.00     0.022 A 
ATOM     22  C   UNL A   1      32.153  20.295  22.368  1.00  0.00     0.009 A 
ATOM     23  C   UNL A   1      32.526  19.476  24.629  1.00  0.00    -0.018 A 
ATOM     24  C   UNL A   1      32.483  19.236  23.237  1.00  0.00    -0.018 A 
ATOM     25  C   UNL A   1      32.910  18.443  25.498  1.00  0.00     0.009 A 
ATOM     26  C   UNL A   1      32.815  17.957  22.756  1.00  0.00     0.009 A 
ATOM     27  C   UNL A   1      33.272  17.190  25.000  1.00  0.00     0.001 A 
ATOM     28  C   UNL A   1      33.221  16.947  23.632  1.00  0.00     0.001 A 
ENDBRANCH  17  19
ENDBRANCH  15  17
ENDBRANCH   3   5
ENDBRANCH   2   3
ENDBRANCH   1   2
BRANCH   1  29
ATOM     29  C   UNL A   1      31.599  29.198  25.190  1.00  0.00     0.275 C 
BRANCH  29  30
ATOM     30  O   UNL A   1      32.892  29.669  25.609  1.00  0.00    -0.458 OA
BRANCH  30  31
ATOM     31  C   UNL A   1      32.850  30.670  26.521  1.00  0.00     0.338 C 
ATOM     32  O   UNL A   1      31.993  31.533  26.613  1.00  0.00    -0.246 OA
BRANCH  31  33
ATOM     33  C   UNL A   1      34.068  30.651  27.364  1.00  0.00     0.060 A 
ATOM     34  C   UNL A   1      34.822  31.798  27.634  1.00  0.00     0.016 A 
ATOM     35  C   UNL A   1      34.490  29.415  27.859  1.00  0.00     0.016 A 
ATOM     36  C   UNL A   1      36.021  31.703  28.350  1.00  0.00     0.010 A 
ATOM     37  C   UNL A   1      35.653  29.329  28.623  1.00  0.00     0.010 A 
ATOM     38  C   UNL A   1      36.447  30.465  28.851  1.00  0.00    -0.014 A 
BRANCH  38  39
ATOM     39  C   UNL A   1      37.724  30.305  29.591  1.00  0.00     0.031 A 
ATOM     40  C   UNL A   1      38.822  29.458  29.007  1.00  0.00     0.074 A 
ATOM     41  C   UNL A   1      37.868  30.838  30.819  1.00  0.00     0.049 A 
ATOM     42  N   UNL A   1      39.912  29.003  29.572  1.00  0.00    -0.248 NA
ATOM     43  C   UNL A   1      38.658  29.054  27.603  1.00  0.00     0.031 C 
ATOM     44  C   UNL A   1      36.890  31.693  31.491  1.00  0.00     0.029 A 
ATOM     45  N   UNL A   1      38.885  30.712  31.732  1.00  0.00    -0.354 N 
ATOM     46  C   UNL A   1      40.540  28.224  28.607  1.00  0.00     0.074 A 
ATOM     47  C   UNL A   1      39.705  28.261  27.425  1.00  0.00     0.031 C 
ATOM     48  C   UNL A   1      37.351  32.012  32.710  1.00  0.00     0.029 A 
ATOM     49  C   UNL A   1      38.627  31.336  32.927  1.00  0.00     0.049 A 
ATOM     50  H   UNL A   1      39.719  30.222  31.547  1.00  0.00     0.167 HD
ATOM     51  C   UNL A   1      41.706  27.541  28.701  1.00  0.00     0.037 A 
ATOM     52  C   UNL A   1      39.318  31.332  34.082  1.00  0.00     0.037 A 
ATOM     53  C   UNL A   1      42.543  27.527  29.873  1.00  0.00     0.049 A 
ATOM     54  C   UNL A   1      40.588  30.535  34.178  1.00  0.00     0.074 A 
ATOM     55  C   UNL A   1      43.762  26.897  30.058  1.00  0.00     0.029 A 
ATOM     56  N   UNL A   1      42.243  28.172  31.063  1.00  0.00    -0.354 N 
ATOM     57  N   UNL A   1      41.173  29.800  33.264  1.00  0.00    -0.248 NA
ATOM     58  C   UNL A   1      41.287  30.559  35.470  1.00  0.00     0.031 C 
ATOM     59  C   UNL A   1      44.182  27.132  31.373  1.00  0.00     0.029 A 
ATOM     60  C   UNL A   1      43.244  27.942  31.994  1.00  0.00     0.049 A 
ATOM     61  H   UNL A   1      41.438  28.716  31.223  1.00  0.00     0.167 HD
ATOM     62  C   UNL A   1      42.316  29.288  33.862  1.00  0.00     0.074 A 
ATOM     63  C   UNL A   1      42.349  29.806  35.215  1.00  0.00     0.031 C 
ATOM     64  C   UNL A   1      43.256  28.463  33.337  1.00  0.00     0.037 A 
BRANCH  51  65
ATOM     65  C   UNL A   1      42.128  26.728  27.511  1.00  0.00     0.057 A 
ATOM     66  C   UNL A   1      41.719  25.399  27.333  1.00  0.00     0.134 A 
ATOM     67  C   UNL A   1      42.943  27.289  26.518  1.00  0.00     0.134 A 
ATOM     68  F   UNL A   1      40.948  24.798  28.252  1.00  0.00    -0.206 F 
ATOM     69  C   UNL A   1      42.130  24.650  26.229  1.00  0.00     0.040 A 
ATOM     70  C   UNL A   1      43.340  26.557  25.398  1.00  0.00     0.040 A 
ATOM     71  F   UNL A   1      43.366  28.558  26.621  1.00  0.00    -0.206 F 
ATOM     72  C   UNL A   1      42.939  25.231  25.254  1.00  0.00     0.006 A 
ENDBRANCH  51  65
BRANCH  52  73
ATOM     73  C   UNL A   1      38.810  32.105  35.241  1.00  0.00     0.057 A 
ATOM     74  C   UNL A   1      38.151  31.464  36.296  1.00  0.00     0.134 A 
ATOM     75  C   UNL A   1      39.001  33.488  35.342  1.00  0.00     0.134 A 
ATOM     76  F   UNL A   1      37.919  30.145  36.244  1.00  0.00    -0.206 F 
ATOM     77  C   UNL A   1      37.702  32.171  37.413  1.00  0.00     0.040 A 
ATOM     78  C   UNL A   1      38.577  34.204  36.463  1.00  0.00     0.040 A 
ATOM     79  F   UNL A   1      39.628  34.158  34.365  1.00  0.00    -0.206 F 
ATOM     80  C   UNL A   1      37.924  33.544  37.502  1.00  0.00     0.006 A 
ENDBRANCH  52  73
BRANCH  64  81
ATOM     81  C   UNL A   1      44.409  28.096  34.223  1.00  0.00     0.057 A 
ATOM     82  C   UNL A   1      45.552  28.899  34.315  1.00  0.00     0.134 A 
ATOM     83  C   UNL A   1      44.362  26.940  35.010  1.00  0.00     0.134 A 
ATOM     84  F   UNL A   1      45.662  30.012  33.575  1.00  0.00    -0.206 F 
ATOM     85  C   UNL A   1      46.619  28.552  35.146  1.00  0.00     0.040 A 
ATOM     86  C   UNL A   1      45.413  26.594  35.861  1.00  0.00     0.040 A 
ATOM     87  F   UNL A   1      43.292  26.131  34.972  1.00  0.00    -0.206 F 
ATOM     88  C   UNL A   1      46.548  27.399  35.925  1.00  0.00     0.006 A 
ENDBRANCH  64  81
ENDBRANCH  38  39
ENDBRANCH  31  33
ENDBRANCH  30  31
ENDBRANCH  29  30
ENDBRANCH   1  29
TORSDOF 13
ENDMDL
MODEL 3
REMARK VINA RESULT:     -12.2      3.446      7.750
REMARK SMILES C[NH+]1CCC2(CC1)OC[C@@H](C(=O)OCCOC(=O)c1ccc(-c3c4nc(c(-c5c(F)cccc5F)c5ccc([nH]5)c(-c5c(F)cccc5F)c5nc(c(-c6c(F)cccc6F)c6ccc3[nH]6)C=C5)C=C4)cc1)N2C(=O)c1ccc2ccccc2c1
REMARK SMILES IDX 14 1 13 2 11 3 12 4 10 5 1 6 2 7 3 8 7 9 4 11 6 12 5 13 8 14
REMARK SMILES IDX 73 15 9 16 74 17 75 18 76 19 77 20 85 21 78 22 84 23 79 24
REMARK SMILES IDX 83 25 80 26 82 27 81 28 15 29 16 30 17 31 18 32 19 33 20 34
REMARK SMILES IDX 72 35 21 36 71 37 22 38 23 39 24 40 65 41 25 42 70 43 64 44
REMARK SMILES IDX 66 45 26 46 69 47 63 48 62 49 27 51 53 52 36 53 52 54 37 55
REMARK SMILES IDX 40 56 51 57 67 58 38 59 39 60 50 62 68 63 41 64 28 65 29 66
REMARK SMILES IDX 34 67 30 68 31 69 33 70 35 71 32 72 54 73 55 74 60 75 56 76
REMARK SMILES IDX 57 77 59 78 61 79 58 80 42 81 43 82 48 83 44 84 45 85 47 86
REMARK SMILES IDX 49 87 46 88
REMARK H PARENT 2 10 66 50 40 61
REMARK Flexibility Score: inf
ROOT
ATOM      1  C   UNL A   1      31.936  29.299  25.706  1.00  0.00     0.274 C 
ENDROOT
BRANCH   1   2
ATOM      2  O   UNL A   1      33.027  29.629  24.822  1.00  0.00    -0.460 OA
BRANCH   2   3
ATOM      3  C   UNL A   1      33.519  28.570  24.131  1.00  0.00     0.331 C 
ATOM      4  O   UNL A   1      34.282  28.659  23.169  1.00  0.00    -0.250 OA
BRANCH   3   5
ATOM      5  C   UNL A   1      33.047  27.211  24.634  1.00  0.00     0.224 C 
ATOM      6  C   UNL A   1      32.154  21.171  25.402  1.00  0.00     0.332 C 
ATOM      7  N   UNL A   1      31.891  22.143  24.352  1.00  0.00    -0.337 N 
ATOM      8  C   UNL A   1      31.108  23.284  24.810  1.00  0.00     0.267 C 
ATOM      9  C   UNL A   1      33.084  22.499  23.590  1.00  0.00     0.267 C 
ATOM     10  H   UNL A   1      31.284  21.673  23.679  1.00  0.00     0.347 HD
ATOM     11  C   UNL A   1      31.913  24.380  25.481  1.00  0.00     0.120 C 
ATOM     12  C   UNL A   1      33.926  23.656  24.115  1.00  0.00     0.120 C 
ATOM     13  C   UNL A   1      33.146  24.844  24.678  1.00  0.00     0.155 C 
ATOM     14  O   UNL A   1      34.036  25.366  25.717  1.00  0.00    -0.352 OA
ATOM     15  N   UNL A   1      32.894  26.018  23.814  1.00  0.00    -0.293 N 
ATOM     16  C   UNL A   1      34.074  26.788  25.655  1.00  0.00     0.200 C 
BRANCH  15  17
ATOM     17  C   UNL A   1      32.028  26.124  22.727  1.00  0.00     0.256 C 
ATOM     18  O   UNL A   1      32.236  25.535  21.667  1.00  0.00    -0.269 OA
BRANCH  17  19
ATOM     19  C   UNL A   1      30.783  26.909  22.822  1.00  0.00     0.040 A 
ATOM     20  C   UNL A   1      29.681  26.425  23.529  1.00  0.00     0.014 A 
ATOM     21  C   UNL A   1      30.703  28.136  22.154  1.00  0.00     0.022 A 
ATOM     22  C   UNL A   1      28.542  27.231  23.667  1.00  0.00     0.009 A 
ATOM     23  C   UNL A   1      29.611  28.991  22.369  1.00  0.00    -0.018 A 
ATOM     24  C   UNL A   1      28.516  28.538  23.141  1.00  0.00    -0.018 A 
ATOM     25  C   UNL A   1      29.620  30.311  21.890  1.00  0.00     0.009 A 
ATOM     26  C   UNL A   1      27.453  29.421  23.399  1.00  0.00     0.009 A 
ATOM     27  C   UNL A   1      28.573  31.184  22.187  1.00  0.00     0.001 A 
ATOM     28  C   UNL A   1      27.490  30.739  22.937  1.00  0.00     0.001 A 
ENDBRANCH  17  19
ENDBRANCH  15  17
ENDBRANCH   3   5
ENDBRANCH   2   3
ENDBRANCH   1   2
BRANCH   1  29
ATOM     29  C   UNL A   1      32.181  29.919  27.081  1.00  0.00     0.275 C 
BRANCH  29  30
ATOM     30  O   UNL A   1      33.473  29.519  27.569  1.00  0.00    -0.458 OA
BRANCH  30  31
ATOM     31  C   UNL A   1      34.258  30.546  27.972  1.00  0.00     0.338 C 
ATOM     32  O   UNL A   1      33.951  31.727  28.000  1.00  0.00    -0.246 OA
BRANCH  31  33
ATOM     33  C   UNL A   1      35.621  30.061  28.291  1.00  0.00     0.060 A 
ATOM     34  C   UNL A   1      35.997  29.642  29.572  1.00  0.00     0.016 A 
ATOM     35  C   UNL A   1      36.568  30.078  27.265  1.00  0.00     0.016 A 
ATOM     36  C   UNL A   1      37.326  29.292  29.839  1.00  0.00     0.010 A 
ATOM     37  C   UNL A   1      37.878  29.673  27.516  1.00  0.00     0.010 A 
ATOM     38  C   UNL A   1      38.278  29.305  28.811  1.00  0.00    -0.014 A 
BRANCH  38  39
ATOM     39  C   UNL A   1      39.706  28.971  29.048  1.00  0.00     0.031 A 
ATOM     40  C   UNL A   1      40.642  30.029  29.565  1.00  0.00     0.074 A 
ATOM     41  C   UNL A   1      40.182  27.756  28.718  1.00  0.00     0.049 A 
ATOM     42  N   UNL A   1      41.950  30.024  29.628  1.00  0.00    -0.248 NA
ATOM     43  C   UNL A   1      40.020  31.267  30.059  1.00  0.00     0.031 C 
ATOM     44  C   UNL A   1      39.379  26.637  28.225  1.00  0.00     0.029 A 
ATOM     45  N   UNL A   1      41.466  27.271  28.719  1.00  0.00    -0.354 N 
ATOM     46  C   UNL A   1      42.309  31.272  30.126  1.00  0.00     0.074 A 
ATOM     47  C   UNL A   1      41.081  32.010  30.339  1.00  0.00     0.031 C 
ATOM     48  C   UNL A   1      40.188  25.597  27.969  1.00  0.00     0.029 A 
ATOM     49  C   UNL A   1      41.570  25.997  28.220  1.00  0.00     0.049 A 
ATOM     50  H   UNL A   1      42.238  27.788  29.047  1.00  0.00     0.167 HD
ATOM     51  C   UNL A   1      43.548  31.755  30.381  1.00  0.00     0.037 A 
ATOM     52  C   UNL A   1      42.656  25.247  27.955  1.00  0.00     0.037 A 
ATOM     53  C   UNL A   1      44.763  31.007  30.187  1.00  0.00     0.049 A 
ATOM     54  C   UNL A   1      44.023  25.817  28.207  1.00  0.00     0.074 A 
ATOM     55  C   UNL A   1      46.067  31.392  30.450  1.00  0.00     0.029 A 
ATOM     56  N   UNL A   1      44.822  29.718  29.678  1.00  0.00    -0.354 N 
ATOM     57  N   UNL A   1      44.353  26.996  28.674  1.00  0.00    -0.248 NA
ATOM     58  C   UNL A   1      45.168  24.955  27.884  1.00  0.00     0.031 C 
ATOM     59  C   UNL A   1      46.918  30.348  30.066  1.00  0.00     0.029 A 
ATOM     60  C   UNL A   1      46.141  29.299  29.601  1.00  0.00     0.049 A 
ATOM     61  H   UNL A   1      44.042  29.180  29.412  1.00  0.00     0.167 HD
ATOM     62  C   UNL A   1      45.740  27.013  28.718  1.00  0.00     0.074 A 
ATOM     63  C   UNL A   1      46.190  25.722  28.240  1.00  0.00     0.031 C 
ATOM     64  C   UNL A   1      46.568  28.010  29.119  1.00  0.00     0.037 A 
BRANCH  51  65
ATOM     65  C   UNL A   1      43.649  33.172  30.868  1.00  0.00     0.057 A 
ATOM     66  C   UNL A   1      43.691  33.489  32.233  1.00  0.00     0.134 A 
ATOM     67  C   UNL A   1      43.722  34.235  29.958  1.00  0.00     0.134 A 
ATOM     68  F   UNL A   1      43.612  32.520  33.158  1.00  0.00    -0.206 F 
ATOM     69  C   UNL A   1      43.770  34.812  32.673  1.00  0.00     0.040 A 
ATOM     70  C   UNL A   1      43.827  35.559  30.386  1.00  0.00     0.040 A 
ATOM     71  F   UNL A   1      43.694  34.003  28.637  1.00  0.00    -0.206 F 
ATOM     72  C   UNL A   1      43.844  35.851  31.748  1.00  0.00     0.006 A 
ENDBRANCH  51  65
BRANCH  52  73
ATOM     73  C   UNL A   1      42.485  23.878  27.412  1.00  0.00     0.057 A 
ATOM     74  C   UNL A   1      42.509  23.646  26.033  1.00  0.00     0.134 A 
ATOM     75  C   UNL A   1      42.333  22.769  28.252  1.00  0.00     0.134 A 
ATOM     76  F   UNL A   1      42.629  24.673  25.179  1.00  0.00    -0.206 F 
ATOM     77  C   UNL A   1      42.390  22.358  25.507  1.00  0.00     0.040 A 
ATOM     78  C   UNL A   1      42.236  21.474  27.742  1.00  0.00     0.040 A 
ATOM     79  F   UNL A   1      42.306  22.926  29.584  1.00  0.00    -0.206 F 
ATOM     80  C   UNL A   1      42.263  21.266  26.364  1.00  0.00     0.006 A 
ENDBRANCH  52  73
BRANCH  64  81
ATOM     81  C   UNL A   1      48.040  27.726  29.082  1.00  0.00     0.057 A 
ATOM     82  C   UNL A   1      48.702  27.124  30.159  1.00  0.00     0.134 A 
ATOM     83  C   UNL A   1      48.797  28.036  27.946  1.00  0.00     0.134 A 
ATOM     84  F   UNL A   1      48.034  26.816  31.281  1.00  0.00    -0.206 F 
ATOM     85  C   UNL A   1      50.073  26.860  30.115  1.00  0.00     0.040 A 
ATOM     86  C   UNL A   1      50.163  27.757  27.882  1.00  0.00     0.040 A 
ATOM     87  F   UNL A   1      48.221  28.608  26.878  1.00  0.00    -0.206 F 
ATOM     88  C   UNL A   1      50.805  27.173  28.971  1.00  0.00     0.006 A 
ENDBRANCH  64  81
ENDBRANCH  38  39
ENDBRANCH  31  33
ENDBRANCH  30  31
ENDBRANCH  29  30
ENDBRANCH   1  29
TORSDOF 13
ENDMDL
