MODEL 1
REMARK VINA RESULT:     -10.6      0.000      0.000
REMARK SMILES [NH3+][C@@H](Cc1ccc(F)cc1C(F)(F)F)C(=O)OCCOC(=O)c1ccc(-c2c3nc(c(-c4c(F)cccc4F)c4ccc([nH]4)c(-c4c(F)cccc4F)c4nc(c(-c5c(F)cccc5F)c5ccc2[nH]5)C=C4)C=C3)cc1
REMARK SMILES IDX 18 1 17 2 15 3 16 4 2 5 1 6 3 10 4 11 5 12 10 13 6 14 9 15
REMARK SMILES IDX 7 16 8 17 11 18 12 19 13 20 14 21 19 22 20 23 21 24 22 25
REMARK SMILES IDX 23 26 24 27 76 28 25 29 75 30 26 31 27 32 28 33 69 34 29 35
REMARK SMILES IDX 74 36 68 37 70 38 30 39 73 40 67 41 66 42 31 44 57 45 40 46
REMARK SMILES IDX 56 47 41 48 44 49 55 50 71 51 42 52 43 53 54 55 72 56 45 57
REMARK SMILES IDX 32 58 33 59 38 60 34 61 35 62 37 63 39 64 36 65 58 66 59 67
REMARK SMILES IDX 64 68 60 69 61 70 63 71 65 72 62 73 46 74 47 75 52 76 48 77
REMARK SMILES IDX 49 78 51 79 53 80 50 81
REMARK H PARENT 1 7 1 8 1 9 70 43 44 54
REMARK Flexibility Score: inf
ROOT
ATOM      1  C   UNL A   1      44.216  21.499  25.009  1.00  0.00     0.274 C 
ENDROOT
BRANCH   1   2
ATOM      2  O   UNL A   1      42.838  21.381  25.409  1.00  0.00    -0.458 OA
BRANCH   2   3
ATOM      3  C   UNL A   1      42.440  20.159  25.872  1.00  0.00     0.365 C 
ATOM      4  O   UNL A   1      43.003  19.099  25.624  1.00  0.00    -0.245 OA
BRANCH   3   5
ATOM      5  C   UNL A   1      41.124  20.240  26.665  1.00  0.00     0.296 C 
BRANCH   5   6
ATOM      6  N   UNL A   1      41.236  19.583  27.982  1.00  0.00    -0.346 N 
ATOM      7  H   UNL A   1      41.779  18.724  27.890  1.00  0.00     0.345 HD
ATOM      8  H   UNL A   1      40.303  19.360  28.331  1.00  0.00     0.345 HD
ATOM      9  H   UNL A   1      41.703  20.211  28.637  1.00  0.00     0.345 HD
ENDBRANCH   5   6
BRANCH   5  10
ATOM     10  C   UNL A   1      40.601  21.692  26.701  1.00  0.00     0.113 C 
BRANCH  10  11
ATOM     11  C   UNL A   1      39.224  21.888  26.095  1.00  0.00    -0.029 A 
ATOM     12  C   UNL A   1      38.628  20.774  25.464  1.00  0.00     0.007 A 
ATOM     13  C   UNL A   1      38.534  23.125  26.108  1.00  0.00     0.062 A 
ATOM     14  C   UNL A   1      37.399  20.883  24.820  1.00  0.00     0.039 A 
ATOM     15  C   UNL A   1      37.286  23.207  25.459  1.00  0.00     0.052 A 
ATOM     16  C   UNL A   1      36.742  22.101  24.818  1.00  0.00     0.123 A 
ATOM     17  F   UNL A   1      35.561  22.213  24.196  1.00  0.00    -0.207 F 
BRANCH  13  18
ATOM     18  C   UNL A   1      39.020  24.362  26.837  1.00  0.00     0.416 C 
ATOM     19  F   UNL A   1      39.926  25.081  26.114  1.00  0.00    -0.166 F 
ATOM     20  F   UNL A   1      38.004  25.222  27.122  1.00  0.00    -0.166 F 
ATOM     21  F   UNL A   1      39.639  24.106  28.023  1.00  0.00    -0.166 F 
ENDBRANCH  13  18
ENDBRANCH  10  11
ENDBRANCH   5  10
ENDBRANCH   3   5
ENDBRANCH   2   3
ENDBRANCH   1   2
BRANCH   1  22
ATOM     22  C   UNL A   1      44.455  22.776  24.202  1.00  0.00     0.275 C 
BRANCH  22  23
ATOM     23  O   UNL A   1      43.731  23.879  24.771  1.00  0.00    -0.458 OA
BRANCH  23  24
ATOM     24  C   UNL A   1      44.504  24.913  25.184  1.00  0.00     0.338 C 
ATOM     25  O   UNL A   1      45.553  25.297  24.703  1.00  0.00    -0.246 OA
BRANCH  24  26
ATOM     26  C   UNL A   1      43.811  25.607  26.280  1.00  0.00     0.060 A 
ATOM     27  C   UNL A   1      44.039  26.974  26.445  1.00  0.00     0.016 A 
ATOM     28  C   UNL A   1      42.998  24.903  27.170  1.00  0.00     0.016 A 
ATOM     29  C   UNL A   1      43.442  27.655  27.504  1.00  0.00     0.010 A 
ATOM     30  C   UNL A   1      42.414  25.584  28.241  1.00  0.00     0.010 A 
ATOM     31  C   UNL A   1      42.642  26.959  28.419  1.00  0.00    -0.014 A 
BRANCH  31  32
ATOM     32  C   UNL A   1      42.108  27.655  29.612  1.00  0.00     0.031 A 
ATOM     33  C   UNL A   1      40.874  28.500  29.479  1.00  0.00     0.074 A 
ATOM     34  C   UNL A   1      42.711  27.513  30.804  1.00  0.00     0.049 A 
ATOM     35  N   UNL A   1      40.301  29.271  30.367  1.00  0.00    -0.248 NA
ATOM     36  C   UNL A   1      40.197  28.474  28.173  1.00  0.00     0.031 C 
ATOM     37  C   UNL A   1      43.877  26.672  31.065  1.00  0.00     0.029 A 
ATOM     38  N   UNL A   1      42.425  28.080  32.020  1.00  0.00    -0.354 N 
ATOM     39  C   UNL A   1      39.205  29.832  29.725  1.00  0.00     0.074 A 
ATOM     40  C   UNL A   1      39.200  29.325  28.370  1.00  0.00     0.031 C 
ATOM     41  C   UNL A   1      44.210  26.779  32.362  1.00  0.00     0.029 A 
ATOM     42  C   UNL A   1      43.309  27.728  33.011  1.00  0.00     0.049 A 
ATOM     43  H   UNL A   1      41.660  28.682  32.169  1.00  0.00     0.167 HD
ATOM     44  C   UNL A   1      38.286  30.689  30.227  1.00  0.00     0.037 A 
ATOM     45  C   UNL A   1      43.396  28.147  34.288  1.00  0.00     0.037 A 
ATOM     46  C   UNL A   1      38.290  31.178  31.581  1.00  0.00     0.049 A 
ATOM     47  C   UNL A   1      42.405  29.156  34.802  1.00  0.00     0.074 A 
ATOM     48  C   UNL A   1      37.402  32.052  32.183  1.00  0.00     0.029 A 
ATOM     49  N   UNL A   1      39.228  30.831  32.542  1.00  0.00    -0.354 N 
ATOM     50  N   UNL A   1      41.390  29.703  34.180  1.00  0.00    -0.248 NA
ATOM     51  C   UNL A   1      42.580  29.614  36.188  1.00  0.00     0.031 C 
ATOM     52  C   UNL A   1      37.823  32.262  33.500  1.00  0.00     0.029 A 
ATOM     53  C   UNL A   1      38.949  31.487  33.729  1.00  0.00     0.049 A 
ATOM     54  H   UNL A   1      39.979  30.211  32.402  1.00  0.00     0.167 HD
ATOM     55  C   UNL A   1      40.794  30.557  35.101  1.00  0.00     0.074 A 
ATOM     56  C   UNL A   1      41.556  30.447  36.328  1.00  0.00     0.031 C 
ATOM     57  C   UNL A   1      39.716  31.362  34.941  1.00  0.00     0.037 A 
BRANCH  44  58
ATOM     58  C   UNL A   1      37.209  31.172  29.306  1.00  0.00     0.057 A 
ATOM     59  C   UNL A   1      37.256  32.467  28.771  1.00  0.00     0.134 A 
ATOM     60  C   UNL A   1      36.097  30.382  28.994  1.00  0.00     0.134 A 
ATOM     61  F   UNL A   1      38.294  33.274  29.035  1.00  0.00    -0.206 F 
ATOM     62  C   UNL A   1      36.228  32.961  27.969  1.00  0.00     0.040 A 
ATOM     63  C   UNL A   1      35.072  30.859  28.175  1.00  0.00     0.040 A 
ATOM     64  F   UNL A   1      35.999  29.130  29.464  1.00  0.00    -0.206 F 
ATOM     65  C   UNL A   1      35.131  32.155  27.667  1.00  0.00     0.006 A 
ENDBRANCH  44  58
BRANCH  45  66
ATOM     66  C   UNL A   1      44.476  27.626  35.161  1.00  0.00     0.057 A 
ATOM     67  C   UNL A   1      45.730  28.247  35.220  1.00  0.00     0.134 A 
ATOM     68  C   UNL A   1      44.282  26.486  35.948  1.00  0.00     0.134 A 
ATOM     69  F   UNL A   1      45.977  29.344  34.491  1.00  0.00    -0.206 F 
ATOM     70  C   UNL A   1      46.759  27.740  36.015  1.00  0.00     0.040 A 
ATOM     71  C   UNL A   1      45.296  25.982  36.765  1.00  0.00     0.040 A 
ATOM     72  F   UNL A   1      43.095  25.863  35.952  1.00  0.00    -0.206 F 
ATOM     73  C   UNL A   1      46.542  26.606  36.793  1.00  0.00     0.006 A 
ENDBRANCH  45  66
BRANCH  57  74
ATOM     74  C   UNL A   1      39.278  32.173  36.122  1.00  0.00     0.057 A 
ATOM     75  C   UNL A   1      38.312  31.680  37.009  1.00  0.00     0.134 A 
ATOM     76  C   UNL A   1      39.752  33.473  36.335  1.00  0.00     0.134 A 
ATOM     77  F   UNL A   1      37.811  30.446  36.852  1.00  0.00    -0.206 F 
ATOM     78  C   UNL A   1      37.824  32.457  38.059  1.00  0.00     0.040 A 
ATOM     79  C   UNL A   1      39.286  34.253  37.395  1.00  0.00     0.040 A 
ATOM     80  F   UNL A   1      40.684  33.997  35.526  1.00  0.00    -0.206 F 
ATOM     81  C   UNL A   1      38.312  33.747  38.255  1.00  0.00     0.006 A 
ENDBRANCH  57  74
ENDBRANCH  31  32
ENDBRANCH  24  26
ENDBRANCH  23  24
ENDBRANCH  22  23
ENDBRANCH   1  22
TORSDOF 15
ENDMDL
MODEL 2
REMARK VINA RESULT:     -10.3      0.689      6.465
REMARK SMILES [NH3+][C@@H](Cc1ccc(F)cc1C(F)(F)F)C(=O)OCCOC(=O)c1ccc(-c2c3nc(c(-c4c(F)cccc4F)c4ccc([nH]4)c(-c4c(F)cccc4F)c4nc(c(-c5c(F)cccc5F)c5ccc2[nH]5)C=C4)C=C3)cc1
REMARK SMILES IDX 18 1 17 2 15 3 16 4 2 5 1 6 3 10 4 11 5 12 10 13 6 14 9 15
REMARK SMILES IDX 7 16 8 17 11 18 12 19 13 20 14 21 19 22 20 23 21 24 22 25
REMARK SMILES IDX 23 26 24 27 76 28 25 29 75 30 26 31 27 32 28 33 69 34 29 35
REMARK SMILES IDX 74 36 68 37 70 38 30 39 73 40 67 41 66 42 31 44 57 45 40 46
REMARK SMILES IDX 56 47 41 48 44 49 55 50 71 51 42 52 43 53 54 55 72 56 45 57
REMARK SMILES IDX 32 58 33 59 38 60 34 61 35 62 37 63 39 64 36 65 58 66 59 67
REMARK SMILES IDX 64 68 60 69 61 70 63 71 65 72 62 73 46 74 47 75 52 76 48 77
REMARK SMILES IDX 49 78 51 79 53 80 50 81
REMARK H PARENT 1 7 1 8 1 9 70 43 44 54
REMARK Flexibility Score: inf
ROOT
ATOM      1  C   UNL A   1      44.043  21.748  25.310  1.00  0.00     0.274 C 
ENDROOT
BRANCH   1   2
ATOM      2  O   UNL A   1      42.627  21.510  25.210  1.00  0.00    -0.458 OA
BRANCH   2   3
ATOM      3  C   UNL A   1      42.177  20.306  25.671  1.00  0.00     0.365 C 
ATOM      4  O   UNL A   1      42.560  19.214  25.266  1.00  0.00    -0.245 OA
BRANCH   3   5
ATOM      5  C   UNL A   1      41.041  20.464  26.696  1.00  0.00     0.296 C 
BRANCH   5   6
ATOM      6  N   UNL A   1      41.319  19.723  27.942  1.00  0.00    -0.346 N 
ATOM      7  H   UNL A   1      42.323  19.731  28.126  1.00  0.00     0.345 HD
ATOM      8  H   UNL A   1      41.000  18.759  27.843  1.00  0.00     0.345 HD
ATOM      9  H   UNL A   1      40.828  20.166  28.718  1.00  0.00     0.345 HD
ENDBRANCH   5   6
BRANCH   5  10
ATOM     10  C   UNL A   1      40.687  21.954  26.887  1.00  0.00     0.113 C 
BRANCH  10  11
ATOM     11  C   UNL A   1      39.315  22.354  26.378  1.00  0.00    -0.029 A 
ATOM     12  C   UNL A   1      38.518  21.342  25.799  1.00  0.00     0.007 A 
ATOM     13  C   UNL A   1      38.818  23.679  26.430  1.00  0.00     0.062 A 
ATOM     14  C   UNL A   1      37.276  21.633  25.242  1.00  0.00     0.039 A 
ATOM     15  C   UNL A   1      37.553  23.946  25.870  1.00  0.00     0.052 A 
ATOM     16  C   UNL A   1      36.807  22.935  25.277  1.00  0.00     0.123 A 
ATOM     17  F   UNL A   1      35.616  23.222  24.738  1.00  0.00    -0.207 F 
BRANCH  13  18
ATOM     18  C   UNL A   1      39.532  24.829  27.114  1.00  0.00     0.416 C 
ATOM     19  F   UNL A   1      38.686  25.837  27.473  1.00  0.00    -0.166 F 
ATOM     20  F   UNL A   1      40.154  24.438  28.259  1.00  0.00    -0.166 F 
ATOM     21  F   UNL A   1      40.489  25.426  26.351  1.00  0.00    -0.166 F 
ENDBRANCH  13  18
ENDBRANCH  10  11
ENDBRANCH   5  10
ENDBRANCH   3   5
ENDBRANCH   2   3
ENDBRANCH   1   2
BRANCH   1  22
ATOM     22  C   UNL A   1      44.507  22.786  24.287  1.00  0.00     0.275 C 
BRANCH  22  23
ATOM     23  O   UNL A   1      43.947  24.076  24.582  1.00  0.00    -0.458 OA
BRANCH  23  24
ATOM     24  C   UNL A   1      44.821  24.967  25.109  1.00  0.00     0.338 C 
ATOM     25  O   UNL A   1      45.965  25.187  24.756  1.00  0.00    -0.246 OA
BRANCH  24  26
ATOM     26  C   UNL A   1      44.128  25.747  26.145  1.00  0.00     0.060 A 
ATOM     27  C   UNL A   1      44.122  27.139  26.033  1.00  0.00     0.016 A 
ATOM     28  C   UNL A   1      43.547  25.115  27.246  1.00  0.00     0.016 A 
ATOM     29  C   UNL A   1      43.522  27.913  27.022  1.00  0.00     0.010 A 
ATOM     30  C   UNL A   1      42.959  25.894  28.246  1.00  0.00     0.010 A 
ATOM     31  C   UNL A   1      42.954  27.295  28.144  1.00  0.00    -0.014 A 
BRANCH  31  32
ATOM     32  C   UNL A   1      42.425  28.120  29.254  1.00  0.00     0.031 A 
ATOM     33  C   UNL A   1      43.194  28.202  30.541  1.00  0.00     0.074 A 
ATOM     34  C   UNL A   1      41.278  28.804  29.102  1.00  0.00     0.049 A 
ATOM     35  N   UNL A   1      42.863  28.780  31.666  1.00  0.00    -0.248 NA
ATOM     36  C   UNL A   1      44.510  27.545  30.563  1.00  0.00     0.031 C 
ATOM     37  C   UNL A   1      40.478  28.848  27.879  1.00  0.00     0.029 A 
ATOM     38  N   UNL A   1      40.585  29.590  29.987  1.00  0.00    -0.354 N 
ATOM     39  C   UNL A   1      43.921  28.546  32.534  1.00  0.00     0.074 A 
ATOM     40  C   UNL A   1      44.899  27.762  31.811  1.00  0.00     0.031 C 
ATOM     41  C   UNL A   1      39.400  29.621  28.092  1.00  0.00     0.029 A 
ATOM     42  C   UNL A   1      39.412  30.089  29.476  1.00  0.00     0.049 A 
ATOM     43  H   UNL A   1      40.898  29.779  30.902  1.00  0.00     0.167 HD
ATOM     44  C   UNL A   1      44.061  28.954  33.817  1.00  0.00     0.037 A 
ATOM     45  C   UNL A   1      38.445  30.816  30.068  1.00  0.00     0.037 A 
ATOM     46  C   UNL A   1      43.090  29.745  34.525  1.00  0.00     0.049 A 
ATOM     47  C   UNL A   1      38.591  31.196  31.516  1.00  0.00     0.074 A 
ATOM     48  C   UNL A   1      43.142  30.207  35.829  1.00  0.00     0.029 A 
ATOM     49  N   UNL A   1      41.894  30.194  33.986  1.00  0.00    -0.354 N 
ATOM     50  N   UNL A   1      39.581  30.946  32.338  1.00  0.00    -0.248 NA
ATOM     51  C   UNL A   1      37.482  31.947  32.123  1.00  0.00     0.031 C 
ATOM     52  C   UNL A   1      41.959  30.905  36.090  1.00  0.00     0.029 A 
ATOM     53  C   UNL A   1      41.191  30.914  34.936  1.00  0.00     0.049 A 
ATOM     54  H   UNL A   1      41.590  30.027  33.065  1.00  0.00     0.167 HD
ATOM     55  C   UNL A   1      39.224  31.520  33.552  1.00  0.00     0.074 A 
ATOM     56  C   UNL A   1      37.930  32.142  33.356  1.00  0.00     0.031 C 
ATOM     57  C   UNL A   1      39.906  31.529  34.722  1.00  0.00     0.037 A 
BRANCH  44  58
ATOM     58  C   UNL A   1      45.300  28.536  34.547  1.00  0.00     0.057 A 
ATOM     59  C   UNL A   1      45.314  27.362  35.312  1.00  0.00     0.134 A 
ATOM     60  C   UNL A   1      46.458  29.322  34.545  1.00  0.00     0.134 A 
ATOM     61  F   UNL A   1      44.235  26.567  35.359  1.00  0.00    -0.206 F 
ATOM     62  C   UNL A   1      46.433  26.992  36.058  1.00  0.00     0.040 A 
ATOM     63  C   UNL A   1      47.591  28.952  35.271  1.00  0.00     0.040 A 
ATOM     64  F   UNL A   1      46.511  30.451  33.823  1.00  0.00    -0.206 F 
ATOM     65  C   UNL A   1      47.578  27.788  36.038  1.00  0.00     0.006 A 
ENDBRANCH  44  58
BRANCH  45  66
ATOM     66  C   UNL A   1      37.244  31.213  29.293  1.00  0.00     0.057 A 
ATOM     67  C   UNL A   1      36.169  30.336  29.112  1.00  0.00     0.134 A 
ATOM     68  C   UNL A   1      37.151  32.479  28.704  1.00  0.00     0.134 A 
ATOM     69  F   UNL A   1      36.198  29.110  29.654  1.00  0.00    -0.206 F 
ATOM     70  C   UNL A   1      35.052  30.694  28.355  1.00  0.00     0.040 A 
ATOM     71  C   UNL A   1      36.030  32.858  27.963  1.00  0.00     0.040 A 
ATOM     72  F   UNL A   1      38.139  33.371  28.861  1.00  0.00    -0.206 F 
ATOM     73  C   UNL A   1      34.980  31.960  27.781  1.00  0.00     0.006 A 
ENDBRANCH  45  66
BRANCH  57  74
ATOM     74  C   UNL A   1      39.283  32.246  35.881  1.00  0.00     0.057 A 
ATOM     75  C   UNL A   1      38.325  31.611  36.682  1.00  0.00     0.134 A 
ATOM     76  C   UNL A   1      39.572  33.588  36.154  1.00  0.00     0.134 A 
ATOM     77  F   UNL A   1      37.997  30.329  36.464  1.00  0.00    -0.206 F 
ATOM     78  C   UNL A   1      37.667  32.291  37.707  1.00  0.00     0.040 A 
ATOM     79  C   UNL A   1      38.936  34.273  37.190  1.00  0.00     0.040 A 
ATOM     80  F   UNL A   1      40.488  34.247  35.428  1.00  0.00    -0.206 F 
ATOM     81  C   UNL A   1      37.973  33.626  37.964  1.00  0.00     0.006 A 
ENDBRANCH  57  74
ENDBRANCH  31  32
ENDBRANCH  24  26
ENDBRANCH  23  24
ENDBRANCH  22  23
ENDBRANCH   1  22
TORSDOF 15
ENDMDL
MODEL 3
REMARK VINA RESULT:     -10.1      4.129     10.556
REMARK SMILES [NH3+][C@@H](Cc1ccc(F)cc1C(F)(F)F)C(=O)OCCOC(=O)c1ccc(-c2c3nc(c(-c4c(F)cccc4F)c4ccc([nH]4)c(-c4c(F)cccc4F)c4nc(c(-c5c(F)cccc5F)c5ccc2[nH]5)C=C4)C=C3)cc1
REMARK SMILES IDX 18 1 17 2 15 3 16 4 2 5 1 6 3 10 4 11 5 12 10 13 6 14 9 15
REMARK SMILES IDX 7 16 8 17 11 18 12 19 13 20 14 21 19 22 20 23 21 24 22 25
REMARK SMILES IDX 23 26 24 27 76 28 25 29 75 30 26 31 27 32 28 33 69 34 29 35
REMARK SMILES IDX 74 36 68 37 70 38 30 39 73 40 67 41 66 42 31 44 57 45 40 46
REMARK SMILES IDX 56 47 41 48 44 49 55 50 71 51 42 52 43 53 54 55 72 56 45 57
REMARK SMILES IDX 32 58 33 59 38 60 34 61 35 62 37 63 39 64 36 65 58 66 59 67
REMARK SMILES IDX 64 68 60 69 61 70 63 71 65 72 62 73 46 74 47 75 52 76 48 77
REMARK SMILES IDX 49 78 51 79 53 80 50 81
REMARK H PARENT 1 7 1 8 1 9 70 43 44 54
REMARK Flexibility Score: inf
ROOT
ATOM      1  C   UNL A   1      33.596  34.329  29.052  1.00  0.00     0.274 C 
ENDROOT
BRANCH   1   2
ATOM      2  O   UNL A   1      33.802  33.845  30.392  1.00  0.00    -0.458 OA
BRANCH   2   3
ATOM      3  C   UNL A   1      34.019  34.789  31.355  1.00  0.00     0.365 C 
ATOM      4  O   UNL A   1      33.662  35.959  31.281  1.00  0.00    -0.245 OA
BRANCH   3   5
ATOM      5  C   UNL A   1      34.867  34.248  32.518  1.00  0.00     0.296 C 
BRANCH   5   6
ATOM      6  N   UNL A   1      34.026  33.752  33.626  1.00  0.00    -0.346 N 
ATOM      7  H   UNL A   1      33.216  34.362  33.738  1.00  0.00     0.345 HD
ATOM      8  H   UNL A   1      34.570  33.747  34.490  1.00  0.00     0.345 HD
ATOM      9  H   UNL A   1      33.712  32.804  33.417  1.00  0.00     0.345 HD
ENDBRANCH   5   6
BRANCH   5  10
ATOM     10  C   UNL A   1      35.922  33.247  32.000  1.00  0.00     0.113 C 
BRANCH  10  11
ATOM     11  C   UNL A   1      37.363  33.678  32.202  1.00  0.00    -0.029 A 
ATOM     12  C   UNL A   1      37.827  33.787  33.531  1.00  0.00     0.007 A 
ATOM     13  C   UNL A   1      38.238  33.999  31.136  1.00  0.00     0.062 A 
ATOM     14  C   UNL A   1      39.111  34.244  33.811  1.00  0.00     0.039 A 
ATOM     15  C   UNL A   1      39.538  34.449  31.445  1.00  0.00     0.052 A 
ATOM     16  C   UNL A   1      39.954  34.577  32.764  1.00  0.00     0.123 A 
ATOM     17  F   UNL A   1      41.189  35.022  33.027  1.00  0.00    -0.207 F 
BRANCH  13  18
ATOM     18  C   UNL A   1      37.893  33.826  29.670  1.00  0.00     0.416 C 
ATOM     19  F   UNL A   1      38.854  34.322  28.839  1.00  0.00    -0.166 F 
ATOM     20  F   UNL A   1      37.744  32.518  29.329  1.00  0.00    -0.166 F 
ATOM     21  F   UNL A   1      36.742  34.447  29.289  1.00  0.00    -0.166 F 
ENDBRANCH  13  18
ENDBRANCH  10  11
ENDBRANCH   5  10
ENDBRANCH   3   5
ENDBRANCH   2   3
ENDBRANCH   1   2
BRANCH   1  22
ATOM     22  C   UNL A   1      33.854  33.233  28.018  1.00  0.00     0.275 C 
BRANCH  22  23
ATOM     23  O   UNL A   1      34.192  31.995  28.663  1.00  0.00    -0.458 OA
BRANCH  23  24
ATOM     24  C   UNL A   1      34.442  30.964  27.820  1.00  0.00     0.338 C 
ATOM     25  O   UNL A   1      33.823  30.653  26.819  1.00  0.00    -0.246 OA
BRANCH  24  26
ATOM     26  C   UNL A   1      35.688  30.306  28.241  1.00  0.00     0.060 A 
ATOM     27  C   UNL A   1      35.750  29.768  29.528  1.00  0.00     0.016 A 
ATOM     28  C   UNL A   1      36.800  30.275  27.398  1.00  0.00     0.016 A 
ATOM     29  C   UNL A   1      36.930  29.184  29.981  1.00  0.00     0.010 A 
ATOM     30  C   UNL A   1      37.988  29.704  27.859  1.00  0.00     0.010 A 
ATOM     31  C   UNL A   1      38.062  29.165  29.155  1.00  0.00    -0.014 A 
BRANCH  31  32
ATOM     32  C   UNL A   1      39.350  28.656  29.678  1.00  0.00     0.031 A 
ATOM     33  C   UNL A   1      39.966  29.310  30.881  1.00  0.00     0.074 A 
ATOM     34  C   UNL A   1      39.950  27.606  29.092  1.00  0.00     0.049 A 
ATOM     35  N   UNL A   1      41.129  29.089  31.436  1.00  0.00    -0.248 NA
ATOM     36  C   UNL A   1      39.165  30.350  31.545  1.00  0.00     0.031 C 
ATOM     37  C   UNL A   1      39.416  26.855  27.957  1.00  0.00     0.029 A 
ATOM     38  N   UNL A   1      41.145  26.993  29.371  1.00  0.00    -0.354 N 
ATOM     39  C   UNL A   1      41.207  29.971  32.506  1.00  0.00     0.074 A 
ATOM     40  C   UNL A   1      39.981  30.739  32.515  1.00  0.00     0.031 C 
ATOM     41  C   UNL A   1      40.283  25.880  27.634  1.00  0.00     0.029 A 
ATOM     42  C   UNL A   1      41.450  25.968  28.509  1.00  0.00     0.049 A 
ATOM     43  H   UNL A   1      41.729  27.262  30.117  1.00  0.00     0.167 HD
ATOM     44  C   UNL A   1      42.211  30.119  33.401  1.00  0.00     0.037 A 
ATOM     45  C   UNL A   1      42.556  25.205  28.421  1.00  0.00     0.037 A 
ATOM     46  C   UNL A   1      43.422  29.341  33.394  1.00  0.00     0.049 A 
ATOM     47  C   UNL A   1      43.690  25.438  29.382  1.00  0.00     0.074 A 
ATOM     48  C   UNL A   1      44.500  29.419  34.259  1.00  0.00     0.029 A 
ATOM     49  N   UNL A   1      43.712  28.341  32.478  1.00  0.00    -0.354 N 
ATOM     50  N   UNL A   1      43.768  26.293  30.373  1.00  0.00    -0.248 NA
ATOM     51  C   UNL A   1      44.893  24.612  29.207  1.00  0.00     0.031 C 
ATOM     52  C   UNL A   1      45.458  28.490  33.844  1.00  0.00     0.029 A 
ATOM     53  C   UNL A   1      44.960  27.805  32.747  1.00  0.00     0.049 A 
ATOM     54  H   UNL A   1      43.119  28.054  31.747  1.00  0.00     0.167 HD
ATOM     55  C   UNL A   1      45.018  26.098  30.948  1.00  0.00     0.074 A 
ATOM     56  C   UNL A   1      45.660  25.035  30.203  1.00  0.00     0.031 C 
ATOM     57  C   UNL A   1      45.581  26.744  31.997  1.00  0.00     0.037 A 
BRANCH  44  58
ATOM     58  C   UNL A   1      42.056  31.175  34.452  1.00  0.00     0.057 A 
ATOM     59  C   UNL A   1      42.640  32.438  34.284  1.00  0.00     0.134 A 
ATOM     60  C   UNL A   1      41.383  30.926  35.653  1.00  0.00     0.134 A 
ATOM     61  F   UNL A   1      43.302  32.737  33.157  1.00  0.00    -0.206 F 
ATOM     62  C   UNL A   1      42.569  33.411  35.281  1.00  0.00     0.040 A 
ATOM     63  C   UNL A   1      41.288  31.899  36.649  1.00  0.00     0.040 A 
ATOM     64  F   UNL A   1      40.793  29.741  35.869  1.00  0.00    -0.206 F 
ATOM     65  C   UNL A   1      41.889  33.144  36.468  1.00  0.00     0.006 A 
ENDBRANCH  44  58
BRANCH  45  66
ATOM     66  C   UNL A   1      42.652  24.165  27.368  1.00  0.00     0.057 A 
ATOM     67  C   UNL A   1      43.138  24.463  26.090  1.00  0.00     0.134 A 
ATOM     68  C   UNL A   1      42.246  22.849  27.614  1.00  0.00     0.134 A 
ATOM     69  F   UNL A   1      43.544  25.706  25.792  1.00  0.00    -0.206 F 
ATOM     70  C   UNL A   1      43.197  23.495  25.086  1.00  0.00     0.040 A 
ATOM     71  C   UNL A   1      42.321  21.865  26.626  1.00  0.00     0.040 A 
ATOM     72  F   UNL A   1      41.794  22.498  28.826  1.00  0.00    -0.206 F 
ATOM     73  C   UNL A   1      42.791  22.190  25.355  1.00  0.00     0.006 A 
ENDBRANCH  45  66
BRANCH  57  74
ATOM     74  C   UNL A   1      46.953  26.312  32.420  1.00  0.00     0.057 A 
ATOM     75  C   UNL A   1      47.120  25.286  33.358  1.00  0.00     0.134 A 
ATOM     76  C   UNL A   1      48.101  26.965  31.959  1.00  0.00     0.134 A 
ATOM     77  F   UNL A   1      46.057  24.629  33.846  1.00  0.00    -0.206 F 
ATOM     78  C   UNL A   1      48.383  24.933  33.833  1.00  0.00     0.040 A 
ATOM     79  C   UNL A   1      49.372  26.607  32.411  1.00  0.00     0.040 A 
ATOM     80  F   UNL A   1      48.006  27.949  31.052  1.00  0.00    -0.206 F 
ATOM     81  C   UNL A   1      49.514  25.594  33.358  1.00  0.00     0.006 A 
ENDBRANCH  57  74
ENDBRANCH  31  32
ENDBRANCH  24  26
ENDBRANCH  23  24
ENDBRANCH  22  23
ENDBRANCH   1  22
TORSDOF 15
ENDMDL
