MODEL 1
REMARK VINA RESULT:     -10.9      0.000      0.000
REMARK SMILES NC(=O)c1cccc(NC2(CC(=O)OCCOC(=O)c3ccc(-c4c5nc(c(-c6c(F)cccc6F)c6ccc([nH]6)c(-c6c(F)cccc6F)c6nc(c(-c7c(F)cccc7F)c7ccc4[nH]7)C=C6)C=C5)cc3)CCC2)n1
REMARK SMILES IDX 15 1 14 2 12 3 13 4 11 5 10 6 74 7 76 8 75 9 9 10 8 12 4 13
REMARK SMILES IDX 5 14 77 15 6 16 7 17 2 18 1 19 3 22 16 23 17 24 18 25 19 26
REMARK SMILES IDX 20 27 21 28 73 29 22 30 72 31 23 32 24 33 25 34 66 35 26 36
REMARK SMILES IDX 71 37 65 38 67 39 27 40 70 41 64 42 63 43 28 45 54 46 37 47
REMARK SMILES IDX 53 48 38 49 41 50 52 51 68 52 39 53 40 54 51 56 69 57 42 58
REMARK SMILES IDX 29 59 30 60 35 61 31 62 32 63 34 64 36 65 33 66 55 67 56 68
REMARK SMILES IDX 61 69 57 70 58 71 60 72 62 73 59 74 43 75 44 76 49 77 45 78
REMARK SMILES IDX 46 79 48 80 50 81 47 82
REMARK H PARENT 9 11 1 20 1 21 67 44 41 55
REMARK Flexibility Score: inf
ROOT
ATOM      1  C   UNL A   1      31.972  30.831  26.865  1.00  0.00     0.274 C 
ENDROOT
BRANCH   1   2
ATOM      2  O   UNL A   1      31.819  30.277  25.542  1.00  0.00    -0.462 OA
BRANCH   2   3
ATOM      3  C   UNL A   1      32.835  29.487  25.118  1.00  0.00     0.308 C 
ATOM      4  O   UNL A   1      33.663  28.965  25.859  1.00  0.00    -0.252 OA
BRANCH   3   5
ATOM      5  C   UNL A   1      32.902  29.315  23.627  1.00  0.00     0.151 C 
BRANCH   5   6
ATOM      6  C   UNL A   1      32.188  28.134  22.956  1.00  0.00     0.049 C 
ATOM      7  C   UNL A   1      31.764  27.107  24.051  1.00  0.00     0.029 C 
ATOM      8  C   UNL A   1      33.084  27.028  22.342  1.00  0.00     0.029 C 
ATOM      9  C   UNL A   1      33.002  26.270  23.682  1.00  0.00     0.005 C 
BRANCH   6  10
ATOM     10  N   UNL A   1      31.110  28.564  22.092  1.00  0.00    -0.364 N 
ATOM     11  H   UNL A   1      31.217  28.338  21.139  1.00  0.00     0.162 HD
BRANCH  10  12
ATOM     12  C   UNL A   1      29.924  29.263  22.423  1.00  0.00     0.127 A 
ATOM     13  C   UNL A   1      28.702  31.217  22.644  1.00  0.00     0.130 A 
ATOM     14  C   UNL A   1      27.570  30.551  23.098  1.00  0.00     0.034 A 
ATOM     15  N   UNL A   1      29.860  30.598  22.313  1.00  0.00    -0.226 NA
ATOM     16  C   UNL A   1      27.634  29.170  23.195  1.00  0.00     0.006 A 
ATOM     17  C   UNL A   1      28.817  28.523  22.842  1.00  0.00     0.047 A 
BRANCH  13  18
ATOM     18  C   UNL A   1      28.691  32.704  22.490  1.00  0.00     0.267 C 
ATOM     19  N   UNL A   1      29.566  33.414  23.276  1.00  0.00    -0.364 N 
ATOM     20  H   UNL A   1      29.599  34.395  23.213  1.00  0.00     0.160 HD
ATOM     21  H   UNL A   1      30.160  32.941  23.902  1.00  0.00     0.160 HD
ATOM     22  O   UNL A   1      27.957  33.286  21.701  1.00  0.00    -0.268 OA
ENDBRANCH  13  18
ENDBRANCH  10  12
ENDBRANCH   6  10
ENDBRANCH   5   6
ENDBRANCH   3   5
ENDBRANCH   2   3
ENDBRANCH   1   2
BRANCH   1  23
ATOM     23  C   UNL A   1      31.689  32.334  26.897  1.00  0.00     0.275 C 
BRANCH  23  24
ATOM     24  O   UNL A   1      32.901  33.110  26.841  1.00  0.00    -0.458 OA
BRANCH  24  25
ATOM     25  C   UNL A   1      33.180  33.792  27.973  1.00  0.00     0.338 C 
ATOM     26  O   UNL A   1      32.498  34.654  28.499  1.00  0.00    -0.246 OA
BRANCH  25  27
ATOM     27  C   UNL A   1      34.405  33.275  28.593  1.00  0.00     0.060 A 
ATOM     28  C   UNL A   1      34.301  32.217  29.499  1.00  0.00     0.016 A 
ATOM     29  C   UNL A   1      35.631  33.897  28.361  1.00  0.00     0.016 A 
ATOM     30  C   UNL A   1      35.434  31.753  30.160  1.00  0.00     0.010 A 
ATOM     31  C   UNL A   1      36.771  33.419  29.011  1.00  0.00     0.010 A 
ATOM     32  C   UNL A   1      36.681  32.338  29.906  1.00  0.00    -0.014 A 
BRANCH  32  33
ATOM     33  C   UNL A   1      37.904  31.783  30.528  1.00  0.00     0.031 A 
ATOM     34  C   UNL A   1      38.716  30.739  29.823  1.00  0.00     0.074 A 
ATOM     35  C   UNL A   1      38.265  32.215  31.749  1.00  0.00     0.049 A 
ATOM     36  N   UNL A   1      39.708  30.021  30.283  1.00  0.00    -0.248 NA
ATOM     37  C   UNL A   1      38.370  30.469  28.420  1.00  0.00     0.031 C 
ATOM     38  C   UNL A   1      37.582  33.261  32.512  1.00  0.00     0.029 A 
ATOM     39  N   UNL A   1      39.288  31.815  32.570  1.00  0.00    -0.354 N 
ATOM     40  C   UNL A   1      40.098  29.202  29.233  1.00  0.00     0.074 A 
ATOM     41  C   UNL A   1      39.233  29.509  28.112  1.00  0.00     0.031 C 
ATOM     42  C   UNL A   1      38.197  33.412  33.695  1.00  0.00     0.029 A 
ATOM     43  C   UNL A   1      39.280  32.438  33.792  1.00  0.00     0.049 A 
ATOM     44  H   UNL A   1      39.962  31.146  32.308  1.00  0.00     0.167 HD
ATOM     45  C   UNL A   1      41.090  28.279  29.212  1.00  0.00     0.037 A 
ATOM     46  C   UNL A   1      40.031  32.219  34.888  1.00  0.00     0.037 A 
ATOM     47  C   UNL A   1      41.954  27.986  30.325  1.00  0.00     0.049 A 
ATOM     48  C   UNL A   1      41.068  31.135  34.863  1.00  0.00     0.074 A 
ATOM     49  C   UNL A   1      42.987  27.067  30.398  1.00  0.00     0.029 A 
ATOM     50  N   UNL A   1      41.888  28.611  31.560  1.00  0.00    -0.354 N 
ATOM     51  N   UNL A   1      41.399  30.333  33.882  1.00  0.00    -0.248 NA
ATOM     52  C   UNL A   1      41.820  30.912  36.107  1.00  0.00     0.031 C 
ATOM     53  C   UNL A   1      43.530  27.118  31.687  1.00  0.00     0.029 A 
ATOM     54  C   UNL A   1      42.850  28.087  32.407  1.00  0.00     0.049 A 
ATOM     55  H   UNL A   1      41.252  29.324  31.800  1.00  0.00     0.167 HD
ATOM     56  C   UNL A   1      42.396  29.510  34.386  1.00  0.00     0.074 A 
ATOM     57  C   UNL A   1      42.629  29.921  35.754  1.00  0.00     0.031 C 
ATOM     58  C   UNL A   1      43.056  28.500  33.770  1.00  0.00     0.037 A 
BRANCH  45  59
ATOM     59  C   UNL A   1      41.281  27.502  27.947  1.00  0.00     0.057 A 
ATOM     60  C   UNL A   1      40.632  26.283  27.729  1.00  0.00     0.134 A 
ATOM     61  C   UNL A   1      42.083  28.007  26.916  1.00  0.00     0.134 A 
ATOM     62  F   UNL A   1      39.860  25.743  28.686  1.00  0.00    -0.206 F 
ATOM     63  C   UNL A   1      40.777  25.586  26.529  1.00  0.00     0.040 A 
ATOM     64  C   UNL A   1      42.224  27.327  25.706  1.00  0.00     0.040 A 
ATOM     65  F   UNL A   1      42.730  29.172  27.066  1.00  0.00    -0.206 F 
ATOM     66  C   UNL A   1      41.570  26.112  25.510  1.00  0.00     0.006 A 
ENDBRANCH  45  59
BRANCH  46  67
ATOM     67  C   UNL A   1      39.784  33.006  36.118  1.00  0.00     0.057 A 
ATOM     68  C   UNL A   1      38.829  32.601  37.056  1.00  0.00     0.134 A 
ATOM     69  C   UNL A   1      40.500  34.179  36.382  1.00  0.00     0.134 A 
ATOM     70  F   UNL A   1      38.099  31.497  36.841  1.00  0.00    -0.206 F 
ATOM     71  C   UNL A   1      38.591  33.340  38.215  1.00  0.00     0.040 A 
ATOM     72  C   UNL A   1      40.285  34.917  37.546  1.00  0.00     0.040 A 
ATOM     73  F   UNL A   1      41.428  34.616  35.518  1.00  0.00    -0.206 F 
ATOM     74  C   UNL A   1      39.324  34.499  38.464  1.00  0.00     0.006 A 
ENDBRANCH  46  67
BRANCH  58  75
ATOM     75  C   UNL A   1      44.086  27.777  34.579  1.00  0.00     0.057 A 
ATOM     76  C   UNL A   1      43.774  26.600  35.270  1.00  0.00     0.134 A 
ATOM     77  C   UNL A   1      45.401  28.249  34.652  1.00  0.00     0.134 A 
ATOM     78  F   UNL A   1      42.526  26.110  35.249  1.00  0.00    -0.206 F 
ATOM     79  C   UNL A   1      44.736  25.923  36.021  1.00  0.00     0.040 A 
ATOM     80  C   UNL A   1      46.375  27.572  35.388  1.00  0.00     0.040 A 
ATOM     81  F   UNL A   1      45.760  29.370  34.010  1.00  0.00    -0.206 F 
ATOM     82  C   UNL A   1      46.042  26.406  36.078  1.00  0.00     0.006 A 
ENDBRANCH  58  75
ENDBRANCH  32  33
ENDBRANCH  25  27
ENDBRANCH  24  25
ENDBRANCH  23  24
ENDBRANCH   1  23
TORSDOF 15
ENDMDL
MODEL 2
REMARK VINA RESULT:     -10.9      6.307     10.800
REMARK SMILES NC(=O)c1cccc(NC2(CC(=O)OCCOC(=O)c3ccc(-c4c5nc(c(-c6c(F)cccc6F)c6ccc([nH]6)c(-c6c(F)cccc6F)c6nc(c(-c7c(F)cccc7F)c7ccc4[nH]7)C=C6)C=C5)cc3)CCC2)n1
REMARK SMILES IDX 15 1 14 2 12 3 13 4 11 5 10 6 74 7 76 8 75 9 9 10 8 12 4 13
REMARK SMILES IDX 5 14 77 15 6 16 7 17 2 18 1 19 3 22 16 23 17 24 18 25 19 26
REMARK SMILES IDX 20 27 21 28 73 29 22 30 72 31 23 32 24 33 25 34 66 35 26 36
REMARK SMILES IDX 71 37 65 38 67 39 27 40 70 41 64 42 63 43 28 45 54 46 37 47
REMARK SMILES IDX 53 48 38 49 41 50 52 51 68 52 39 53 40 54 51 56 69 57 42 58
REMARK SMILES IDX 29 59 30 60 35 61 31 62 32 63 34 64 36 65 33 66 55 67 56 68
REMARK SMILES IDX 61 69 57 70 58 71 60 72 62 73 59 74 43 75 44 76 49 77 45 78
REMARK SMILES IDX 46 79 48 80 50 81 47 82
REMARK H PARENT 9 11 1 20 1 21 67 44 41 55
REMARK Flexibility Score: inf
ROOT
ATOM      1  C   UNL A   1      37.786  20.853  24.855  1.00  0.00     0.274 C 
ENDROOT
BRANCH   1   2
ATOM      2  O   UNL A   1      36.575  20.965  25.633  1.00  0.00    -0.462 OA
BRANCH   2   3
ATOM      3  C   UNL A   1      35.750  21.983  25.285  1.00  0.00     0.308 C 
ATOM      4  O   UNL A   1      36.049  23.171  25.349  1.00  0.00    -0.252 OA
BRANCH   3   5
ATOM      5  C   UNL A   1      34.386  21.543  24.834  1.00  0.00     0.151 C 
BRANCH   5   6
ATOM      6  C   UNL A   1      33.256  21.369  25.857  1.00  0.00     0.049 C 
ATOM      7  C   UNL A   1      32.324  22.619  25.803  1.00  0.00     0.029 C 
ATOM      8  C   UNL A   1      33.578  21.741  27.328  1.00  0.00     0.029 C 
ATOM      9  C   UNL A   1      33.055  23.163  27.044  1.00  0.00     0.005 C 
BRANCH   6  10
ATOM     10  N   UNL A   1      32.570  20.105  25.708  1.00  0.00    -0.364 N 
ATOM     11  H   UNL A   1      31.742  20.009  26.232  1.00  0.00     0.162 HD
BRANCH  10  12
ATOM     12  C   UNL A   1      32.921  18.987  24.914  1.00  0.00     0.127 A 
ATOM     13  C   UNL A   1      33.950  16.933  24.624  1.00  0.00     0.130 A 
ATOM     14  C   UNL A   1      33.570  16.842  23.291  1.00  0.00     0.034 A 
ATOM     15  N   UNL A   1      33.641  17.978  25.428  1.00  0.00    -0.226 NA
ATOM     16  C   UNL A   1      32.813  17.877  22.768  1.00  0.00     0.006 A 
ATOM     17  C   UNL A   1      32.477  18.950  23.590  1.00  0.00     0.047 A 
BRANCH  13  18
ATOM     18  C   UNL A   1      34.745  15.837  25.259  1.00  0.00     0.267 C 
ATOM     19  N   UNL A   1      35.990  16.170  25.732  1.00  0.00    -0.364 N 
ATOM     20  H   UNL A   1      36.554  15.485  26.159  1.00  0.00     0.160 HD
ATOM     21  H   UNL A   1      36.319  17.093  25.644  1.00  0.00     0.160 HD
ATOM     22  O   UNL A   1      34.325  14.691  25.375  1.00  0.00    -0.268 OA
ENDBRANCH  13  18
ENDBRANCH  10  12
ENDBRANCH   6  10
ENDBRANCH   5   6
ENDBRANCH   3   5
ENDBRANCH   2   3
ENDBRANCH   1   2
BRANCH   1  23
ATOM     23  C   UNL A   1      39.032  20.770  25.737  1.00  0.00     0.275 C 
BRANCH  23  24
ATOM     24  O   UNL A   1      39.606  19.448  25.732  1.00  0.00    -0.458 OA
BRANCH  24  25
ATOM     25  C   UNL A   1      40.935  19.417  25.972  1.00  0.00     0.338 C 
ATOM     26  O   UNL A   1      41.706  18.508  25.719  1.00  0.00    -0.246 OA
BRANCH  25  27
ATOM     27  C   UNL A   1      41.390  20.709  26.495  1.00  0.00     0.060 A 
ATOM     28  C   UNL A   1      41.857  21.669  25.594  1.00  0.00     0.016 A 
ATOM     29  C   UNL A   1      41.453  20.932  27.870  1.00  0.00     0.016 A 
ATOM     30  C   UNL A   1      42.365  22.876  26.064  1.00  0.00     0.010 A 
ATOM     31  C   UNL A   1      41.947  22.151  28.341  1.00  0.00     0.010 A 
ATOM     32  C   UNL A   1      42.396  23.133  27.440  1.00  0.00    -0.014 A 
BRANCH  32  33
ATOM     33  C   UNL A   1      42.839  24.454  27.940  1.00  0.00     0.031 A 
ATOM     34  C   UNL A   1      41.842  25.515  28.292  1.00  0.00     0.074 A 
ATOM     35  C   UNL A   1      44.158  24.696  28.055  1.00  0.00     0.049 A 
ATOM     36  N   UNL A   1      42.049  26.775  28.578  1.00  0.00    -0.248 NA
ATOM     37  C   UNL A   1      40.430  25.108  28.331  1.00  0.00     0.031 C 
ATOM     38  C   UNL A   1      45.221  23.726  27.789  1.00  0.00     0.029 A 
ATOM     39  N   UNL A   1      44.827  25.839  28.408  1.00  0.00    -0.354 N 
ATOM     40  C   UNL A   1      40.794  27.317  28.816  1.00  0.00     0.074 A 
ATOM     41  C   UNL A   1      39.830  26.251  28.638  1.00  0.00     0.031 C 
ATOM     42  C   UNL A   1      46.411  24.318  27.976  1.00  0.00     0.029 A 
ATOM     43  C   UNL A   1      46.192  25.719  28.322  1.00  0.00     0.049 A 
ATOM     44  H   UNL A   1      44.374  26.665  28.696  1.00  0.00     0.167 HD
ATOM     45  C   UNL A   1      40.481  28.592  29.153  1.00  0.00     0.037 A 
ATOM     46  C   UNL A   1      47.158  26.645  28.461  1.00  0.00     0.037 A 
ATOM     47  C   UNL A   1      41.443  29.645  29.339  1.00  0.00     0.049 A 
ATOM     48  C   UNL A   1      46.779  28.067  28.754  1.00  0.00     0.074 A 
ATOM     49  C   UNL A   1      41.220  30.969  29.681  1.00  0.00     0.029 A 
ATOM     50  N   UNL A   1      42.815  29.494  29.204  1.00  0.00    -0.354 N 
ATOM     51  N   UNL A   1      45.587  28.582  28.931  1.00  0.00    -0.248 NA
ATOM     52  C   UNL A   1      47.877  29.040  28.843  1.00  0.00     0.031 C 
ATOM     53  C   UNL A   1      42.457  31.625  29.726  1.00  0.00     0.029 A 
ATOM     54  C   UNL A   1      43.449  30.703  29.438  1.00  0.00     0.049 A 
ATOM     55  H   UNL A   1      43.270  28.651  28.975  1.00  0.00     0.167 HD
ATOM     56  C   UNL A   1      45.790  29.936  29.153  1.00  0.00     0.074 A 
ATOM     57  C   UNL A   1      47.220  30.161  29.106  1.00  0.00     0.031 C 
ATOM     58  C   UNL A   1      44.872  30.908  29.372  1.00  0.00     0.037 A 
BRANCH  45  59
ATOM     59  C   UNL A   1      39.031  28.924  29.322  1.00  0.00     0.057 A 
ATOM     60  C   UNL A   1      38.375  28.747  30.544  1.00  0.00     0.134 A 
ATOM     61  C   UNL A   1      38.300  29.477  28.263  1.00  0.00     0.134 A 
ATOM     62  F   UNL A   1      39.022  28.210  31.591  1.00  0.00    -0.206 F 
ATOM     63  C   UNL A   1      37.036  29.104  30.709  1.00  0.00     0.040 A 
ATOM     64  C   UNL A   1      36.965  29.852  28.420  1.00  0.00     0.040 A 
ATOM     65  F   UNL A   1      38.875  29.673  27.068  1.00  0.00    -0.206 F 
ATOM     66  C   UNL A   1      36.329  29.664  29.646  1.00  0.00     0.006 A 
ENDBRANCH  45  59
BRANCH  46  67
ATOM     67  C   UNL A   1      48.576  26.264  28.263  1.00  0.00     0.057 A 
ATOM     68  C   UNL A   1      49.370  25.850  29.336  1.00  0.00     0.134 A 
ATOM     69  C   UNL A   1      49.165  26.303  26.993  1.00  0.00     0.134 A 
ATOM     70  F   UNL A   1      48.862  25.816  30.577  1.00  0.00    -0.206 F 
ATOM     71  C   UNL A   1      50.706  25.493  29.156  1.00  0.00     0.040 A 
ATOM     72  C   UNL A   1      50.494  25.930  26.796  1.00  0.00     0.040 A 
ATOM     73  F   UNL A   1      48.452  26.693  25.927  1.00  0.00    -0.206 F 
ATOM     74  C   UNL A   1      51.270  25.527  27.881  1.00  0.00     0.006 A 
ENDBRANCH  46  67
BRANCH  58  75
ATOM     75  C   UNL A   1      45.395  32.296  29.573  1.00  0.00     0.057 A 
ATOM     76  C   UNL A   1      45.532  33.184  28.499  1.00  0.00     0.134 A 
ATOM     77  C   UNL A   1      45.745  32.752  30.848  1.00  0.00     0.134 A 
ATOM     78  F   UNL A   1      45.226  32.795  27.252  1.00  0.00    -0.206 F 
ATOM     79  C   UNL A   1      46.015  34.479  28.687  1.00  0.00     0.040 A 
ATOM     80  C   UNL A   1      46.216  34.050  31.050  1.00  0.00     0.040 A 
ATOM     81  F   UNL A   1      45.634  31.947  31.914  1.00  0.00    -0.206 F 
ATOM     82  C   UNL A   1      46.354  34.917  29.965  1.00  0.00     0.006 A 
ENDBRANCH  58  75
ENDBRANCH  32  33
ENDBRANCH  25  27
ENDBRANCH  24  25
ENDBRANCH  23  24
ENDBRANCH   1  23
TORSDOF 15
ENDMDL
MODEL 3
REMARK VINA RESULT:     -10.8      5.752      9.879
REMARK SMILES NC(=O)c1cccc(NC2(CC(=O)OCCOC(=O)c3ccc(-c4c5nc(c(-c6c(F)cccc6F)c6ccc([nH]6)c(-c6c(F)cccc6F)c6nc(c(-c7c(F)cccc7F)c7ccc4[nH]7)C=C6)C=C5)cc3)CCC2)n1
REMARK SMILES IDX 15 1 14 2 12 3 13 4 11 5 10 6 74 7 76 8 75 9 9 10 8 12 4 13
REMARK SMILES IDX 5 14 77 15 6 16 7 17 2 18 1 19 3 22 16 23 17 24 18 25 19 26
REMARK SMILES IDX 20 27 21 28 73 29 22 30 72 31 23 32 24 33 25 34 66 35 26 36
REMARK SMILES IDX 71 37 65 38 67 39 27 40 70 41 64 42 63 43 28 45 54 46 37 47
REMARK SMILES IDX 53 48 38 49 41 50 52 51 68 52 39 53 40 54 51 56 69 57 42 58
REMARK SMILES IDX 29 59 30 60 35 61 31 62 32 63 34 64 36 65 33 66 55 67 56 68
REMARK SMILES IDX 61 69 57 70 58 71 60 72 62 73 59 74 43 75 44 76 49 77 45 78
REMARK SMILES IDX 46 79 48 80 50 81 47 82
REMARK H PARENT 9 11 1 20 1 21 67 44 41 55
REMARK Flexibility Score: inf
ROOT
ATOM      1  C   UNL A   1      38.229  20.916  25.455  1.00  0.00     0.274 C 
ENDROOT
BRANCH   1   2
ATOM      2  O   UNL A   1      36.828  20.731  25.163  1.00  0.00    -0.462 OA
BRANCH   2   3
ATOM      3  C   UNL A   1      36.088  21.865  25.108  1.00  0.00     0.308 C 
ATOM      4  O   UNL A   1      36.513  22.985  25.374  1.00  0.00    -0.252 OA
BRANCH   3   5
ATOM      5  C   UNL A   1      34.653  21.646  24.720  1.00  0.00     0.151 C 
BRANCH   5   6
ATOM      6  C   UNL A   1      33.595  21.389  25.801  1.00  0.00     0.049 C 
ATOM      7  C   UNL A   1      32.854  22.725  26.117  1.00  0.00     0.029 C 
ATOM      8  C   UNL A   1      34.083  21.375  27.273  1.00  0.00     0.029 C 
ATOM      9  C   UNL A   1      33.753  22.878  27.358  1.00  0.00     0.005 C 
BRANCH   6  10
ATOM     10  N   UNL A   1      32.720  20.288  25.462  1.00  0.00    -0.364 N 
ATOM     11  H   UNL A   1      31.794  20.368  25.788  1.00  0.00     0.162 HD
BRANCH  10  12
ATOM     12  C   UNL A   1      33.009  19.111  24.729  1.00  0.00     0.127 A 
ATOM     13  C   UNL A   1      33.957  17.007  24.538  1.00  0.00     0.130 A 
ATOM     14  C   UNL A   1      33.536  16.850  23.223  1.00  0.00     0.034 A 
ATOM     15  N   UNL A   1      33.708  18.109  25.284  1.00  0.00    -0.226 NA
ATOM     16  C   UNL A   1      32.801  17.880  22.658  1.00  0.00     0.006 A 
ATOM     17  C   UNL A   1      32.526  19.012  23.423  1.00  0.00     0.047 A 
BRANCH  13  18
ATOM     18  C   UNL A   1      34.731  15.923  25.217  1.00  0.00     0.267 C 
ATOM     19  N   UNL A   1      35.948  16.272  25.750  1.00  0.00    -0.364 N 
ATOM     20  H   UNL A   1      36.497  15.595  26.207  1.00  0.00     0.160 HD
ATOM     21  H   UNL A   1      36.271  17.198  25.673  1.00  0.00     0.160 HD
ATOM     22  O   UNL A   1      34.318  14.774  25.318  1.00  0.00    -0.268 OA
ENDBRANCH  13  18
ENDBRANCH  10  12
ENDBRANCH   6  10
ENDBRANCH   5   6
ENDBRANCH   3   5
ENDBRANCH   2   3
ENDBRANCH   1   2
BRANCH   1  23
ATOM     23  C   UNL A   1      39.040  19.641  25.223  1.00  0.00     0.275 C 
BRANCH  23  24
ATOM     24  O   UNL A   1      39.973  19.396  26.293  1.00  0.00    -0.458 OA
BRANCH  24  25
ATOM     25  C   UNL A   1      41.252  19.721  26.004  1.00  0.00     0.338 C 
ATOM     26  O   UNL A   1      42.033  19.090  25.312  1.00  0.00    -0.246 OA
BRANCH  25  27
ATOM     27  C   UNL A   1      41.579  21.043  26.549  1.00  0.00     0.060 A 
ATOM     28  C   UNL A   1      42.133  22.000  25.697  1.00  0.00     0.016 A 
ATOM     29  C   UNL A   1      41.436  21.298  27.913  1.00  0.00     0.016 A 
ATOM     30  C   UNL A   1      42.523  23.238  26.200  1.00  0.00     0.010 A 
ATOM     31  C   UNL A   1      41.812  22.547  28.414  1.00  0.00     0.010 A 
ATOM     32  C   UNL A   1      42.347  23.527  27.559  1.00  0.00    -0.014 A 
BRANCH  32  33
ATOM     33  C   UNL A   1      42.665  24.876  28.080  1.00  0.00     0.031 A 
ATOM     34  C   UNL A   1      44.050  25.215  28.536  1.00  0.00     0.074 A 
ATOM     35  C   UNL A   1      41.681  25.790  28.157  1.00  0.00     0.049 A 
ATOM     36  N   UNL A   1      44.469  26.278  29.174  1.00  0.00    -0.248 NA
ATOM     37  C   UNL A   1      45.104  24.235  28.234  1.00  0.00     0.031 C 
ATOM     38  C   UNL A   1      40.305  25.592  27.698  1.00  0.00     0.029 A 
ATOM     39  N   UNL A   1      41.685  27.064  28.666  1.00  0.00    -0.354 N 
ATOM     40  C   UNL A   1      45.830  26.090  29.365  1.00  0.00     0.074 A 
ATOM     41  C   UNL A   1      46.169  24.810  28.779  1.00  0.00     0.031 C 
ATOM     42  C   UNL A   1      39.593  26.700  27.958  1.00  0.00     0.029 A 
ATOM     43  C   UNL A   1      40.450  27.661  28.647  1.00  0.00     0.049 A 
ATOM     44  H   UNL A   1      42.495  27.506  29.010  1.00  0.00     0.167 HD
ATOM     45  C   UNL A   1      46.713  26.916  29.976  1.00  0.00     0.037 A 
ATOM     46  C   UNL A   1      40.040  28.832  29.168  1.00  0.00     0.037 A 
ATOM     47  C   UNL A   1      46.374  28.193  30.548  1.00  0.00     0.049 A 
ATOM     48  C   UNL A   1      41.021  29.690  29.910  1.00  0.00     0.074 A 
ATOM     49  C   UNL A   1      47.202  29.100  31.188  1.00  0.00     0.029 A 
ATOM     50  N   UNL A   1      45.103  28.746  30.545  1.00  0.00    -0.354 N 
ATOM     51  N   UNL A   1      42.297  29.484  30.128  1.00  0.00    -0.248 NA
ATOM     52  C   UNL A   1      40.501  30.933  30.499  1.00  0.00     0.031 C 
ATOM     53  C   UNL A   1      46.425  30.191  31.595  1.00  0.00     0.029 A 
ATOM     54  C   UNL A   1      45.120  29.973  31.186  1.00  0.00     0.049 A 
ATOM     55  H   UNL A   1      44.306  28.327  30.144  1.00  0.00     0.167 HD
ATOM     56  C   UNL A   1      42.733  30.568  30.877  1.00  0.00     0.074 A 
ATOM     57  C   UNL A   1      41.590  31.438  31.061  1.00  0.00     0.031 C 
ATOM     58  C   UNL A   1      43.969  30.816  31.371  1.00  0.00     0.037 A 
BRANCH  45  59
ATOM     59  C   UNL A   1      48.134  26.455  30.077  1.00  0.00     0.057 A 
ATOM     60  C   UNL A   1      49.077  26.761  29.091  1.00  0.00     0.134 A 
ATOM     61  C   UNL A   1      48.572  25.741  31.199  1.00  0.00     0.134 A 
ATOM     62  F   UNL A   1      48.712  27.432  27.987  1.00  0.00    -0.206 F 
ATOM     63  C   UNL A   1      50.411  26.369  29.214  1.00  0.00     0.040 A 
ATOM     64  C   UNL A   1      49.906  25.356  31.341  1.00  0.00     0.040 A 
ATOM     65  F   UNL A   1      47.715  25.419  32.179  1.00  0.00    -0.206 F 
ATOM     66  C   UNL A   1      50.829  25.670  30.345  1.00  0.00     0.006 A 
ENDBRANCH  45  59
BRANCH  46  67
ATOM     67  C   UNL A   1      38.618  29.229  29.056  1.00  0.00     0.057 A 
ATOM     68  C   UNL A   1      38.094  29.709  27.852  1.00  0.00     0.134 A 
ATOM     69  C   UNL A   1      37.751  29.136  30.152  1.00  0.00     0.134 A 
ATOM     70  F   UNL A   1      38.885  29.841  26.777  1.00  0.00    -0.206 F 
ATOM     71  C   UNL A   1      36.756  30.087  27.741  1.00  0.00     0.040 A 
ATOM     72  C   UNL A   1      36.407  29.492  30.050  1.00  0.00     0.040 A 
ATOM     73  F   UNL A   1      38.199  28.683  31.332  1.00  0.00    -0.206 F 
ATOM     74  C   UNL A   1      35.907  29.974  28.841  1.00  0.00     0.006 A 
ENDBRANCH  46  67
BRANCH  58  75
ATOM     75  C   UNL A   1      44.138  32.078  32.158  1.00  0.00     0.057 A 
ATOM     76  C   UNL A   1      43.974  32.097  33.548  1.00  0.00     0.134 A 
ATOM     77  C   UNL A   1      44.486  33.277  31.526  1.00  0.00     0.134 A 
ATOM     78  F   UNL A   1      43.625  30.980  34.206  1.00  0.00    -0.206 F 
ATOM     79  C   UNL A   1      44.136  33.271  34.283  1.00  0.00     0.040 A 
ATOM     80  C   UNL A   1      44.665  34.455  32.251  1.00  0.00     0.040 A 
ATOM     81  F   UNL A   1      44.658  33.320  30.196  1.00  0.00    -0.206 F 
ATOM     82  C   UNL A   1      44.487  34.454  33.635  1.00  0.00     0.006 A 
ENDBRANCH  58  75
ENDBRANCH  32  33
ENDBRANCH  25  27
ENDBRANCH  24  25
ENDBRANCH  23  24
ENDBRANCH   1  23
TORSDOF 15
ENDMDL
