MODEL 1
REMARK VINA RESULT:     -10.1      0.000      0.000
REMARK SMILES CC[C@](C)(Nc1cccc(Br)c1)C(=O)OCCOC(=O)c1ccc(-c2c3nc(c(-c4c(F)cccc4F)c4ccc([nH]4)c(-c4c(F)cccc4F)c4nc(c(-c5c(F)cccc5F)c5ccc2[nH]5)C=C4)C=C3)cc1
REMARK SMILES IDX 16 1 15 2 13 3 14 4 3 5 4 6 2 7 1 8 5 9 6 11 7 12 12 13 8 14
REMARK SMILES IDX 10 15 9 16 11 17 17 18 18 19 19 20 20 21 21 22 22 23 74 24
REMARK SMILES IDX 23 25 73 26 24 27 25 28 26 29 67 30 27 31 72 32 66 33 68 34
REMARK SMILES IDX 28 35 71 36 65 37 64 38 29 40 55 41 38 42 54 43 39 44 42 45
REMARK SMILES IDX 53 46 69 47 40 48 41 49 52 51 70 52 43 53 30 54 31 55 36 56
REMARK SMILES IDX 32 57 33 58 35 59 37 60 34 61 56 62 57 63 62 64 58 65 59 66
REMARK SMILES IDX 61 67 63 68 60 69 44 70 45 71 50 72 46 73 47 74 49 75 51 76
REMARK SMILES IDX 48 77
REMARK H PARENT 5 10 68 39 42 50
REMARK Flexibility Score: inf
ROOT
ATOM      1  C   UNL A   1      31.152  32.166  26.507  1.00  0.00     0.274 C 
ENDROOT
BRANCH   1   2
ATOM      2  O   UNL A   1      31.939  30.973  26.687  1.00  0.00    -0.460 OA
BRANCH   2   3
ATOM      3  C   UNL A   1      31.778  29.984  25.770  1.00  0.00     0.331 C 
ATOM      4  O   UNL A   1      30.978  30.058  24.839  1.00  0.00    -0.249 OA
BRANCH   3   5
ATOM      5  C   UNL A   1      32.605  28.697  26.065  1.00  0.00     0.132 C 
ATOM      6  C   UNL A   1      31.667  27.504  26.359  1.00  0.00     0.047 C 
BRANCH   5   7
ATOM      7  C   UNL A   1      33.469  29.012  27.323  1.00  0.00     0.037 C 
ATOM      8  C   UNL A   1      34.980  28.922  27.130  1.00  0.00     0.007 C 
ENDBRANCH   5   7
BRANCH   5   9
ATOM      9  N   UNL A   1      33.572  28.278  25.013  1.00  0.00    -0.370 N 
ATOM     10  H   UNL A   1      34.418  28.776  24.950  1.00  0.00     0.161 HD
BRANCH   9  11
ATOM     11  C   UNL A   1      33.371  27.243  24.117  1.00  0.00     0.036 A 
ATOM     12  C   UNL A   1      32.642  27.494  22.947  1.00  0.00     0.026 A 
ATOM     13  C   UNL A   1      33.990  25.999  24.254  1.00  0.00     0.041 A 
ATOM     14  C   UNL A   1      32.457  26.506  21.977  1.00  0.00     0.003 A 
ATOM     15  C   UNL A   1      33.821  25.014  23.276  1.00  0.00     0.020 A 
ATOM     16  C   UNL A   1      33.047  25.257  22.144  1.00  0.00     0.016 A 
ATOM     17  Br  UNL A   1      34.678  23.339  23.477  1.00  0.00    -0.051 Br
ENDBRANCH   9  11
ENDBRANCH   5   9
ENDBRANCH   3   5
ENDBRANCH   2   3
ENDBRANCH   1   2
BRANCH   1  18
ATOM     18  C   UNL A   1      32.014  33.418  26.668  1.00  0.00     0.275 C 
BRANCH  18  19
ATOM     19  O   UNL A   1      32.142  33.728  28.066  1.00  0.00    -0.458 OA
BRANCH  19  20
ATOM     20  C   UNL A   1      33.205  34.490  28.405  1.00  0.00     0.338 C 
ATOM     21  O   UNL A   1      33.254  35.707  28.443  1.00  0.00    -0.246 OA
BRANCH  20  22
ATOM     22  C   UNL A   1      34.364  33.623  28.712  1.00  0.00     0.060 A 
ATOM     23  C   UNL A   1      34.185  32.286  29.068  1.00  0.00     0.016 A 
ATOM     24  C   UNL A   1      35.641  34.183  28.745  1.00  0.00     0.016 A 
ATOM     25  C   UNL A   1      35.257  31.533  29.545  1.00  0.00     0.010 A 
ATOM     26  C   UNL A   1      36.730  33.404  29.150  1.00  0.00     0.010 A 
ATOM     27  C   UNL A   1      36.542  32.086  29.604  1.00  0.00    -0.014 A 
BRANCH  27  28
ATOM     28  C   UNL A   1      37.659  31.338  30.245  1.00  0.00     0.031 A 
ATOM     29  C   UNL A   1      37.909  31.502  31.723  1.00  0.00     0.074 A 
ATOM     30  C   UNL A   1      38.425  30.484  29.540  1.00  0.00     0.049 A 
ATOM     31  N   UNL A   1      38.918  31.086  32.446  1.00  0.00    -0.248 NA
ATOM     32  C   UNL A   1      36.895  32.251  32.485  1.00  0.00     0.031 C 
ATOM     33  C   UNL A   1      38.270  30.177  28.118  1.00  0.00     0.029 A 
ATOM     34  N   UNL A   1      39.479  29.697  29.935  1.00  0.00    -0.354 N 
ATOM     35  C   UNL A   1      38.702  31.591  33.723  1.00  0.00     0.074 A 
ATOM     36  C   UNL A   1      37.457  32.329  33.682  1.00  0.00     0.031 C 
ATOM     37  C   UNL A   1      39.158  29.231  27.773  1.00  0.00     0.029 A 
ATOM     38  C   UNL A   1      39.993  28.916  28.928  1.00  0.00     0.049 A 
ATOM     39  H   UNL A   1      39.834  29.694  30.853  1.00  0.00     0.167 HD
ATOM     40  C   UNL A   1      39.475  31.460  34.827  1.00  0.00     0.037 A 
ATOM     41  C   UNL A   1      41.032  28.060  28.930  1.00  0.00     0.037 A 
ATOM     42  C   UNL A   1      40.666  30.657  34.892  1.00  0.00     0.049 A 
ATOM     43  C   UNL A   1      41.846  27.886  30.181  1.00  0.00     0.074 A 
ATOM     44  C   UNL A   1      41.525  30.468  35.962  1.00  0.00     0.029 A 
ATOM     45  N   UNL A   1      41.145  29.878  33.851  1.00  0.00    -0.354 N 
ATOM     46  N   UNL A   1      41.689  28.452  31.353  1.00  0.00    -0.248 NA
ATOM     47  C   UNL A   1      42.996  26.974  30.102  1.00  0.00     0.031 C 
ATOM     48  C   UNL A   1      42.528  29.576  35.564  1.00  0.00     0.029 A 
ATOM     49  C   UNL A   1      42.279  29.194  34.257  1.00  0.00     0.049 A 
ATOM     50  H   UNL A   1      40.739  29.819  32.957  1.00  0.00     0.167 HD
ATOM     51  C   UNL A   1      42.717  27.965  32.149  1.00  0.00     0.074 A 
ATOM     52  C   UNL A   1      43.477  27.039  31.336  1.00  0.00     0.031 C 
ATOM     53  C   UNL A   1      43.013  28.270  33.435  1.00  0.00     0.037 A 
BRANCH  40  54
ATOM     54  C   UNL A   1      39.072  32.237  36.043  1.00  0.00     0.057 A 
ATOM     55  C   UNL A   1      38.237  31.702  37.029  1.00  0.00     0.134 A 
ATOM     56  C   UNL A   1      39.548  33.542  36.233  1.00  0.00     0.134 A 
ATOM     57  F   UNL A   1      37.733  30.465  36.896  1.00  0.00    -0.206 F 
ATOM     58  C   UNL A   1      37.871  32.444  38.154  1.00  0.00     0.040 A 
ATOM     59  C   UNL A   1      39.205  34.286  37.362  1.00  0.00     0.040 A 
ATOM     60  F   UNL A   1      40.354  34.111  35.325  1.00  0.00    -0.206 F 
ATOM     61  C   UNL A   1      38.360  33.739  38.325  1.00  0.00     0.006 A 
ENDBRANCH  40  54
BRANCH  41  62
ATOM     62  C   UNL A   1      41.371  27.306  27.698  1.00  0.00     0.057 A 
ATOM     63  C   UNL A   1      40.873  26.016  27.485  1.00  0.00     0.134 A 
ATOM     64  C   UNL A   1      42.192  27.855  26.707  1.00  0.00     0.134 A 
ATOM     65  F   UNL A   1      40.102  25.429  28.412  1.00  0.00    -0.206 F 
ATOM     66  C   UNL A   1      41.182  25.296  26.330  1.00  0.00     0.040 A 
ATOM     67  C   UNL A   1      42.491  27.155  25.537  1.00  0.00     0.040 A 
ATOM     68  F   UNL A   1      42.700  29.087  26.854  1.00  0.00    -0.206 F 
ATOM     69  C   UNL A   1      41.988  25.869  25.349  1.00  0.00     0.006 A 
ENDBRANCH  41  62
BRANCH  53  70
ATOM     70  C   UNL A   1      44.194  27.577  34.041  1.00  0.00     0.057 A 
ATOM     71  C   UNL A   1      44.069  26.330  34.665  1.00  0.00     0.134 A 
ATOM     72  C   UNL A   1      45.468  28.152  33.981  1.00  0.00     0.134 A 
ATOM     73  F   UNL A   1      42.871  25.736  34.763  1.00  0.00    -0.206 F 
ATOM     74  C   UNL A   1      45.173  25.686  35.227  1.00  0.00     0.040 A 
ATOM     75  C   UNL A   1      46.581  27.511  34.526  1.00  0.00     0.040 A 
ATOM     76  F   UNL A   1      45.651  29.345  33.393  1.00  0.00    -0.206 F 
ATOM     77  C   UNL A   1      46.434  26.276  35.155  1.00  0.00     0.006 A 
ENDBRANCH  53  70
ENDBRANCH  27  28
ENDBRANCH  20  22
ENDBRANCH  19  20
ENDBRANCH  18  19
ENDBRANCH   1  18
TORSDOF 14
ENDMDL
MODEL 2
REMARK VINA RESULT:      -9.9      1.991      2.764
REMARK SMILES CC[C@](C)(Nc1cccc(Br)c1)C(=O)OCCOC(=O)c1ccc(-c2c3nc(c(-c4c(F)cccc4F)c4ccc([nH]4)c(-c4c(F)cccc4F)c4nc(c(-c5c(F)cccc5F)c5ccc2[nH]5)C=C4)C=C3)cc1
REMARK SMILES IDX 16 1 15 2 13 3 14 4 3 5 4 6 2 7 1 8 5 9 6 11 7 12 12 13 8 14
REMARK SMILES IDX 10 15 9 16 11 17 17 18 18 19 19 20 20 21 21 22 22 23 74 24
REMARK SMILES IDX 23 25 73 26 24 27 25 28 26 29 67 30 27 31 72 32 66 33 68 34
REMARK SMILES IDX 28 35 71 36 65 37 64 38 29 40 55 41 38 42 54 43 39 44 42 45
REMARK SMILES IDX 53 46 69 47 40 48 41 49 52 51 70 52 43 53 30 54 31 55 36 56
REMARK SMILES IDX 32 57 33 58 35 59 37 60 34 61 56 62 57 63 62 64 58 65 59 66
REMARK SMILES IDX 61 67 63 68 60 69 44 70 45 71 50 72 46 73 47 74 49 75 51 76
REMARK SMILES IDX 48 77
REMARK H PARENT 5 10 68 39 42 50
REMARK Flexibility Score: inf
ROOT
ATOM      1  C   UNL A   1      31.035  31.048  25.640  1.00  0.00     0.274 C 
ENDROOT
BRANCH   1   2
ATOM      2  O   UNL A   1      32.099  30.118  25.359  1.00  0.00    -0.460 OA
BRANCH   2   3
ATOM      3  C   UNL A   1      31.752  28.815  25.196  1.00  0.00     0.331 C 
ATOM      4  O   UNL A   1      31.131  28.177  26.044  1.00  0.00    -0.249 OA
BRANCH   3   5
ATOM      5  C   UNL A   1      32.311  28.161  23.897  1.00  0.00     0.132 C 
ATOM      6  C   UNL A   1      32.369  26.623  24.045  1.00  0.00     0.047 C 
BRANCH   5   7
ATOM      7  C   UNL A   1      33.749  28.728  23.707  1.00  0.00     0.037 C 
ATOM      8  C   UNL A   1      34.381  28.491  22.338  1.00  0.00     0.007 C 
ENDBRANCH   5   7
BRANCH   5   9
ATOM      9  N   UNL A   1      31.587  28.479  22.634  1.00  0.00    -0.370 N 
ATOM     10  H   UNL A   1      32.083  28.380  21.790  1.00  0.00     0.161 HD
BRANCH   9  11
ATOM     11  C   UNL A   1      30.272  28.903  22.558  1.00  0.00     0.036 A 
ATOM     12  C   UNL A   1      29.271  28.100  23.122  1.00  0.00     0.026 A 
ATOM     13  C   UNL A   1      29.916  30.164  22.080  1.00  0.00     0.041 A 
ATOM     14  C   UNL A   1      27.934  28.503  23.130  1.00  0.00     0.003 A 
ATOM     15  C   UNL A   1      28.580  30.577  22.103  1.00  0.00     0.020 A 
ATOM     16  C   UNL A   1      27.585  29.747  22.614  1.00  0.00     0.016 A 
ATOM     17  Br  UNL A   1      28.119  32.296  21.459  1.00  0.00    -0.051 Br
ENDBRANCH   9  11
ENDBRANCH   5   9
ENDBRANCH   3   5
ENDBRANCH   2   3
ENDBRANCH   1   2
BRANCH   1  18
ATOM     18  C   UNL A   1      31.357  31.887  26.877  1.00  0.00     0.275 C 
BRANCH  18  19
ATOM     19  O   UNL A   1      32.448  32.773  26.577  1.00  0.00    -0.458 OA
BRANCH  19  20
ATOM     20  C   UNL A   1      33.008  33.397  27.636  1.00  0.00     0.338 C 
ATOM     21  O   UNL A   1      32.590  34.386  28.212  1.00  0.00    -0.246 OA
BRANCH  20  22
ATOM     22  C   UNL A   1      34.265  32.712  28.011  1.00  0.00     0.060 A 
ATOM     23  C   UNL A   1      34.318  31.322  28.126  1.00  0.00     0.016 A 
ATOM     24  C   UNL A   1      35.380  33.477  28.355  1.00  0.00     0.016 A 
ATOM     25  C   UNL A   1      35.443  30.701  28.667  1.00  0.00     0.010 A 
ATOM     26  C   UNL A   1      36.537  32.848  28.825  1.00  0.00     0.010 A 
ATOM     27  C   UNL A   1      36.563  31.458  29.035  1.00  0.00    -0.014 A 
BRANCH  27  28
ATOM     28  C   UNL A   1      37.706  30.819  29.745  1.00  0.00     0.031 A 
ATOM     29  C   UNL A   1      37.884  31.054  31.224  1.00  0.00     0.074 A 
ATOM     30  C   UNL A   1      38.561  30.002  29.102  1.00  0.00     0.049 A 
ATOM     31  N   UNL A   1      38.892  30.742  31.999  1.00  0.00    -0.248 NA
ATOM     32  C   UNL A   1      36.788  31.750  31.920  1.00  0.00     0.031 C 
ATOM     33  C   UNL A   1      38.486  29.635  27.688  1.00  0.00     0.029 A 
ATOM     34  N   UNL A   1      39.655  29.312  29.566  1.00  0.00    -0.354 N 
ATOM     35  C   UNL A   1      38.588  31.273  33.247  1.00  0.00     0.074 A 
ATOM     36  C   UNL A   1      37.295  31.912  33.133  1.00  0.00     0.031 C 
ATOM     37  C   UNL A   1      39.455  28.747  27.412  1.00  0.00     0.029 A 
ATOM     38  C   UNL A   1      40.265  28.537  28.609  1.00  0.00     0.049 A 
ATOM     39  H   UNL A   1      39.972  29.368  30.495  1.00  0.00     0.167 HD
ATOM     40  C   UNL A   1      39.325  31.240  34.383  1.00  0.00     0.037 A 
ATOM     41  C   UNL A   1      41.364  27.763  28.681  1.00  0.00     0.037 A 
ATOM     42  C   UNL A   1      40.569  30.533  34.523  1.00  0.00     0.049 A 
ATOM     43  C   UNL A   1      42.138  27.696  29.967  1.00  0.00     0.074 A 
ATOM     44  C   UNL A   1      41.397  30.447  35.630  1.00  0.00     0.029 A 
ATOM     45  N   UNL A   1      41.146  29.756  33.531  1.00  0.00    -0.354 N 
ATOM     46  N   UNL A   1      41.893  28.288  31.110  1.00  0.00    -0.248 NA
ATOM     47  C   UNL A   1      43.355  26.872  29.965  1.00  0.00     0.031 C 
ATOM     48  C   UNL A   1      42.479  29.621  35.304  1.00  0.00     0.029 A 
ATOM     49  C   UNL A   1      42.310  29.175  34.003  1.00  0.00     0.049 A 
ATOM     50  H   UNL A   1      40.781  29.635  32.625  1.00  0.00     0.167 HD
ATOM     51  C   UNL A   1      42.922  27.910  31.962  1.00  0.00     0.074 A 
ATOM     52  C   UNL A   1      43.780  27.015  31.213  1.00  0.00     0.031 C 
ATOM     53  C   UNL A   1      43.143  28.281  33.245  1.00  0.00     0.037 A 
BRANCH  40  54
ATOM     54  C   UNL A   1      38.817  32.027  35.553  1.00  0.00     0.057 A 
ATOM     55  C   UNL A   1      38.120  31.430  36.609  1.00  0.00     0.134 A 
ATOM     56  C   UNL A   1      39.050  33.407  35.627  1.00  0.00     0.134 A 
ATOM     57  F   UNL A   1      37.848  30.116  36.588  1.00  0.00    -0.206 F 
ATOM     58  C   UNL A   1      37.652  32.182  37.689  1.00  0.00     0.040 A 
ATOM     59  C   UNL A   1      38.606  34.165  36.710  1.00  0.00     0.040 A 
ATOM     60  F   UNL A   1      39.715  34.038  34.647  1.00  0.00    -0.206 F 
ATOM     61  C   UNL A   1      37.900  33.553  37.743  1.00  0.00     0.006 A 
ENDBRANCH  40  54
BRANCH  41  62
ATOM     62  C   UNL A   1      41.806  26.994  27.492  1.00  0.00     0.057 A 
ATOM     63  C   UNL A   1      42.594  27.592  26.502  1.00  0.00     0.134 A 
ATOM     64  C   UNL A   1      41.459  25.649  27.319  1.00  0.00     0.134 A 
ATOM     65  F   UNL A   1      42.936  28.885  26.602  1.00  0.00    -0.206 F 
ATOM     66  C   UNL A   1      43.019  26.881  25.379  1.00  0.00     0.040 A 
ATOM     67  C   UNL A   1      41.896  24.920  26.212  1.00  0.00     0.040 A 
ATOM     68  F   UNL A   1      40.705  25.022  28.233  1.00  0.00    -0.206 F 
ATOM     69  C   UNL A   1      42.675  25.539  25.236  1.00  0.00     0.006 A 
ENDBRANCH  41  62
BRANCH  53  70
ATOM     70  C   UNL A   1      44.348  27.702  33.920  1.00  0.00     0.057 A 
ATOM     71  C   UNL A   1      45.584  28.360  33.901  1.00  0.00     0.134 A 
ATOM     72  C   UNL A   1      44.266  26.488  34.611  1.00  0.00     0.134 A 
ATOM     73  F   UNL A   1      45.726  29.520  33.245  1.00  0.00    -0.206 F 
ATOM     74  C   UNL A   1      46.704  27.818  34.533  1.00  0.00     0.040 A 
ATOM     75  C   UNL A   1      45.376  25.944  35.258  1.00  0.00     0.040 A 
ATOM     76  F   UNL A   1      43.107  25.813  34.666  1.00  0.00    -0.206 F 
ATOM     77  C   UNL A   1      46.600  26.608  35.217  1.00  0.00     0.006 A 
ENDBRANCH  53  70
ENDBRANCH  27  28
ENDBRANCH  20  22
ENDBRANCH  19  20
ENDBRANCH  18  19
ENDBRANCH   1  18
TORSDOF 14
ENDMDL
MODEL 3
REMARK VINA RESULT:      -9.8      5.321      9.815
REMARK SMILES CC[C@](C)(Nc1cccc(Br)c1)C(=O)OCCOC(=O)c1ccc(-c2c3nc(c(-c4c(F)cccc4F)c4ccc([nH]4)c(-c4c(F)cccc4F)c4nc(c(-c5c(F)cccc5F)c5ccc2[nH]5)C=C4)C=C3)cc1
REMARK SMILES IDX 16 1 15 2 13 3 14 4 3 5 4 6 2 7 1 8 5 9 6 11 7 12 12 13 8 14
REMARK SMILES IDX 10 15 9 16 11 17 17 18 18 19 19 20 20 21 21 22 22 23 74 24
REMARK SMILES IDX 23 25 73 26 24 27 25 28 26 29 67 30 27 31 72 32 66 33 68 34
REMARK SMILES IDX 28 35 71 36 65 37 64 38 29 40 55 41 38 42 54 43 39 44 42 45
REMARK SMILES IDX 53 46 69 47 40 48 41 49 52 51 70 52 43 53 30 54 31 55 36 56
REMARK SMILES IDX 32 57 33 58 35 59 37 60 34 61 56 62 57 63 62 64 58 65 59 66
REMARK SMILES IDX 61 67 63 68 60 69 44 70 45 71 50 72 46 73 47 74 49 75 51 76
REMARK SMILES IDX 48 77
REMARK H PARENT 5 10 68 39 42 50
REMARK Flexibility Score: inf
ROOT
ATOM      1  C   UNL A   1      36.041  19.985  25.001  1.00  0.00     0.274 C 
ENDROOT
BRANCH   1   2
ATOM      2  O   UNL A   1      35.592  21.307  25.358  1.00  0.00    -0.460 OA
BRANCH   2   3
ATOM      3  C   UNL A   1      34.479  21.770  24.733  1.00  0.00     0.331 C 
ATOM      4  O   UNL A   1      34.494  22.236  23.595  1.00  0.00    -0.249 OA
BRANCH   3   5
ATOM      5  C   UNL A   1      33.200  21.773  25.624  1.00  0.00     0.132 C 
ATOM      6  C   UNL A   1      32.540  23.171  25.620  1.00  0.00     0.047 C 
BRANCH   5   7
ATOM      7  C   UNL A   1      33.671  21.416  27.065  1.00  0.00     0.037 C 
ATOM      8  C   UNL A   1      33.723  22.577  28.054  1.00  0.00     0.007 C 
ENDBRANCH   5   7
BRANCH   5   9
ATOM      9  N   UNL A   1      32.157  20.766  25.284  1.00  0.00    -0.370 N 
ATOM     10  H   UNL A   1      31.232  20.960  25.559  1.00  0.00     0.161 HD
BRANCH   9  11
ATOM     11  C   UNL A   1      32.389  19.579  24.611  1.00  0.00     0.036 A 
ATOM     12  C   UNL A   1      32.249  19.555  23.217  1.00  0.00     0.026 A 
ATOM     13  C   UNL A   1      32.902  18.445  25.243  1.00  0.00     0.041 A 
ATOM     14  C   UNL A   1      32.528  18.404  22.477  1.00  0.00     0.003 A 
ATOM     15  C   UNL A   1      33.198  17.297  24.502  1.00  0.00     0.020 A 
ATOM     16  C   UNL A   1      33.002  17.267  23.123  1.00  0.00     0.016 A 
ATOM     17  Br  UNL A   1      33.904  15.774  25.376  1.00  0.00    -0.051 Br
ENDBRANCH   9  11
ENDBRANCH   5   9
ENDBRANCH   3   5
ENDBRANCH   2   3
ENDBRANCH   1   2
BRANCH   1  18
ATOM     18  C   UNL A   1      37.551  19.968  24.761  1.00  0.00     0.275 C 
BRANCH  18  19
ATOM     19  O   UNL A   1      38.125  21.181  25.274  1.00  0.00    -0.458 OA
BRANCH  19  20
ATOM     20  C   UNL A   1      39.240  21.034  26.023  1.00  0.00     0.338 C 
ATOM     21  O   UNL A   1      39.844  20.000  26.245  1.00  0.00    -0.246 OA
BRANCH  20  22
ATOM     22  C   UNL A   1      39.638  22.343  26.589  1.00  0.00     0.060 A 
ATOM     23  C   UNL A   1      38.994  23.518  26.201  1.00  0.00     0.016 A 
ATOM     24  C   UNL A   1      40.740  22.407  27.441  1.00  0.00     0.016 A 
ATOM     25  C   UNL A   1      39.500  24.759  26.584  1.00  0.00     0.010 A 
ATOM     26  C   UNL A   1      41.201  23.649  27.889  1.00  0.00     0.010 A 
ATOM     27  C   UNL A   1      40.618  24.841  27.423  1.00  0.00    -0.014 A 
BRANCH  27  28
ATOM     28  C   UNL A   1      41.247  26.159  27.717  1.00  0.00     0.031 A 
ATOM     29  C   UNL A   1      42.616  26.466  27.163  1.00  0.00     0.074 A 
ATOM     30  C   UNL A   1      40.602  27.099  28.433  1.00  0.00     0.049 A 
ATOM     31  N   UNL A   1      43.414  27.469  27.431  1.00  0.00    -0.248 NA
ATOM     32  C   UNL A   1      43.165  25.508  26.190  1.00  0.00     0.031 C 
ATOM     33  C   UNL A   1      39.254  26.970  28.987  1.00  0.00     0.029 A 
ATOM     34  N   UNL A   1      40.991  28.364  28.800  1.00  0.00    -0.354 N 
ATOM     35  C   UNL A   1      44.586  27.217  26.727  1.00  0.00     0.074 A 
ATOM     36  C   UNL A   1      44.389  25.979  26.004  1.00  0.00     0.031 C 
ATOM     37  C   UNL A   1      38.908  28.126  29.576  1.00  0.00     0.029 A 
ATOM     38  C   UNL A   1      40.034  29.053  29.505  1.00  0.00     0.049 A 
ATOM     39  H   UNL A   1      41.872  28.742  28.579  1.00  0.00     0.167 HD
ATOM     40  C   UNL A   1      45.726  27.948  26.693  1.00  0.00     0.037 A 
ATOM     41  C   UNL A   1      40.066  30.284  30.051  1.00  0.00     0.037 A 
ATOM     42  C   UNL A   1      45.893  29.221  27.340  1.00  0.00     0.049 A 
ATOM     43  C   UNL A   1      41.323  31.102  29.955  1.00  0.00     0.074 A 
ATOM     44  C   UNL A   1      47.014  30.034  27.374  1.00  0.00     0.029 A 
ATOM     45  N   UNL A   1      44.896  29.884  28.037  1.00  0.00    -0.354 N 
ATOM     46  N   UNL A   1      42.459  30.805  29.373  1.00  0.00    -0.248 NA
ATOM     47  C   UNL A   1      41.310  32.416  30.615  1.00  0.00     0.031 C 
ATOM     48  C   UNL A   1      46.694  31.189  28.096  1.00  0.00     0.029 A 
ATOM     49  C   UNL A   1      45.369  31.103  28.491  1.00  0.00     0.049 A 
ATOM     50  H   UNL A   1      43.986  29.540  28.185  1.00  0.00     0.167 HD
ATOM     51  C   UNL A   1      43.294  31.892  29.594  1.00  0.00     0.074 A 
ATOM     52  C   UNL A   1      42.527  32.867  30.342  1.00  0.00     0.031 C 
ATOM     53  C   UNL A   1      44.586  32.061  29.224  1.00  0.00     0.037 A 
BRANCH  40  54
ATOM     54  C   UNL A   1      46.894  27.361  25.960  1.00  0.00     0.057 A 
ATOM     55  C   UNL A   1      47.894  26.631  26.609  1.00  0.00     0.134 A 
ATOM     56  C   UNL A   1      47.004  27.520  24.572  1.00  0.00     0.134 A 
ATOM     57  F   UNL A   1      47.857  26.459  27.939  1.00  0.00    -0.206 F 
ATOM     58  C   UNL A   1      48.976  26.094  25.907  1.00  0.00     0.040 A 
ATOM     59  C   UNL A   1      48.069  26.973  23.856  1.00  0.00     0.040 A 
ATOM     60  F   UNL A   1      46.076  28.208  23.890  1.00  0.00    -0.206 F 
ATOM     61  C   UNL A   1      49.062  26.261  24.525  1.00  0.00     0.006 A 
ENDBRANCH  40  54
BRANCH  41  62
ATOM     62  C   UNL A   1      38.871  30.815  30.749  1.00  0.00     0.057 A 
ATOM     63  C   UNL A   1      37.915  31.571  30.063  1.00  0.00     0.134 A 
ATOM     64  C   UNL A   1      38.653  30.577  32.111  1.00  0.00     0.134 A 
ATOM     65  F   UNL A   1      38.083  31.853  28.763  1.00  0.00    -0.206 F 
ATOM     66  C   UNL A   1      36.784  32.076  30.707  1.00  0.00     0.040 A 
ATOM     67  C   UNL A   1      37.516  31.057  32.762  1.00  0.00     0.040 A 
ATOM     68  F   UNL A   1      39.534  29.860  32.822  1.00  0.00    -0.206 F 
ATOM     69  C   UNL A   1      36.579  31.813  32.059  1.00  0.00     0.006 A 
ENDBRANCH  41  62
BRANCH  53  70
ATOM     70  C   UNL A   1      45.236  33.356  29.604  1.00  0.00     0.057 A 
ATOM     71  C   UNL A   1      45.176  34.477  28.768  1.00  0.00     0.134 A 
ATOM     72  C   UNL A   1      45.908  33.486  30.825  1.00  0.00     0.134 A 
ATOM     73  F   UNL A   1      44.556  34.408  27.582  1.00  0.00    -0.206 F 
ATOM     74  C   UNL A   1      45.781  35.683  29.127  1.00  0.00     0.040 A 
ATOM     75  C   UNL A   1      46.504  34.691  31.200  1.00  0.00     0.040 A 
ATOM     76  F   UNL A   1      45.996  32.447  31.669  1.00  0.00    -0.206 F 
ATOM     77  C   UNL A   1      46.445  35.792  30.349  1.00  0.00     0.006 A 
ENDBRANCH  53  70
ENDBRANCH  27  28
ENDBRANCH  20  22
ENDBRANCH  19  20
ENDBRANCH  18  19
ENDBRANCH   1  18
TORSDOF 14
ENDMDL
