MODEL 1
REMARK VINA RESULT:      -9.8      0.000      0.000
REMARK SMILES COc1cc([C@@H]2[NH2+][C@H](C(=O)OCCOC(=O)c3ccc(-c4c5nc(c(-c6c(F)cccc6F)c6ccc([nH]6)c(-c6c(F)cccc6F)c6nc(c(-c7c(F)cccc7F)c7ccc4[nH]7)C=C6)C=C5)cc3)CS2)ccc1OCc1ccc(Cl)cc1
REMARK SMILES IDX 12 1 11 2 9 3 10 4 8 5 6 6 7 7 72 8 71 11 5 12 3 13 4 14
REMARK SMILES IDX 75 15 74 16 73 17 2 18 1 19 76 20 77 21 78 22 79 23 84 24
REMARK SMILES IDX 80 25 83 26 81 27 82 28 13 29 14 30 15 31 16 32 17 33 18 34
REMARK SMILES IDX 70 35 19 36 69 37 20 38 21 39 22 40 63 41 23 42 68 43 62 44
REMARK SMILES IDX 64 45 24 46 67 47 61 48 60 49 25 51 51 52 34 53 50 54 35 55
REMARK SMILES IDX 38 56 49 57 65 58 36 59 37 60 48 62 66 63 39 64 26 65 27 66
REMARK SMILES IDX 32 67 28 68 29 69 31 70 33 71 30 72 52 73 53 74 58 75 54 76
REMARK SMILES IDX 55 77 57 78 59 79 56 80 40 81 41 82 46 83 42 84 43 85 45 86
REMARK SMILES IDX 47 87 44 88
REMARK H PARENT 7 9 7 10 64 50 38 61
REMARK Flexibility Score: inf
ROOT
ATOM      1  C   UNL A   1      34.472  32.751  29.727  1.00  0.00     0.274 C 
ENDROOT
BRANCH   1   2
ATOM      2  O   UNL A   1      33.443  33.665  29.307  1.00  0.00    -0.458 OA
BRANCH   2   3
ATOM      3  C   UNL A   1      33.724  34.986  29.255  1.00  0.00     0.365 C 
ATOM      4  O   UNL A   1      34.584  35.487  28.537  1.00  0.00    -0.245 OA
BRANCH   3   5
ATOM      5  C   UNL A   1      32.870  35.834  30.207  1.00  0.00     0.304 C 
ATOM      6  C   UNL A   1      33.272  35.506  32.565  1.00  0.00     0.274 C 
ATOM      7  N   UNL A   1      32.413  35.124  31.439  1.00  0.00    -0.319 N 
ATOM      8  S   UNL A   1      33.579  37.273  32.339  1.00  0.00    -0.087 SA
ATOM      9  H   UNL A   1      31.448  35.383  31.642  1.00  0.00     0.348 HD
ATOM     10  H   UNL A   1      32.469  34.117  31.291  1.00  0.00     0.348 HD
ATOM     11  C   UNL A   1      33.581  37.145  30.534  1.00  0.00     0.153 C 
BRANCH   6  12
ATOM     12  C   UNL A   1      34.491  34.605  32.701  1.00  0.00     0.024 A 
ATOM     13  C   UNL A   1      36.936  34.378  32.556  1.00  0.00     0.161 A 
ATOM     14  C   UNL A   1      35.761  35.116  32.343  1.00  0.00     0.061 A 
ATOM     15  C   UNL A   1      36.855  33.124  33.168  1.00  0.00     0.161 A 
ATOM     16  C   UNL A   1      35.609  32.603  33.515  1.00  0.00     0.051 A 
ATOM     17  C   UNL A   1      34.441  33.321  33.264  1.00  0.00     0.015 A 
BRANCH  13  18
ATOM     18  O   UNL A   1      38.160  34.947  32.310  1.00  0.00    -0.493 OA
ATOM     19  C   UNL A   1      38.679  34.614  31.021  1.00  0.00     0.278 C 
ENDBRANCH  13  18
BRANCH  15  20
ATOM     20  O   UNL A   1      37.911  32.343  33.546  1.00  0.00    -0.485 OA
BRANCH  20  21
ATOM     21  C   UNL A   1      37.727  30.932  33.433  1.00  0.00     0.265 C 
BRANCH  21  22
ATOM     22  C   UNL A   1      39.008  30.114  33.420  1.00  0.00    -0.011 A 
ATOM     23  C   UNL A   1      40.191  30.646  33.954  1.00  0.00     0.009 A 
ATOM     24  C   UNL A   1      39.054  28.838  32.837  1.00  0.00     0.009 A 
ATOM     25  C   UNL A   1      41.391  29.934  33.869  1.00  0.00     0.021 A 
ATOM     26  C   UNL A   1      40.250  28.123  32.757  1.00  0.00     0.021 A 
ATOM     27  C   UNL A   1      41.417  28.681  33.263  1.00  0.00     0.041 A 
ATOM     28  Cl  UNL A   1      42.901  27.822  33.125  1.00  0.00    -0.084 Cl
ENDBRANCH  21  22
ENDBRANCH  20  21
ENDBRANCH  15  20
ENDBRANCH   6  12
ENDBRANCH   3   5
ENDBRANCH   2   3
ENDBRANCH   1   2
BRANCH   1  29
ATOM     29  C   UNL A   1      35.344  32.397  28.524  1.00  0.00     0.275 C 
BRANCH  29  30
ATOM     30  O   UNL A   1      34.587  31.576  27.615  1.00  0.00    -0.458 OA
BRANCH  30  31
ATOM     31  C   UNL A   1      34.690  30.242  27.820  1.00  0.00     0.338 C 
ATOM     32  O   UNL A   1      33.853  29.378  27.637  1.00  0.00    -0.246 OA
BRANCH  31  33
ATOM     33  C   UNL A   1      36.083  29.949  28.185  1.00  0.00     0.060 A 
ATOM     34  C   UNL A   1      37.067  30.087  27.201  1.00  0.00     0.016 A 
ATOM     35  C   UNL A   1      36.408  29.506  29.466  1.00  0.00     0.016 A 
ATOM     36  C   UNL A   1      38.392  29.778  27.495  1.00  0.00     0.010 A 
ATOM     37  C   UNL A   1      37.734  29.185  29.759  1.00  0.00     0.010 A 
ATOM     38  C   UNL A   1      38.728  29.308  28.770  1.00  0.00    -0.014 A 
BRANCH  38  39
ATOM     39  C   UNL A   1      40.107  28.854  29.055  1.00  0.00     0.031 A 
ATOM     40  C   UNL A   1      41.068  29.801  29.708  1.00  0.00     0.074 A 
ATOM     41  C   UNL A   1      40.492  27.612  28.717  1.00  0.00     0.049 A 
ATOM     42  N   UNL A   1      42.345  29.653  29.946  1.00  0.00    -0.248 NA
ATOM     43  C   UNL A   1      40.516  31.092  30.147  1.00  0.00     0.031 C 
ATOM     44  C   UNL A   1      39.631  26.598  28.110  1.00  0.00     0.029 A 
ATOM     45  N   UNL A   1      41.714  27.000  28.825  1.00  0.00    -0.354 N 
ATOM     46  C   UNL A   1      42.756  30.839  30.540  1.00  0.00     0.074 A 
ATOM     47  C   UNL A   1      41.594  31.700  30.615  1.00  0.00     0.031 C 
ATOM     48  C   UNL A   1      40.357  25.491  27.883  1.00  0.00     0.029 A 
ATOM     49  C   UNL A   1      41.739  25.735  28.293  1.00  0.00     0.049 A 
ATOM     50  H   UNL A   1      42.497  27.427  29.242  1.00  0.00     0.167 HD
ATOM     51  C   UNL A   1      43.991  31.176  30.980  1.00  0.00     0.037 A 
ATOM     52  C   UNL A   1      42.769  24.885  28.127  1.00  0.00     0.037 A 
ATOM     53  C   UNL A   1      45.137  30.309  30.906  1.00  0.00     0.049 A 
ATOM     54  C   UNL A   1      44.141  25.296  28.584  1.00  0.00     0.074 A 
ATOM     55  C   UNL A   1      46.429  30.545  31.342  1.00  0.00     0.029 A 
ATOM     56  N   UNL A   1      45.126  29.037  30.352  1.00  0.00    -0.354 N 
ATOM     57  N   UNL A   1      44.521  26.416  29.149  1.00  0.00    -0.248 NA
ATOM     58  C   UNL A   1      45.226  24.328  28.376  1.00  0.00     0.031 C 
ATOM     59  C   UNL A   1      47.209  29.429  31.017  1.00  0.00     0.029 A 
ATOM     60  C   UNL A   1      46.393  28.482  30.418  1.00  0.00     0.049 A 
ATOM     61  H   UNL A   1      44.335  28.594  29.971  1.00  0.00     0.167 HD
ATOM     62  C   UNL A   1      45.883  26.284  29.380  1.00  0.00     0.074 A 
ATOM     63  C   UNL A   1      46.261  24.967  28.904  1.00  0.00     0.031 C 
ATOM     64  C   UNL A   1      46.745  27.170  29.936  1.00  0.00     0.037 A 
BRANCH  51  65
ATOM     65  C   UNL A   1      44.164  32.557  31.540  1.00  0.00     0.057 A 
ATOM     66  C   UNL A   1      44.109  32.812  32.916  1.00  0.00     0.134 A 
ATOM     67  C   UNL A   1      44.386  33.646  30.688  1.00  0.00     0.134 A 
ATOM     68  F   UNL A   1      43.881  31.815  33.784  1.00  0.00    -0.206 F 
ATOM     69  C   UNL A   1      44.240  34.106  33.423  1.00  0.00     0.040 A 
ATOM     70  C   UNL A   1      44.542  34.940  31.184  1.00  0.00     0.040 A 
ATOM     71  F   UNL A   1      44.451  33.470  29.359  1.00  0.00    -0.206 F 
ATOM     72  C   UNL A   1      44.461  35.175  32.556  1.00  0.00     0.006 A 
ENDBRANCH  51  65
BRANCH  52  73
ATOM     73  C   UNL A   1      42.537  23.570  27.481  1.00  0.00     0.057 A 
ATOM     74  C   UNL A   1      42.605  23.423  26.092  1.00  0.00     0.134 A 
ATOM     75  C   UNL A   1      42.266  22.424  28.241  1.00  0.00     0.134 A 
ATOM     76  F   UNL A   1      42.840  24.489  25.312  1.00  0.00    -0.206 F 
ATOM     77  C   UNL A   1      42.408  22.185  25.478  1.00  0.00     0.040 A 
ATOM     78  C   UNL A   1      42.089  21.176  27.642  1.00  0.00     0.040 A 
ATOM     79  F   UNL A   1      42.191  22.501  29.577  1.00  0.00    -0.206 F 
ATOM     80  C   UNL A   1      42.157  21.055  26.255  1.00  0.00     0.006 A 
ENDBRANCH  52  73
BRANCH  64  81
ATOM     81  C   UNL A   1      48.173  26.735  30.080  1.00  0.00     0.057 A 
ATOM     82  C   UNL A   1      49.140  27.050  29.116  1.00  0.00     0.134 A 
ATOM     83  C   UNL A   1      48.592  26.030  31.214  1.00  0.00     0.134 A 
ATOM     84  F   UNL A   1      48.797  27.713  28.001  1.00  0.00    -0.206 F 
ATOM     85  C   UNL A   1      50.472  26.664  29.270  1.00  0.00     0.040 A 
ATOM     86  C   UNL A   1      49.925  25.657  31.389  1.00  0.00     0.040 A 
ATOM     87  F   UNL A   1      47.715  25.704  32.176  1.00  0.00    -0.206 F 
ATOM     88  C   UNL A   1      50.869  25.971  30.413  1.00  0.00     0.006 A 
ENDBRANCH  64  81
ENDBRANCH  38  39
ENDBRANCH  31  33
ENDBRANCH  30  31
ENDBRANCH  29  30
ENDBRANCH   1  29
TORSDOF 16
ENDMDL
MODEL 2
REMARK VINA RESULT:      -9.7      5.046      7.891
REMARK SMILES COc1cc([C@@H]2[NH2+][C@H](C(=O)OCCOC(=O)c3ccc(-c4c5nc(c(-c6c(F)cccc6F)c6ccc([nH]6)c(-c6c(F)cccc6F)c6nc(c(-c7c(F)cccc7F)c7ccc4[nH]7)C=C6)C=C5)cc3)CS2)ccc1OCc1ccc(Cl)cc1
REMARK SMILES IDX 12 1 11 2 9 3 10 4 8 5 6 6 7 7 72 8 71 11 5 12 3 13 4 14
REMARK SMILES IDX 75 15 74 16 73 17 2 18 1 19 76 20 77 21 78 22 79 23 84 24
REMARK SMILES IDX 80 25 83 26 81 27 82 28 13 29 14 30 15 31 16 32 17 33 18 34
REMARK SMILES IDX 70 35 19 36 69 37 20 38 21 39 22 40 63 41 23 42 68 43 62 44
REMARK SMILES IDX 64 45 24 46 67 47 61 48 60 49 25 51 51 52 34 53 50 54 35 55
REMARK SMILES IDX 38 56 49 57 65 58 36 59 37 60 48 62 66 63 39 64 26 65 27 66
REMARK SMILES IDX 32 67 28 68 29 69 31 70 33 71 30 72 52 73 53 74 58 75 54 76
REMARK SMILES IDX 55 77 57 78 59 79 56 80 40 81 41 82 46 83 42 84 43 85 45 86
REMARK SMILES IDX 47 87 44 88
REMARK H PARENT 7 9 7 10 64 50 38 61
REMARK Flexibility Score: inf
ROOT
ATOM      1  C   UNL A   1      33.768  28.118  26.286  1.00  0.00     0.274 C 
ENDROOT
BRANCH   1   2
ATOM      2  O   UNL A   1      33.355  28.916  25.163  1.00  0.00    -0.458 OA
BRANCH   2   3
ATOM      3  C   UNL A   1      33.286  28.338  23.943  1.00  0.00     0.365 C 
ATOM      4  O   UNL A   1      34.158  27.624  23.460  1.00  0.00    -0.245 OA
BRANCH   3   5
ATOM      5  C   UNL A   1      31.997  28.671  23.178  1.00  0.00     0.304 C 
ATOM      6  C   UNL A   1      30.786  26.788  22.274  1.00  0.00     0.274 C 
ATOM      7  N   UNL A   1      31.759  27.840  21.961  1.00  0.00    -0.319 N 
ATOM      8  S   UNL A   1      29.566  27.585  23.343  1.00  0.00    -0.087 SA
ATOM      9  H   UNL A   1      31.395  28.429  21.212  1.00  0.00     0.348 HD
ATOM     10  H   UNL A   1      32.637  27.416  21.660  1.00  0.00     0.348 HD
ATOM     11  C   UNL A   1      30.798  28.655  24.124  1.00  0.00     0.153 C 
BRANCH   6  12
ATOM     12  C   UNL A   1      31.446  25.523  22.803  1.00  0.00     0.024 A 
ATOM     13  C   UNL A   1      31.372  23.648  24.395  1.00  0.00     0.161 A 
ATOM     14  C   UNL A   1      30.883  24.880  23.932  1.00  0.00     0.061 A 
ATOM     15  C   UNL A   1      32.417  23.024  23.707  1.00  0.00     0.161 A 
ATOM     16  C   UNL A   1      32.989  23.652  22.601  1.00  0.00     0.051 A 
ATOM     17  C   UNL A   1      32.528  24.894  22.168  1.00  0.00     0.015 A 
BRANCH  13  18
ATOM     18  O   UNL A   1      30.730  22.993  25.415  1.00  0.00    -0.493 OA
ATOM     19  C   UNL A   1      31.047  23.524  26.703  1.00  0.00     0.278 C 
ENDBRANCH  13  18
BRANCH  15  20
ATOM     20  O   UNL A   1      32.919  21.779  23.963  1.00  0.00    -0.485 OA
BRANCH  20  21
ATOM     21  C   UNL A   1      32.326  20.698  23.244  1.00  0.00     0.265 C 
BRANCH  21  22
ATOM     22  C   UNL A   1      32.608  19.316  23.811  1.00  0.00    -0.011 A 
ATOM     23  C   UNL A   1      32.937  18.255  22.954  1.00  0.00     0.009 A 
ATOM     24  C   UNL A   1      32.501  19.055  25.186  1.00  0.00     0.009 A 
ATOM     25  C   UNL A   1      33.115  16.963  23.460  1.00  0.00     0.021 A 
ATOM     26  C   UNL A   1      32.684  17.767  25.693  1.00  0.00     0.021 A 
ATOM     27  C   UNL A   1      32.978  16.724  24.824  1.00  0.00     0.041 A 
ATOM     28  Cl  UNL A   1      33.159  15.128  25.440  1.00  0.00    -0.084 Cl
ENDBRANCH  21  22
ENDBRANCH  20  21
ENDBRANCH  15  20
ENDBRANCH   6  12
ENDBRANCH   3   5
ENDBRANCH   2   3
ENDBRANCH   1   2
BRANCH   1  29
ATOM     29  C   UNL A   1      33.712  28.973  27.551  1.00  0.00     0.275 C 
BRANCH  29  30
ATOM     30  O   UNL A   1      34.340  30.243  27.293  1.00  0.00    -0.458 OA
BRANCH  30  31
ATOM     31  C   UNL A   1      34.936  30.820  28.362  1.00  0.00     0.338 C 
ATOM     32  O   UNL A   1      34.464  31.602  29.165  1.00  0.00    -0.246 OA
BRANCH  31  33
ATOM     33  C   UNL A   1      36.274  30.228  28.506  1.00  0.00     0.060 A 
ATOM     34  C   UNL A   1      36.629  29.694  29.749  1.00  0.00     0.016 A 
ATOM     35  C   UNL A   1      37.176  30.236  27.444  1.00  0.00     0.016 A 
ATOM     36  C   UNL A   1      37.902  29.163  29.938  1.00  0.00     0.010 A 
ATOM     37  C   UNL A   1      38.456  29.714  27.637  1.00  0.00     0.010 A 
ATOM     38  C   UNL A   1      38.827  29.188  28.888  1.00  0.00    -0.014 A 
BRANCH  38  39
ATOM     39  C   UNL A   1      40.220  28.746  29.115  1.00  0.00     0.031 A 
ATOM     40  C   UNL A   1      41.200  29.699  29.728  1.00  0.00     0.074 A 
ATOM     41  C   UNL A   1      40.600  27.506  28.761  1.00  0.00     0.049 A 
ATOM     42  N   UNL A   1      42.487  29.562  29.913  1.00  0.00    -0.248 NA
ATOM     43  C   UNL A   1      40.657  30.987  30.189  1.00  0.00     0.031 C 
ATOM     44  C   UNL A   1      39.723  26.485  28.190  1.00  0.00     0.029 A 
ATOM     45  N   UNL A   1      41.831  26.903  28.818  1.00  0.00    -0.354 N 
ATOM     46  C   UNL A   1      42.913  30.751  30.489  1.00  0.00     0.074 A 
ATOM     47  C   UNL A   1      41.749  31.603  30.613  1.00  0.00     0.031 C 
ATOM     48  C   UNL A   1      40.448  25.384  27.933  1.00  0.00     0.029 A 
ATOM     49  C   UNL A   1      41.843  25.639  28.285  1.00  0.00     0.049 A 
ATOM     50  H   UNL A   1      42.627  27.336  29.202  1.00  0.00     0.167 HD
ATOM     51  C   UNL A   1      44.163  31.098  30.877  1.00  0.00     0.037 A 
ATOM     52  C   UNL A   1      42.872  24.797  28.077  1.00  0.00     0.037 A 
ATOM     53  C   UNL A   1      45.312  30.239  30.756  1.00  0.00     0.049 A 
ATOM     54  C   UNL A   1      44.258  25.218  28.476  1.00  0.00     0.074 A 
ATOM     55  C   UNL A   1      46.619  30.485  31.138  1.00  0.00     0.029 A 
ATOM     56  N   UNL A   1      45.288  28.967  30.203  1.00  0.00    -0.354 N 
ATOM     57  N   UNL A   1      44.653  26.341  29.025  1.00  0.00    -0.248 NA
ATOM     58  C   UNL A   1      45.342  24.259  28.223  1.00  0.00     0.031 C 
ATOM     59  C   UNL A   1      47.393  29.375  30.781  1.00  0.00     0.029 A 
ATOM     60  C   UNL A   1      46.561  28.422  30.215  1.00  0.00     0.049 A 
ATOM     61  H   UNL A   1      44.485  28.518  29.854  1.00  0.00     0.167 HD
ATOM     62  C   UNL A   1      46.025  26.220  29.199  1.00  0.00     0.074 A 
ATOM     63  C   UNL A   1      46.393  24.906  28.708  1.00  0.00     0.031 C 
ATOM     64  C   UNL A   1      46.902  27.113  29.719  1.00  0.00     0.037 A 
BRANCH  51  65
ATOM     65  C   UNL A   1      44.348  32.479  31.430  1.00  0.00     0.057 A 
ATOM     66  C   UNL A   1      44.600  33.582  30.604  1.00  0.00     0.134 A 
ATOM     67  C   UNL A   1      44.274  32.708  32.810  1.00  0.00     0.134 A 
ATOM     68  F   UNL A   1      44.700  33.428  29.276  1.00  0.00    -0.206 F 
ATOM     69  C   UNL A   1      44.801  34.858  31.134  1.00  0.00     0.040 A 
ATOM     70  C   UNL A   1      44.450  33.982  33.349  1.00  0.00     0.040 A 
ATOM     71  F   UNL A   1      44.035  31.694  33.656  1.00  0.00    -0.206 F 
ATOM     72  C   UNL A   1      44.722  35.062  32.511  1.00  0.00     0.006 A 
ENDBRANCH  51  65
BRANCH  52  73
ATOM     73  C   UNL A   1      42.624  23.480  27.441  1.00  0.00     0.057 A 
ATOM     74  C   UNL A   1      42.256  22.365  28.202  1.00  0.00     0.134 A 
ATOM     75  C   UNL A   1      42.726  23.311  26.054  1.00  0.00     0.134 A 
ATOM     76  F   UNL A   1      42.163  22.461  29.536  1.00  0.00    -0.206 F 
ATOM     77  C   UNL A   1      42.002  21.128  27.608  1.00  0.00     0.040 A 
ATOM     78  C   UNL A   1      42.453  22.086  25.445  1.00  0.00     0.040 A 
ATOM     79  F   UNL A   1      43.072  24.343  25.271  1.00  0.00    -0.206 F 
ATOM     80  C   UNL A   1      42.093  20.988  26.224  1.00  0.00     0.006 A 
ENDBRANCH  52  73
BRANCH  64  81
ATOM     81  C   UNL A   1      48.338  26.689  29.803  1.00  0.00     0.057 A 
ATOM     82  C   UNL A   1      49.266  27.027  28.810  1.00  0.00     0.134 A 
ATOM     83  C   UNL A   1      48.805  25.971  30.911  1.00  0.00     0.134 A 
ATOM     84  F   UNL A   1      48.876  27.703  27.718  1.00  0.00    -0.206 F 
ATOM     85  C   UNL A   1      50.606  26.651  28.908  1.00  0.00     0.040 A 
ATOM     86  C   UNL A   1      50.147  25.607  31.030  1.00  0.00     0.040 A 
ATOM     87  F   UNL A   1      47.967  25.623  31.900  1.00  0.00    -0.206 F 
ATOM     88  C   UNL A   1      51.051  25.945  30.025  1.00  0.00     0.006 A 
ENDBRANCH  64  81
ENDBRANCH  38  39
ENDBRANCH  31  33
ENDBRANCH  30  31
ENDBRANCH  29  30
ENDBRANCH   1  29
TORSDOF 16
ENDMDL
MODEL 3
REMARK VINA RESULT:      -9.5      1.333      2.345
REMARK SMILES COc1cc([C@@H]2[NH2+][C@H](C(=O)OCCOC(=O)c3ccc(-c4c5nc(c(-c6c(F)cccc6F)c6ccc([nH]6)c(-c6c(F)cccc6F)c6nc(c(-c7c(F)cccc7F)c7ccc4[nH]7)C=C6)C=C5)cc3)CS2)ccc1OCc1ccc(Cl)cc1
REMARK SMILES IDX 12 1 11 2 9 3 10 4 8 5 6 6 7 7 72 8 71 11 5 12 3 13 4 14
REMARK SMILES IDX 75 15 74 16 73 17 2 18 1 19 76 20 77 21 78 22 79 23 84 24
REMARK SMILES IDX 80 25 83 26 81 27 82 28 13 29 14 30 15 31 16 32 17 33 18 34
REMARK SMILES IDX 70 35 19 36 69 37 20 38 21 39 22 40 63 41 23 42 68 43 62 44
REMARK SMILES IDX 64 45 24 46 67 47 61 48 60 49 25 51 51 52 34 53 50 54 35 55
REMARK SMILES IDX 38 56 49 57 65 58 36 59 37 60 48 62 66 63 39 64 26 65 27 66
REMARK SMILES IDX 32 67 28 68 29 69 31 70 33 71 30 72 52 73 53 74 58 75 54 76
REMARK SMILES IDX 55 77 57 78 59 79 56 80 40 81 41 82 46 83 42 84 43 85 45 86
REMARK SMILES IDX 47 87 44 88
REMARK H PARENT 7 9 7 10 64 50 38 61
REMARK Flexibility Score: inf
ROOT
ATOM      1  C   UNL A   1      34.464  34.090  29.021  1.00  0.00     0.274 C 
ENDROOT
BRANCH   1   2
ATOM      2  O   UNL A   1      35.867  33.830  29.205  1.00  0.00    -0.458 OA
BRANCH   2   3
ATOM      3  C   UNL A   1      36.353  33.723  30.462  1.00  0.00     0.365 C 
ATOM      4  O   UNL A   1      37.530  33.518  30.739  1.00  0.00    -0.245 OA
BRANCH   3   5
ATOM      5  C   UNL A   1      35.278  33.863  31.549  1.00  0.00     0.304 C 
ATOM      6  C   UNL A   1      35.659  32.615  33.581  1.00  0.00     0.274 C 
ATOM      7  N   UNL A   1      34.967  32.604  32.287  1.00  0.00    -0.319 N 
ATOM      8  S   UNL A   1      35.524  34.320  34.166  1.00  0.00    -0.087 SA
ATOM      9  H   UNL A   1      33.960  32.538  32.440  1.00  0.00     0.348 HD
ATOM     10  H   UNL A   1      35.278  31.802  31.739  1.00  0.00     0.348 HD
ATOM     11  C   UNL A   1      35.627  35.010  32.496  1.00  0.00     0.153 C 
BRANCH   6  12
ATOM     12  C   UNL A   1      37.058  32.022  33.498  1.00  0.00     0.024 A 
ATOM     13  C   UNL A   1      39.440  32.224  34.079  1.00  0.00     0.161 A 
ATOM     14  C   UNL A   1      38.146  32.765  34.018  1.00  0.00     0.061 A 
ATOM     15  C   UNL A   1      39.655  30.911  33.650  1.00  0.00     0.161 A 
ATOM     16  C   UNL A   1      38.595  30.173  33.125  1.00  0.00     0.051 A 
ATOM     17  C   UNL A   1      37.319  30.727  33.027  1.00  0.00     0.015 A 
BRANCH  13  18
ATOM     18  O   UNL A   1      40.447  32.921  34.696  1.00  0.00    -0.493 OA
ATOM     19  C   UNL A   1      40.571  32.607  36.084  1.00  0.00     0.278 C 
ENDBRANCH  13  18
BRANCH  15  20
ATOM     20  O   UNL A   1      40.824  30.211  33.756  1.00  0.00    -0.485 OA
BRANCH  20  21
ATOM     21  C   UNL A   1      40.775  29.010  34.526  1.00  0.00     0.265 C 
BRANCH  21  22
ATOM     22  C   UNL A   1      41.848  27.987  34.193  1.00  0.00    -0.011 A 
ATOM     23  C   UNL A   1      42.597  28.108  33.013  1.00  0.00     0.009 A 
ATOM     24  C   UNL A   1      42.083  26.878  35.022  1.00  0.00     0.009 A 
ATOM     25  C   UNL A   1      43.527  27.125  32.659  1.00  0.00     0.021 A 
ATOM     26  C   UNL A   1      43.014  25.900  34.672  1.00  0.00     0.021 A 
ATOM     27  C   UNL A   1      43.724  26.022  33.484  1.00  0.00     0.041 A 
ATOM     28  Cl  UNL A   1      44.840  24.794  33.029  1.00  0.00    -0.084 Cl
ENDBRANCH  21  22
ENDBRANCH  20  21
ENDBRANCH  15  20
ENDBRANCH   6  12
ENDBRANCH   3   5
ENDBRANCH   2   3
ENDBRANCH   1   2
BRANCH   1  29
ATOM     29  C   UNL A   1      33.807  32.861  28.398  1.00  0.00     0.275 C 
BRANCH  29  30
ATOM     30  O   UNL A   1      34.811  32.076  27.727  1.00  0.00    -0.458 OA
BRANCH  30  31
ATOM     31  C   UNL A   1      34.683  30.736  27.865  1.00  0.00     0.338 C 
ATOM     32  O   UNL A   1      33.691  30.048  27.718  1.00  0.00    -0.246 OA
BRANCH  31  33
ATOM     33  C   UNL A   1      36.023  30.177  28.099  1.00  0.00     0.060 A 
ATOM     34  C   UNL A   1      36.312  29.664  29.367  1.00  0.00     0.016 A 
ATOM     35  C   UNL A   1      36.990  30.197  27.095  1.00  0.00     0.016 A 
ATOM     36  C   UNL A   1      37.582  29.166  29.641  1.00  0.00     0.010 A 
ATOM     37  C   UNL A   1      38.267  29.707  27.373  1.00  0.00     0.010 A 
ATOM     38  C   UNL A   1      38.570  29.203  28.651  1.00  0.00    -0.014 A 
BRANCH  38  39
ATOM     39  C   UNL A   1      39.956  28.796  28.969  1.00  0.00     0.031 A 
ATOM     40  C   UNL A   1      40.870  29.774  29.642  1.00  0.00     0.074 A 
ATOM     41  C   UNL A   1      40.390  27.566  28.644  1.00  0.00     0.049 A 
ATOM     42  N   UNL A   1      42.145  29.670  29.911  1.00  0.00    -0.248 NA
ATOM     43  C   UNL A   1      40.265  31.048  30.064  1.00  0.00     0.031 C 
ATOM     44  C   UNL A   1      39.578  26.523  28.020  1.00  0.00     0.029 A 
ATOM     45  N   UNL A   1      41.629  26.994  28.783  1.00  0.00    -0.354 N 
ATOM     46  C   UNL A   1      42.503  30.870  30.511  1.00  0.00     0.074 A 
ATOM     47  C   UNL A   1      41.312  31.692  30.556  1.00  0.00     0.031 C 
ATOM     48  C   UNL A   1      40.345  25.439  27.814  1.00  0.00     0.029 A 
ATOM     49  C   UNL A   1      41.708  25.730  28.255  1.00  0.00     0.049 A 
ATOM     50  H   UNL A   1      42.387  27.448  29.217  1.00  0.00     0.167 HD
ATOM     51  C   UNL A   1      43.716  31.248  30.978  1.00  0.00     0.037 A 
ATOM     52  C   UNL A   1      42.768  24.914  28.116  1.00  0.00     0.037 A 
ATOM     53  C   UNL A   1      44.891  30.419  30.935  1.00  0.00     0.049 A 
ATOM     54  C   UNL A   1      44.115  25.371  28.604  1.00  0.00     0.074 A 
ATOM     55  C   UNL A   1      46.164  30.698  31.400  1.00  0.00     0.029 A 
ATOM     56  N   UNL A   1      44.935  29.146  30.385  1.00  0.00    -0.354 N 
ATOM     57  N   UNL A   1      44.445  26.504  29.175  1.00  0.00    -0.248 NA
ATOM     58  C   UNL A   1      45.237  24.439  28.425  1.00  0.00     0.031 C 
ATOM     59  C   UNL A   1      46.988  29.608  31.098  1.00  0.00     0.029 A 
ATOM     60  C   UNL A   1      46.218  28.633  30.482  1.00  0.00     0.049 A 
ATOM     61  H   UNL A   1      44.168  28.677  29.985  1.00  0.00     0.167 HD
ATOM     62  C   UNL A   1      45.805  26.417  29.439  1.00  0.00     0.074 A 
ATOM     63  C   UNL A   1      46.237  25.113  28.975  1.00  0.00     0.031 C 
ATOM     64  C   UNL A   1      46.624  27.333  30.012  1.00  0.00     0.037 A 
BRANCH  51  65
ATOM     65  C   UNL A   1      43.829  32.635  31.539  1.00  0.00     0.057 A 
ATOM     66  C   UNL A   1      44.155  33.735  30.737  1.00  0.00     0.134 A 
ATOM     67  C   UNL A   1      43.611  32.870  32.903  1.00  0.00     0.134 A 
ATOM     68  F   UNL A   1      44.393  33.575  29.427  1.00  0.00    -0.206 F 
ATOM     69  C   UNL A   1      44.288  35.016  31.276  1.00  0.00     0.040 A 
ATOM     70  C   UNL A   1      43.718  34.149  33.449  1.00  0.00     0.040 A 
ATOM     71  F   UNL A   1      43.294  31.859  33.726  1.00  0.00    -0.206 F 
ATOM     72  C   UNL A   1      44.065  35.227  32.636  1.00  0.00     0.006 A 
ENDBRANCH  51  65
BRANCH  52  73
ATOM     73  C   UNL A   1      42.596  23.591  27.469  1.00  0.00     0.057 A 
ATOM     74  C   UNL A   1      42.680  23.447  26.080  1.00  0.00     0.134 A 
ATOM     75  C   UNL A   1      42.366  22.435  28.226  1.00  0.00     0.134 A 
ATOM     76  F   UNL A   1      42.878  24.521  25.302  1.00  0.00    -0.206 F 
ATOM     77  C   UNL A   1      42.538  22.202  25.465  1.00  0.00     0.040 A 
ATOM     78  C   UNL A   1      42.244  21.181  27.627  1.00  0.00     0.040 A 
ATOM     79  F   UNL A   1      42.277  22.508  29.562  1.00  0.00    -0.206 F 
ATOM     80  C   UNL A   1      42.328  21.063  26.240  1.00  0.00     0.006 A 
ENDBRANCH  52  73
BRANCH  64  81
ATOM     81  C   UNL A   1      48.061  26.945  30.191  1.00  0.00     0.057 A 
ATOM     82  C   UNL A   1      49.029  27.238  29.222  1.00  0.00     0.134 A 
ATOM     83  C   UNL A   1      48.487  26.310  31.363  1.00  0.00     0.134 A 
ATOM     84  F   UNL A   1      48.681  27.834  28.071  1.00  0.00    -0.206 F 
ATOM     85  C   UNL A   1      50.370  26.897  29.406  1.00  0.00     0.040 A 
ATOM     86  C   UNL A   1      49.828  25.983  31.569  1.00  0.00     0.040 A 
ATOM     87  F   UNL A   1      47.610  26.009  32.333  1.00  0.00    -0.206 F 
ATOM     88  C   UNL A   1      50.773  26.274  30.587  1.00  0.00     0.006 A 
ENDBRANCH  64  81
ENDBRANCH  38  39
ENDBRANCH  31  33
ENDBRANCH  30  31
ENDBRANCH  29  30
ENDBRANCH   1  29
TORSDOF 16
ENDMDL
