MODEL 1
REMARK VINA RESULT:     -12.7      0.000      0.000
REMARK SMILES CCCc1cc(S(F)(F)(F)(F)F)cc2c1O[C@@H](C(F)(F)F)C(C(=O)OCCOC(=O)c1ccc(-c3c4nc(c(-c5c(F)cccc5F)c5ccc([nH]5)c(-c5c(F)cccc5F)c5nc(c(-c6c(F)cccc6F)c6ccc3[nH]6)C=C5)C=C4)cc1)=C2
REMARK SMILES IDX 26 1 25 2 23 3 24 4 22 5 4 6 5 7 15 8 6 9 14 10 16 11 13 12
REMARK SMILES IDX 85 13 17 14 3 15 2 16 1 17 7 18 8 19 9 20 10 21 11 22 12 23
REMARK SMILES IDX 18 24 19 25 20 26 21 27 27 28 28 29 29 30 30 31 31 32 32 33
REMARK SMILES IDX 84 34 33 35 83 36 34 37 35 38 36 39 77 40 37 41 82 42 76 43
REMARK SMILES IDX 78 44 38 45 81 46 75 47 74 48 39 50 65 51 48 52 64 53 49 54
REMARK SMILES IDX 52 55 63 56 79 57 50 58 51 59 62 61 80 62 53 63 40 64 41 65
REMARK SMILES IDX 46 66 42 67 43 68 45 69 47 70 44 71 66 72 67 73 72 74 68 75
REMARK SMILES IDX 69 76 71 77 73 78 70 79 54 80 55 81 60 82 56 83 57 84 59 85
REMARK SMILES IDX 61 86 58 87
REMARK H PARENT 78 49 52 60
REMARK Flexibility Score: inf
ROOT
ATOM      1  C   UNL A   1      42.625  21.524  25.914  1.00  0.00     0.275 C 
ENDROOT
BRANCH   1   2
ATOM      2  O   UNL A   1      41.363  22.123  25.660  1.00  0.00    -0.459 OA
BRANCH   2   3
ATOM      3  C   UNL A   1      40.246  21.801  26.475  1.00  0.00     0.338 C 
ATOM      4  O   UNL A   1      40.418  21.188  27.575  1.00  0.00    -0.246 OA
BRANCH   3   5
ATOM      5  C   UNL A   1      38.845  22.188  26.031  1.00  0.00     0.087 C 
ATOM      6  C   UNL A   1      34.899  23.348  25.305  1.00  0.00    -0.004 A 
ATOM      7  C   UNL A   1      33.975  22.416  24.867  1.00  0.00     0.032 A 
ATOM      8  C   UNL A   1      36.176  22.929  25.587  1.00  0.00     0.131 A 
ATOM      9  C   UNL A   1      34.319  21.098  24.720  1.00  0.00     0.108 A 
ATOM     10  C   UNL A   1      36.564  21.610  25.433  1.00  0.00     0.019 A 
ATOM     11  O   UNL A   1      37.049  23.841  26.127  1.00  0.00    -0.475 OA
ATOM     12  C   UNL A   1      35.610  20.698  24.996  1.00  0.00     0.036 A 
ATOM     13  C   UNL A   1      37.926  21.259  25.796  1.00  0.00     0.027 C 
ATOM     14  C   UNL A   1      38.464  23.651  25.847  1.00  0.00     0.316 C 
BRANCH   6  15
ATOM     15  C   UNL A   1      34.444  24.798  25.339  1.00  0.00     0.039 C 
BRANCH  15  16
ATOM     16  C   UNL A   1      34.035  25.233  23.942  1.00  0.00     0.001 C 
ATOM     17  C   UNL A   1      33.263  26.540  24.023  1.00  0.00     0.004 C 
ENDBRANCH  15  16
ENDBRANCH   6  15
BRANCH   9  18
ATOM     18  S   UNL A   1      33.089  19.891  24.170  1.00  0.00     0.310 S 
ATOM     19  F   UNL A   1      32.023  20.547  25.144  1.00  0.00    -0.094 F 
ATOM     20  F   UNL A   1      33.574  19.025  25.393  1.00  0.00    -0.094 F 
ATOM     21  F   UNL A   1      32.012  18.828  23.809  1.00  0.00    -0.094 F 
ATOM     22  F   UNL A   1      32.525  20.834  23.036  1.00  0.00    -0.094 F 
ATOM     23  F   UNL A   1      34.100  21.028  24.593  1.00  0.00    -0.094 F 
ENDBRANCH   9  18
BRANCH  14  24
ATOM     24  C   UNL A   1      39.279  24.500  26.809  1.00  0.00     0.430 C 
ATOM     25  F   UNL A   1      40.348  24.981  26.182  1.00  0.00    -0.167 F 
ATOM     26  F   UNL A   1      38.532  25.510  27.250  1.00  0.00    -0.167 F 
ATOM     27  F   UNL A   1      39.668  23.754  27.839  1.00  0.00    -0.167 F 
ENDBRANCH  14  24
ENDBRANCH   3   5
ENDBRANCH   2   3
ENDBRANCH   1   2
BRANCH   1  28
ATOM     28  C   UNL A   1      43.676  22.151  25.014  1.00  0.00     0.275 C 
BRANCH  28  29
ATOM     29  O   UNL A   1      43.303  23.488  24.712  1.00  0.00    -0.458 OA
BRANCH  29  30
ATOM     30  C   UNL A   1      44.070  24.571  25.220  1.00  0.00     0.338 C 
ATOM     31  O   UNL A   1      45.209  24.832  24.722  1.00  0.00    -0.246 OA
BRANCH  30  32
ATOM     32  C   UNL A   1      43.525  25.417  26.360  1.00  0.00     0.060 A 
ATOM     33  C   UNL A   1      43.110  24.794  27.525  1.00  0.00     0.016 A 
ATOM     34  C   UNL A   1      43.452  26.735  26.220  1.00  0.00     0.016 A 
ATOM     35  C   UNL A   1      42.358  25.628  28.385  1.00  0.00     0.010 A 
ATOM     36  C   UNL A   1      42.819  27.505  27.167  1.00  0.00     0.010 A 
ATOM     37  C   UNL A   1      42.333  26.947  28.316  1.00  0.00    -0.014 A 
BRANCH  37  38
ATOM     38  C   UNL A   1      41.792  27.798  29.453  1.00  0.00     0.031 A 
ATOM     39  C   UNL A   1      40.671  28.600  29.226  1.00  0.00     0.074 A 
ATOM     40  C   UNL A   1      42.452  27.715  30.668  1.00  0.00     0.049 A 
ATOM     41  N   UNL A   1      40.035  29.374  30.106  1.00  0.00    -0.248 NA
ATOM     42  C   UNL A   1      39.989  28.715  27.929  1.00  0.00     0.031 C 
ATOM     43  C   UNL A   1      43.578  26.903  30.906  1.00  0.00     0.029 A 
ATOM     44  N   UNL A   1      42.157  28.381  31.836  1.00  0.00    -0.354 N 
ATOM     45  C   UNL A   1      38.995  29.974  29.523  1.00  0.00     0.074 A 
ATOM     46  C   UNL A   1      38.954  29.564  28.113  1.00  0.00     0.031 C 
ATOM     47  C   UNL A   1      43.964  27.084  32.196  1.00  0.00     0.029 A 
ATOM     48  C   UNL A   1      43.084  28.012  32.786  1.00  0.00     0.049 A 
ATOM     49  H   UNL A   1      41.413  29.010  31.970  1.00  0.00     0.167 HD
ATOM     50  C   UNL A   1      38.077  30.846  30.113  1.00  0.00     0.037 A 
ATOM     51  C   UNL A   1      43.177  28.453  34.097  1.00  0.00     0.037 A 
ATOM     52  C   UNL A   1      38.144  31.251  31.436  1.00  0.00     0.049 A 
ATOM     53  C   UNL A   1      42.293  29.370  34.672  1.00  0.00     0.074 A 
ATOM     54  C   UNL A   1      37.223  32.123  32.048  1.00  0.00     0.029 A 
ATOM     55  N   UNL A   1      39.086  30.902  32.380  1.00  0.00    -0.354 N 
ATOM     56  N   UNL A   1      41.231  29.939  34.100  1.00  0.00    -0.248 NA
ATOM     57  C   UNL A   1      42.400  29.867  36.049  1.00  0.00     0.031 C 
ATOM     58  C   UNL A   1      37.608  32.305  33.340  1.00  0.00     0.029 A 
ATOM     59  C   UNL A   1      38.778  31.551  33.555  1.00  0.00     0.049 A 
ATOM     60  H   UNL A   1      39.847  30.295  32.237  1.00  0.00     0.167 HD
ATOM     61  C   UNL A   1      40.618  30.745  34.968  1.00  0.00     0.074 A 
ATOM     62  C   UNL A   1      41.366  30.717  36.233  1.00  0.00     0.031 C 
ATOM     63  C   UNL A   1      39.464  31.501  34.759  1.00  0.00     0.037 A 
BRANCH  50  64
ATOM     64  C   UNL A   1      36.941  31.379  29.256  1.00  0.00     0.057 A 
ATOM     65  C   UNL A   1      37.028  32.657  28.728  1.00  0.00     0.134 A 
ATOM     66  C   UNL A   1      35.886  30.608  29.022  1.00  0.00     0.134 A 
ATOM     67  F   UNL A   1      38.155  33.364  28.720  1.00  0.00    -0.206 F 
ATOM     68  C   UNL A   1      35.810  33.142  28.196  1.00  0.00     0.040 A 
ATOM     69  C   UNL A   1      34.781  31.109  28.377  1.00  0.00     0.040 A 
ATOM     70  F   UNL A   1      35.899  29.337  29.416  1.00  0.00    -0.206 F 
ATOM     71  C   UNL A   1      34.775  32.384  27.881  1.00  0.00     0.006 A 
ENDBRANCH  50  64
BRANCH  51  72
ATOM     72  C   UNL A   1      44.303  27.906  34.960  1.00  0.00     0.057 A 
ATOM     73  C   UNL A   1      44.106  26.737  35.677  1.00  0.00     0.134 A 
ATOM     74  C   UNL A   1      45.456  28.563  35.016  1.00  0.00     0.134 A 
ATOM     75  F   UNL A   1      43.081  25.918  35.461  1.00  0.00    -0.206 F 
ATOM     76  C   UNL A   1      45.094  26.494  36.660  1.00  0.00     0.040 A 
ATOM     77  C   UNL A   1      46.432  28.187  35.907  1.00  0.00     0.040 A 
ATOM     78  F   UNL A   1      45.667  29.594  34.203  1.00  0.00    -0.206 F 
ATOM     79  C   UNL A   1      46.279  27.077  36.690  1.00  0.00     0.006 A 
ENDBRANCH  51  72
BRANCH  63  80
ATOM     80  C   UNL A   1      38.927  32.322  35.920  1.00  0.00     0.057 A 
ATOM     81  C   UNL A   1      39.239  33.669  35.989  1.00  0.00     0.134 A 
ATOM     82  C   UNL A   1      38.182  31.738  36.853  1.00  0.00     0.134 A 
ATOM     83  F   UNL A   1      39.757  34.347  34.969  1.00  0.00    -0.206 F 
ATOM     84  C   UNL A   1      38.956  34.259  37.244  1.00  0.00     0.040 A 
ATOM     85  C   UNL A   1      37.828  32.419  37.992  1.00  0.00     0.040 A 
ATOM     86  F   UNL A   1      37.776  30.483  36.681  1.00  0.00    -0.206 F 
ATOM     87  C   UNL A   1      38.154  33.737  38.154  1.00  0.00     0.006 A 
ENDBRANCH  63  80
ENDBRANCH  37  38
ENDBRANCH  30  32
ENDBRANCH  29  30
ENDBRANCH  28  29
ENDBRANCH   1  28
TORSDOF 15
ENDMDL
MODEL 2
REMARK VINA RESULT:     -12.5      5.183     11.314
REMARK SMILES CCCc1cc(S(F)(F)(F)(F)F)cc2c1O[C@@H](C(F)(F)F)C(C(=O)OCCOC(=O)c1ccc(-c3c4nc(c(-c5c(F)cccc5F)c5ccc([nH]5)c(-c5c(F)cccc5F)c5nc(c(-c6c(F)cccc6F)c6ccc3[nH]6)C=C5)C=C4)cc1)=C2
REMARK SMILES IDX 26 1 25 2 23 3 24 4 22 5 4 6 5 7 15 8 6 9 14 10 16 11 13 12
REMARK SMILES IDX 85 13 17 14 3 15 2 16 1 17 7 18 8 19 9 20 10 21 11 22 12 23
REMARK SMILES IDX 18 24 19 25 20 26 21 27 27 28 28 29 29 30 30 31 31 32 32 33
REMARK SMILES IDX 84 34 33 35 83 36 34 37 35 38 36 39 77 40 37 41 82 42 76 43
REMARK SMILES IDX 78 44 38 45 81 46 75 47 74 48 39 50 65 51 48 52 64 53 49 54
REMARK SMILES IDX 52 55 63 56 79 57 50 58 51 59 62 61 80 62 53 63 40 64 41 65
REMARK SMILES IDX 46 66 42 67 43 68 45 69 47 70 44 71 66 72 67 73 72 74 68 75
REMARK SMILES IDX 69 76 71 77 73 78 70 79 54 80 55 81 60 82 56 83 57 84 59 85
REMARK SMILES IDX 61 86 58 87
REMARK H PARENT 78 49 52 60
REMARK Flexibility Score: inf
ROOT
ATOM      1  C   UNL A   1      34.505  34.999  28.927  1.00  0.00     0.275 C 
ENDROOT
BRANCH   1   2
ATOM      2  O   UNL A   1      34.233  34.855  30.312  1.00  0.00    -0.459 OA
BRANCH   2   3
ATOM      3  C   UNL A   1      34.757  33.745  31.027  1.00  0.00     0.338 C 
ATOM      4  O   UNL A   1      34.103  32.657  31.082  1.00  0.00    -0.246 OA
BRANCH   3   5
ATOM      5  C   UNL A   1      36.101  33.860  31.727  1.00  0.00     0.087 C 
ATOM      6  C   UNL A   1      39.686  34.672  33.711  1.00  0.00    -0.004 A 
ATOM      7  C   UNL A   1      40.887  34.578  33.031  1.00  0.00     0.032 A 
ATOM      8  C   UNL A   1      38.519  34.452  33.021  1.00  0.00     0.131 A 
ATOM      9  C   UNL A   1      40.920  34.277  31.695  1.00  0.00     0.108 A 
ATOM     10  C   UNL A   1      38.514  34.127  31.676  1.00  0.00     0.019 A 
ATOM     11  O   UNL A   1      37.332  34.659  33.680  1.00  0.00    -0.475 OA
ATOM     12  C   UNL A   1      39.738  34.045  31.023  1.00  0.00     0.036 A 
ATOM     13  C   UNL A   1      37.226  33.952  31.028  1.00  0.00     0.027 C 
ATOM     14  C   UNL A   1      36.187  33.872  33.248  1.00  0.00     0.316 C 
BRANCH   6  15
ATOM     15  C   UNL A   1      39.765  34.915  35.209  1.00  0.00     0.039 C 
BRANCH  15  16
ATOM     16  C   UNL A   1      40.448  36.247  35.471  1.00  0.00     0.001 C 
ATOM     17  C   UNL A   1      40.737  36.386  36.956  1.00  0.00     0.004 C 
ENDBRANCH  15  16
ENDBRANCH   6  15
BRANCH   9  18
ATOM     18  S   UNL A   1      42.501  34.183  30.820  1.00  0.00     0.310 S 
ATOM     19  F   UNL A   1      43.257  34.533  32.169  1.00  0.00    -0.094 F 
ATOM     20  F   UNL A   1      42.325  35.732  30.596  1.00  0.00    -0.094 F 
ATOM     21  F   UNL A   1      43.884  34.208  30.110  1.00  0.00    -0.094 F 
ATOM     22  F   UNL A   1      42.721  32.660  31.176  1.00  0.00    -0.094 F 
ATOM     23  F   UNL A   1      41.151  34.164  31.641  1.00  0.00    -0.094 F 
ENDBRANCH   9  18
BRANCH  14  24
ATOM     24  C   UNL A   1      34.918  34.491  33.811  1.00  0.00     0.430 C 
ATOM     25  F   UNL A   1      34.620  35.591  33.126  1.00  0.00    -0.167 F 
ATOM     26  F   UNL A   1      33.917  33.620  33.710  1.00  0.00    -0.167 F 
ATOM     27  F   UNL A   1      35.106  34.803  35.090  1.00  0.00    -0.167 F 
ENDBRANCH  14  24
ENDBRANCH   3   5
ENDBRANCH   2   3
ENDBRANCH   1   2
BRANCH   1  28
ATOM     28  C   UNL A   1      33.808  33.890  28.154  1.00  0.00     0.275 C 
BRANCH  28  29
ATOM     29  O   UNL A   1      34.781  33.008  27.614  1.00  0.00    -0.458 OA
BRANCH  29  30
ATOM     30  C   UNL A   1      34.773  31.634  27.976  1.00  0.00     0.338 C 
ATOM     31  O   UNL A   1      33.706  30.953  27.860  1.00  0.00    -0.246 OA
BRANCH  30  32
ATOM     32  C   UNL A   1      36.040  30.980  28.502  1.00  0.00     0.060 A 
ATOM     33  C   UNL A   1      37.259  31.600  28.288  1.00  0.00     0.016 A 
ATOM     34  C   UNL A   1      35.960  29.825  29.151  1.00  0.00     0.016 A 
ATOM     35  C   UNL A   1      38.377  30.774  28.549  1.00  0.00     0.010 A 
ATOM     36  C   UNL A   1      37.098  29.136  29.496  1.00  0.00     0.010 A 
ATOM     37  C   UNL A   1      38.337  29.663  29.261  1.00  0.00    -0.014 A 
BRANCH  37  38
ATOM     38  C   UNL A   1      39.601  29.005  29.792  1.00  0.00     0.031 A 
ATOM     39  C   UNL A   1      40.147  27.926  29.095  1.00  0.00     0.074 A 
ATOM     40  C   UNL A   1      40.145  29.536  30.950  1.00  0.00     0.049 A 
ATOM     41  N   UNL A   1      41.264  27.255  29.381  1.00  0.00    -0.248 NA
ATOM     42  C   UNL A   1      39.552  27.340  27.885  1.00  0.00     0.031 C 
ATOM     43  C   UNL A   1      39.605  30.629  31.653  1.00  0.00     0.029 A 
ATOM     44  N   UNL A   1      41.275  29.120  31.619  1.00  0.00    -0.354 N 
ATOM     45  C   UNL A   1      41.473  26.299  28.474  1.00  0.00     0.074 A 
ATOM     46  C   UNL A   1      40.371  26.336  27.502  1.00  0.00     0.031 C 
ATOM     47  C   UNL A   1      40.389  30.863  32.738  1.00  0.00     0.029 A 
ATOM     48  C   UNL A   1      41.435  29.920  32.729  1.00  0.00     0.049 A 
ATOM     49  H   UNL A   1      41.865  28.380  31.351  1.00  0.00     0.167 HD
ATOM     50  C   UNL A   1      42.538  25.399  28.417  1.00  0.00     0.037 A 
ATOM     51  C   UNL A   1      42.427  29.844  33.694  1.00  0.00     0.037 A 
ATOM     52  C   UNL A   1      43.555  25.354  29.357  1.00  0.00     0.049 A 
ATOM     53  C   UNL A   1      43.463  28.906  33.669  1.00  0.00     0.074 A 
ATOM     54  C   UNL A   1      44.641  24.458  29.310  1.00  0.00     0.029 A 
ATOM     55  N   UNL A   1      43.702  26.137  30.481  1.00  0.00    -0.354 N 
ATOM     56  N   UNL A   1      43.692  27.976  32.741  1.00  0.00    -0.248 NA
ATOM     57  C   UNL A   1      44.501  28.796  34.701  1.00  0.00     0.031 C 
ATOM     58  C   UNL A   1      45.427  24.691  30.396  1.00  0.00     0.029 A 
ATOM     59  C   UNL A   1      44.844  25.735  31.139  1.00  0.00     0.049 A 
ATOM     60  H   UNL A   1      43.095  26.857  30.765  1.00  0.00     0.167 HD
ATOM     61  C   UNL A   1      44.786  27.279  33.049  1.00  0.00     0.074 A 
ATOM     62  C   UNL A   1      45.319  27.791  34.319  1.00  0.00     0.031 C 
ATOM     63  C   UNL A   1      45.365  26.238  32.321  1.00  0.00     0.037 A 
BRANCH  50  64
ATOM     64  C   UNL A   1      42.587  24.416  27.259  1.00  0.00     0.057 A 
ATOM     65  C   UNL A   1      41.987  23.175  27.394  1.00  0.00     0.134 A 
ATOM     66  C   UNL A   1      43.200  24.767  26.134  1.00  0.00     0.134 A 
ATOM     67  F   UNL A   1      41.155  22.875  28.386  1.00  0.00    -0.206 F 
ATOM     68  C   UNL A   1      42.338  22.256  26.376  1.00  0.00     0.040 A 
ATOM     69  C   UNL A   1      43.389  23.853  25.126  1.00  0.00     0.040 A 
ATOM     70  F   UNL A   1      43.634  26.015  25.982  1.00  0.00    -0.206 F 
ATOM     71  C   UNL A   1      42.874  22.589  25.217  1.00  0.00     0.006 A 
ENDBRANCH  50  64
BRANCH  51  72
ATOM     72  C   UNL A   1      42.388  30.838  34.843  1.00  0.00     0.057 A 
ATOM     73  C   UNL A   1      41.631  30.552  35.967  1.00  0.00     0.134 A 
ATOM     74  C   UNL A   1      43.076  31.971  34.745  1.00  0.00     0.134 A 
ATOM     75  F   UNL A   1      41.138  29.343  36.220  1.00  0.00    -0.206 F 
ATOM     76  C   UNL A   1      41.430  31.661  36.821  1.00  0.00     0.040 A 
ATOM     77  C   UNL A   1      42.934  32.958  35.690  1.00  0.00     0.040 A 
ATOM     78  F   UNL A   1      43.909  32.149  33.725  1.00  0.00    -0.206 F 
ATOM     79  C   UNL A   1      42.154  32.765  36.797  1.00  0.00     0.006 A 
ENDBRANCH  51  72
BRANCH  63  80
ATOM     80  C   UNL A   1      46.644  25.616  32.857  1.00  0.00     0.057 A 
ATOM     81  C   UNL A   1      46.553  24.558  33.746  1.00  0.00     0.134 A 
ATOM     82  C   UNL A   1      47.823  26.100  32.481  1.00  0.00     0.134 A 
ATOM     83  F   UNL A   1      45.428  23.882  33.956  1.00  0.00    -0.206 F 
ATOM     84  C   UNL A   1      47.767  24.261  34.410  1.00  0.00     0.040 A 
ATOM     85  C   UNL A   1      48.981  25.665  33.079  1.00  0.00     0.040 A 
ATOM     86  F   UNL A   1      47.882  27.014  31.515  1.00  0.00    -0.206 F 
ATOM     87  C   UNL A   1      48.959  24.663  34.008  1.00  0.00     0.006 A 
ENDBRANCH  63  80
ENDBRANCH  37  38
ENDBRANCH  30  32
ENDBRANCH  29  30
ENDBRANCH  28  29
ENDBRANCH   1  28
TORSDOF 15
ENDMDL
MODEL 3
REMARK VINA RESULT:     -12.5      0.378      5.993
REMARK SMILES CCCc1cc(S(F)(F)(F)(F)F)cc2c1O[C@@H](C(F)(F)F)C(C(=O)OCCOC(=O)c1ccc(-c3c4nc(c(-c5c(F)cccc5F)c5ccc([nH]5)c(-c5c(F)cccc5F)c5nc(c(-c6c(F)cccc6F)c6ccc3[nH]6)C=C5)C=C4)cc1)=C2
REMARK SMILES IDX 26 1 25 2 23 3 24 4 22 5 4 6 5 7 15 8 6 9 14 10 16 11 13 12
REMARK SMILES IDX 85 13 17 14 3 15 2 16 1 17 7 18 8 19 9 20 10 21 11 22 12 23
REMARK SMILES IDX 18 24 19 25 20 26 21 27 27 28 28 29 29 30 30 31 31 32 32 33
REMARK SMILES IDX 84 34 33 35 83 36 34 37 35 38 36 39 77 40 37 41 82 42 76 43
REMARK SMILES IDX 78 44 38 45 81 46 75 47 74 48 39 50 65 51 48 52 64 53 49 54
REMARK SMILES IDX 52 55 63 56 79 57 50 58 51 59 62 61 80 62 53 63 40 64 41 65
REMARK SMILES IDX 46 66 42 67 43 68 45 69 47 70 44 71 66 72 67 73 72 74 68 75
REMARK SMILES IDX 69 76 71 77 73 78 70 79 54 80 55 81 60 82 56 83 57 84 59 85
REMARK SMILES IDX 61 86 58 87
REMARK H PARENT 78 49 52 60
REMARK Flexibility Score: inf
ROOT
ATOM      1  C   UNL A   1      42.564  21.839  25.797  1.00  0.00     0.275 C 
ENDROOT
BRANCH   1   2
ATOM      2  O   UNL A   1      41.215  21.986  25.383  1.00  0.00    -0.459 OA
BRANCH   2   3
ATOM      3  C   UNL A   1      40.159  21.616  26.259  1.00  0.00     0.338 C 
ATOM      4  O   UNL A   1      40.411  20.952  27.313  1.00  0.00    -0.246 OA
BRANCH   3   5
ATOM      5  C   UNL A   1      38.729  22.012  25.933  1.00  0.00     0.087 C 
ATOM      6  C   UNL A   1      34.739  23.185  25.541  1.00  0.00    -0.004 A 
ATOM      7  C   UNL A   1      33.784  22.264  25.151  1.00  0.00     0.032 A 
ATOM      8  C   UNL A   1      36.033  22.761  25.714  1.00  0.00     0.131 A 
ATOM      9  C   UNL A   1      34.115  20.950  24.943  1.00  0.00     0.108 A 
ATOM     10  C   UNL A   1      36.408  21.446  25.496  1.00  0.00     0.019 A 
ATOM     11  O   UNL A   1      36.946  23.660  26.209  1.00  0.00    -0.475 OA
ATOM     12  C   UNL A   1      35.423  20.545  25.109  1.00  0.00     0.036 A 
ATOM     13  C   UNL A   1      37.794  21.088  25.744  1.00  0.00     0.027 C 
ATOM     14  C   UNL A   1      38.336  23.479  25.818  1.00  0.00     0.316 C 
BRANCH   6  15
ATOM     15  C   UNL A   1      34.289  24.633  25.649  1.00  0.00     0.039 C 
BRANCH  15  16
ATOM     16  C   UNL A   1      33.313  24.944  24.526  1.00  0.00     0.001 C 
ATOM     17  C   UNL A   1      33.653  26.295  23.918  1.00  0.00     0.004 C 
ENDBRANCH  15  16
ENDBRANCH   6  15
BRANCH   9  18
ATOM     18  S   UNL A   1      32.846  19.756  24.457  1.00  0.00     0.310 S 
ATOM     19  F   UNL A   1      33.980  18.777  23.937  1.00  0.00    -0.094 F 
ATOM     20  F   UNL A   1      32.903  20.460  23.048  1.00  0.00    -0.094 F 
ATOM     21  F   UNL A   1      31.804  18.727  23.932  1.00  0.00    -0.094 F 
ATOM     22  F   UNL A   1      32.907  18.980  25.831  1.00  0.00    -0.094 F 
ATOM     23  F   UNL A   1      33.986  20.723  24.968  1.00  0.00    -0.094 F 
ENDBRANCH   9  18
BRANCH  14  24
ATOM     24  C   UNL A   1      39.221  24.304  26.737  1.00  0.00     0.430 C 
ATOM     25  F   UNL A   1      39.646  23.544  27.742  1.00  0.00    -0.167 F 
ATOM     26  F   UNL A   1      40.268  24.760  26.053  1.00  0.00    -0.167 F 
ATOM     27  F   UNL A   1      38.527  25.329  27.220  1.00  0.00    -0.167 F 
ENDBRANCH  14  24
ENDBRANCH   3   5
ENDBRANCH   2   3
ENDBRANCH   1   2
BRANCH   1  28
ATOM     28  C   UNL A   1      43.484  22.465  24.761  1.00  0.00     0.275 C 
BRANCH  28  29
ATOM     29  O   UNL A   1      43.187  23.849  24.640  1.00  0.00    -0.458 OA
BRANCH  29  30
ATOM     30  C   UNL A   1      44.023  24.811  25.267  1.00  0.00     0.338 C 
ATOM     31  O   UNL A   1      45.202  25.006  24.837  1.00  0.00    -0.246 OA
BRANCH  30  32
ATOM     32  C   UNL A   1      43.504  25.610  26.453  1.00  0.00     0.060 A 
ATOM     33  C   UNL A   1      42.870  24.945  27.489  1.00  0.00     0.016 A 
ATOM     34  C   UNL A   1      43.661  26.928  26.474  1.00  0.00     0.016 A 
ATOM     35  C   UNL A   1      42.175  25.798  28.378  1.00  0.00     0.010 A 
ATOM     36  C   UNL A   1      43.064  27.688  27.451  1.00  0.00     0.010 A 
ATOM     37  C   UNL A   1      42.372  27.101  28.474  1.00  0.00    -0.014 A 
BRANCH  37  38
ATOM     38  C   UNL A   1      41.858  27.904  29.657  1.00  0.00     0.031 A 
ATOM     39  C   UNL A   1      42.532  27.821  30.877  1.00  0.00     0.074 A 
ATOM     40  C   UNL A   1      40.737  28.689  29.443  1.00  0.00     0.049 A 
ATOM     41  N   UNL A   1      42.257  28.480  32.004  1.00  0.00    -0.248 NA
ATOM     42  C   UNL A   1      43.702  26.963  31.116  1.00  0.00     0.031 C 
ATOM     43  C   UNL A   1      40.057  28.783  28.214  1.00  0.00     0.029 A 
ATOM     44  N   UNL A   1      40.088  29.499  30.348  1.00  0.00    -0.354 N 
ATOM     45  C   UNL A   1      43.136  28.153  32.954  1.00  0.00     0.074 A 
ATOM     46  C   UNL A   1      44.074  27.169  32.398  1.00  0.00     0.031 C 
ATOM     47  C   UNL A   1      39.006  29.629  28.377  1.00  0.00     0.029 A 
ATOM     48  C   UNL A   1      39.013  30.078  29.711  1.00  0.00     0.049 A 
ATOM     49  H   UNL A   1      40.348  29.640  31.286  1.00  0.00     0.167 HD
ATOM     50  C   UNL A   1      43.193  28.640  34.261  1.00  0.00     0.037 A 
ATOM     51  C   UNL A   1      38.077  30.949  30.248  1.00  0.00     0.037 A 
ATOM     52  C   UNL A   1      42.284  29.545  34.784  1.00  0.00     0.049 A 
ATOM     53  C   UNL A   1      38.100  31.391  31.573  1.00  0.00     0.074 A 
ATOM     54  C   UNL A   1      42.332  30.051  36.098  1.00  0.00     0.029 A 
ATOM     55  N   UNL A   1      41.193  30.105  34.156  1.00  0.00    -0.354 N 
ATOM     56  N   UNL A   1      39.001  31.095  32.511  1.00  0.00    -0.248 NA
ATOM     57  C   UNL A   1      37.097  32.288  32.161  1.00  0.00     0.031 C 
ATOM     58  C   UNL A   1      41.279  30.898  36.262  1.00  0.00     0.029 A 
ATOM     59  C   UNL A   1      40.557  30.933  35.054  1.00  0.00     0.049 A 
ATOM     60  H   UNL A   1      40.917  29.941  33.225  1.00  0.00     0.167 HD
ATOM     61  C   UNL A   1      38.702  31.722  33.650  1.00  0.00     0.074 A 
ATOM     62  C   UNL A   1      37.468  32.493  33.444  1.00  0.00     0.031 C 
ATOM     63  C   UNL A   1      39.410  31.685  34.852  1.00  0.00     0.037 A 
BRANCH  50  64
ATOM     64  C   UNL A   1      44.316  28.151  35.161  1.00  0.00     0.057 A 
ATOM     65  C   UNL A   1      45.505  28.861  35.213  1.00  0.00     0.134 A 
ATOM     66  C   UNL A   1      44.137  27.053  35.886  1.00  0.00     0.134 A 
ATOM     67  F   UNL A   1      45.641  30.085  34.712  1.00  0.00    -0.206 F 
ATOM     68  C   UNL A   1      46.560  28.167  35.852  1.00  0.00     0.040 A 
ATOM     69  C   UNL A   1      45.179  26.504  36.594  1.00  0.00     0.040 A 
ATOM     70  F   UNL A   1      42.938  26.480  35.928  1.00  0.00    -0.206 F 
ATOM     71  C   UNL A   1      46.398  27.121  36.642  1.00  0.00     0.006 A 
ENDBRANCH  50  64
BRANCH  51  72
ATOM     72  C   UNL A   1      36.964  31.452  29.344  1.00  0.00     0.057 A 
ATOM     73  C   UNL A   1      37.068  32.708  28.769  1.00  0.00     0.134 A 
ATOM     74  C   UNL A   1      35.905  30.680  29.127  1.00  0.00     0.134 A 
ATOM     75  F   UNL A   1      38.201  33.404  28.747  1.00  0.00    -0.206 F 
ATOM     76  C   UNL A   1      35.860  33.182  28.205  1.00  0.00     0.040 A 
ATOM     77  C   UNL A   1      34.812  31.166  28.449  1.00  0.00     0.040 A 
ATOM     78  F   UNL A   1      35.902  29.426  29.568  1.00  0.00    -0.206 F 
ATOM     79  C   UNL A   1      34.824  32.421  27.905  1.00  0.00     0.006 A 
ENDBRANCH  51  72
BRANCH  63  80
ATOM     80  C   UNL A   1      38.891  32.520  36.013  1.00  0.00     0.057 A 
ATOM     81  C   UNL A   1      39.207  33.867  36.062  1.00  0.00     0.134 A 
ATOM     82  C   UNL A   1      38.160  31.948  36.963  1.00  0.00     0.134 A 
ATOM     83  F   UNL A   1      39.711  34.532  35.027  1.00  0.00    -0.206 F 
ATOM     84  C   UNL A   1      38.944  34.472  37.314  1.00  0.00     0.040 A 
ATOM     85  C   UNL A   1      37.824  32.642  38.099  1.00  0.00     0.040 A 
ATOM     86  F   UNL A   1      37.749  30.692  36.811  1.00  0.00    -0.206 F 
ATOM     87  C   UNL A   1      38.154  33.961  38.241  1.00  0.00     0.006 A 
ENDBRANCH  63  80
ENDBRANCH  37  38
ENDBRANCH  30  32
ENDBRANCH  29  30
ENDBRANCH  28  29
ENDBRANCH   1  28
TORSDOF 15
ENDMDL
