MODEL 1
REMARK VINA RESULT:     -12.2      0.000      0.000
REMARK SMILES O=C(OCCOC(=O)[C@@H]1CN(C(=O)C2CCCC2)C[C@H]1c1ccccc1)c1ccc(-c2c3nc(c(-c4c(F)cccc4F)c4ccc([nH]4)c(-c4c(F)cccc4F)c4nc(c(-c5c(F)cccc5F)c5ccc2[nH]5)C=C4)C=C3)cc1
REMARK SMILES IDX 4 1 3 2 2 3 1 4 27 5 28 6 80 7 29 8 79 9 30 10 31 11 32 12
REMARK SMILES IDX 73 13 33 14 78 15 72 16 74 17 34 18 77 19 71 20 70 21 35 23
REMARK SMILES IDX 61 24 44 25 60 26 45 27 48 28 59 29 75 30 46 31 47 32 58 34
REMARK SMILES IDX 76 35 49 36 36 37 37 38 42 39 38 40 39 41 41 42 43 43 40 44
REMARK SMILES IDX 62 45 63 46 68 47 64 48 65 49 67 50 69 51 66 52 50 53 51 54
REMARK SMILES IDX 56 55 52 56 53 57 55 58 57 59 54 60 5 61 6 62 7 63 8 64 9 65
REMARK SMILES IDX 10 66 20 67 11 68 19 69 21 70 22 71 26 72 23 73 25 74 24 75
REMARK SMILES IDX 12 76 13 77 14 78 15 79 18 80 16 81 17 82
REMARK H PARENT 74 22 48 33
REMARK Flexibility Score: inf
ROOT
ATOM      1  C   UNL A   1      32.133  32.956  26.789  1.00  0.00     0.275 C 
ENDROOT
BRANCH   1   2
ATOM      2  O   UNL A   1      32.122  33.751  27.994  1.00  0.00    -0.458 OA
BRANCH   2   3
ATOM      3  C   UNL A   1      33.180  34.468  28.431  1.00  0.00     0.338 C 
ATOM      4  O   UNL A   1      33.094  35.682  28.582  1.00  0.00    -0.246 OA
BRANCH   3   5
ATOM      5  C   UNL A   1      34.429  33.743  28.809  1.00  0.00     0.060 A 
ATOM      6  C   UNL A   1      35.727  34.212  28.590  1.00  0.00     0.016 A 
ATOM      7  C   UNL A   1      34.273  32.509  29.445  1.00  0.00     0.016 A 
ATOM      8  C   UNL A   1      36.835  33.542  29.128  1.00  0.00     0.010 A 
ATOM      9  C   UNL A   1      35.372  31.853  30.004  1.00  0.00     0.010 A 
ATOM     10  C   UNL A   1      36.667  32.372  29.875  1.00  0.00    -0.014 A 
BRANCH  10  11
ATOM     11  C   UNL A   1      37.824  31.630  30.443  1.00  0.00     0.031 A 
ATOM     12  C   UNL A   1      38.295  31.960  31.834  1.00  0.00     0.074 A 
ATOM     13  C   UNL A   1      38.500  30.713  29.721  1.00  0.00     0.049 A 
ATOM     14  N   UNL A   1      39.301  31.464  32.508  1.00  0.00    -0.248 NA
ATOM     15  C   UNL A   1      37.558  33.017  32.546  1.00  0.00     0.031 C 
ATOM     16  C   UNL A   1      38.215  30.333  28.337  1.00  0.00     0.029 A 
ATOM     17  N   UNL A   1      39.592  29.945  30.054  1.00  0.00    -0.354 N 
ATOM     18  C   UNL A   1      39.304  32.143  33.718  1.00  0.00     0.074 A 
ATOM     19  C   UNL A   1      38.294  33.173  33.632  1.00  0.00     0.031 C 
ATOM     20  C   UNL A   1      39.118  29.418  27.939  1.00  0.00     0.029 A 
ATOM     21  C   UNL A   1      40.050  29.154  29.028  1.00  0.00     0.049 A 
ATOM     22  H   UNL A   1      40.008  29.962  30.947  1.00  0.00     0.167 HD
ATOM     23  C   UNL A   1      40.013  31.884  34.841  1.00  0.00     0.037 A 
ATOM     24  C   UNL A   1      41.098  28.307  28.970  1.00  0.00     0.037 A 
ATOM     25  C   UNL A   1      40.977  30.830  34.961  1.00  0.00     0.049 A 
ATOM     26  C   UNL A   1      41.914  28.058  30.207  1.00  0.00     0.074 A 
ATOM     27  C   UNL A   1      41.663  30.407  36.083  1.00  0.00     0.029 A 
ATOM     28  N   UNL A   1      41.389  30.027  33.908  1.00  0.00    -0.354 N 
ATOM     29  N   UNL A   1      41.802  28.604  31.393  1.00  0.00    -0.248 NA
ATOM     30  C   UNL A   1      42.971  27.039  30.112  1.00  0.00     0.031 C 
ATOM     31  C   UNL A   1      42.504  29.352  35.707  1.00  0.00     0.029 A 
ATOM     32  C   UNL A   1      42.325  29.110  34.354  1.00  0.00     0.049 A 
ATOM     33  H   UNL A   1      41.064  30.098  32.982  1.00  0.00     0.167 HD
ATOM     34  C   UNL A   1      42.726  27.954  32.199  1.00  0.00     0.074 A 
ATOM     35  C   UNL A   1      43.408  26.988  31.363  1.00  0.00     0.031 C 
ATOM     36  C   UNL A   1      42.967  28.127  33.521  1.00  0.00     0.037 A 
BRANCH  23  37
ATOM     37  C   UNL A   1      39.686  32.727  36.035  1.00  0.00     0.057 A 
ATOM     38  C   UNL A   1      38.630  32.383  36.893  1.00  0.00     0.134 A 
ATOM     39  C   UNL A   1      40.371  33.918  36.294  1.00  0.00     0.134 A 
ATOM     40  F   UNL A   1      37.919  31.264  36.680  1.00  0.00    -0.206 F 
ATOM     41  C   UNL A   1      38.229  33.222  37.930  1.00  0.00     0.040 A 
ATOM     42  C   UNL A   1      39.997  34.752  37.349  1.00  0.00     0.040 A 
ATOM     43  F   UNL A   1      41.391  34.302  35.513  1.00  0.00    -0.206 F 
ATOM     44  C   UNL A   1      38.915  34.413  38.160  1.00  0.00     0.006 A 
ENDBRANCH  23  37
BRANCH  24  45
ATOM     45  C   UNL A   1      41.414  27.584  27.713  1.00  0.00     0.057 A 
ATOM     46  C   UNL A   1      42.196  28.171  26.711  1.00  0.00     0.134 A 
ATOM     47  C   UNL A   1      40.901  26.306  27.464  1.00  0.00     0.134 A 
ATOM     48  F   UNL A   1      42.687  29.407  26.878  1.00  0.00    -0.206 F 
ATOM     49  C   UNL A   1      42.447  27.517  25.502  1.00  0.00     0.040 A 
ATOM     50  C   UNL A   1      41.163  25.633  26.268  1.00  0.00     0.040 A 
ATOM     51  F   UNL A   1      40.121  25.704  28.370  1.00  0.00    -0.206 F 
ATOM     52  C   UNL A   1      41.934  26.242  25.280  1.00  0.00     0.006 A 
ENDBRANCH  24  45
BRANCH  36  53
ATOM     53  C   UNL A   1      43.945  27.199  34.171  1.00  0.00     0.057 A 
ATOM     54  C   UNL A   1      43.553  25.973  34.717  1.00  0.00     0.134 A 
ATOM     55  C   UNL A   1      45.309  27.518  34.195  1.00  0.00     0.134 A 
ATOM     56  F   UNL A   1      42.259  25.618  34.738  1.00  0.00    -0.206 F 
ATOM     57  C   UNL A   1      44.486  25.097  35.274  1.00  0.00     0.040 A 
ATOM     58  C   UNL A   1      46.252  26.642  34.730  1.00  0.00     0.040 A 
ATOM     59  F   UNL A   1      45.745  28.679  33.683  1.00  0.00    -0.206 F 
ATOM     60  C   UNL A   1      45.840  25.427  35.274  1.00  0.00     0.006 A 
ENDBRANCH  36  53
ENDBRANCH  10  11
ENDBRANCH   3   5
ENDBRANCH   2   3
ENDBRANCH   1   2
BRANCH   1  61
ATOM     61  C   UNL A   1      31.499  31.568  26.884  1.00  0.00     0.274 C 
BRANCH  61  62
ATOM     62  O   UNL A   1      32.121  30.575  26.038  1.00  0.00    -0.462 OA
BRANCH  62  63
ATOM     63  C   UNL A   1      31.801  29.290  26.371  1.00  0.00     0.311 C 
ATOM     64  O   UNL A   1      31.747  28.875  27.526  1.00  0.00    -0.252 OA
BRANCH  63  65
ATOM     65  C   UNL A   1      31.640  28.353  25.196  1.00  0.00     0.128 C 
ATOM     66  C   UNL A   1      32.957  27.608  24.958  1.00  0.00     0.135 C 
ATOM     67  C   UNL A   1      31.344  28.943  23.813  1.00  0.00     0.055 C 
ATOM     68  N   UNL A   1      32.836  27.085  23.609  1.00  0.00    -0.341 N 
ATOM     69  C   UNL A   1      31.814  27.811  22.884  1.00  0.00     0.128 C 
BRANCH  67  70
ATOM     70  C   UNL A   1      29.947  29.440  23.469  1.00  0.00    -0.042 A 
ATOM     71  C   UNL A   1      29.585  30.779  23.739  1.00  0.00     0.004 A 
ATOM     72  C   UNL A   1      28.936  28.578  23.026  1.00  0.00     0.004 A 
ATOM     73  C   UNL A   1      28.274  31.235  23.573  1.00  0.00     0.000 A 
ATOM     74  C   UNL A   1      27.619  29.035  22.870  1.00  0.00     0.000 A 
ATOM     75  C   UNL A   1      27.288  30.358  23.144  1.00  0.00     0.000 A 
ENDBRANCH  67  70
BRANCH  68  76
ATOM     76  C   UNL A   1      33.454  26.034  22.980  1.00  0.00     0.225 C 
ATOM     77  O   UNL A   1      33.880  26.162  21.828  1.00  0.00    -0.275 OA
BRANCH  76  78
ATOM     78  C   UNL A   1      33.575  24.675  23.645  1.00  0.00     0.078 C 
ATOM     79  C   UNL A   1      33.346  23.455  22.760  1.00  0.00     0.013 C 
ATOM     80  C   UNL A   1      34.916  24.456  24.354  1.00  0.00     0.013 C 
ATOM     81  C   UNL A   1      34.113  22.352  23.468  1.00  0.00     0.001 C 
ATOM     82  C   UNL A   1      35.365  23.048  23.976  1.00  0.00     0.001 C 
ENDBRANCH  76  78
ENDBRANCH  68  76
ENDBRANCH  63  65
ENDBRANCH  62  63
ENDBRANCH  61  62
ENDBRANCH   1  61
TORSDOF 14
ENDMDL
MODEL 2
REMARK VINA RESULT:     -12.1      0.186      1.084
REMARK SMILES O=C(OCCOC(=O)[C@@H]1CN(C(=O)C2CCCC2)C[C@H]1c1ccccc1)c1ccc(-c2c3nc(c(-c4c(F)cccc4F)c4ccc([nH]4)c(-c4c(F)cccc4F)c4nc(c(-c5c(F)cccc5F)c5ccc2[nH]5)C=C4)C=C3)cc1
REMARK SMILES IDX 4 1 3 2 2 3 1 4 27 5 28 6 80 7 29 8 79 9 30 10 31 11 32 12
REMARK SMILES IDX 73 13 33 14 78 15 72 16 74 17 34 18 77 19 71 20 70 21 35 23
REMARK SMILES IDX 61 24 44 25 60 26 45 27 48 28 59 29 75 30 46 31 47 32 58 34
REMARK SMILES IDX 76 35 49 36 36 37 37 38 42 39 38 40 39 41 41 42 43 43 40 44
REMARK SMILES IDX 62 45 63 46 68 47 64 48 65 49 67 50 69 51 66 52 50 53 51 54
REMARK SMILES IDX 56 55 52 56 53 57 55 58 57 59 54 60 5 61 6 62 7 63 8 64 9 65
REMARK SMILES IDX 10 66 20 67 11 68 19 69 21 70 22 71 26 72 23 73 25 74 24 75
REMARK SMILES IDX 12 76 13 77 14 78 15 79 18 80 16 81 17 82
REMARK H PARENT 74 22 48 33
REMARK Flexibility Score: inf
ROOT
ATOM      1  C   UNL A   1      32.356  33.065  26.845  1.00  0.00     0.275 C 
ENDROOT
BRANCH   1   2
ATOM      2  O   UNL A   1      32.175  33.917  27.996  1.00  0.00    -0.458 OA
BRANCH   2   3
ATOM      3  C   UNL A   1      33.180  34.580  28.607  1.00  0.00     0.338 C 
ATOM      4  O   UNL A   1      33.050  35.756  28.930  1.00  0.00    -0.246 OA
BRANCH   3   5
ATOM      5  C   UNL A   1      34.422  33.830  28.960  1.00  0.00     0.060 A 
ATOM      6  C   UNL A   1      35.719  34.221  28.619  1.00  0.00     0.016 A 
ATOM      7  C   UNL A   1      34.260  32.657  29.701  1.00  0.00     0.016 A 
ATOM      8  C   UNL A   1      36.834  33.544  29.135  1.00  0.00     0.010 A 
ATOM      9  C   UNL A   1      35.368  31.997  30.238  1.00  0.00     0.010 A 
ATOM     10  C   UNL A   1      36.670  32.444  29.983  1.00  0.00    -0.014 A 
BRANCH  10  11
ATOM     11  C   UNL A   1      37.833  31.697  30.533  1.00  0.00     0.031 A 
ATOM     12  C   UNL A   1      38.336  32.032  31.910  1.00  0.00     0.074 A 
ATOM     13  C   UNL A   1      38.486  30.768  29.803  1.00  0.00     0.049 A 
ATOM     14  N   UNL A   1      39.352  31.532  32.567  1.00  0.00    -0.248 NA
ATOM     15  C   UNL A   1      37.624  33.101  32.630  1.00  0.00     0.031 C 
ATOM     16  C   UNL A   1      38.167  30.380  28.428  1.00  0.00     0.029 A 
ATOM     17  N   UNL A   1      39.578  29.993  30.118  1.00  0.00    -0.354 N 
ATOM     18  C   UNL A   1      39.387  32.220  33.771  1.00  0.00     0.074 A 
ATOM     19  C   UNL A   1      38.384  33.258  33.699  1.00  0.00     0.031 C 
ATOM     20  C   UNL A   1      39.053  29.455  28.018  1.00  0.00     0.029 A 
ATOM     21  C   UNL A   1      40.007  29.191  29.089  1.00  0.00     0.049 A 
ATOM     22  H   UNL A   1      40.012  30.013  31.001  1.00  0.00     0.167 HD
ATOM     23  C   UNL A   1      40.117  31.963  34.881  1.00  0.00     0.037 A 
ATOM     24  C   UNL A   1      41.046  28.334  29.014  1.00  0.00     0.037 A 
ATOM     25  C   UNL A   1      41.074  30.901  34.987  1.00  0.00     0.049 A 
ATOM     26  C   UNL A   1      41.886  28.087  30.236  1.00  0.00     0.074 A 
ATOM     27  C   UNL A   1      41.781  30.480  36.098  1.00  0.00     0.029 A 
ATOM     28  N   UNL A   1      41.457  30.087  33.932  1.00  0.00    -0.354 N 
ATOM     29  N   UNL A   1      41.804  28.642  31.420  1.00  0.00    -0.248 NA
ATOM     30  C   UNL A   1      42.932  27.058  30.125  1.00  0.00     0.031 C 
ATOM     31  C   UNL A   1      42.604  29.415  35.712  1.00  0.00     0.029 A 
ATOM     32  C   UNL A   1      42.394  29.165  34.365  1.00  0.00     0.049 A 
ATOM     33  H   UNL A   1      41.113  30.154  33.012  1.00  0.00     0.167 HD
ATOM     34  C   UNL A   1      42.739  27.990  32.211  1.00  0.00     0.074 A 
ATOM     35  C   UNL A   1      43.395  27.011  31.367  1.00  0.00     0.031 C 
ATOM     36  C   UNL A   1      43.010  28.171  33.526  1.00  0.00     0.037 A 
BRANCH  23  37
ATOM     37  C   UNL A   1      39.824  32.817  36.075  1.00  0.00     0.057 A 
ATOM     38  C   UNL A   1      38.775  32.495  36.951  1.00  0.00     0.134 A 
ATOM     39  C   UNL A   1      40.533  33.998  36.316  1.00  0.00     0.134 A 
ATOM     40  F   UNL A   1      38.043  31.387  36.756  1.00  0.00    -0.206 F 
ATOM     41  C   UNL A   1      38.405  33.347  37.990  1.00  0.00     0.040 A 
ATOM     42  C   UNL A   1      40.189  34.844  37.373  1.00  0.00     0.040 A 
ATOM     43  F   UNL A   1      41.546  34.361  35.518  1.00  0.00    -0.206 F 
ATOM     44  C   UNL A   1      39.114  34.527  38.203  1.00  0.00     0.006 A 
ENDBRANCH  23  37
BRANCH  24  45
ATOM     45  C   UNL A   1      41.328  27.599  27.756  1.00  0.00     0.057 A 
ATOM     46  C   UNL A   1      42.089  28.174  26.732  1.00  0.00     0.134 A 
ATOM     47  C   UNL A   1      40.803  26.322  27.530  1.00  0.00     0.134 A 
ATOM     48  F   UNL A   1      42.590  29.409  26.877  1.00  0.00    -0.206 F 
ATOM     49  C   UNL A   1      42.309  27.509  25.523  1.00  0.00     0.040 A 
ATOM     50  C   UNL A   1      41.033  25.637  26.334  1.00  0.00     0.040 A 
ATOM     51  F   UNL A   1      40.042  25.731  28.460  1.00  0.00    -0.206 F 
ATOM     52  C   UNL A   1      41.784  26.234  25.323  1.00  0.00     0.006 A 
ENDBRANCH  24  45
BRANCH  36  53
ATOM     53  C   UNL A   1      43.993  27.238  34.162  1.00  0.00     0.057 A 
ATOM     54  C   UNL A   1      45.362  27.521  34.205  1.00  0.00     0.134 A 
ATOM     55  C   UNL A   1      43.549  26.068  34.791  1.00  0.00     0.134 A 
ATOM     56  F   UNL A   1      45.850  28.618  33.607  1.00  0.00    -0.206 F 
ATOM     57  C   UNL A   1      46.259  26.665  34.846  1.00  0.00     0.040 A 
ATOM     58  C   UNL A   1      44.432  25.217  35.452  1.00  0.00     0.040 A 
ATOM     59  F   UNL A   1      42.247  25.746  34.785  1.00  0.00    -0.206 F 
ATOM     60  C   UNL A   1      45.793  25.514  35.480  1.00  0.00     0.006 A 
ENDBRANCH  36  53
ENDBRANCH  10  11
ENDBRANCH   3   5
ENDBRANCH   2   3
ENDBRANCH   1   2
BRANCH   1  61
ATOM     61  C   UNL A   1      31.658  31.706  26.886  1.00  0.00     0.274 C 
BRANCH  61  62
ATOM     62  O   UNL A   1      32.221  30.725  25.987  1.00  0.00    -0.462 OA
BRANCH  62  63
ATOM     63  C   UNL A   1      32.022  29.434  26.388  1.00  0.00     0.311 C 
ATOM     64  O   UNL A   1      32.124  29.054  27.551  1.00  0.00    -0.252 OA
BRANCH  63  65
ATOM     65  C   UNL A   1      31.791  28.451  25.263  1.00  0.00     0.128 C 
ATOM     66  C   UNL A   1      33.099  27.716  24.955  1.00  0.00     0.135 C 
ATOM     67  C   UNL A   1      31.383  28.984  23.885  1.00  0.00     0.055 C 
ATOM     68  N   UNL A   1      32.888  27.141  23.639  1.00  0.00    -0.341 N 
ATOM     69  C   UNL A   1      31.802  27.824  22.966  1.00  0.00     0.128 C 
BRANCH  67  70
ATOM     70  C   UNL A   1      29.957  29.448  23.629  1.00  0.00    -0.042 A 
ATOM     71  C   UNL A   1      29.017  28.566  23.050  1.00  0.00     0.004 A 
ATOM     72  C   UNL A   1      29.562  30.780  23.807  1.00  0.00     0.004 A 
ATOM     73  C   UNL A   1      27.743  28.995  22.667  1.00  0.00     0.000 A 
ATOM     74  C   UNL A   1      28.287  31.211  23.413  1.00  0.00     0.000 A 
ATOM     75  C   UNL A   1      27.380  30.322  22.843  1.00  0.00     0.000 A 
ENDBRANCH  67  70
BRANCH  68  76
ATOM     76  C   UNL A   1      33.475  26.076  23.005  1.00  0.00     0.225 C 
ATOM     77  O   UNL A   1      33.828  26.171  21.825  1.00  0.00    -0.275 OA
BRANCH  76  78
ATOM     78  C   UNL A   1      33.650  24.738  23.702  1.00  0.00     0.078 C 
ATOM     79  C   UNL A   1      33.736  23.505  22.810  1.00  0.00     0.013 C 
ATOM     80  C   UNL A   1      34.862  24.688  24.637  1.00  0.00     0.013 C 
ATOM     81  C   UNL A   1      34.502  22.505  23.658  1.00  0.00     0.001 C 
ATOM     82  C   UNL A   1      35.546  23.352  24.366  1.00  0.00     0.001 C 
ENDBRANCH  76  78
ENDBRANCH  68  76
ENDBRANCH  63  65
ENDBRANCH  62  63
ENDBRANCH  61  62
ENDBRANCH   1  61
TORSDOF 14
ENDMDL
MODEL 3
REMARK VINA RESULT:     -12.1      4.850     10.223
REMARK SMILES O=C(OCCOC(=O)[C@@H]1CN(C(=O)C2CCCC2)C[C@H]1c1ccccc1)c1ccc(-c2c3nc(c(-c4c(F)cccc4F)c4ccc([nH]4)c(-c4c(F)cccc4F)c4nc(c(-c5c(F)cccc5F)c5ccc2[nH]5)C=C4)C=C3)cc1
REMARK SMILES IDX 4 1 3 2 2 3 1 4 27 5 28 6 80 7 29 8 79 9 30 10 31 11 32 12
REMARK SMILES IDX 73 13 33 14 78 15 72 16 74 17 34 18 77 19 71 20 70 21 35 23
REMARK SMILES IDX 61 24 44 25 60 26 45 27 48 28 59 29 75 30 46 31 47 32 58 34
REMARK SMILES IDX 76 35 49 36 36 37 37 38 42 39 38 40 39 41 41 42 43 43 40 44
REMARK SMILES IDX 62 45 63 46 68 47 64 48 65 49 67 50 69 51 66 52 50 53 51 54
REMARK SMILES IDX 56 55 52 56 53 57 55 58 57 59 54 60 5 61 6 62 7 63 8 64 9 65
REMARK SMILES IDX 10 66 20 67 11 68 19 69 21 70 22 71 26 72 23 73 25 74 24 75
REMARK SMILES IDX 12 76 13 77 14 78 15 79 18 80 16 81 17 82
REMARK H PARENT 74 22 48 33
REMARK Flexibility Score: inf
ROOT
ATOM      1  C   UNL A   1      39.256  20.166  25.711  1.00  0.00     0.275 C 
ENDROOT
BRANCH   1   2
ATOM      2  O   UNL A   1      40.214  19.088  25.678  1.00  0.00    -0.458 OA
BRANCH   2   3
ATOM      3  C   UNL A   1      41.518  19.229  26.003  1.00  0.00     0.338 C 
ATOM      4  O   UNL A   1      42.287  18.276  25.939  1.00  0.00    -0.246 OA
BRANCH   3   5
ATOM      5  C   UNL A   1      42.023  20.589  26.358  1.00  0.00     0.060 A 
ATOM      6  C   UNL A   1      42.541  21.514  25.449  1.00  0.00     0.016 A 
ATOM      7  C   UNL A   1      41.951  20.956  27.704  1.00  0.00     0.016 A 
ATOM      8  C   UNL A   1      42.837  22.827  25.847  1.00  0.00     0.010 A 
ATOM      9  C   UNL A   1      42.219  22.268  28.098  1.00  0.00     0.010 A 
ATOM     10  C   UNL A   1      42.642  23.230  27.172  1.00  0.00    -0.014 A 
BRANCH  10  11
ATOM     11  C   UNL A   1      42.962  24.610  27.627  1.00  0.00     0.031 A 
ATOM     12  C   UNL A   1      44.403  25.015  27.785  1.00  0.00     0.074 A 
ATOM     13  C   UNL A   1      41.993  25.487  27.960  1.00  0.00     0.049 A 
ATOM     14  N   UNL A   1      44.905  26.149  28.200  1.00  0.00    -0.248 NA
ATOM     15  C   UNL A   1      45.413  23.991  27.471  1.00  0.00     0.031 C 
ATOM     16  C   UNL A   1      40.554  25.226  27.930  1.00  0.00     0.029 A 
ATOM     17  N   UNL A   1      42.082  26.783  28.414  1.00  0.00    -0.354 N 
ATOM     18  C   UNL A   1      46.280  25.971  28.184  1.00  0.00     0.074 A 
ATOM     19  C   UNL A   1      46.528  24.587  27.854  1.00  0.00     0.031 C 
ATOM     20  C   UNL A   1      39.901  26.319  28.362  1.00  0.00     0.029 A 
ATOM     21  C   UNL A   1      40.868  27.354  28.709  1.00  0.00     0.049 A 
ATOM     22  H   UNL A   1      42.938  27.257  28.517  1.00  0.00     0.167 HD
ATOM     23  C   UNL A   1      47.262  26.890  28.337  1.00  0.00     0.037 A 
ATOM     24  C   UNL A   1      40.564  28.573  29.199  1.00  0.00     0.037 A 
ATOM     25  C   UNL A   1      47.031  28.279  28.608  1.00  0.00     0.049 A 
ATOM     26  C   UNL A   1      41.662  29.576  29.414  1.00  0.00     0.074 A 
ATOM     27  C   UNL A   1      47.945  29.314  28.666  1.00  0.00     0.029 A 
ATOM     28  N   UNL A   1      45.784  28.826  28.868  1.00  0.00    -0.354 N 
ATOM     29  N   UNL A   1      42.954  29.433  29.246  1.00  0.00    -0.248 NA
ATOM     30  C   UNL A   1      41.257  30.924  29.840  1.00  0.00     0.031 C 
ATOM     31  C   UNL A   1      47.251  30.491  28.973  1.00  0.00     0.029 A 
ATOM     32  C   UNL A   1      45.904  30.187  29.089  1.00  0.00     0.049 A 
ATOM     33  H   UNL A   1      44.939  28.322  28.891  1.00  0.00     0.167 HD
ATOM     34  C   UNL A   1      43.508  30.683  29.482  1.00  0.00     0.074 A 
ATOM     35  C   UNL A   1      42.415  31.569  29.829  1.00  0.00     0.031 C 
ATOM     36  C   UNL A   1      44.805  31.065  29.394  1.00  0.00     0.037 A 
BRANCH  23  37
ATOM     37  C   UNL A   1      48.662  26.400  28.129  1.00  0.00     0.057 A 
ATOM     38  C   UNL A   1      49.458  26.010  29.217  1.00  0.00     0.134 A 
ATOM     39  C   UNL A   1      49.244  26.382  26.858  1.00  0.00     0.134 A 
ATOM     40  F   UNL A   1      48.961  26.030  30.464  1.00  0.00    -0.206 F 
ATOM     41  C   UNL A   1      50.801  25.677  29.056  1.00  0.00     0.040 A 
ATOM     42  C   UNL A   1      50.581  26.020  26.681  1.00  0.00     0.040 A 
ATOM     43  F   UNL A   1      48.537  26.741  25.778  1.00  0.00    -0.206 F 
ATOM     44  C   UNL A   1      51.367  25.682  27.783  1.00  0.00     0.006 A 
ENDBRANCH  23  37
BRANCH  24  45
ATOM     45  C   UNL A   1      39.153  28.945  29.473  1.00  0.00     0.057 A 
ATOM     46  C   UNL A   1      38.567  28.711  30.723  1.00  0.00     0.134 A 
ATOM     47  C   UNL A   1      38.344  29.501  28.476  1.00  0.00     0.134 A 
ATOM     48  F   UNL A   1      39.283  28.149  31.707  1.00  0.00    -0.206 F 
ATOM     49  C   UNL A   1      37.224  29.006  30.967  1.00  0.00     0.040 A 
ATOM     50  C   UNL A   1      37.005  29.821  28.714  1.00  0.00     0.040 A 
ATOM     51  F   UNL A   1      38.837  29.721  27.251  1.00  0.00    -0.206 F 
ATOM     52  C   UNL A   1      36.440  29.567  29.963  1.00  0.00     0.006 A 
ENDBRANCH  24  45
BRANCH  36  53
ATOM     53  C   UNL A   1      45.110  32.518  29.587  1.00  0.00     0.057 A 
ATOM     54  C   UNL A   1      45.495  33.036  30.828  1.00  0.00     0.134 A 
ATOM     55  C   UNL A   1      45.073  33.396  28.497  1.00  0.00     0.134 A 
ATOM     56  F   UNL A   1      45.534  32.248  31.913  1.00  0.00    -0.206 F 
ATOM     57  C   UNL A   1      45.825  34.383  30.980  1.00  0.00     0.040 A 
ATOM     58  C   UNL A   1      45.420  34.739  28.632  1.00  0.00     0.040 A 
ATOM     59  F   UNL A   1      44.715  32.956  27.281  1.00  0.00    -0.206 F 
ATOM     60  C   UNL A   1      45.797  35.237  29.877  1.00  0.00     0.006 A 
ENDBRANCH  36  53
ENDBRANCH  10  11
ENDBRANCH   3   5
ENDBRANCH   2   3
ENDBRANCH   1   2
BRANCH   1  61
ATOM     61  C   UNL A   1      37.955  19.945  24.939  1.00  0.00     0.274 C 
BRANCH  61  62
ATOM     62  O   UNL A   1      36.831  20.696  25.449  1.00  0.00    -0.462 OA
BRANCH  62  63
ATOM     63  C   UNL A   1      36.334  21.612  24.566  1.00  0.00     0.311 C 
ATOM     64  O   UNL A   1      37.032  22.276  23.804  1.00  0.00    -0.252 OA
BRANCH  63  65
ATOM     65  C   UNL A   1      34.847  21.858  24.678  1.00  0.00     0.128 C 
ATOM     66  C   UNL A   1      34.600  23.057  25.599  1.00  0.00     0.135 C 
ATOM     67  C   UNL A   1      33.962  20.775  25.305  1.00  0.00     0.055 C 
ATOM     68  N   UNL A   1      33.200  22.943  25.969  1.00  0.00    -0.341 N 
ATOM     69  C   UNL A   1      32.734  21.592  25.741  1.00  0.00     0.128 C 
BRANCH  67  70
ATOM     70  C   UNL A   1      33.588  19.531  24.514  1.00  0.00    -0.042 A 
ATOM     71  C   UNL A   1      34.437  18.401  24.524  1.00  0.00     0.004 A 
ATOM     72  C   UNL A   1      32.493  19.504  23.639  1.00  0.00     0.004 A 
ATOM     73  C   UNL A   1      34.203  17.297  23.700  1.00  0.00     0.000 A 
ATOM     74  C   UNL A   1      32.267  18.399  22.806  1.00  0.00     0.000 A 
ATOM     75  C   UNL A   1      33.119  17.300  22.834  1.00  0.00     0.000 A 
ENDBRANCH  67  70
BRANCH  68  76
ATOM     76  C   UNL A   1      32.296  23.876  26.408  1.00  0.00     0.225 C 
ATOM     77  O   UNL A   1      31.607  23.652  27.408  1.00  0.00    -0.275 OA
BRANCH  76  78
ATOM     78  C   UNL A   1      32.065  25.172  25.651  1.00  0.00     0.078 C 
ATOM     79  C   UNL A   1      30.667  25.397  25.086  1.00  0.00     0.013 C 
ATOM     80  C   UNL A   1      32.417  26.425  26.459  1.00  0.00     0.013 C 
ATOM     81  C   UNL A   1      30.566  26.909  24.979  1.00  0.00     0.001 C 
ATOM     82  C   UNL A   1      31.277  27.410  26.225  1.00  0.00     0.001 C 
ENDBRANCH  76  78
ENDBRANCH  68  76
ENDBRANCH  63  65
ENDBRANCH  62  63
ENDBRANCH  61  62
ENDBRANCH   1  61
TORSDOF 14
ENDMDL
