MODEL 1
REMARK VINA RESULT:     -10.3      0.000      0.000
REMARK SMILES CN(CC(N)=O)c1ccccc1/C=C/C(=O)OCCOC(=O)c1ccc(-c2c3nc(c(-c4c(F)cccc4F)c4ccc([nH]4)c(-c4c(F)cccc4F)c4nc(c(-c5c(F)cccc5F)c5ccc2[nH]5)C=C4)C=C3)cc1
REMARK SMILES IDX 18 1 17 2 15 3 16 4 14 5 13 6 12 7 7 8 8 9 9 10 11 11 10 12
REMARK SMILES IDX 2 13 1 14 3 15 4 16 5 17 6 18 19 21 20 22 21 23 22 24 23 25
REMARK SMILES IDX 24 26 76 27 25 28 75 29 26 30 27 31 28 32 69 33 29 34 74 35
REMARK SMILES IDX 68 36 70 37 30 38 73 39 67 40 66 41 31 43 57 44 40 45 56 46
REMARK SMILES IDX 41 47 44 48 55 49 71 50 42 51 43 52 54 54 72 55 45 56 32 57
REMARK SMILES IDX 33 58 38 59 34 60 35 61 37 62 39 63 36 64 58 65 59 66 64 67
REMARK SMILES IDX 60 68 61 69 63 70 65 71 62 72 46 73 47 74 52 75 48 76 49 77
REMARK SMILES IDX 51 78 53 79 50 80
REMARK H PARENT 5 19 5 20 70 42 44 53
REMARK Flexibility Score: inf
ROOT
ATOM      1  C   UNL A   1      31.828  31.162  26.712  1.00  0.00     0.275 C 
ENDROOT
BRANCH   1   2
ATOM      2  O   UNL A   1      33.198  30.900  26.357  1.00  0.00    -0.459 OA
BRANCH   2   3
ATOM      3  C   UNL A   1      33.630  29.636  26.576  1.00  0.00     0.330 C 
ATOM      4  O   UNL A   1      34.125  29.209  27.609  1.00  0.00    -0.247 OA
BRANCH   3   5
ATOM      5  C   UNL A   1      33.431  28.757  25.410  1.00  0.00     0.094 C 
ATOM      6  C   UNL A   1      32.578  27.721  25.350  1.00  0.00     0.018 C 
BRANCH   6   7
ATOM      7  C   UNL A   1      32.507  26.865  24.153  1.00  0.00    -0.002 A 
ATOM      8  C   UNL A   1      31.343  26.757  23.358  1.00  0.00     0.044 A 
ATOM      9  C   UNL A   1      31.409  25.922  22.225  1.00  0.00     0.026 A 
ATOM     10  C   UNL A   1      32.549  25.182  21.907  1.00  0.00     0.002 A 
ATOM     11  C   UNL A   1      33.644  26.089  23.839  1.00  0.00     0.010 A 
ATOM     12  C   UNL A   1      33.664  25.252  22.725  1.00  0.00     0.001 A 
BRANCH   8  13
ATOM     13  N   UNL A   1      30.160  27.433  23.626  1.00  0.00    -0.365 N 
ATOM     14  C   UNL A   1      28.926  26.708  23.866  1.00  0.00     0.144 C 
BRANCH  13  15
ATOM     15  C   UNL A   1      30.130  28.899  23.624  1.00  0.00     0.215 C 
BRANCH  15  16
ATOM     16  C   UNL A   1      29.877  29.485  22.230  1.00  0.00     0.236 C 
ATOM     17  N   UNL A   1      30.958  30.077  21.633  1.00  0.00    -0.368 N 
ATOM     18  O   UNL A   1      28.793  29.456  21.653  1.00  0.00    -0.273 OA
ATOM     19  H   UNL A   1      31.826  30.100  22.097  1.00  0.00     0.159 HD
ATOM     20  H   UNL A   1      30.867  30.481  20.738  1.00  0.00     0.159 HD
ENDBRANCH  15  16
ENDBRANCH  13  15
ENDBRANCH   8  13
ENDBRANCH   6   7
ENDBRANCH   3   5
ENDBRANCH   2   3
ENDBRANCH   1   2
BRANCH   1  21
ATOM     21  C   UNL A   1      31.582  32.662  26.894  1.00  0.00     0.275 C 
BRANCH  21  22
ATOM     22  O   UNL A   1      32.805  33.416  26.813  1.00  0.00    -0.458 OA
BRANCH  22  23
ATOM     23  C   UNL A   1      33.217  33.970  27.979  1.00  0.00     0.338 C 
ATOM     24  O   UNL A   1      32.689  34.882  28.591  1.00  0.00    -0.246 OA
BRANCH  23  25
ATOM     25  C   UNL A   1      34.379  33.227  28.496  1.00  0.00     0.060 A 
ATOM     26  C   UNL A   1      34.154  32.249  29.470  1.00  0.00     0.016 A 
ATOM     27  C   UNL A   1      35.679  33.531  28.084  1.00  0.00     0.016 A 
ATOM     28  C   UNL A   1      35.229  31.571  30.040  1.00  0.00     0.010 A 
ATOM     29  C   UNL A   1      36.758  32.852  28.659  1.00  0.00     0.010 A 
ATOM     30  C   UNL A   1      36.541  31.877  29.648  1.00  0.00    -0.014 A 
BRANCH  30  31
ATOM     31  C   UNL A   1      37.685  31.200  30.303  1.00  0.00     0.031 A 
ATOM     32  C   UNL A   1      38.028  31.514  31.731  1.00  0.00     0.074 A 
ATOM     33  C   UNL A   1      38.411  30.297  29.619  1.00  0.00     0.049 A 
ATOM     34  N   UNL A   1      39.013  31.063  32.465  1.00  0.00    -0.248 NA
ATOM     35  C   UNL A   1      37.145  32.464  32.425  1.00  0.00     0.031 C 
ATOM     36  C   UNL A   1      38.163  29.888  28.237  1.00  0.00     0.029 A 
ATOM     37  N   UNL A   1      39.510  29.565  29.994  1.00  0.00    -0.354 N 
ATOM     38  C   UNL A   1      38.875  31.677  33.703  1.00  0.00     0.074 A 
ATOM     39  C   UNL A   1      37.725  32.552  33.614  1.00  0.00     0.031 C 
ATOM     40  C   UNL A   1      39.084  28.978  27.880  1.00  0.00     0.029 A 
ATOM     41  C   UNL A   1      40.006  28.768  28.993  1.00  0.00     0.049 A 
ATOM     42  H   UNL A   1      39.905  29.609  30.896  1.00  0.00     0.167 HD
ATOM     43  C   UNL A   1      39.636  31.521  34.813  1.00  0.00     0.037 A 
ATOM     44  C   UNL A   1      41.094  27.974  28.970  1.00  0.00     0.037 A 
ATOM     45  C   UNL A   1      40.777  30.648  34.902  1.00  0.00     0.049 A 
ATOM     46  C   UNL A   1      41.956  27.865  30.197  1.00  0.00     0.074 A 
ATOM     47  C   UNL A   1      41.594  30.404  35.993  1.00  0.00     0.029 A 
ATOM     48  N   UNL A   1      41.267  29.879  33.857  1.00  0.00    -0.354 N 
ATOM     49  N   UNL A   1      41.803  28.432  31.369  1.00  0.00    -0.248 NA
ATOM     50  C   UNL A   1      43.145  27.006  30.097  1.00  0.00     0.031 C 
ATOM     51  C   UNL A   1      42.603  29.520  35.596  1.00  0.00     0.029 A 
ATOM     52  C   UNL A   1      42.388  29.179  34.271  1.00  0.00     0.049 A 
ATOM     53  H   UNL A   1      40.875  29.836  32.955  1.00  0.00     0.167 HD
ATOM     54  C   UNL A   1      42.858  27.983  32.152  1.00  0.00     0.074 A 
ATOM     55  C   UNL A   1      43.639  27.085  31.325  1.00  0.00     0.031 C 
ATOM     56  C   UNL A   1      43.154  28.286  33.439  1.00  0.00     0.037 A 
BRANCH  43  57
ATOM     57  C   UNL A   1      39.268  32.332  36.020  1.00  0.00     0.057 A 
ATOM     58  C   UNL A   1      38.385  31.850  36.994  1.00  0.00     0.134 A 
ATOM     59  C   UNL A   1      39.835  33.596  36.230  1.00  0.00     0.134 A 
ATOM     60  F   UNL A   1      37.799  30.651  36.846  1.00  0.00    -0.206 F 
ATOM     61  C   UNL A   1      38.062  32.604  38.123  1.00  0.00     0.040 A 
ATOM     62  C   UNL A   1      39.538  34.350  37.366  1.00  0.00     0.040 A 
ATOM     63  F   UNL A   1      40.694  34.114  35.338  1.00  0.00    -0.206 F 
ATOM     64  C   UNL A   1      38.644  33.856  38.314  1.00  0.00     0.006 A 
ENDBRANCH  43  57
BRANCH  44  65
ATOM     65  C   UNL A   1      41.438  27.227  27.736  1.00  0.00     0.057 A 
ATOM     66  C   UNL A   1      42.187  27.821  26.715  1.00  0.00     0.134 A 
ATOM     67  C   UNL A   1      41.016  25.906  27.544  1.00  0.00     0.134 A 
ATOM     68  F   UNL A   1      42.598  29.093  26.832  1.00  0.00    -0.206 F 
ATOM     69  C   UNL A   1      42.495  27.134  25.541  1.00  0.00     0.040 A 
ATOM     70  C   UNL A   1      41.337  25.198  26.385  1.00  0.00     0.040 A 
ATOM     71  F   UNL A   1      40.293  25.281  28.486  1.00  0.00    -0.206 F 
ATOM     72  C   UNL A   1      42.073  25.816  25.375  1.00  0.00     0.006 A 
ENDBRANCH  44  65
BRANCH  56  73
ATOM     73  C   UNL A   1      44.355  27.621  34.042  1.00  0.00     0.057 A 
ATOM     74  C   UNL A   1      44.269  26.374  34.673  1.00  0.00     0.134 A 
ATOM     75  C   UNL A   1      45.620  28.219  33.958  1.00  0.00     0.134 A 
ATOM     76  F   UNL A   1      43.085  25.756  34.799  1.00  0.00    -0.206 F 
ATOM     77  C   UNL A   1      45.395  25.753  35.217  1.00  0.00     0.040 A 
ATOM     78  C   UNL A   1      46.756  27.598  34.477  1.00  0.00     0.040 A 
ATOM     79  F   UNL A   1      45.771  29.409  33.360  1.00  0.00    -0.206 F 
ATOM     80  C   UNL A   1      46.644  26.362  35.113  1.00  0.00     0.006 A 
ENDBRANCH  56  73
ENDBRANCH  30  31
ENDBRANCH  23  25
ENDBRANCH  22  23
ENDBRANCH  21  22
ENDBRANCH   1  21
TORSDOF 15
ENDMDL
MODEL 2
REMARK VINA RESULT:     -10.3      5.445     10.189
REMARK SMILES CN(CC(N)=O)c1ccccc1/C=C/C(=O)OCCOC(=O)c1ccc(-c2c3nc(c(-c4c(F)cccc4F)c4ccc([nH]4)c(-c4c(F)cccc4F)c4nc(c(-c5c(F)cccc5F)c5ccc2[nH]5)C=C4)C=C3)cc1
REMARK SMILES IDX 18 1 17 2 15 3 16 4 14 5 13 6 12 7 7 8 8 9 9 10 11 11 10 12
REMARK SMILES IDX 2 13 1 14 3 15 4 16 5 17 6 18 19 21 20 22 21 23 22 24 23 25
REMARK SMILES IDX 24 26 76 27 25 28 75 29 26 30 27 31 28 32 69 33 29 34 74 35
REMARK SMILES IDX 68 36 70 37 30 38 73 39 67 40 66 41 31 43 57 44 40 45 56 46
REMARK SMILES IDX 41 47 44 48 55 49 71 50 42 51 43 52 54 54 72 55 45 56 32 57
REMARK SMILES IDX 33 58 38 59 34 60 35 61 37 62 39 63 36 64 58 65 59 66 64 67
REMARK SMILES IDX 60 68 61 69 63 70 65 71 62 72 46 73 47 74 52 75 48 76 49 77
REMARK SMILES IDX 51 78 53 79 50 80
REMARK H PARENT 5 19 5 20 70 42 44 53
REMARK Flexibility Score: inf
ROOT
ATOM      1  C   UNL A   1      46.791  23.955  25.181  1.00  0.00     0.275 C 
ENDROOT
BRANCH   1   2
ATOM      2  O   UNL A   1      46.058  23.706  23.968  1.00  0.00    -0.459 OA
BRANCH   2   3
ATOM      3  C   UNL A   1      44.857  23.101  24.121  1.00  0.00     0.330 C 
ATOM      4  O   UNL A   1      44.483  22.082  23.558  1.00  0.00    -0.247 OA
BRANCH   3   5
ATOM      5  C   UNL A   1      43.989  23.795  25.089  1.00  0.00     0.094 C 
ATOM      6  C   UNL A   1      42.661  23.634  25.202  1.00  0.00     0.018 C 
BRANCH   6   7
ATOM      7  C   UNL A   1      41.879  24.431  26.163  1.00  0.00    -0.002 A 
ATOM      8  C   UNL A   1      41.567  23.969  27.462  1.00  0.00     0.044 A 
ATOM      9  C   UNL A   1      40.832  24.835  28.297  1.00  0.00     0.026 A 
ATOM     10  C   UNL A   1      40.376  26.082  27.865  1.00  0.00     0.002 A 
ATOM     11  C   UNL A   1      41.387  25.680  25.727  1.00  0.00     0.010 A 
ATOM     12  C   UNL A   1      40.640  26.499  26.571  1.00  0.00     0.001 A 
BRANCH   8  13
ATOM     13  N   UNL A   1      41.953  22.730  27.955  1.00  0.00    -0.365 N 
ATOM     14  C   UNL A   1      43.183  22.579  28.710  1.00  0.00     0.144 C 
BRANCH  13  15
ATOM     15  C   UNL A   1      41.143  21.539  27.677  1.00  0.00     0.215 C 
BRANCH  15  16
ATOM     16  C   UNL A   1      41.967  20.385  27.093  1.00  0.00     0.236 C 
ATOM     17  N   UNL A   1      42.116  19.294  27.909  1.00  0.00    -0.368 N 
ATOM     18  O   UNL A   1      42.482  20.396  25.979  1.00  0.00    -0.273 OA
ATOM     19  H   UNL A   1      41.702  19.287  28.802  1.00  0.00     0.159 HD
ATOM     20  H   UNL A   1      42.638  18.517  27.601  1.00  0.00     0.159 HD
ENDBRANCH  15  16
ENDBRANCH  13  15
ENDBRANCH   8  13
ENDBRANCH   6   7
ENDBRANCH   3   5
ENDBRANCH   2   3
ENDBRANCH   1   2
BRANCH   1  21
ATOM     21  C   UNL A   1      47.570  25.270  25.096  1.00  0.00     0.275 C 
BRANCH  21  22
ATOM     22  O   UNL A   1      47.048  26.259  26.003  1.00  0.00    -0.458 OA
BRANCH  22  23
ATOM     23  C   UNL A   1      46.051  27.029  25.503  1.00  0.00     0.338 C 
ATOM     24  O   UNL A   1      45.799  27.242  24.330  1.00  0.00    -0.246 OA
BRANCH  23  25
ATOM     25  C   UNL A   1      45.201  27.513  26.604  1.00  0.00     0.060 A 
ATOM     26  C   UNL A   1      45.105  28.894  26.803  1.00  0.00     0.016 A 
ATOM     27  C   UNL A   1      44.560  26.626  27.473  1.00  0.00     0.016 A 
ATOM     28  C   UNL A   1      44.372  29.396  27.876  1.00  0.00     0.010 A 
ATOM     29  C   UNL A   1      43.826  27.130  28.551  1.00  0.00     0.010 A 
ATOM     30  C   UNL A   1      43.737  28.516  28.766  1.00  0.00    -0.014 A 
BRANCH  30  31
ATOM     31  C   UNL A   1      43.011  29.051  29.943  1.00  0.00     0.031 A 
ATOM     32  C   UNL A   1      41.610  29.570  29.790  1.00  0.00     0.074 A 
ATOM     33  C   UNL A   1      43.605  29.062  31.149  1.00  0.00     0.049 A 
ATOM     34  N   UNL A   1      40.827  30.116  30.685  1.00  0.00    -0.248 NA
ATOM     35  C   UNL A   1      41.012  29.462  28.450  1.00  0.00     0.031 C 
ATOM     36  C   UNL A   1      44.952  28.563  31.431  1.00  0.00     0.029 A 
ATOM     37  N   UNL A   1      43.154  29.516  32.363  1.00  0.00    -0.354 N 
ATOM     38  C   UNL A   1      39.648  30.424  30.019  1.00  0.00     0.074 A 
ATOM     39  C   UNL A   1      39.826  30.026  28.639  1.00  0.00     0.031 C 
ATOM     40  C   UNL A   1      45.217  28.740  32.736  1.00  0.00     0.029 A 
ATOM     41  C   UNL A   1      44.077  29.395  33.372  1.00  0.00     0.049 A 
ATOM     42  H   UNL A   1      42.254  29.894  32.497  1.00  0.00     0.167 HD
ATOM     43  C   UNL A   1      38.518  30.982  30.516  1.00  0.00     0.037 A 
ATOM     44  C   UNL A   1      44.018  29.787  34.659  1.00  0.00     0.037 A 
ATOM     45  C   UNL A   1      38.339  31.374  31.890  1.00  0.00     0.049 A 
ATOM     46  C   UNL A   1      42.774  30.459  35.171  1.00  0.00     0.074 A 
ATOM     47  C   UNL A   1      37.220  31.924  32.491  1.00  0.00     0.029 A 
ATOM     48  N   UNL A   1      39.308  31.262  32.876  1.00  0.00    -0.354 N 
ATOM     49  N   UNL A   1      41.657  30.724  34.538  1.00  0.00    -0.248 NA
ATOM     50  C   UNL A   1      42.784  30.889  36.577  1.00  0.00     0.031 C 
ATOM     51  C   UNL A   1      37.526  32.184  33.832  1.00  0.00     0.029 A 
ATOM     52  C   UNL A   1      38.820  31.755  34.075  1.00  0.00     0.049 A 
ATOM     53  H   UNL A   1      40.208  30.887  32.743  1.00  0.00     0.167 HD
ATOM     54  C   UNL A   1      40.824  31.329  35.470  1.00  0.00     0.074 A 
ATOM     55  C   UNL A   1      41.560  31.381  36.717  1.00  0.00     0.031 C 
ATOM     56  C   UNL A   1      39.563  31.798  35.309  1.00  0.00     0.037 A 
BRANCH  43  57
ATOM     57  C   UNL A   1      37.389  31.223  29.558  1.00  0.00     0.057 A 
ATOM     58  C   UNL A   1      36.427  30.242  29.286  1.00  0.00     0.134 A 
ATOM     59  C   UNL A   1      37.241  32.466  28.928  1.00  0.00     0.134 A 
ATOM     60  F   UNL A   1      36.520  29.026  29.848  1.00  0.00    -0.206 F 
ATOM     61  C   UNL A   1      35.370  30.480  28.407  1.00  0.00     0.040 A 
ATOM     62  C   UNL A   1      36.176  32.724  28.064  1.00  0.00     0.040 A 
ATOM     63  F   UNL A   1      38.124  33.451  29.150  1.00  0.00    -0.206 F 
ATOM     64  C   UNL A   1      35.239  31.726  27.798  1.00  0.00     0.006 A 
ENDBRANCH  43  57
BRANCH  44  65
ATOM     65  C   UNL A   1      45.179  29.564  35.555  1.00  0.00     0.057 A 
ATOM     66  C   UNL A   1      45.283  28.405  36.331  1.00  0.00     0.134 A 
ATOM     67  C   UNL A   1      46.205  30.510  35.664  1.00  0.00     0.134 A 
ATOM     68  F   UNL A   1      44.318  27.474  36.286  1.00  0.00    -0.206 F 
ATOM     69  C   UNL A   1      46.359  28.199  37.194  1.00  0.00     0.040 A 
ATOM     70  C   UNL A   1      47.299  30.307  36.506  1.00  0.00     0.040 A 
ATOM     71  F   UNL A   1      46.162  31.643  34.947  1.00  0.00    -0.206 F 
ATOM     72  C   UNL A   1      47.375  29.150  37.280  1.00  0.00     0.006 A 
ENDBRANCH  44  65
BRANCH  56  73
ATOM     73  C   UNL A   1      38.889  32.383  36.514  1.00  0.00     0.057 A 
ATOM     74  C   UNL A   1      38.026  31.627  37.316  1.00  0.00     0.134 A 
ATOM     75  C   UNL A   1      39.135  33.708  36.897  1.00  0.00     0.134 A 
ATOM     76  F   UNL A   1      37.738  30.356  36.996  1.00  0.00    -0.206 F 
ATOM     77  C   UNL A   1      37.416  32.173  38.447  1.00  0.00     0.040 A 
ATOM     78  C   UNL A   1      38.549  34.258  38.037  1.00  0.00     0.040 A 
ATOM     79  F   UNL A   1      39.958  34.483  36.176  1.00  0.00    -0.206 F 
ATOM     80  C   UNL A   1      37.683  33.491  38.814  1.00  0.00     0.006 A 
ENDBRANCH  56  73
ENDBRANCH  30  31
ENDBRANCH  23  25
ENDBRANCH  22  23
ENDBRANCH  21  22
ENDBRANCH   1  21
TORSDOF 15
ENDMDL
MODEL 3
REMARK VINA RESULT:     -10.3      1.329      2.091
REMARK SMILES CN(CC(N)=O)c1ccccc1/C=C/C(=O)OCCOC(=O)c1ccc(-c2c3nc(c(-c4c(F)cccc4F)c4ccc([nH]4)c(-c4c(F)cccc4F)c4nc(c(-c5c(F)cccc5F)c5ccc2[nH]5)C=C4)C=C3)cc1
REMARK SMILES IDX 18 1 17 2 15 3 16 4 14 5 13 6 12 7 7 8 8 9 9 10 11 11 10 12
REMARK SMILES IDX 2 13 1 14 3 15 4 16 5 17 6 18 19 21 20 22 21 23 22 24 23 25
REMARK SMILES IDX 24 26 76 27 25 28 75 29 26 30 27 31 28 32 69 33 29 34 74 35
REMARK SMILES IDX 68 36 70 37 30 38 73 39 67 40 66 41 31 43 57 44 40 45 56 46
REMARK SMILES IDX 41 47 44 48 55 49 71 50 42 51 43 52 54 54 72 55 45 56 32 57
REMARK SMILES IDX 33 58 38 59 34 60 35 61 37 62 39 63 36 64 58 65 59 66 64 67
REMARK SMILES IDX 60 68 61 69 63 70 65 71 62 72 46 73 47 74 52 75 48 76 49 77
REMARK SMILES IDX 51 78 53 79 50 80
REMARK H PARENT 5 19 5 20 70 42 44 53
REMARK Flexibility Score: inf
ROOT
ATOM      1  C   UNL A   1      31.413  31.822  26.808  1.00  0.00     0.275 C 
ENDROOT
BRANCH   1   2
ATOM      2  O   UNL A   1      32.027  30.904  25.885  1.00  0.00    -0.459 OA
BRANCH   2   3
ATOM      3  C   UNL A   1      32.785  29.931  26.440  1.00  0.00     0.330 C 
ATOM      4  O   UNL A   1      33.820  30.091  27.073  1.00  0.00    -0.247 OA
BRANCH   3   5
ATOM      5  C   UNL A   1      32.227  28.583  26.228  1.00  0.00     0.094 C 
ATOM      6  C   UNL A   1      32.814  27.595  25.533  1.00  0.00     0.018 C 
BRANCH   6   7
ATOM      7  C   UNL A   1      32.134  26.304  25.327  1.00  0.00    -0.002 A 
ATOM      8  C   UNL A   1      31.649  25.890  24.066  1.00  0.00     0.044 A 
ATOM      9  C   UNL A   1      31.037  24.623  23.993  1.00  0.00     0.026 A 
ATOM     10  C   UNL A   1      30.861  23.812  25.116  1.00  0.00     0.002 A 
ATOM     11  C   UNL A   1      31.923  25.490  26.461  1.00  0.00     0.010 A 
ATOM     12  C   UNL A   1      31.290  24.254  26.357  1.00  0.00     0.001 A 
BRANCH   8  13
ATOM     13  N   UNL A   1      31.755  26.652  22.909  1.00  0.00    -0.365 N 
ATOM     14  C   UNL A   1      30.692  27.558  22.514  1.00  0.00     0.144 C 
BRANCH  13  15
ATOM     15  C   UNL A   1      32.928  26.516  22.040  1.00  0.00     0.215 C 
BRANCH  15  16
ATOM     16  C   UNL A   1      32.802  25.351  21.051  1.00  0.00     0.236 C 
ATOM     17  N   UNL A   1      32.129  25.631  19.891  1.00  0.00    -0.368 N 
ATOM     18  O   UNL A   1      33.252  24.225  21.246  1.00  0.00    -0.273 OA
ATOM     19  H   UNL A   1      31.769  26.535  19.736  1.00  0.00     0.159 HD
ATOM     20  H   UNL A   1      32.005  24.928  19.212  1.00  0.00     0.159 HD
ENDBRANCH  15  16
ENDBRANCH  13  15
ENDBRANCH   8  13
ENDBRANCH   6   7
ENDBRANCH   3   5
ENDBRANCH   2   3
ENDBRANCH   1   2
BRANCH   1  21
ATOM     21  C   UNL A   1      32.157  33.160  26.832  1.00  0.00     0.275 C 
BRANCH  21  22
ATOM     22  O   UNL A   1      32.167  33.740  28.150  1.00  0.00    -0.458 OA
BRANCH  22  23
ATOM     23  C   UNL A   1      33.208  34.571  28.404  1.00  0.00     0.338 C 
ATOM     24  O   UNL A   1      33.209  35.788  28.361  1.00  0.00    -0.246 OA
BRANCH  23  25
ATOM     25  C   UNL A   1      34.365  33.786  28.866  1.00  0.00     0.060 A 
ATOM     26  C   UNL A   1      34.120  32.636  29.624  1.00  0.00     0.016 A 
ATOM     27  C   UNL A   1      35.674  34.207  28.620  1.00  0.00     0.016 A 
ATOM     28  C   UNL A   1      35.184  31.903  30.144  1.00  0.00     0.010 A 
ATOM     29  C   UNL A   1      36.742  33.472  29.145  1.00  0.00     0.010 A 
ATOM     30  C   UNL A   1      36.504  32.323  29.919  1.00  0.00    -0.014 A 
BRANCH  30  31
ATOM     31  C   UNL A   1      37.631  31.577  30.527  1.00  0.00     0.031 A 
ATOM     32  C   UNL A   1      38.020  31.833  31.955  1.00  0.00     0.074 A 
ATOM     33  C   UNL A   1      38.301  30.664  29.800  1.00  0.00     0.049 A 
ATOM     34  N   UNL A   1      38.999  31.318  32.652  1.00  0.00    -0.248 NA
ATOM     35  C   UNL A   1      37.195  32.800  32.696  1.00  0.00     0.031 C 
ATOM     36  C   UNL A   1      38.004  30.307  28.413  1.00  0.00     0.029 A 
ATOM     37  N   UNL A   1      39.374  29.873  30.128  1.00  0.00    -0.354 N 
ATOM     38  C   UNL A   1      38.917  31.900  33.909  1.00  0.00     0.074 A 
ATOM     39  C   UNL A   1      37.805  32.827  33.874  1.00  0.00     0.031 C 
ATOM     40  C   UNL A   1      38.876  29.369  28.008  1.00  0.00     0.029 A 
ATOM     41  C   UNL A   1      39.812  29.085  29.093  1.00  0.00     0.049 A 
ATOM     42  H   UNL A   1      39.790  29.873  31.021  1.00  0.00     0.167 HD
ATOM     43  C   UNL A   1      39.694  31.678  34.997  1.00  0.00     0.037 A 
ATOM     44  C   UNL A   1      40.862  28.245  29.022  1.00  0.00     0.037 A 
ATOM     45  C   UNL A   1      40.797  30.753  35.034  1.00  0.00     0.049 A 
ATOM     46  C   UNL A   1      41.745  28.062  30.225  1.00  0.00     0.074 A 
ATOM     47  C   UNL A   1      41.626  30.441  36.098  1.00  0.00     0.029 A 
ATOM     48  N   UNL A   1      41.228  29.994  33.956  1.00  0.00    -0.354 N 
ATOM     49  N   UNL A   1      41.644  28.600  31.416  1.00  0.00    -0.248 NA
ATOM     50  C   UNL A   1      42.892  27.154  30.072  1.00  0.00     0.031 C 
ATOM     51  C   UNL A   1      42.585  29.526  35.652  1.00  0.00     0.029 A 
ATOM     52  C   UNL A   1      42.326  29.234  34.324  1.00  0.00     0.049 A 
ATOM     53  H   UNL A   1      40.815  29.995  33.063  1.00  0.00     0.167 HD
ATOM     54  C   UNL A   1      42.695  28.082  32.160  1.00  0.00     0.074 A 
ATOM     55  C   UNL A   1      43.417  27.176  31.290  1.00  0.00     0.031 C 
ATOM     56  C   UNL A   1      43.033  28.333  33.448  1.00  0.00     0.037 A 
BRANCH  43  57
ATOM     57  C   UNL A   1      39.390  32.468  36.235  1.00  0.00     0.057 A 
ATOM     58  C   UNL A   1      38.468  32.020  37.190  1.00  0.00     0.134 A 
ATOM     59  C   UNL A   1      40.056  33.673  36.494  1.00  0.00     0.134 A 
ATOM     60  F   UNL A   1      37.788  30.880  36.995  1.00  0.00    -0.206 F 
ATOM     61  C   UNL A   1      38.204  32.754  38.348  1.00  0.00     0.040 A 
ATOM     62  C   UNL A   1      39.818  34.403  37.659  1.00  0.00     0.040 A 
ATOM     63  F   UNL A   1      40.956  34.154  35.623  1.00  0.00    -0.206 F 
ATOM     64  C   UNL A   1      38.884  33.946  38.587  1.00  0.00     0.006 A 
ENDBRANCH  43  57
BRANCH  44  65
ATOM     65  C   UNL A   1      41.145  27.520  27.759  1.00  0.00     0.057 A 
ATOM     66  C   UNL A   1      40.651  26.231  27.538  1.00  0.00     0.134 A 
ATOM     67  C   UNL A   1      41.926  28.095  26.750  1.00  0.00     0.134 A 
ATOM     68  F   UNL A   1      39.916  25.619  28.480  1.00  0.00    -0.206 F 
ATOM     69  C   UNL A   1      40.932  25.532  26.364  1.00  0.00     0.040 A 
ATOM     70  C   UNL A   1      42.196  27.418  25.560  1.00  0.00     0.040 A 
ATOM     71  F   UNL A   1      42.431  29.329  26.903  1.00  0.00    -0.206 F 
ATOM     72  C   UNL A   1      41.703  26.128  25.368  1.00  0.00     0.006 A 
ENDBRANCH  44  65
BRANCH  56  73
ATOM     73  C   UNL A   1      44.216  27.598  34.004  1.00  0.00     0.057 A 
ATOM     74  C   UNL A   1      45.501  28.152  33.992  1.00  0.00     0.134 A 
ATOM     75  C   UNL A   1      44.060  26.335  34.591  1.00  0.00     0.134 A 
ATOM     76  F   UNL A   1      45.720  29.352  33.431  1.00  0.00    -0.206 F 
ATOM     77  C   UNL A   1      46.595  27.469  34.527  1.00  0.00     0.040 A 
ATOM     78  C   UNL A   1      45.141  25.653  35.150  1.00  0.00     0.040 A 
ATOM     79  F   UNL A   1      42.854  25.752  34.641  1.00  0.00    -0.206 F 
ATOM     80  C   UNL A   1      46.415  26.218  35.115  1.00  0.00     0.006 A 
ENDBRANCH  56  73
ENDBRANCH  30  31
ENDBRANCH  23  25
ENDBRANCH  22  23
ENDBRANCH  21  22
ENDBRANCH   1  21
TORSDOF 15
ENDMDL
