MODEL 1
REMARK VINA RESULT:      -9.5      0.000      0.000
REMARK SMILES O=C(Cc1ccc(=O)n(C(F)F)c1)OCCOC(=O)c1ccc(-c2c3nc(c(-c4c(F)cccc4F)c4ccc([nH]4)c(-c4c(F)cccc4F)c4nc(c(-c5c(F)cccc5F)c5ccc2[nH]5)C=C4)C=C3)cc1
REMARK SMILES IDX 15 1 14 2 2 3 1 4 3 5 4 6 5 7 13 8 6 9 9 10 7 11 8 12 10 13
REMARK SMILES IDX 11 14 12 15 16 16 17 17 18 18 19 19 20 20 21 21 73 22 22 23
REMARK SMILES IDX 72 24 23 25 24 26 25 27 66 28 26 29 71 30 65 31 67 32 27 33
REMARK SMILES IDX 70 34 64 35 63 36 28 38 54 39 37 40 53 41 38 42 41 43 52 44
REMARK SMILES IDX 68 45 39 46 40 47 51 49 69 50 42 51 29 52 30 53 35 54 31 55
REMARK SMILES IDX 32 56 34 57 36 58 33 59 55 60 56 61 61 62 57 63 58 64 60 65
REMARK SMILES IDX 62 66 59 67 43 68 44 69 49 70 45 71 46 72 48 73 50 74 47 75
REMARK H PARENT 67 37 41 48
REMARK Flexibility Score: inf
ROOT
ATOM      1  C   UNL A   1      45.404  19.814  24.241  1.00  0.00     0.274 C 
ENDROOT
BRANCH   1   2
ATOM      2  O   UNL A   1      46.272  20.599  25.092  1.00  0.00    -0.462 OA
BRANCH   2   3
ATOM      3  C   UNL A   1      46.064  21.882  25.470  1.00  0.00     0.310 C 
ATOM      4  O   UNL A   1      45.840  22.155  26.648  1.00  0.00    -0.252 OA
BRANCH   3   5
ATOM      5  C   UNL A   1      46.104  22.967  24.411  1.00  0.00     0.159 C 
BRANCH   5   6
ATOM      6  C   UNL A   1      46.122  24.382  24.916  1.00  0.00    -0.020 A 
ATOM      7  C   UNL A   1      47.365  24.998  25.334  1.00  0.00     0.011 A 
ATOM      8  C   UNL A   1      44.999  25.123  24.929  1.00  0.00     0.099 A 
ATOM      9  C   UNL A   1      47.400  26.282  25.708  1.00  0.00     0.072 A 
ATOM     10  N   UNL A   1      45.011  26.456  25.297  1.00  0.00    -0.258 N 
ATOM     11  C   UNL A   1      46.163  27.108  25.705  1.00  0.00     0.254 A 
ATOM     12  O   UNL A   1      46.241  28.283  26.047  1.00  0.00    -0.269 OA
BRANCH  10  13
ATOM     13  C   UNL A   1      43.793  27.226  25.280  1.00  0.00     0.451 C 
ATOM     14  F   UNL A   1      42.736  26.451  24.939  1.00  0.00    -0.185 F 
ATOM     15  F   UNL A   1      43.540  27.778  26.490  1.00  0.00    -0.185 F 
ENDBRANCH  10  13
ENDBRANCH   5   6
ENDBRANCH   3   5
ENDBRANCH   2   3
ENDBRANCH   1   2
BRANCH   1  16
ATOM     16  C   UNL A   1      44.335  19.079  25.052  1.00  0.00     0.275 C 
BRANCH  16  17
ATOM     17  O   UNL A   1      43.026  19.580  24.724  1.00  0.00    -0.458 OA
BRANCH  17  18
ATOM     18  C   UNL A   1      42.145  19.679  25.753  1.00  0.00     0.338 C 
ATOM     19  O   UNL A   1      41.438  18.794  26.188  1.00  0.00    -0.246 OA
BRANCH  18  20
ATOM     20  C   UNL A   1      42.316  21.000  26.412  1.00  0.00     0.060 A 
ATOM     21  C   UNL A   1      42.311  21.140  27.804  1.00  0.00     0.016 A 
ATOM     22  C   UNL A   1      42.431  22.135  25.597  1.00  0.00     0.016 A 
ATOM     23  C   UNL A   1      42.425  22.410  28.375  1.00  0.00     0.010 A 
ATOM     24  C   UNL A   1      42.555  23.405  26.171  1.00  0.00     0.010 A 
ATOM     25  C   UNL A   1      42.561  23.550  27.565  1.00  0.00    -0.014 A 
BRANCH  25  26
ATOM     26  C   UNL A   1      42.838  24.863  28.196  1.00  0.00     0.031 A 
ATOM     27  C   UNL A   1      44.215  25.257  28.638  1.00  0.00     0.074 A 
ATOM     28  C   UNL A   1      41.813  25.722  28.349  1.00  0.00     0.049 A 
ATOM     29  N   UNL A   1      44.638  26.420  29.066  1.00  0.00    -0.248 NA
ATOM     30  C   UNL A   1      45.250  24.214  28.598  1.00  0.00     0.031 C 
ATOM     31  C   UNL A   1      40.420  25.438  28.002  1.00  0.00     0.029 A 
ATOM     32  N   UNL A   1      41.785  27.005  28.829  1.00  0.00    -0.354 N 
ATOM     33  C   UNL A   1      45.996  26.266  29.310  1.00  0.00     0.074 A 
ATOM     34  C   UNL A   1      46.314  24.877  29.037  1.00  0.00     0.031 C 
ATOM     35  C   UNL A   1      39.676  26.524  28.261  1.00  0.00     0.029 A 
ATOM     36  C   UNL A   1      40.535  27.572  28.804  1.00  0.00     0.049 A 
ATOM     37  H   UNL A   1      42.584  27.476  29.159  1.00  0.00     0.167 HD
ATOM     38  C   UNL A   1      46.895  27.200  29.705  1.00  0.00     0.037 A 
ATOM     39  C   UNL A   1      40.128  28.799  29.169  1.00  0.00     0.037 A 
ATOM     40  C   UNL A   1      46.567  28.567  30.029  1.00  0.00     0.049 A 
ATOM     41  C   UNL A   1      41.136  29.797  29.660  1.00  0.00     0.074 A 
ATOM     42  C   UNL A   1      47.416  29.592  30.417  1.00  0.00     0.029 A 
ATOM     43  N   UNL A   1      45.285  29.095  30.031  1.00  0.00    -0.354 N 
ATOM     44  N   UNL A   1      42.434  29.669  29.784  1.00  0.00    -0.248 NA
ATOM     45  C   UNL A   1      40.620  31.117  30.049  1.00  0.00     0.031 C 
ATOM     46  C   UNL A   1      46.641  30.725  30.695  1.00  0.00     0.029 A 
ATOM     47  C   UNL A   1      45.315  30.420  30.440  1.00  0.00     0.049 A 
ATOM     48  H   UNL A   1      44.471  28.602  29.779  1.00  0.00     0.167 HD
ATOM     49  C   UNL A   1      42.893  30.895  30.249  1.00  0.00     0.074 A 
ATOM     50  C   UNL A   1      41.737  31.761  30.357  1.00  0.00     0.031 C 
ATOM     51  C   UNL A   1      44.157  31.269  30.560  1.00  0.00     0.037 A 
BRANCH  38  52
ATOM     52  C   UNL A   1      48.333  26.777  29.799  1.00  0.00     0.057 A 
ATOM     53  C   UNL A   1      49.256  27.117  28.803  1.00  0.00     0.134 A 
ATOM     54  C   UNL A   1      48.787  25.975  30.855  1.00  0.00     0.134 A 
ATOM     55  F   UNL A   1      48.886  27.878  27.762  1.00  0.00    -0.206 F 
ATOM     56  C   UNL A   1      50.578  26.671  28.851  1.00  0.00     0.040 A 
ATOM     57  C   UNL A   1      50.111  25.539  30.925  1.00  0.00     0.040 A 
ATOM     58  F   UNL A   1      47.956  25.626  31.849  1.00  0.00    -0.206 F 
ATOM     59  C   UNL A   1      51.009  25.881  29.916  1.00  0.00     0.006 A 
ENDBRANCH  38  52
BRANCH  39  60
ATOM     60  C   UNL A   1      38.695  29.165  29.068  1.00  0.00     0.057 A 
ATOM     61  C   UNL A   1      38.133  29.563  27.849  1.00  0.00     0.134 A 
ATOM     62  C   UNL A   1      37.850  29.098  30.181  1.00  0.00     0.134 A 
ATOM     63  F   UNL A   1      38.894  29.653  26.750  1.00  0.00    -0.206 F 
ATOM     64  C   UNL A   1      36.779  29.881  27.741  1.00  0.00     0.040 A 
ATOM     65  C   UNL A   1      36.489  29.389  30.082  1.00  0.00     0.040 A 
ATOM     66  F   UNL A   1      38.330  28.707  31.370  1.00  0.00    -0.206 F 
ATOM     67  C   UNL A   1      35.951  29.785  28.858  1.00  0.00     0.006 A 
ENDBRANCH  39  60
BRANCH  51  68
ATOM     68  C   UNL A   1      44.346  32.680  31.039  1.00  0.00     0.057 A 
ATOM     69  C   UNL A   1      44.561  33.723  30.130  1.00  0.00     0.134 A 
ATOM     70  C   UNL A   1      44.301  33.008  32.400  1.00  0.00     0.134 A 
ATOM     71  F   UNL A   1      44.619  33.479  28.812  1.00  0.00    -0.206 F 
ATOM     72  C   UNL A   1      44.718  35.043  30.558  1.00  0.00     0.040 A 
ATOM     73  C   UNL A   1      44.431  34.326  32.839  1.00  0.00     0.040 A 
ATOM     74  F   UNL A   1      44.080  32.057  33.321  1.00  0.00    -0.206 F 
ATOM     75  C   UNL A   1      44.643  35.348  31.915  1.00  0.00     0.006 A 
ENDBRANCH  51  68
ENDBRANCH  25  26
ENDBRANCH  18  20
ENDBRANCH  17  18
ENDBRANCH  16  17
ENDBRANCH   1  16
TORSDOF 13
ENDMDL
MODEL 2
REMARK VINA RESULT:      -9.1      4.294      6.078
REMARK SMILES O=C(Cc1ccc(=O)n(C(F)F)c1)OCCOC(=O)c1ccc(-c2c3nc(c(-c4c(F)cccc4F)c4ccc([nH]4)c(-c4c(F)cccc4F)c4nc(c(-c5c(F)cccc5F)c5ccc2[nH]5)C=C4)C=C3)cc1
REMARK SMILES IDX 15 1 14 2 2 3 1 4 3 5 4 6 5 7 13 8 6 9 9 10 7 11 8 12 10 13
REMARK SMILES IDX 11 14 12 15 16 16 17 17 18 18 19 19 20 20 21 21 73 22 22 23
REMARK SMILES IDX 72 24 23 25 24 26 25 27 66 28 26 29 71 30 65 31 67 32 27 33
REMARK SMILES IDX 70 34 64 35 63 36 28 38 54 39 37 40 53 41 38 42 41 43 52 44
REMARK SMILES IDX 68 45 39 46 40 47 51 49 69 50 42 51 29 52 30 53 35 54 31 55
REMARK SMILES IDX 32 56 34 57 36 58 33 59 55 60 56 61 61 62 57 63 58 64 60 65
REMARK SMILES IDX 62 66 59 67 43 68 44 69 49 70 45 71 46 72 48 73 50 74 47 75
REMARK H PARENT 67 37 41 48
REMARK Flexibility Score: inf
ROOT
ATOM      1  C   UNL A   1      43.920  21.609  25.708  1.00  0.00     0.274 C 
ENDROOT
BRANCH   1   2
ATOM      2  O   UNL A   1      42.880  20.672  25.341  1.00  0.00    -0.462 OA
BRANCH   2   3
ATOM      3  C   UNL A   1      41.843  20.292  26.124  1.00  0.00     0.310 C 
ATOM      4  O   UNL A   1      41.343  19.176  25.996  1.00  0.00    -0.252 OA
BRANCH   3   5
ATOM      5  C   UNL A   1      41.308  21.274  27.149  1.00  0.00     0.159 C 
BRANCH   5   6
ATOM      6  C   UNL A   1      40.042  21.993  26.776  1.00  0.00    -0.020 A 
ATOM      7  C   UNL A   1      39.796  23.340  27.248  1.00  0.00     0.011 A 
ATOM      8  C   UNL A   1      39.147  21.426  25.947  1.00  0.00     0.099 A 
ATOM      9  C   UNL A   1      38.709  24.015  26.854  1.00  0.00     0.072 A 
ATOM     10  N   UNL A   1      38.025  22.107  25.513  1.00  0.00    -0.258 N 
ATOM     11  C   UNL A   1      37.728  23.397  25.922  1.00  0.00     0.254 A 
ATOM     12  O   UNL A   1      36.750  24.053  25.579  1.00  0.00    -0.269 OA
BRANCH  10  13
ATOM     13  C   UNL A   1      37.096  21.477  24.608  1.00  0.00     0.451 C 
ATOM     14  F   UNL A   1      36.955  22.207  23.476  1.00  0.00    -0.185 F 
ATOM     15  F   UNL A   1      37.508  20.235  24.262  1.00  0.00    -0.185 F 
ENDBRANCH  10  13
ENDBRANCH   5   6
ENDBRANCH   3   5
ENDBRANCH   2   3
ENDBRANCH   1   2
BRANCH   1  16
ATOM     16  C   UNL A   1      44.310  22.507  24.531  1.00  0.00     0.275 C 
BRANCH  16  17
ATOM     17  O   UNL A   1      43.726  23.814  24.683  1.00  0.00    -0.458 OA
BRANCH  17  18
ATOM     18  C   UNL A   1      44.551  24.792  25.138  1.00  0.00     0.338 C 
ATOM     19  O   UNL A   1      45.587  25.160  24.626  1.00  0.00    -0.246 OA
BRANCH  18  20
ATOM     20  C   UNL A   1      43.892  25.495  26.269  1.00  0.00     0.060 A 
ATOM     21  C   UNL A   1      42.894  24.887  27.039  1.00  0.00     0.016 A 
ATOM     22  C   UNL A   1      44.256  26.824  26.524  1.00  0.00     0.016 A 
ATOM     23  C   UNL A   1      42.269  25.606  28.060  1.00  0.00     0.010 A 
ATOM     24  C   UNL A   1      43.636  27.540  27.554  1.00  0.00     0.010 A 
ATOM     25  C   UNL A   1      42.644  26.933  28.335  1.00  0.00    -0.014 A 
BRANCH  25  26
ATOM     26  C   UNL A   1      42.078  27.618  29.521  1.00  0.00     0.031 A 
ATOM     27  C   UNL A   1      42.703  27.502  30.879  1.00  0.00     0.074 A 
ATOM     28  C   UNL A   1      40.981  28.379  29.351  1.00  0.00     0.049 A 
ATOM     29  N   UNL A   1      42.413  28.158  31.975  1.00  0.00    -0.248 NA
ATOM     30  C   UNL A   1      43.792  26.527  31.028  1.00  0.00     0.031 C 
ATOM     31  C   UNL A   1      40.254  28.535  28.091  1.00  0.00     0.029 A 
ATOM     32  N   UNL A   1      40.293  29.168  30.236  1.00  0.00    -0.354 N 
ATOM     33  C   UNL A   1      43.307  27.707  32.937  1.00  0.00     0.074 A 
ATOM     34  C   UNL A   1      44.111  26.676  32.308  1.00  0.00     0.031 C 
ATOM     35  C   UNL A   1      39.231  29.384  28.279  1.00  0.00     0.029 A 
ATOM     36  C   UNL A   1      39.225  29.821  29.672  1.00  0.00     0.049 A 
ATOM     37  H   UNL A   1      40.540  29.258  31.185  1.00  0.00     0.167 HD
ATOM     38  C   UNL A   1      43.452  28.127  34.218  1.00  0.00     0.037 A 
ATOM     39  C   UNL A   1      38.345  30.680  30.213  1.00  0.00     0.037 A 
ATOM     40  C   UNL A   1      42.615  29.112  34.857  1.00  0.00     0.049 A 
ATOM     41  C   UNL A   1      38.494  31.083  31.651  1.00  0.00     0.074 A 
ATOM     42  C   UNL A   1      42.702  29.617  36.144  1.00  0.00     0.029 A 
ATOM     43  N   UNL A   1      41.518  29.722  34.268  1.00  0.00    -0.354 N 
ATOM     44  N   UNL A   1      39.408  30.728  32.519  1.00  0.00    -0.248 NA
ATOM     45  C   UNL A   1      37.492  32.020  32.179  1.00  0.00     0.031 C 
ATOM     46  C   UNL A   1      41.633  30.499  36.346  1.00  0.00     0.029 A 
ATOM     47  C   UNL A   1      40.904  30.576  35.172  1.00  0.00     0.049 A 
ATOM     48  H   UNL A   1      41.218  29.572  33.342  1.00  0.00     0.167 HD
ATOM     49  C   UNL A   1      39.103  31.410  33.691  1.00  0.00     0.074 A 
ATOM     50  C   UNL A   1      37.936  32.220  33.411  1.00  0.00     0.031 C 
ATOM     51  C   UNL A   1      39.732  31.367  34.890  1.00  0.00     0.037 A 
BRANCH  38  52
ATOM     52  C   UNL A   1      44.574  27.527  35.016  1.00  0.00     0.057 A 
ATOM     53  C   UNL A   1      44.379  26.379  35.793  1.00  0.00     0.134 A 
ATOM     54  C   UNL A   1      45.838  28.130  35.058  1.00  0.00     0.134 A 
ATOM     55  F   UNL A   1      43.191  25.756  35.802  1.00  0.00    -0.206 F 
ATOM     56  C   UNL A   1      45.400  25.856  36.589  1.00  0.00     0.040 A 
ATOM     57  C   UNL A   1      46.873  27.605  35.835  1.00  0.00     0.040 A 
ATOM     58  F   UNL A   1      46.095  29.225  34.325  1.00  0.00    -0.206 F 
ATOM     59  C   UNL A   1      46.652  26.467  36.609  1.00  0.00     0.006 A 
ENDBRANCH  38  52
BRANCH  39  60
ATOM     60  C   UNL A   1      37.248  31.236  29.385  1.00  0.00     0.057 A 
ATOM     61  C   UNL A   1      37.347  32.508  28.810  1.00  0.00     0.134 A 
ATOM     62  C   UNL A   1      36.088  30.496  29.128  1.00  0.00     0.134 A 
ATOM     63  F   UNL A   1      38.431  33.267  29.027  1.00  0.00    -0.206 F 
ATOM     64  C   UNL A   1      36.330  33.025  28.007  1.00  0.00     0.040 A 
ATOM     65  C   UNL A   1      35.075  30.991  28.308  1.00  0.00     0.040 A 
ATOM     66  F   UNL A   1      35.946  29.265  29.639  1.00  0.00    -0.206 F 
ATOM     67  C   UNL A   1      35.195  32.262  27.746  1.00  0.00     0.006 A 
ENDBRANCH  39  60
BRANCH  51  68
ATOM     68  C   UNL A   1      39.166  32.230  35.981  1.00  0.00     0.057 A 
ATOM     69  C   UNL A   1      38.216  31.723  36.876  1.00  0.00     0.134 A 
ATOM     70  C   UNL A   1      39.574  33.559  36.154  1.00  0.00     0.134 A 
ATOM     71  F   UNL A   1      37.779  30.460  36.765  1.00  0.00    -0.206 F 
ATOM     72  C   UNL A   1      37.695  32.507  37.908  1.00  0.00     0.040 A 
ATOM     73  C   UNL A   1      39.080  34.344  37.197  1.00  0.00     0.040 A 
ATOM     74  F   UNL A   1      40.495  34.098  35.341  1.00  0.00    -0.206 F 
ATOM     75  C   UNL A   1      38.135  33.818  38.075  1.00  0.00     0.006 A 
ENDBRANCH  51  68
ENDBRANCH  25  26
ENDBRANCH  18  20
ENDBRANCH  17  18
ENDBRANCH  16  17
ENDBRANCH   1  16
TORSDOF 13
ENDMDL
MODEL 3
REMARK VINA RESULT:      -8.9      6.534     12.019
REMARK SMILES O=C(Cc1ccc(=O)n(C(F)F)c1)OCCOC(=O)c1ccc(-c2c3nc(c(-c4c(F)cccc4F)c4ccc([nH]4)c(-c4c(F)cccc4F)c4nc(c(-c5c(F)cccc5F)c5ccc2[nH]5)C=C4)C=C3)cc1
REMARK SMILES IDX 15 1 14 2 2 3 1 4 3 5 4 6 5 7 13 8 6 9 9 10 7 11 8 12 10 13
REMARK SMILES IDX 11 14 12 15 16 16 17 17 18 18 19 19 20 20 21 21 73 22 22 23
REMARK SMILES IDX 72 24 23 25 24 26 25 27 66 28 26 29 71 30 65 31 67 32 27 33
REMARK SMILES IDX 70 34 64 35 63 36 28 38 54 39 37 40 53 41 38 42 41 43 52 44
REMARK SMILES IDX 68 45 39 46 40 47 51 49 69 50 42 51 29 52 30 53 35 54 31 55
REMARK SMILES IDX 32 56 34 57 36 58 33 59 55 60 56 61 61 62 57 63 58 64 60 65
REMARK SMILES IDX 62 66 59 67 43 68 44 69 49 70 45 71 46 72 48 73 50 74 47 75
REMARK H PARENT 67 37 41 48
REMARK Flexibility Score: inf
ROOT
ATOM      1  C   UNL A   1      33.355  35.292  28.796  1.00  0.00     0.274 C 
ENDROOT
BRANCH   1   2
ATOM      2  O   UNL A   1      34.610  34.708  29.220  1.00  0.00    -0.462 OA
BRANCH   2   3
ATOM      3  C   UNL A   1      34.850  33.387  29.394  1.00  0.00     0.310 C 
ATOM      4  O   UNL A   1      34.324  32.776  30.322  1.00  0.00    -0.252 OA
BRANCH   3   5
ATOM      5  C   UNL A   1      35.787  32.685  28.429  1.00  0.00     0.159 C 
BRANCH   5   6
ATOM      6  C   UNL A   1      35.302  31.377  27.872  1.00  0.00    -0.020 A 
ATOM      7  C   UNL A   1      36.185  30.229  27.817  1.00  0.00     0.011 A 
ATOM      8  C   UNL A   1      34.026  31.228  27.477  1.00  0.00     0.099 A 
ATOM      9  C   UNL A   1      35.736  29.040  27.397  1.00  0.00     0.072 A 
ATOM     10  N   UNL A   1      33.533  30.007  27.054  1.00  0.00    -0.258 N 
ATOM     11  C   UNL A   1      34.319  28.869  26.977  1.00  0.00     0.254 A 
ATOM     12  O   UNL A   1      33.946  27.761  26.608  1.00  0.00    -0.269 OA
BRANCH  10  13
ATOM     13  C   UNL A   1      32.153  29.878  26.656  1.00  0.00     0.451 C 
ATOM     14  F   UNL A   1      31.448  29.179  27.577  1.00  0.00    -0.185 F 
ATOM     15  F   UNL A   1      31.566  31.088  26.504  1.00  0.00    -0.185 F 
ENDBRANCH  10  13
ENDBRANCH   5   6
ENDBRANCH   3   5
ENDBRANCH   2   3
ENDBRANCH   1   2
BRANCH   1  16
ATOM     16  C   UNL A   1      32.783  36.231  29.860  1.00  0.00     0.275 C 
BRANCH  16  17
ATOM     17  O   UNL A   1      32.348  35.480  31.009  1.00  0.00    -0.458 OA
BRANCH  17  18
ATOM     18  C   UNL A   1      32.759  35.940  32.219  1.00  0.00     0.338 C 
ATOM     19  O   UNL A   1      32.190  36.756  32.914  1.00  0.00    -0.246 OA
BRANCH  18  20
ATOM     20  C   UNL A   1      33.929  35.141  32.669  1.00  0.00     0.060 A 
ATOM     21  C   UNL A   1      33.780  33.900  33.298  1.00  0.00     0.016 A 
ATOM     22  C   UNL A   1      35.208  35.688  32.498  1.00  0.00     0.016 A 
ATOM     23  C   UNL A   1      34.908  33.210  33.749  1.00  0.00     0.010 A 
ATOM     24  C   UNL A   1      36.337  34.991  32.941  1.00  0.00     0.010 A 
ATOM     25  C   UNL A   1      36.195  33.743  33.562  1.00  0.00    -0.014 A 
BRANCH  25  26
ATOM     26  C   UNL A   1      37.380  32.921  33.906  1.00  0.00     0.031 A 
ATOM     27  C   UNL A   1      37.880  31.832  33.005  1.00  0.00     0.074 A 
ATOM     28  C   UNL A   1      38.025  33.188  35.057  1.00  0.00     0.049 A 
ATOM     29  N   UNL A   1      38.983  31.133  33.097  1.00  0.00    -0.248 NA
ATOM     30  C   UNL A   1      37.037  31.481  31.855  1.00  0.00     0.031 C 
ATOM     31  C   UNL A   1      37.610  34.190  36.039  1.00  0.00     0.029 A 
ATOM     32  N   UNL A   1      39.167  32.648  35.589  1.00  0.00    -0.354 N 
ATOM     33  C   UNL A   1      38.991  30.285  31.998  1.00  0.00     0.074 A 
ATOM     34  C   UNL A   1      37.750  30.517  31.284  1.00  0.00     0.031 C 
ATOM     35  C   UNL A   1      38.496  34.206  37.047  1.00  0.00     0.029 A 
ATOM     36  C   UNL A   1      39.530  33.210  36.788  1.00  0.00     0.049 A 
ATOM     37  H   UNL A   1      39.676  31.926  35.155  1.00  0.00     0.167 HD
ATOM     38  C   UNL A   1      39.952  29.409  31.613  1.00  0.00     0.037 A 
ATOM     39  C   UNL A   1      40.583  32.957  37.584  1.00  0.00     0.037 A 
ATOM     40  C   UNL A   1      41.159  29.139  32.354  1.00  0.00     0.049 A 
ATOM     41  C   UNL A   1      41.602  31.938  37.162  1.00  0.00     0.074 A 
ATOM     42  C   UNL A   1      42.201  28.285  32.029  1.00  0.00     0.029 A 
ATOM     43  N   UNL A   1      41.475  29.697  33.583  1.00  0.00    -0.354 N 
ATOM     44  N   UNL A   1      41.649  31.220  36.066  1.00  0.00    -0.248 NA
ATOM     45  C   UNL A   1      42.723  31.707  38.083  1.00  0.00     0.031 C 
ATOM     46  C   UNL A   1      43.124  28.294  33.082  1.00  0.00     0.029 A 
ATOM     47  C   UNL A   1      42.680  29.186  34.044  1.00  0.00     0.049 A 
ATOM     48  H   UNL A   1      40.926  30.360  34.061  1.00  0.00     0.167 HD
ATOM     49  C   UNL A   1      42.812  30.465  36.159  1.00  0.00     0.074 A 
ATOM     50  C   UNL A   1      43.453  30.834  37.404  1.00  0.00     0.031 C 
ATOM     51  C   UNL A   1      43.302  29.547  35.292  1.00  0.00     0.037 A 
BRANCH  38  52
ATOM     52  C   UNL A   1      39.740  28.682  30.316  1.00  0.00     0.057 A 
ATOM     53  C   UNL A   1      39.103  27.436  30.277  1.00  0.00     0.134 A 
ATOM     54  C   UNL A   1      40.228  29.196  29.107  1.00  0.00     0.134 A 
ATOM     55  F   UNL A   1      38.617  26.885  31.400  1.00  0.00    -0.206 F 
ATOM     56  C   UNL A   1      38.962  26.726  29.084  1.00  0.00     0.040 A 
ATOM     57  C   UNL A   1      40.077  28.504  27.904  1.00  0.00     0.040 A 
ATOM     58  F   UNL A   1      40.836  30.392  29.073  1.00  0.00    -0.206 F 
ATOM     59  C   UNL A   1      39.448  27.260  27.893  1.00  0.00     0.006 A 
ENDBRANCH  38  52
BRANCH  39  60
ATOM     60  C   UNL A   1      40.740  33.694  38.860  1.00  0.00     0.057 A 
ATOM     61  C   UNL A   1      41.575  34.814  38.952  1.00  0.00     0.134 A 
ATOM     62  C   UNL A   1      40.039  33.312  40.009  1.00  0.00     0.134 A 
ATOM     63  F   UNL A   1      42.279  35.223  37.887  1.00  0.00    -0.206 F 
ATOM     64  C   UNL A   1      41.706  35.529  40.143  1.00  0.00     0.040 A 
ATOM     65  C   UNL A   1      40.142  34.032  41.199  1.00  0.00     0.040 A 
ATOM     66  F   UNL A   1      39.212  32.256  39.975  1.00  0.00    -0.206 F 
ATOM     67  C   UNL A   1      40.980  35.144  41.268  1.00  0.00     0.006 A 
ENDBRANCH  39  60
BRANCH  51  68
ATOM     68  C   UNL A   1      44.600  28.889  35.667  1.00  0.00     0.057 A 
ATOM     69  C   UNL A   1      44.613  27.687  36.384  1.00  0.00     0.134 A 
ATOM     70  C   UNL A   1      45.835  29.441  35.305  1.00  0.00     0.134 A 
ATOM     71  F   UNL A   1      43.465  27.107  36.766  1.00  0.00    -0.206 F 
ATOM     72  C   UNL A   1      45.811  27.053  36.722  1.00  0.00     0.040 A 
ATOM     73  C   UNL A   1      47.038  28.804  35.615  1.00  0.00     0.040 A 
ATOM     74  F   UNL A   1      45.891  30.581  34.601  1.00  0.00    -0.206 F 
ATOM     75  C   UNL A   1      47.027  27.607  36.329  1.00  0.00     0.006 A 
ENDBRANCH  51  68
ENDBRANCH  25  26
ENDBRANCH  18  20
ENDBRANCH  17  18
ENDBRANCH  16  17
ENDBRANCH   1  16
TORSDOF 13
ENDMDL
