MODEL 1
REMARK VINA RESULT:     -11.7      0.000      0.000
REMARK SMILES COc1ccc(-c2nc(NCC(=O)OCCOC(=O)c3ccc(-c4c5nc(c(-c6c(F)cccc6F)c6ccc([nH]6)c(-c6c(F)cccc6F)c6nc(c(-c7c(F)cccc7F)c7ccc4[nH]7)C=C6)C=C5)cc3)sc2-c2ccc(OC)cc2)cc1
REMARK SMILES IDX 15 1 14 2 12 3 13 4 11 5 10 6 9 8 7 9 8 10 75 11 74 12 6 13
REMARK SMILES IDX 3 14 4 15 85 16 5 17 84 18 2 19 1 20 76 21 77 22 83 23 78 24
REMARK SMILES IDX 82 25 79 26 80 27 81 28 16 29 17 30 18 31 19 32 20 33 21 34
REMARK SMILES IDX 73 35 22 36 72 37 23 38 24 39 25 40 66 41 26 42 71 43 65 44
REMARK SMILES IDX 67 45 27 46 70 47 64 48 63 49 28 51 54 52 37 53 53 54 38 55
REMARK SMILES IDX 41 56 52 57 68 58 39 59 40 60 51 62 69 63 42 64 29 65 30 66
REMARK SMILES IDX 35 67 31 68 32 69 34 70 36 71 33 72 55 73 56 74 61 75 57 76
REMARK SMILES IDX 58 77 60 78 62 79 59 80 43 81 44 82 49 83 45 84 46 85 48 86
REMARK SMILES IDX 50 87 47 88
REMARK H PARENT 10 7 67 50 41 61
REMARK Flexibility Score: inf
ROOT
ATOM      1  C   UNL A   1      35.217  20.105  24.998  1.00  0.00     0.274 C 
ENDROOT
BRANCH   1   2
ATOM      2  O   UNL A   1      34.039  20.530  25.700  1.00  0.00    -0.461 OA
BRANCH   2   3
ATOM      3  C   UNL A   1      32.854  20.044  25.241  1.00  0.00     0.325 C 
ATOM      4  O   UNL A   1      32.502  18.870  25.314  1.00  0.00    -0.250 OA
BRANCH   3   5
ATOM      5  C   UNL A   1      32.007  21.118  24.577  1.00  0.00     0.238 C 
BRANCH   5   6
ATOM      6  N   UNL A   1      31.421  22.063  25.520  1.00  0.00    -0.351 N 
ATOM      7  H   UNL A   1      30.934  21.703  26.296  1.00  0.00     0.163 HD
BRANCH   6   8
ATOM      8  C   UNL A   1      31.505  23.405  25.390  1.00  0.00     0.184 A 
ATOM      9  C   UNL A   1      30.962  25.465  24.746  1.00  0.00     0.091 A 
ATOM     10  N   UNL A   1      30.681  24.106  24.641  1.00  0.00    -0.220 NA
ATOM     11  C   UNL A   1      31.966  25.787  25.646  1.00  0.00     0.064 A 
ATOM     12  S   UNL A   1      32.686  24.349  26.215  1.00  0.00    -0.096 S 
BRANCH   9  13
ATOM     13  C   UNL A   1      30.201  26.467  24.010  1.00  0.00     0.002 A 
ATOM     14  C   UNL A   1      28.755  28.529  22.759  1.00  0.00     0.118 A 
ATOM     15  C   UNL A   1      30.138  28.445  22.602  1.00  0.00     0.047 A 
ATOM     16  C   UNL A   1      28.086  27.549  23.495  1.00  0.00     0.047 A 
ATOM     17  C   UNL A   1      30.859  27.425  23.227  1.00  0.00     0.014 A 
ATOM     18  C   UNL A   1      28.807  26.517  24.113  1.00  0.00     0.014 A 
BRANCH  14  19
ATOM     19  O   UNL A   1      28.162  29.584  22.124  1.00  0.00    -0.497 OA
ATOM     20  C   UNL A   1      29.053  30.536  21.554  1.00  0.00     0.278 C 
ENDBRANCH  14  19
ENDBRANCH   9  13
BRANCH  11  21
ATOM     21  C   UNL A   1      32.417  27.057  26.207  1.00  0.00    -0.006 A 
ATOM     22  C   UNL A   1      31.541  27.898  26.900  1.00  0.00     0.013 A 
ATOM     23  C   UNL A   1      33.732  27.482  25.981  1.00  0.00     0.013 A 
ATOM     24  C   UNL A   1      31.972  29.151  27.339  1.00  0.00     0.047 A 
ATOM     25  C   UNL A   1      34.162  28.736  26.424  1.00  0.00     0.047 A 
ATOM     26  C   UNL A   1      33.280  29.578  27.101  1.00  0.00     0.118 A 
BRANCH  26  27
ATOM     27  O   UNL A   1      33.566  30.832  27.565  1.00  0.00    -0.497 OA
ATOM     28  C   UNL A   1      34.941  31.147  27.737  1.00  0.00     0.278 C 
ENDBRANCH  26  27
ENDBRANCH  11  21
ENDBRANCH   6   8
ENDBRANCH   5   6
ENDBRANCH   3   5
ENDBRANCH   2   3
ENDBRANCH   1   2
BRANCH   1  29
ATOM     29  C   UNL A   1      36.138  21.290  24.694  1.00  0.00     0.275 C 
BRANCH  29  30
ATOM     30  O   UNL A   1      36.889  21.712  25.850  1.00  0.00    -0.458 OA
BRANCH  30  31
ATOM     31  C   UNL A   1      38.199  21.368  25.851  1.00  0.00     0.338 C 
ATOM     32  O   UNL A   1      38.698  20.356  25.389  1.00  0.00    -0.246 OA
BRANCH  31  33
ATOM     33  C   UNL A   1      39.006  22.497  26.347  1.00  0.00     0.060 A 
ATOM     34  C   UNL A   1      38.532  23.790  26.106  1.00  0.00     0.016 A 
ATOM     35  C   UNL A   1      40.226  22.300  26.996  1.00  0.00     0.016 A 
ATOM     36  C   UNL A   1      39.265  24.895  26.524  1.00  0.00     0.010 A 
ATOM     37  C   UNL A   1      40.968  23.412  27.410  1.00  0.00     0.010 A 
ATOM     38  C   UNL A   1      40.490  24.715  27.177  1.00  0.00    -0.014 A 
BRANCH  38  39
ATOM     39  C   UNL A   1      41.276  25.897  27.594  1.00  0.00     0.031 A 
ATOM     40  C   UNL A   1      40.644  26.954  28.449  1.00  0.00     0.074 A 
ATOM     41  C   UNL A   1      42.565  26.003  27.222  1.00  0.00     0.049 A 
ATOM     42  N   UNL A   1      41.129  28.107  28.832  1.00  0.00    -0.248 NA
ATOM     43  C   UNL A   1      39.285  26.676  28.937  1.00  0.00     0.031 C 
ATOM     44  C   UNL A   1      43.301  25.011  26.440  1.00  0.00     0.029 A 
ATOM     45  N   UNL A   1      43.480  27.000  27.449  1.00  0.00    -0.354 N 
ATOM     46  C   UNL A   1      40.133  28.700  29.595  1.00  0.00     0.074 A 
ATOM     47  C   UNL A   1      39.009  27.786  29.609  1.00  0.00     0.031 C 
ATOM     48  C   UNL A   1      44.553  25.452  26.243  1.00  0.00     0.029 A 
ATOM     49  C   UNL A   1      44.691  26.777  26.841  1.00  0.00     0.049 A 
ATOM     50  H   UNL A   1      43.286  27.796  27.994  1.00  0.00     0.167 HD
ATOM     51  C   UNL A   1      40.158  29.898  30.226  1.00  0.00     0.037 A 
ATOM     52  C   UNL A   1      45.774  27.570  26.745  1.00  0.00     0.037 A 
ATOM     53  C   UNL A   1      41.281  30.798  30.212  1.00  0.00     0.049 A 
ATOM     54  C   UNL A   1      45.748  28.927  27.390  1.00  0.00     0.074 A 
ATOM     55  C   UNL A   1      41.405  32.035  30.819  1.00  0.00     0.029 A 
ATOM     56  N   UNL A   1      42.477  30.556  29.552  1.00  0.00    -0.354 N 
ATOM     57  N   UNL A   1      44.794  29.491  28.091  1.00  0.00    -0.248 NA
ATOM     58  C   UNL A   1      46.945  29.763  27.221  1.00  0.00     0.031 C 
ATOM     59  C   UNL A   1      42.662  32.559  30.496  1.00  0.00     0.029 A 
ATOM     60  C   UNL A   1      43.337  31.629  29.721  1.00  0.00     0.049 A 
ATOM     61  H   UNL A   1      42.686  29.740  29.041  1.00  0.00     0.167 HD
ATOM     62  C   UNL A   1      45.276  30.741  28.455  1.00  0.00     0.074 A 
ATOM     63  C   UNL A   1      46.617  30.845  27.914  1.00  0.00     0.031 C 
ATOM     64  C   UNL A   1      44.664  31.715  29.169  1.00  0.00     0.037 A 
BRANCH  51  65
ATOM     65  C   UNL A   1      38.918  30.316  30.957  1.00  0.00     0.057 A 
ATOM     66  C   UNL A   1      37.922  31.086  30.345  1.00  0.00     0.134 A 
ATOM     67  C   UNL A   1      38.707  29.921  32.284  1.00  0.00     0.134 A 
ATOM     68  F   UNL A   1      38.071  31.509  29.081  1.00  0.00    -0.206 F 
ATOM     69  C   UNL A   1      36.766  31.462  31.033  1.00  0.00     0.040 A 
ATOM     70  C   UNL A   1      37.545  30.273  32.975  1.00  0.00     0.040 A 
ATOM     71  F   UNL A   1      39.621  29.180  32.928  1.00  0.00    -0.206 F 
ATOM     72  C   UNL A   1      36.573  31.051  32.350  1.00  0.00     0.006 A 
ENDBRANCH  51  65
BRANCH  52  73
ATOM     73  C   UNL A   1      46.954  27.117  25.969  1.00  0.00     0.057 A 
ATOM     74  C   UNL A   1      47.969  26.361  26.563  1.00  0.00     0.134 A 
ATOM     75  C   UNL A   1      47.093  27.435  24.612  1.00  0.00     0.134 A 
ATOM     76  F   UNL A   1      47.904  26.046  27.865  1.00  0.00    -0.206 F 
ATOM     77  C   UNL A   1      49.088  25.944  25.838  1.00  0.00     0.040 A 
ATOM     78  C   UNL A   1      48.192  27.003  23.869  1.00  0.00     0.040 A 
ATOM     79  F   UNL A   1      46.154  28.158  23.985  1.00  0.00    -0.206 F 
ATOM     80  C   UNL A   1      49.198  26.259  24.484  1.00  0.00     0.006 A 
ENDBRANCH  52  73
BRANCH  64  81
ATOM     81  C   UNL A   1      45.447  32.971  29.416  1.00  0.00     0.057 A 
ATOM     82  C   UNL A   1      46.313  33.094  30.508  1.00  0.00     0.134 A 
ATOM     83  C   UNL A   1      45.354  34.054  28.535  1.00  0.00     0.134 A 
ATOM     84  F   UNL A   1      46.434  32.095  31.396  1.00  0.00    -0.206 F 
ATOM     85  C   UNL A   1      47.047  34.260  30.728  1.00  0.00     0.040 A 
ATOM     86  C   UNL A   1      46.099  35.219  28.730  1.00  0.00     0.040 A 
ATOM     87  F   UNL A   1      44.546  33.997  27.465  1.00  0.00    -0.206 F 
ATOM     88  C   UNL A   1      46.945  35.326  29.833  1.00  0.00     0.006 A 
ENDBRANCH  64  81
ENDBRANCH  38  39
ENDBRANCH  31  33
ENDBRANCH  30  31
ENDBRANCH  29  30
ENDBRANCH   1  29
TORSDOF 17
ENDMDL
MODEL 2
REMARK VINA RESULT:     -11.5      0.537      6.042
REMARK SMILES COc1ccc(-c2nc(NCC(=O)OCCOC(=O)c3ccc(-c4c5nc(c(-c6c(F)cccc6F)c6ccc([nH]6)c(-c6c(F)cccc6F)c6nc(c(-c7c(F)cccc7F)c7ccc4[nH]7)C=C6)C=C5)cc3)sc2-c2ccc(OC)cc2)cc1
REMARK SMILES IDX 15 1 14 2 12 3 13 4 11 5 10 6 9 8 7 9 8 10 75 11 74 12 6 13
REMARK SMILES IDX 3 14 4 15 85 16 5 17 84 18 2 19 1 20 76 21 77 22 83 23 78 24
REMARK SMILES IDX 82 25 79 26 80 27 81 28 16 29 17 30 18 31 19 32 20 33 21 34
REMARK SMILES IDX 73 35 22 36 72 37 23 38 24 39 25 40 66 41 26 42 71 43 65 44
REMARK SMILES IDX 67 45 27 46 70 47 64 48 63 49 28 51 54 52 37 53 53 54 38 55
REMARK SMILES IDX 41 56 52 57 68 58 39 59 40 60 51 62 69 63 42 64 29 65 30 66
REMARK SMILES IDX 35 67 31 68 32 69 34 70 36 71 33 72 55 73 56 74 61 75 57 76
REMARK SMILES IDX 58 77 60 78 62 79 59 80 43 81 44 82 49 83 45 84 46 85 48 86
REMARK SMILES IDX 50 87 47 88
REMARK H PARENT 10 7 67 50 41 61
REMARK Flexibility Score: inf
ROOT
ATOM      1  C   UNL A   1      35.178  20.937  24.700  1.00  0.00     0.274 C 
ENDROOT
BRANCH   1   2
ATOM      2  O   UNL A   1      34.294  19.808  24.642  1.00  0.00    -0.461 OA
BRANCH   2   3
ATOM      3  C   UNL A   1      33.065  19.972  25.200  1.00  0.00     0.325 C 
ATOM      4  O   UNL A   1      32.154  19.151  25.142  1.00  0.00    -0.250 OA
BRANCH   3   5
ATOM      5  C   UNL A   1      32.915  21.323  25.882  1.00  0.00     0.238 C 
BRANCH   5   6
ATOM      6  N   UNL A   1      31.850  22.144  25.320  1.00  0.00    -0.351 N 
ATOM      7  H   UNL A   1      31.043  21.691  24.982  1.00  0.00     0.163 HD
BRANCH   6   8
ATOM      8  C   UNL A   1      31.905  23.490  25.233  1.00  0.00     0.184 A 
ATOM      9  C   UNL A   1      31.357  25.552  24.600  1.00  0.00     0.091 A 
ATOM     10  N   UNL A   1      31.125  24.190  24.436  1.00  0.00    -0.220 NA
ATOM     11  C   UNL A   1      32.271  25.876  25.590  1.00  0.00     0.064 A 
ATOM     12  S   UNL A   1      32.983  24.442  26.179  1.00  0.00    -0.096 S 
BRANCH   9  13
ATOM     13  C   UNL A   1      30.630  26.554  23.830  1.00  0.00     0.002 A 
ATOM     14  C   UNL A   1      29.259  28.621  22.504  1.00  0.00     0.118 A 
ATOM     15  C   UNL A   1      30.635  28.465  22.331  1.00  0.00     0.047 A 
ATOM     16  C   UNL A   1      28.559  27.708  23.295  1.00  0.00     0.047 A 
ATOM     17  C   UNL A   1      31.318  27.443  22.993  1.00  0.00     0.014 A 
ATOM     18  C   UNL A   1      29.242  26.673  23.950  1.00  0.00     0.014 A 
BRANCH  14  19
ATOM     19  O   UNL A   1      28.705  29.673  21.829  1.00  0.00    -0.497 OA
ATOM     20  C   UNL A   1      27.576  30.274  22.450  1.00  0.00     0.278 C 
ENDBRANCH  14  19
ENDBRANCH   9  13
BRANCH  11  21
ATOM     21  C   UNL A   1      32.636  27.141  26.220  1.00  0.00    -0.006 A 
ATOM     22  C   UNL A   1      31.674  27.958  26.822  1.00  0.00     0.013 A 
ATOM     23  C   UNL A   1      33.962  27.587  26.155  1.00  0.00     0.013 A 
ATOM     24  C   UNL A   1      32.033  29.209  27.328  1.00  0.00     0.047 A 
ATOM     25  C   UNL A   1      34.320  28.838  26.665  1.00  0.00     0.047 A 
ATOM     26  C   UNL A   1      33.353  29.656  27.250  1.00  0.00     0.118 A 
BRANCH  26  27
ATOM     27  O   UNL A   1      33.565  30.905  27.764  1.00  0.00    -0.497 OA
ATOM     28  C   UNL A   1      34.902  31.387  27.733  1.00  0.00     0.278 C 
ENDBRANCH  26  27
ENDBRANCH  11  21
ENDBRANCH   6   8
ENDBRANCH   5   6
ENDBRANCH   3   5
ENDBRANCH   2   3
ENDBRANCH   1   2
BRANCH   1  29
ATOM     29  C   UNL A   1      36.616  20.501  24.998  1.00  0.00     0.275 C 
BRANCH  29  30
ATOM     30  O   UNL A   1      37.320  21.457  25.815  1.00  0.00    -0.458 OA
BRANCH  30  31
ATOM     31  C   UNL A   1      38.634  21.197  26.015  1.00  0.00     0.338 C 
ATOM     32  O   UNL A   1      39.234  20.169  25.745  1.00  0.00    -0.246 OA
BRANCH  31  33
ATOM     33  C   UNL A   1      39.320  22.423  26.457  1.00  0.00     0.060 A 
ATOM     34  C   UNL A   1      38.829  23.646  25.991  1.00  0.00     0.016 A 
ATOM     35  C   UNL A   1      40.450  22.381  27.277  1.00  0.00     0.016 A 
ATOM     36  C   UNL A   1      39.453  24.836  26.351  1.00  0.00     0.010 A 
ATOM     37  C   UNL A   1      41.082  23.577  27.632  1.00  0.00     0.010 A 
ATOM     38  C   UNL A   1      40.586  24.810  27.172  1.00  0.00    -0.014 A 
BRANCH  38  39
ATOM     39  C   UNL A   1      41.259  26.079  27.527  1.00  0.00     0.031 A 
ATOM     40  C   UNL A   1      42.673  26.324  27.094  1.00  0.00     0.074 A 
ATOM     41  C   UNL A   1      40.587  27.017  28.218  1.00  0.00     0.049 A 
ATOM     42  N   UNL A   1      43.468  27.320  27.389  1.00  0.00    -0.248 NA
ATOM     43  C   UNL A   1      43.272  25.313  26.209  1.00  0.00     0.031 C 
ATOM     44  C   UNL A   1      39.191  26.914  28.643  1.00  0.00     0.029 A 
ATOM     45  N   UNL A   1      40.992  28.241  28.688  1.00  0.00    -0.354 N 
ATOM     46  C   UNL A   1      44.665  27.053  26.741  1.00  0.00     0.074 A 
ATOM     47  C   UNL A   1      44.498  25.793  26.046  1.00  0.00     0.031 C 
ATOM     48  C   UNL A   1      38.858  28.023  29.320  1.00  0.00     0.029 A 
ATOM     49  C   UNL A   1      40.028  28.891  29.419  1.00  0.00     0.049 A 
ATOM     50  H   UNL A   1      41.886  28.616  28.518  1.00  0.00     0.167 HD
ATOM     51  C   UNL A   1      45.798  27.794  26.727  1.00  0.00     0.037 A 
ATOM     52  C   UNL A   1      40.095  30.037  30.120  1.00  0.00     0.037 A 
ATOM     53  C   UNL A   1      45.954  29.049  27.416  1.00  0.00     0.049 A 
ATOM     54  C   UNL A   1      41.387  30.803  30.152  1.00  0.00     0.074 A 
ATOM     55  C   UNL A   1      47.062  29.876  27.464  1.00  0.00     0.029 A 
ATOM     56  N   UNL A   1      44.968  29.657  28.179  1.00  0.00    -0.354 N 
ATOM     57  N   UNL A   1      42.523  30.532  29.555  1.00  0.00    -0.248 NA
ATOM     58  C   UNL A   1      41.412  32.027  30.965  1.00  0.00     0.031 C 
ATOM     59  C   UNL A   1      46.760  30.967  28.288  1.00  0.00     0.029 A 
ATOM     60  C   UNL A   1      45.449  30.839  28.719  1.00  0.00     0.049 A 
ATOM     61  H   UNL A   1      44.059  29.302  28.315  1.00  0.00     0.167 HD
ATOM     62  C   UNL A   1      43.393  31.554  29.909  1.00  0.00     0.074 A 
ATOM     63  C   UNL A   1      42.648  32.462  30.758  1.00  0.00     0.031 C 
ATOM     64  C   UNL A   1      44.693  31.724  29.566  1.00  0.00     0.037 A 
BRANCH  51  65
ATOM     65  C   UNL A   1      46.970  27.247  25.968  1.00  0.00     0.057 A 
ATOM     66  C   UNL A   1      47.139  27.482  24.599  1.00  0.00     0.134 A 
ATOM     67  C   UNL A   1      47.956  26.498  26.624  1.00  0.00     0.134 A 
ATOM     68  F   UNL A   1      46.223  28.179  23.910  1.00  0.00    -0.206 F 
ATOM     69  C   UNL A   1      48.240  26.976  23.903  1.00  0.00     0.040 A 
ATOM     70  C   UNL A   1      49.071  26.006  25.944  1.00  0.00     0.040 A 
ATOM     71  F   UNL A   1      47.854  26.240  27.936  1.00  0.00    -0.206 F 
ATOM     72  C   UNL A   1      49.212  26.240  24.578  1.00  0.00     0.006 A 
ENDBRANCH  51  65
BRANCH  52  73
ATOM     73  C   UNL A   1      38.914  30.503  30.889  1.00  0.00     0.057 A 
ATOM     74  C   UNL A   1      38.682  30.070  32.198  1.00  0.00     0.134 A 
ATOM     75  C   UNL A   1      37.990  31.393  30.328  1.00  0.00     0.134 A 
ATOM     76  F   UNL A   1      39.519  29.199  32.780  1.00  0.00    -0.206 F 
ATOM     77  C   UNL A   1      37.565  30.496  32.920  1.00  0.00     0.040 A 
ATOM     78  C   UNL A   1      36.884  31.848  31.047  1.00  0.00     0.040 A 
ATOM     79  F   UNL A   1      38.157  31.845  29.076  1.00  0.00    -0.206 F 
ATOM     80  C   UNL A   1      36.666  31.394  32.346  1.00  0.00     0.006 A 
ENDBRANCH  52  73
BRANCH  64  81
ATOM     81  C   UNL A   1      45.382  32.944  30.100  1.00  0.00     0.057 A 
ATOM     82  C   UNL A   1      45.278  34.185  29.461  1.00  0.00     0.134 A 
ATOM     83  C   UNL A   1      46.132  32.882  31.280  1.00  0.00     0.134 A 
ATOM     84  F   UNL A   1      44.585  34.306  28.318  1.00  0.00    -0.206 F 
ATOM     85  C   UNL A   1      45.913  35.321  29.966  1.00  0.00     0.040 A 
ATOM     86  C   UNL A   1      46.754  34.014  31.809  1.00  0.00     0.040 A 
ATOM     87  F   UNL A   1      46.265  31.724  31.943  1.00  0.00    -0.206 F 
ATOM     88  C   UNL A   1      46.650  35.237  31.148  1.00  0.00     0.006 A 
ENDBRANCH  64  81
ENDBRANCH  38  39
ENDBRANCH  31  33
ENDBRANCH  30  31
ENDBRANCH  29  30
ENDBRANCH   1  29
TORSDOF 17
ENDMDL
MODEL 3
REMARK VINA RESULT:     -11.4      0.752      2.908
REMARK SMILES COc1ccc(-c2nc(NCC(=O)OCCOC(=O)c3ccc(-c4c5nc(c(-c6c(F)cccc6F)c6ccc([nH]6)c(-c6c(F)cccc6F)c6nc(c(-c7c(F)cccc7F)c7ccc4[nH]7)C=C6)C=C5)cc3)sc2-c2ccc(OC)cc2)cc1
REMARK SMILES IDX 15 1 14 2 12 3 13 4 11 5 10 6 9 8 7 9 8 10 75 11 74 12 6 13
REMARK SMILES IDX 3 14 4 15 85 16 5 17 84 18 2 19 1 20 76 21 77 22 83 23 78 24
REMARK SMILES IDX 82 25 79 26 80 27 81 28 16 29 17 30 18 31 19 32 20 33 21 34
REMARK SMILES IDX 73 35 22 36 72 37 23 38 24 39 25 40 66 41 26 42 71 43 65 44
REMARK SMILES IDX 67 45 27 46 70 47 64 48 63 49 28 51 54 52 37 53 53 54 38 55
REMARK SMILES IDX 41 56 52 57 68 58 39 59 40 60 51 62 69 63 42 64 29 65 30 66
REMARK SMILES IDX 35 67 31 68 32 69 34 70 36 71 33 72 55 73 56 74 61 75 57 76
REMARK SMILES IDX 58 77 60 78 62 79 59 80 43 81 44 82 49 83 45 84 46 85 48 86
REMARK SMILES IDX 50 87 47 88
REMARK H PARENT 10 7 67 50 41 61
REMARK Flexibility Score: inf
ROOT
ATOM      1  C   UNL A   1      35.204  21.345  24.643  1.00  0.00     0.274 C 
ENDROOT
BRANCH   1   2
ATOM      2  O   UNL A   1      34.206  20.319  24.537  1.00  0.00    -0.461 OA
BRANCH   2   3
ATOM      3  C   UNL A   1      32.969  20.625  25.014  1.00  0.00     0.325 C 
ATOM      4  O   UNL A   1      32.069  19.812  25.200  1.00  0.00    -0.250 OA
BRANCH   3   5
ATOM      5  C   UNL A   1      32.798  22.115  25.262  1.00  0.00     0.238 C 
BRANCH   5   6
ATOM      6  N   UNL A   1      32.095  22.807  24.188  1.00  0.00    -0.351 N 
ATOM      7  H   UNL A   1      31.915  22.311  23.356  1.00  0.00     0.163 HD
BRANCH   6   8
ATOM      8  C   UNL A   1      31.678  24.088  24.266  1.00  0.00     0.184 A 
ATOM      9  C   UNL A   1      31.684  26.241  24.830  1.00  0.00     0.091 A 
ATOM     10  N   UNL A   1      32.295  25.001  24.987  1.00  0.00    -0.220 NA
ATOM     11  C   UNL A   1      30.641  26.269  23.918  1.00  0.00     0.064 A 
ATOM     12  S   UNL A   1      30.308  24.677  23.405  1.00  0.00    -0.096 S 
BRANCH   9  13
ATOM     13  C   UNL A   1      32.165  27.428  25.526  1.00  0.00     0.002 A 
ATOM     14  C   UNL A   1      32.954  29.832  26.754  1.00  0.00     0.118 A 
ATOM     15  C   UNL A   1      31.918  29.072  27.297  1.00  0.00     0.047 A 
ATOM     16  C   UNL A   1      33.634  29.362  25.629  1.00  0.00     0.047 A 
ATOM     17  C   UNL A   1      31.521  27.881  26.686  1.00  0.00     0.014 A 
ATOM     18  C   UNL A   1      33.245  28.160  25.021  1.00  0.00     0.014 A 
BRANCH  14  19
ATOM     19  O   UNL A   1      33.235  30.991  27.423  1.00  0.00    -0.497 OA
ATOM     20  C   UNL A   1      34.521  31.052  28.029  1.00  0.00     0.278 C 
ENDBRANCH  14  19
ENDBRANCH   9  13
BRANCH  11  21
ATOM     21  C   UNL A   1      29.893  27.365  23.308  1.00  0.00    -0.006 A 
ATOM     22  C   UNL A   1      30.537  28.365  22.574  1.00  0.00     0.013 A 
ATOM     23  C   UNL A   1      28.513  27.463  23.526  1.00  0.00     0.013 A 
ATOM     24  C   UNL A   1      29.812  29.455  22.086  1.00  0.00     0.047 A 
ATOM     25  C   UNL A   1      27.789  28.553  23.035  1.00  0.00     0.047 A 
ATOM     26  C   UNL A   1      28.440  29.556  22.317  1.00  0.00     0.118 A 
BRANCH  26  27
ATOM     27  O   UNL A   1      27.855  30.681  21.804  1.00  0.00    -0.497 OA
ATOM     28  C   UNL A   1      28.633  31.870  21.826  1.00  0.00     0.278 C 
ENDBRANCH  26  27
ENDBRANCH  11  21
ENDBRANCH   6   8
ENDBRANCH   5   6
ENDBRANCH   3   5
ENDBRANCH   2   3
ENDBRANCH   1   2
BRANCH   1  29
ATOM     29  C   UNL A   1      36.562  20.758  25.040  1.00  0.00     0.275 C 
BRANCH  29  30
ATOM     30  O   UNL A   1      37.330  21.661  25.861  1.00  0.00    -0.458 OA
BRANCH  30  31
ATOM     31  C   UNL A   1      38.633  21.330  26.028  1.00  0.00     0.338 C 
ATOM     32  O   UNL A   1      39.179  20.289  25.703  1.00  0.00    -0.246 OA
BRANCH  31  33
ATOM     33  C   UNL A   1      39.381  22.501  26.515  1.00  0.00     0.060 A 
ATOM     34  C   UNL A   1      38.999  23.760  26.043  1.00  0.00     0.016 A 
ATOM     35  C   UNL A   1      40.468  22.372  27.383  1.00  0.00     0.016 A 
ATOM     36  C   UNL A   1      39.687  24.900  26.445  1.00  0.00     0.010 A 
ATOM     37  C   UNL A   1      41.166  23.518  27.781  1.00  0.00     0.010 A 
ATOM     38  C   UNL A   1      40.778  24.787  27.315  1.00  0.00    -0.014 A 
BRANCH  38  39
ATOM     39  C   UNL A   1      41.521  26.002  27.715  1.00  0.00     0.031 A 
ATOM     40  C   UNL A   1      40.852  27.046  28.557  1.00  0.00     0.074 A 
ATOM     41  C   UNL A   1      42.805  26.150  27.339  1.00  0.00     0.049 A 
ATOM     42  N   UNL A   1      41.296  28.221  28.925  1.00  0.00    -0.248 NA
ATOM     43  C   UNL A   1      39.505  26.726  29.053  1.00  0.00     0.031 C 
ATOM     44  C   UNL A   1      43.576  25.175  26.568  1.00  0.00     0.029 A 
ATOM     45  N   UNL A   1      43.683  27.182  27.552  1.00  0.00    -0.354 N 
ATOM     46  C   UNL A   1      40.280  28.787  29.683  1.00  0.00     0.074 A 
ATOM     47  C   UNL A   1      39.191  27.834  29.711  1.00  0.00     0.031 C 
ATOM     48  C   UNL A   1      44.810  25.659  26.364  1.00  0.00     0.029 A 
ATOM     49  C   UNL A   1      44.901  26.995  26.945  1.00  0.00     0.049 A 
ATOM     50  H   UNL A   1      43.462  27.978  28.087  1.00  0.00     0.167 HD
ATOM     51  C   UNL A   1      40.263  29.993  30.298  1.00  0.00     0.037 A 
ATOM     52  C   UNL A   1      45.955  27.825  26.837  1.00  0.00     0.037 A 
ATOM     53  C   UNL A   1      41.353  30.933  30.270  1.00  0.00     0.049 A 
ATOM     54  C   UNL A   1      45.881  29.189  27.464  1.00  0.00     0.074 A 
ATOM     55  C   UNL A   1      41.433  32.182  30.861  1.00  0.00     0.029 A 
ATOM     56  N   UNL A   1      42.557  30.726  29.612  1.00  0.00    -0.354 N 
ATOM     57  N   UNL A   1      44.908  29.726  28.159  1.00  0.00    -0.248 NA
ATOM     58  C   UNL A   1      47.046  30.065  27.282  1.00  0.00     0.031 C 
ATOM     59  C   UNL A   1      42.670  32.746  30.530  1.00  0.00     0.029 A 
ATOM     60  C   UNL A   1      43.377  31.832  29.765  1.00  0.00     0.049 A 
ATOM     61  H   UNL A   1      42.793  29.912  29.110  1.00  0.00     0.167 HD
ATOM     62  C   UNL A   1      45.345  30.997  28.507  1.00  0.00     0.074 A 
ATOM     63  C   UNL A   1      46.681  31.143  27.962  1.00  0.00     0.031 C 
ATOM     64  C   UNL A   1      44.699  31.959  29.210  1.00  0.00     0.037 A 
BRANCH  51  65
ATOM     65  C   UNL A   1      39.010  30.376  31.027  1.00  0.00     0.057 A 
ATOM     66  C   UNL A   1      37.966  31.060  30.393  1.00  0.00     0.134 A 
ATOM     67  C   UNL A   1      38.836  30.031  32.373  1.00  0.00     0.134 A 
ATOM     68  F   UNL A   1      38.077  31.432  29.109  1.00  0.00    -0.206 F 
ATOM     69  C   UNL A   1      36.798  31.403  31.079  1.00  0.00     0.040 A 
ATOM     70  C   UNL A   1      37.665  30.350  33.063  1.00  0.00     0.040 A 
ATOM     71  F   UNL A   1      39.797  29.373  33.038  1.00  0.00    -0.206 F 
ATOM     72  C   UNL A   1      36.644  31.044  32.417  1.00  0.00     0.006 A 
ENDBRANCH  51  65
BRANCH  52  73
ATOM     73  C   UNL A   1      47.149  27.406  26.063  1.00  0.00     0.057 A 
ATOM     74  C   UNL A   1      47.229  27.608  24.682  1.00  0.00     0.134 A 
ATOM     75  C   UNL A   1      48.239  26.790  26.691  1.00  0.00     0.134 A 
ATOM     76  F   UNL A   1      46.207  28.171  24.021  1.00  0.00    -0.206 F 
ATOM     77  C   UNL A   1      48.347  27.204  23.949  1.00  0.00     0.040 A 
ATOM     78  C   UNL A   1      49.373  26.405  25.975  1.00  0.00     0.040 A 
ATOM     79  F   UNL A   1      48.223  26.568  28.014  1.00  0.00    -0.206 F 
ATOM     80  C   UNL A   1      49.426  26.606  24.598  1.00  0.00     0.006 A 
ENDBRANCH  52  73
BRANCH  64  81
ATOM     81  C   UNL A   1      45.436  33.244  29.438  1.00  0.00     0.057 A 
ATOM     82  C   UNL A   1      46.288  33.418  30.535  1.00  0.00     0.134 A 
ATOM     83  C   UNL A   1      45.315  34.307  28.536  1.00  0.00     0.134 A 
ATOM     84  F   UNL A   1      46.434  32.441  31.444  1.00  0.00    -0.206 F 
ATOM     85  C   UNL A   1      46.979  34.613  30.739  1.00  0.00     0.040 A 
ATOM     86  C   UNL A   1      46.018  35.500  28.715  1.00  0.00     0.040 A 
ATOM     87  F   UNL A   1      44.520  34.202  27.460  1.00  0.00    -0.206 F 
ATOM     88  C   UNL A   1      46.850  35.657  29.823  1.00  0.00     0.006 A 
ENDBRANCH  64  81
ENDBRANCH  38  39
ENDBRANCH  31  33
ENDBRANCH  30  31
ENDBRANCH  29  30
ENDBRANCH   1  29
TORSDOF 17
ENDMDL
