MODEL 1
REMARK VINA RESULT:     -16.0      0.000      0.000
REMARK SMILES O=C(OCCOC(=O)[C@]1(CCc2cccnc2)CCC[NH2+]C1)c1ccc(-c2c3nc(c(-c4c(F)cccc4F)c4ccc([nH]4)c(-c4c(F)cccc4F)c4nc(c(-c5c(F)cccc5F)c5ccc2[nH]5)C=C4)C=C3)cc1
REMARK SMILES IDX 5 1 4 2 3 3 2 4 1 5 23 6 24 7 76 8 25 9 75 10 26 11 27 12
REMARK SMILES IDX 28 13 69 14 29 15 74 16 68 17 70 18 30 19 73 20 67 21 66 22
REMARK SMILES IDX 31 24 57 25 40 26 56 27 41 28 44 29 55 30 71 31 42 32 43 33
REMARK SMILES IDX 54 35 72 36 45 37 32 38 33 39 38 40 34 41 35 42 37 43 39 44
REMARK SMILES IDX 36 45 58 46 59 47 64 48 60 49 61 50 63 51 65 52 62 53 46 54
REMARK SMILES IDX 47 55 52 56 48 57 49 58 51 59 53 60 50 61 6 62 7 63 8 64
REMARK SMILES IDX 9 65 18 66 22 67 19 68 21 69 20 70 10 73 11 74 12 75 13 76
REMARK SMILES IDX 17 77 14 78 16 79 15 80
REMARK H PARENT 70 23 44 34 21 71 21 72
REMARK Flexibility Score: inf
ROOT
ATOM      1  C   UNL A   1      31.274  30.241  25.356  1.00  0.00     0.274 C 
ENDROOT
BRANCH   1   2
ATOM      2  C   UNL A   1      32.148  31.099  26.874  1.00  0.00     0.275 C 
BRANCH   2   3
ATOM      3  O   UNL A   1      31.733  32.935  26.989  1.00  0.00    -0.458 OA
BRANCH   3   4
ATOM      4  C   UNL A   1      32.854  33.990  28.214  1.00  0.00     0.338 C 
ATOM      5  O   UNL A   1      32.479  35.141  28.517  1.00  0.00    -0.246 OA
BRANCH   4   6
ATOM      6  C   UNL A   1      34.567  33.295  28.741  1.00  0.00     0.060 A 
ATOM      7  C   UNL A   1      35.856  33.766  28.307  1.00  0.00     0.016 A 
ATOM      8  C   UNL A   1      34.705  32.047  29.411  1.00  0.00     0.016 A 
ATOM      9  C   UNL A   1      37.090  33.198  28.678  1.00  0.00     0.010 A 
ATOM     10  C   UNL A   1      35.906  31.538  29.896  1.00  0.00     0.010 A 
ATOM     11  C   UNL A   1      37.110  32.136  29.559  1.00  0.00    -0.014 A 
BRANCH  11  12
ATOM     12  C   UNL A   1      38.323  31.619  30.212  1.00  0.00     0.031 A 
ATOM     13  C   UNL A   1      39.041  30.478  29.565  1.00  0.00     0.074 A 
ATOM     14  C   UNL A   1      38.563  32.015  31.476  1.00  0.00     0.049 A 
ATOM     15  N   UNL A   1      39.940  29.683  30.070  1.00  0.00    -0.248 NA
ATOM     16  C   UNL A   1      38.669  30.163  28.172  1.00  0.00     0.031 C 
ATOM     17  C   UNL A   1      37.880  33.114  32.163  1.00  0.00     0.029 A 
ATOM     18  N   UNL A   1      39.380  31.497  32.442  1.00  0.00    -0.354 N 
ATOM     19  C   UNL A   1      40.249  28.786  29.058  1.00  0.00     0.074 A 
ATOM     20  C   UNL A   1      39.369  29.062  27.947  1.00  0.00     0.031 C 
ATOM     21  C   UNL A   1      38.215  33.119  33.461  1.00  0.00     0.029 A 
ATOM     22  C   UNL A   1      39.167  32.049  33.687  1.00  0.00     0.049 A 
ATOM     23  H   UNL A   1      40.053  30.801  32.266  1.00  0.00     0.167 HD
ATOM     24  C   UNL A   1      41.229  27.857  29.058  1.00  0.00     0.037 A 
ATOM     25  C   UNL A   1      39.697  31.719  34.876  1.00  0.00     0.037 A 
ATOM     26  C   UNL A   1      42.093  27.656  30.188  1.00  0.00     0.049 A 
ATOM     27  C   UNL A   1      40.775  30.678  34.856  1.00  0.00     0.074 A 
ATOM     28  C   UNL A   1      43.204  26.844  30.301  1.00  0.00     0.029 A 
ATOM     29  N   UNL A   1      41.929  28.294  31.414  1.00  0.00    -0.354 N 
ATOM     30  N   UNL A   1      41.172  29.932  33.850  1.00  0.00    -0.248 NA
ATOM     31  C   UNL A   1      41.530  30.481  36.095  1.00  0.00     0.031 C 
ATOM     32  C   UNL A   1      43.686  26.961  31.610  1.00  0.00     0.029 A 
ATOM     33  C   UNL A   1      42.899  27.872  32.301  1.00  0.00     0.049 A 
ATOM     34  H   UNL A   1      41.224  28.950  31.618  1.00  0.00     0.167 HD
ATOM     35  C   UNL A   1      42.260  29.216  34.316  1.00  0.00     0.074 A 
ATOM     36  C   UNL A   1      42.459  29.623  35.695  1.00  0.00     0.031 C 
ATOM     37  C   UNL A   1      43.036  28.313  33.668  1.00  0.00     0.037 A 
BRANCH  24  38
ATOM     38  C   UNL A   1      41.424  27.051  27.808  1.00  0.00     0.057 A 
ATOM     39  C   UNL A   1      42.237  27.505  26.758  1.00  0.00     0.134 A 
ATOM     40  C   UNL A   1      40.796  25.811  27.640  1.00  0.00     0.134 A 
ATOM     41  F   UNL A   1      42.856  28.693  26.843  1.00  0.00    -0.206 F 
ATOM     42  C   UNL A   1      42.393  26.775  25.579  1.00  0.00     0.040 A 
ATOM     43  C   UNL A   1      40.964  25.058  26.476  1.00  0.00     0.040 A 
ATOM     44  F   UNL A   1      40.001  25.316  28.600  1.00  0.00    -0.206 F 
ATOM     45  C   UNL A   1      41.759  25.542  25.437  1.00  0.00     0.006 A 
ENDBRANCH  24  38
BRANCH  25  46
ATOM     46  C   UNL A   1      39.302  32.440  36.113  1.00  0.00     0.057 A 
ATOM     47  C   UNL A   1      38.325  31.922  36.970  1.00  0.00     0.134 A 
ATOM     48  C   UNL A   1      39.899  33.652  36.485  1.00  0.00     0.134 A 
ATOM     49  F   UNL A   1      37.723  30.759  36.679  1.00  0.00    -0.206 F 
ATOM     50  C   UNL A   1      37.924  32.597  38.125  1.00  0.00     0.040 A 
ATOM     51  C   UNL A   1      39.524  34.329  37.649  1.00  0.00     0.040 A 
ATOM     52  F   UNL A   1      40.869  34.191  35.730  1.00  0.00    -0.206 F 
ATOM     53  C   UNL A   1      38.523  33.807  38.467  1.00  0.00     0.006 A 
ENDBRANCH  25  46
BRANCH  37  54
ATOM     54  C   UNL A   1      44.154  27.722  34.463  1.00  0.00     0.057 A 
ATOM     55  C   UNL A   1      43.992  26.519  35.159  1.00  0.00     0.134 A 
ATOM     56  C   UNL A   1      45.411  28.336  34.490  1.00  0.00     0.134 A 
ATOM     57  F   UNL A   1      42.801  25.901  35.181  1.00  0.00    -0.206 F 
ATOM     58  C   UNL A   1      45.042  25.952  35.874  1.00  0.00     0.040 A 
ATOM     59  C   UNL A   1      46.479  27.761  35.176  1.00  0.00     0.040 A 
ATOM     60  F   UNL A   1      45.624  29.487  33.836  1.00  0.00    -0.206 F 
ATOM     61  C   UNL A   1      46.294  26.568  35.875  1.00  0.00     0.006 A 
ENDBRANCH  37  54
ENDBRANCH  11  12
ENDBRANCH   4   6
ENDBRANCH   3   4
ENDBRANCH   2   3
ENDBRANCH   1   2
BRANCH   1  62
ATOM     62  O   UNL A   1      31.143  28.452  25.256  1.00  0.00    -0.461 OA
BRANCH  62  63
ATOM     63  C   UNL A   1      31.424  27.331  26.112  1.00  0.00     0.317 C 
ATOM     64  O   UNL A   1      31.185  27.471  27.320  1.00  0.00    -0.251 OA
BRANCH  63  65
ATOM     65  C   UNL A   1      31.960  25.694  25.482  1.00  0.00     0.117 C 
ATOM     66  C   UNL A   1      33.537  25.909  25.338  1.00  0.00     0.030 C 
ATOM     67  C   UNL A   1      31.575  25.510  23.981  1.00  0.00     0.279 C 
ATOM     68  C   UNL A   1      33.952  26.997  24.326  1.00  0.00     0.063 C 
ATOM     69  N   UNL A   1      31.842  26.671  23.128  1.00  0.00    -0.345 N 
ATOM     70  C   UNL A   1      33.277  26.850  22.970  1.00  0.00     0.260 C 
ATOM     71  H   UNL A   1      31.416  26.523  22.213  1.00  0.00     0.346 HD
ATOM     72  H   UNL A   1      31.444  27.505  23.561  1.00  0.00     0.346 HD
BRANCH  65  73
ATOM     73  C   UNL A   1      31.904  23.972  26.302  1.00  0.00     0.029 C 
BRANCH  73  74
ATOM     74  C   UNL A   1      31.538  22.190  25.719  1.00  0.00     0.038 C 
BRANCH  74  75
ATOM     75  C   UNL A   1      32.606  20.890  24.818  1.00  0.00    -0.030 A 
ATOM     76  C   UNL A   1      32.221  21.565  23.267  1.00  0.00     0.007 A 
ATOM     77  C   UNL A   1      34.293  20.916  25.344  1.00  0.00     0.114 A 
ATOM     78  C   UNL A   1      33.153  22.722  22.473  1.00  0.00     0.020 A 
ATOM     79  N   UNL A   1      35.310  22.304  24.734  1.00  0.00    -0.264 NA
ATOM     80  C   UNL A   1      34.596  23.230  23.223  1.00  0.00     0.111 A 
ENDBRANCH  74  75
ENDBRANCH  73  74
ENDBRANCH  65  73
ENDBRANCH  63  65
ENDBRANCH  62  63
ENDBRANCH   1  62
TORSDOF 14
ENDMDL
MODEL 2
REMARK VINA RESULT:     -15.8      0.243      1.362
REMARK SMILES O=C(OCCOC(=O)[C@]1(CCc2cccnc2)CCC[NH2+]C1)c1ccc(-c2c3nc(c(-c4c(F)cccc4F)c4ccc([nH]4)c(-c4c(F)cccc4F)c4nc(c(-c5c(F)cccc5F)c5ccc2[nH]5)C=C4)C=C3)cc1
REMARK SMILES IDX 5 1 4 2 3 3 2 4 1 5 23 6 24 7 76 8 25 9 75 10 26 11 27 12
REMARK SMILES IDX 28 13 69 14 29 15 74 16 68 17 70 18 30 19 73 20 67 21 66 22
REMARK SMILES IDX 31 24 57 25 40 26 56 27 41 28 44 29 55 30 71 31 42 32 43 33
REMARK SMILES IDX 54 35 72 36 45 37 32 38 33 39 38 40 34 41 35 42 37 43 39 44
REMARK SMILES IDX 36 45 58 46 59 47 64 48 60 49 61 50 63 51 65 52 62 53 46 54
REMARK SMILES IDX 47 55 52 56 48 57 49 58 51 59 53 60 50 61 6 62 7 63 8 64
REMARK SMILES IDX 9 65 18 66 22 67 19 68 21 69 20 70 10 73 11 74 12 75 13 76
REMARK SMILES IDX 17 77 14 78 16 79 15 80
REMARK H PARENT 70 23 44 34 21 71 21 72
REMARK Flexibility Score: inf
ROOT
ATOM      1  C   UNL A   1      31.111  30.480  25.405  1.00  0.00     0.274 C 
ENDROOT
BRANCH   1   2
ATOM      2  C   UNL A   1      32.047  31.305  26.903  1.00  0.00     0.275 C 
BRANCH   2   3
ATOM      3  O   UNL A   1      31.689  33.151  27.037  1.00  0.00    -0.458 OA
BRANCH   3   4
ATOM      4  C   UNL A   1      32.804  34.150  28.313  1.00  0.00     0.338 C 
ATOM      5  O   UNL A   1      32.432  35.289  28.660  1.00  0.00    -0.246 OA
BRANCH   4   6
ATOM      6  C   UNL A   1      34.510  33.426  28.823  1.00  0.00     0.060 A 
ATOM      7  C   UNL A   1      35.799  33.826  28.321  1.00  0.00     0.016 A 
ATOM      8  C   UNL A   1      34.630  32.214  29.559  1.00  0.00     0.016 A 
ATOM      9  C   UNL A   1      37.026  33.237  28.684  1.00  0.00     0.010 A 
ATOM     10  C   UNL A   1      35.829  31.691  30.033  1.00  0.00     0.010 A 
ATOM     11  C   UNL A   1      37.041  32.226  29.624  1.00  0.00    -0.014 A 
BRANCH  11  12
ATOM     12  C   UNL A   1      38.257  31.705  30.265  1.00  0.00     0.031 A 
ATOM     13  C   UNL A   1      38.967  30.563  29.611  1.00  0.00     0.074 A 
ATOM     14  C   UNL A   1      38.508  32.097  31.529  1.00  0.00     0.049 A 
ATOM     15  N   UNL A   1      39.868  29.765  30.106  1.00  0.00    -0.248 NA
ATOM     16  C   UNL A   1      38.583  30.252  28.220  1.00  0.00     0.031 C 
ATOM     17  C   UNL A   1      37.834  33.196  32.224  1.00  0.00     0.029 A 
ATOM     18  N   UNL A   1      39.332  31.575  32.487  1.00  0.00    -0.354 N 
ATOM     19  C   UNL A   1      40.166  28.870  29.090  1.00  0.00     0.074 A 
ATOM     20  C   UNL A   1      39.279  29.150  27.987  1.00  0.00     0.031 C 
ATOM     21  C   UNL A   1      38.179  33.197  33.519  1.00  0.00     0.029 A 
ATOM     22  C   UNL A   1      39.130  32.124  33.735  1.00  0.00     0.049 A 
ATOM     23  H   UNL A   1      40.001  30.877  32.304  1.00  0.00     0.167 HD
ATOM     24  C   UNL A   1      41.144  27.937  29.080  1.00  0.00     0.037 A 
ATOM     25  C   UNL A   1      39.669  31.790  34.919  1.00  0.00     0.037 A 
ATOM     26  C   UNL A   1      42.017  27.732  30.203  1.00  0.00     0.049 A 
ATOM     27  C   UNL A   1      40.744  30.746  34.888  1.00  0.00     0.074 A 
ATOM     28  C   UNL A   1      43.126  26.917  30.305  1.00  0.00     0.029 A 
ATOM     29  N   UNL A   1      41.864  28.367  31.431  1.00  0.00    -0.354 N 
ATOM     30  N   UNL A   1      41.131  30.002  33.877  1.00  0.00    -0.248 NA
ATOM     31  C   UNL A   1      41.508  30.544  36.121  1.00  0.00     0.031 C 
ATOM     32  C   UNL A   1      43.619  27.029  31.610  1.00  0.00     0.029 A 
ATOM     33  C   UNL A   1      42.840  27.941  32.310  1.00  0.00     0.049 A 
ATOM     34  H   UNL A   1      41.162  29.025  31.643  1.00  0.00     0.167 HD
ATOM     35  C   UNL A   1      42.221  29.282  34.332  1.00  0.00     0.074 A 
ATOM     36  C   UNL A   1      42.431  29.685  35.712  1.00  0.00     0.031 C 
ATOM     37  C   UNL A   1      42.989  28.378  33.676  1.00  0.00     0.037 A 
BRANCH  24  38
ATOM     38  C   UNL A   1      41.327  27.134  27.827  1.00  0.00     0.057 A 
ATOM     39  C   UNL A   1      42.163  27.571  26.787  1.00  0.00     0.134 A 
ATOM     40  C   UNL A   1      40.665  25.915  27.645  1.00  0.00     0.134 A 
ATOM     41  F   UNL A   1      42.815  28.740  26.885  1.00  0.00    -0.206 F 
ATOM     42  C   UNL A   1      42.308  26.843  25.605  1.00  0.00     0.040 A 
ATOM     43  C   UNL A   1      40.821  25.164  26.477  1.00  0.00     0.040 A 
ATOM     44  F   UNL A   1      39.847  25.437  28.595  1.00  0.00    -0.206 F 
ATOM     45  C   UNL A   1      41.639  25.631  25.449  1.00  0.00     0.006 A 
ENDBRANCH  24  38
BRANCH  25  46
ATOM     46  C   UNL A   1      39.285  32.509  36.160  1.00  0.00     0.057 A 
ATOM     47  C   UNL A   1      39.854  33.747  36.484  1.00  0.00     0.134 A 
ATOM     48  C   UNL A   1      38.329  31.996  37.046  1.00  0.00     0.134 A 
ATOM     49  F   UNL A   1      40.767  34.300  35.672  1.00  0.00    -0.206 F 
ATOM     50  C   UNL A   1      39.522  34.426  37.658  1.00  0.00     0.040 A 
ATOM     51  C   UNL A   1      37.970  32.675  38.215  1.00  0.00     0.040 A 
ATOM     52  F   UNL A   1      37.715  30.832  36.782  1.00  0.00    -0.206 F 
ATOM     53  C   UNL A   1      38.578  33.889  38.529  1.00  0.00     0.006 A 
ENDBRANCH  25  46
BRANCH  37  54
ATOM     54  C   UNL A   1      44.112  27.782  34.461  1.00  0.00     0.057 A 
ATOM     55  C   UNL A   1      45.367  28.400  34.515  1.00  0.00     0.134 A 
ATOM     56  C   UNL A   1      43.920  26.612  35.202  1.00  0.00     0.134 A 
ATOM     57  F   UNL A   1      45.608  29.512  33.806  1.00  0.00    -0.206 F 
ATOM     58  C   UNL A   1      46.404  27.860  35.270  1.00  0.00     0.040 A 
ATOM     59  C   UNL A   1      44.940  26.081  35.988  1.00  0.00     0.040 A 
ATOM     60  F   UNL A   1      42.735  25.982  35.191  1.00  0.00    -0.206 F 
ATOM     61  C   UNL A   1      46.188  26.703  36.019  1.00  0.00     0.006 A 
ENDBRANCH  37  54
ENDBRANCH  11  12
ENDBRANCH   4   6
ENDBRANCH   3   4
ENDBRANCH   2   3
ENDBRANCH   1   2
BRANCH   1  62
ATOM     62  O   UNL A   1      31.145  28.700  25.162  1.00  0.00    -0.461 OA
BRANCH  62  63
ATOM     63  C   UNL A   1      31.486  27.542  25.943  1.00  0.00     0.317 C 
ATOM     64  O   UNL A   1      31.355  27.633  27.173  1.00  0.00    -0.251 OA
BRANCH  63  65
ATOM     65  C   UNL A   1      31.944  25.927  25.203  1.00  0.00     0.117 C 
ATOM     66  C   UNL A   1      33.481  26.168  24.839  1.00  0.00     0.030 C 
ATOM     67  C   UNL A   1      31.349  25.773  23.768  1.00  0.00     0.279 C 
ATOM     68  C   UNL A   1      33.734  27.286  23.805  1.00  0.00     0.063 C 
ATOM     69  N   UNL A   1      31.477  26.957  22.915  1.00  0.00    -0.345 N 
ATOM     70  C   UNL A   1      32.873  27.160  22.557  1.00  0.00     0.260 C 
ATOM     71  H   UNL A   1      30.926  26.824  22.067  1.00  0.00     0.346 HD
ATOM     72  H   UNL A   1      31.137  27.775  23.422  1.00  0.00     0.346 HD
BRANCH  65  73
ATOM     73  C   UNL A   1      32.025  24.187  25.979  1.00  0.00     0.029 C 
BRANCH  73  74
ATOM     74  C   UNL A   1      31.561  22.418  25.425  1.00  0.00     0.038 C 
BRANCH  74  75
ATOM     75  C   UNL A   1      32.502  21.101  24.414  1.00  0.00    -0.030 A 
ATOM     76  C   UNL A   1      32.339  22.023  22.954  1.00  0.00     0.007 A 
ATOM     77  C   UNL A   1      34.130  20.805  25.037  1.00  0.00     0.114 A 
ATOM     78  C   UNL A   1      33.483  23.120  22.385  1.00  0.00     0.020 A 
ATOM     79  N   UNL A   1      35.377  22.092  24.688  1.00  0.00    -0.264 NA
ATOM     80  C   UNL A   1      34.921  23.304  23.282  1.00  0.00     0.111 A 
ENDBRANCH  74  75
ENDBRANCH  73  74
ENDBRANCH  65  73
ENDBRANCH  63  65
ENDBRANCH  62  63
ENDBRANCH   1  62
TORSDOF 14
ENDMDL
MODEL 3
REMARK VINA RESULT:     -15.6      4.870      9.920
REMARK SMILES O=C(OCCOC(=O)[C@]1(CCc2cccnc2)CCC[NH2+]C1)c1ccc(-c2c3nc(c(-c4c(F)cccc4F)c4ccc([nH]4)c(-c4c(F)cccc4F)c4nc(c(-c5c(F)cccc5F)c5ccc2[nH]5)C=C4)C=C3)cc1
REMARK SMILES IDX 5 1 4 2 3 3 2 4 1 5 23 6 24 7 76 8 25 9 75 10 26 11 27 12
REMARK SMILES IDX 28 13 69 14 29 15 74 16 68 17 70 18 30 19 73 20 67 21 66 22
REMARK SMILES IDX 31 24 57 25 40 26 56 27 41 28 44 29 55 30 71 31 42 32 43 33
REMARK SMILES IDX 54 35 72 36 45 37 32 38 33 39 38 40 34 41 35 42 37 43 39 44
REMARK SMILES IDX 36 45 58 46 59 47 64 48 60 49 61 50 63 51 65 52 62 53 46 54
REMARK SMILES IDX 47 55 52 56 48 57 49 58 51 59 53 60 50 61 6 62 7 63 8 64
REMARK SMILES IDX 9 65 18 66 22 67 19 68 21 69 20 70 10 73 11 74 12 75 13 76
REMARK SMILES IDX 17 77 14 78 16 79 15 80
REMARK H PARENT 70 23 44 34 21 71 21 72
REMARK Flexibility Score: inf
ROOT
ATOM      1  C   UNL A   1      36.554  19.715  24.625  1.00  0.00     0.274 C 
ENDROOT
BRANCH   1   2
ATOM      2  C   UNL A   1      38.324  20.279  25.217  1.00  0.00     0.275 C 
BRANCH   2   3
ATOM      3  O   UNL A   1      39.512  18.826  25.394  1.00  0.00    -0.458 OA
BRANCH   3   4
ATOM      4  C   UNL A   1      41.374  19.290  25.829  1.00  0.00     0.338 C 
ATOM      5  O   UNL A   1      42.241  18.396  25.751  1.00  0.00    -0.246 OA
BRANCH   4   6
ATOM      6  C   UNL A   1      41.756  21.034  26.541  1.00  0.00     0.060 A 
ATOM      7  C   UNL A   1      41.900  21.383  27.931  1.00  0.00     0.016 A 
ATOM      8  C   UNL A   1      41.658  22.213  25.752  1.00  0.00     0.016 A 
ATOM      9  C   UNL A   1      42.132  22.683  28.418  1.00  0.00     0.010 A 
ATOM     10  C   UNL A   1      42.008  23.488  26.186  1.00  0.00     0.010 A 
ATOM     11  C   UNL A   1      42.284  23.725  27.524  1.00  0.00    -0.014 A 
BRANCH  11  12
ATOM     12  C   UNL A   1      42.771  25.065  27.884  1.00  0.00     0.031 A 
ATOM     13  C   UNL A   1      41.780  26.064  28.388  1.00  0.00     0.074 A 
ATOM     14  C   UNL A   1      44.014  25.400  27.489  1.00  0.00     0.049 A 
ATOM     15  N   UNL A   1      41.901  27.355  28.499  1.00  0.00    -0.248 NA
ATOM     16  C   UNL A   1      40.456  25.544  28.784  1.00  0.00     0.031 C 
ATOM     17  C   UNL A   1      45.019  24.466  26.974  1.00  0.00     0.029 A 
ATOM     18  N   UNL A   1      44.625  26.617  27.376  1.00  0.00    -0.354 N 
ATOM     19  C   UNL A   1      40.681  27.800  28.987  1.00  0.00     0.074 A 
ATOM     20  C   UNL A   1      39.796  26.661  29.051  1.00  0.00     0.031 C 
ATOM     21  C   UNL A   1      46.070  25.146  26.495  1.00  0.00     0.029 A 
ATOM     22  C   UNL A   1      45.829  26.560  26.707  1.00  0.00     0.049 A 
ATOM     23  H   UNL A   1      44.244  27.450  27.735  1.00  0.00     0.167 HD
ATOM     24  C   UNL A   1      40.368  29.048  29.397  1.00  0.00     0.037 A 
ATOM     25  C   UNL A   1      46.645  27.554  26.318  1.00  0.00     0.037 A 
ATOM     26  C   UNL A   1      41.309  30.132  29.337  1.00  0.00     0.049 A 
ATOM     27  C   UNL A   1      46.274  28.933  26.773  1.00  0.00     0.074 A 
ATOM     28  C   UNL A   1      41.187  31.419  29.821  1.00  0.00     0.029 A 
ATOM     29  N   UNL A   1      42.565  30.037  28.746  1.00  0.00    -0.354 N 
ATOM     30  N   UNL A   1      45.176  29.327  27.377  1.00  0.00    -0.248 NA
ATOM     31  C   UNL A   1      47.269  29.988  26.571  1.00  0.00     0.031 C 
ATOM     32  C   UNL A   1      42.355  32.113  29.485  1.00  0.00     0.029 A 
ATOM     33  C   UNL A   1      43.219  31.250  28.824  1.00  0.00     0.049 A 
ATOM     34  H   UNL A   1      42.934  29.223  28.331  1.00  0.00     0.167 HD
ATOM     35  C   UNL A   1      45.368  30.663  27.679  1.00  0.00     0.074 A 
ATOM     36  C   UNL A   1      46.692  31.007  27.192  1.00  0.00     0.031 C 
ATOM     37  C   UNL A   1      44.538  31.529  28.311  1.00  0.00     0.037 A 
BRANCH  24  38
ATOM     38  C   UNL A   1      38.998  29.271  29.966  1.00  0.00     0.057 A 
ATOM     39  C   UNL A   1      37.922  29.674  29.161  1.00  0.00     0.134 A 
ATOM     40  C   UNL A   1      38.742  29.086  31.330  1.00  0.00     0.134 A 
ATOM     41  F   UNL A   1      38.099  29.887  27.847  1.00  0.00    -0.206 F 
ATOM     42  C   UNL A   1      36.655  29.916  29.693  1.00  0.00     0.040 A 
ATOM     43  C   UNL A   1      37.472  29.300  31.871  1.00  0.00     0.040 A 
ATOM     44  F   UNL A   1      39.724  28.705  32.161  1.00  0.00    -0.206 F 
ATOM     45  C   UNL A   1      36.425  29.724  31.054  1.00  0.00     0.006 A 
ENDBRANCH  24  38
BRANCH  25  46
ATOM     46  C   UNL A   1      47.899  27.264  25.577  1.00  0.00     0.057 A 
ATOM     47  C   UNL A   1      47.969  27.419  24.188  1.00  0.00     0.134 A 
ATOM     48  C   UNL A   1      49.065  26.848  26.232  1.00  0.00     0.134 A 
ATOM     49  F   UNL A   1      46.891  27.828  23.501  1.00  0.00    -0.206 F 
ATOM     50  C   UNL A   1      49.132  27.129  23.471  1.00  0.00     0.040 A 
ATOM     51  C   UNL A   1      50.244  26.574  25.530  1.00  0.00     0.040 A 
ATOM     52  F   UNL A   1      49.083  26.712  27.567  1.00  0.00    -0.206 F 
ATOM     53  C   UNL A   1      50.275  26.703  24.143  1.00  0.00     0.006 A 
ENDBRANCH  25  46
BRANCH  37  54
ATOM     54  C   UNL A   1      45.058  32.918  28.493  1.00  0.00     0.057 A 
ATOM     55  C   UNL A   1      44.775  33.926  27.565  1.00  0.00     0.134 A 
ATOM     56  C   UNL A   1      45.804  33.255  29.627  1.00  0.00     0.134 A 
ATOM     57  F   UNL A   1      44.081  33.649  26.451  1.00  0.00    -0.206 F 
ATOM     58  C   UNL A   1      45.234  35.226  27.751  1.00  0.00     0.040 A 
ATOM     59  C   UNL A   1      46.241  34.561  29.840  1.00  0.00     0.040 A 
ATOM     60  F   UNL A   1      46.099  32.329  30.552  1.00  0.00    -0.206 F 
ATOM     61  C   UNL A   1      45.960  35.549  28.897  1.00  0.00     0.006 A 
ENDBRANCH  37  54
ENDBRANCH  11  12
ENDBRANCH   4   6
ENDBRANCH   3   4
ENDBRANCH   2   3
ENDBRANCH   1   2
BRANCH   1  62
ATOM     62  O   UNL A   1      35.070  20.473  25.296  1.00  0.00    -0.461 OA
BRANCH  62  63
ATOM     63  C   UNL A   1      34.050  21.373  24.830  1.00  0.00     0.317 C 
ATOM     64  O   UNL A   1      33.229  20.922  24.017  1.00  0.00    -0.251 OA
BRANCH  63  65
ATOM     65  C   UNL A   1      33.825  23.069  25.490  1.00  0.00     0.117 C 
ATOM     66  C   UNL A   1      34.543  23.947  24.365  1.00  0.00     0.030 C 
ATOM     67  C   UNL A   1      34.782  23.340  26.693  1.00  0.00     0.279 C 
ATOM     68  C   UNL A   1      36.051  23.670  24.191  1.00  0.00     0.063 C 
ATOM     69  N   UNL A   1      36.159  22.876  26.505  1.00  0.00    -0.345 N 
ATOM     70  C   UNL A   1      36.824  23.695  25.502  1.00  0.00     0.260 C 
ATOM     71  H   UNL A   1      36.664  22.947  27.388  1.00  0.00     0.346 HD
ATOM     72  H   UNL A   1      36.146  21.905  26.192  1.00  0.00     0.346 HD
BRANCH  65  73
ATOM     73  C   UNL A   1      32.237  24.085  25.782  1.00  0.00     0.029 C 
BRANCH  73  74
ATOM     74  C   UNL A   1      31.829  25.920  26.120  1.00  0.00     0.038 C 
BRANCH  74  75
ATOM     75  C   UNL A   1      31.070  27.289  25.028  1.00  0.00    -0.030 A 
ATOM     76  C   UNL A   1      32.602  28.087  24.863  1.00  0.00     0.007 A 
ATOM     77  C   UNL A   1      30.304  26.644  23.570  1.00  0.00     0.114 A 
ATOM     78  C   UNL A   1      33.683  27.826  23.597  1.00  0.00     0.020 A 
ATOM     79  N   UNL A   1      31.427  26.086  22.244  1.00  0.00    -0.264 NA
ATOM     80  C   UNL A   1      33.220  26.738  22.370  1.00  0.00     0.111 A 
ENDBRANCH  74  75
ENDBRANCH  73  74
ENDBRANCH  65  73
ENDBRANCH  63  65
ENDBRANCH  62  63
ENDBRANCH   1  62
TORSDOF 14
ENDMDL
