MODEL 1
REMARK VINA RESULT:     -10.8      0.000      0.000
REMARK SMILES COC(=O)c1cncc(N2CC[C@H](C(=O)OCCOC(=O)c3ccc(-c4c5nc(c(-c6c(F)cccc6F)c6ccc([nH]6)c(-c6c(F)cccc6F)c6nc(c(-c7c(F)cccc7F)c7ccc4[nH]7)C=C6)C=C5)cc3)C2)n1
REMARK SMILES IDX 17 1 16 2 14 3 15 4 13 5 10 6 11 7 76 8 12 9 9 10 5 11 6 12
REMARK SMILES IDX 77 13 7 14 8 15 3 16 4 17 2 18 1 19 18 20 19 21 20 22 21 23
REMARK SMILES IDX 22 24 23 25 75 26 24 27 74 28 25 29 26 30 27 31 68 32 28 33
REMARK SMILES IDX 73 34 67 35 69 36 29 37 72 38 66 39 65 40 30 42 56 43 39 44
REMARK SMILES IDX 55 45 40 46 43 47 54 48 70 49 41 50 42 51 53 53 71 54 44 55
REMARK SMILES IDX 31 56 32 57 37 58 33 59 34 60 36 61 38 62 35 63 57 64 58 65
REMARK SMILES IDX 63 66 59 67 60 68 62 69 64 70 61 71 45 72 46 73 51 74 47 75
REMARK SMILES IDX 48 76 50 77 52 78 49 79
REMARK H PARENT 69 41 43 52
REMARK Flexibility Score: inf
ROOT
ATOM      1  C   UNL A   1      31.719  32.002  26.880  1.00  0.00     0.274 C 
ENDROOT
BRANCH   1   2
ATOM      2  O   UNL A   1      32.399  30.951  27.592  1.00  0.00    -0.462 OA
BRANCH   2   3
ATOM      3  C   UNL A   1      33.497  30.415  27.003  1.00  0.00     0.310 C 
ATOM      4  O   UNL A   1      34.650  30.778  27.205  1.00  0.00    -0.252 OA
BRANCH   3   5
ATOM      5  C   UNL A   1      33.166  29.292  26.058  1.00  0.00     0.120 C 
ATOM      6  N   UNL A   1      31.605  28.518  24.485  1.00  0.00    -0.354 N 
ATOM      7  C   UNL A   1      31.889  27.405  25.395  1.00  0.00     0.119 C 
ATOM      8  C   UNL A   1      32.206  29.762  24.975  1.00  0.00     0.133 C 
ATOM      9  C   UNL A   1      32.457  28.074  26.639  1.00  0.00     0.038 C 
BRANCH   6  10
ATOM     10  C   UNL A   1      30.330  28.647  23.964  1.00  0.00     0.148 A 
ATOM     11  C   UNL A   1      28.626  29.957  23.133  1.00  0.00     0.169 A 
ATOM     12  C   UNL A   1      27.862  28.833  22.866  1.00  0.00     0.147 A 
ATOM     13  N   UNL A   1      29.864  29.879  23.683  1.00  0.00    -0.221 NA
ATOM     14  N   UNL A   1      28.303  27.581  23.134  1.00  0.00    -0.258 NA
ATOM     15  C   UNL A   1      29.547  27.523  23.680  1.00  0.00     0.157 A 
BRANCH  11  16
ATOM     16  C   UNL A   1      28.157  31.318  22.776  1.00  0.00     0.358 C 
ATOM     17  O   UNL A   1      27.273  31.922  23.361  1.00  0.00    -0.244 OA
BRANCH  16  18
ATOM     18  O   UNL A   1      28.834  31.761  21.684  1.00  0.00    -0.464 OA
ATOM     19  C   UNL A   1      28.008  31.948  20.534  1.00  0.00     0.282 C 
ENDBRANCH  16  18
ENDBRANCH  11  16
ENDBRANCH   6  10
ENDBRANCH   3   5
ENDBRANCH   2   3
ENDBRANCH   1   2
BRANCH   1  20
ATOM     20  C   UNL A   1      32.522  33.302  26.945  1.00  0.00     0.275 C 
BRANCH  20  21
ATOM     21  O   UNL A   1      32.254  34.029  28.161  1.00  0.00    -0.458 OA
BRANCH  21  22
ATOM     22  C   UNL A   1      33.267  34.818  28.591  1.00  0.00     0.338 C 
ATOM     23  O   UNL A   1      33.253  36.026  28.748  1.00  0.00    -0.246 OA
BRANCH  22  24
ATOM     24  C   UNL A   1      34.405  33.983  29.001  1.00  0.00     0.060 A 
ATOM     25  C   UNL A   1      34.150  32.922  29.871  1.00  0.00     0.016 A 
ATOM     26  C   UNL A   1      35.711  34.287  28.618  1.00  0.00     0.016 A 
ATOM     27  C   UNL A   1      35.196  32.155  30.371  1.00  0.00     0.010 A 
ATOM     28  C   UNL A   1      36.767  33.519  29.121  1.00  0.00     0.010 A 
ATOM     29  C   UNL A   1      36.514  32.457  30.009  1.00  0.00    -0.014 A 
BRANCH  29  30
ATOM     30  C   UNL A   1      37.624  31.688  30.616  1.00  0.00     0.031 A 
ATOM     31  C   UNL A   1      37.986  31.910  32.054  1.00  0.00     0.074 A 
ATOM     32  C   UNL A   1      38.272  30.761  29.888  1.00  0.00     0.049 A 
ATOM     33  N   UNL A   1      38.963  31.389  32.751  1.00  0.00    -0.248 NA
ATOM     34  C   UNL A   1      37.135  32.842  32.811  1.00  0.00     0.031 C 
ATOM     35  C   UNL A   1      37.970  30.415  28.498  1.00  0.00     0.029 A 
ATOM     36  N   UNL A   1      39.317  29.938  30.220  1.00  0.00    -0.354 N 
ATOM     37  C   UNL A   1      38.859  31.943  34.019  1.00  0.00     0.074 A 
ATOM     38  C   UNL A   1      37.730  32.849  33.996  1.00  0.00     0.031 C 
ATOM     39  C   UNL A   1      38.810  29.449  28.097  1.00  0.00     0.029 A 
ATOM     40  C   UNL A   1      39.734  29.139  29.185  1.00  0.00     0.049 A 
ATOM     41  H   UNL A   1      39.729  29.921  31.114  1.00  0.00     0.167 HD
ATOM     42  C   UNL A   1      39.635  31.714  35.105  1.00  0.00     0.037 A 
ATOM     43  C   UNL A   1      40.764  28.275  29.115  1.00  0.00     0.037 A 
ATOM     44  C   UNL A   1      40.746  30.801  35.131  1.00  0.00     0.049 A 
ATOM     45  C   UNL A   1      41.644  28.080  30.317  1.00  0.00     0.074 A 
ATOM     46  C   UNL A   1      41.593  30.499  36.184  1.00  0.00     0.029 A 
ATOM     47  N   UNL A   1      41.161  30.035  34.052  1.00  0.00    -0.354 N 
ATOM     48  N   UNL A   1      41.552  28.627  31.504  1.00  0.00    -0.248 NA
ATOM     49  C   UNL A   1      42.776  27.156  30.166  1.00  0.00     0.031 C 
ATOM     50  C   UNL A   1      42.541  29.574  35.731  1.00  0.00     0.029 A 
ATOM     51  C   UNL A   1      42.262  29.274  34.408  1.00  0.00     0.049 A 
ATOM     52  H   UNL A   1      40.737  30.034  33.163  1.00  0.00     0.167 HD
ATOM     53  C   UNL A   1      42.601  28.104  32.247  1.00  0.00     0.074 A 
ATOM     54  C   UNL A   1      43.309  27.184  31.380  1.00  0.00     0.031 C 
ATOM     55  C   UNL A   1      42.950  28.362  33.531  1.00  0.00     0.037 A 
BRANCH  42  56
ATOM     56  C   UNL A   1      39.325  32.493  36.348  1.00  0.00     0.057 A 
ATOM     57  C   UNL A   1      39.961  33.706  36.641  1.00  0.00     0.134 A 
ATOM     58  C   UNL A   1      38.359  32.033  37.251  1.00  0.00     0.134 A 
ATOM     59  F   UNL A   1      40.908  34.191  35.823  1.00  0.00    -0.206 F 
ATOM     60  C   UNL A   1      39.659  34.426  37.798  1.00  0.00     0.040 A 
ATOM     61  C   UNL A   1      38.034  32.754  38.402  1.00  0.00     0.040 A 
ATOM     62  F   UNL A   1      37.713  30.878  37.029  1.00  0.00    -0.206 F 
ATOM     63  C   UNL A   1      38.689  33.953  38.679  1.00  0.00     0.006 A 
ENDBRANCH  42  56
BRANCH  43  64
ATOM     64  C   UNL A   1      41.033  27.547  27.852  1.00  0.00     0.057 A 
ATOM     65  C   UNL A   1      40.493  26.278  27.617  1.00  0.00     0.134 A 
ATOM     66  C   UNL A   1      41.839  28.102  26.850  1.00  0.00     0.134 A 
ATOM     67  F   UNL A   1      39.731  25.686  28.549  1.00  0.00    -0.206 F 
ATOM     68  C   UNL A   1      40.751  25.582  26.435  1.00  0.00     0.040 A 
ATOM     69  C   UNL A   1      42.088  27.427  25.655  1.00  0.00     0.040 A 
ATOM     70  F   UNL A   1      42.386  29.315  27.016  1.00  0.00    -0.206 F 
ATOM     71  C   UNL A   1      41.546  26.160  25.447  1.00  0.00     0.006 A 
ENDBRANCH  43  64
BRANCH  55  72
ATOM     72  C   UNL A   1      44.132  27.622  34.078  1.00  0.00     0.057 A 
ATOM     73  C   UNL A   1      45.419  28.173  34.052  1.00  0.00     0.134 A 
ATOM     74  C   UNL A   1      43.976  26.360  34.663  1.00  0.00     0.134 A 
ATOM     75  F   UNL A   1      45.635  29.372  33.491  1.00  0.00    -0.206 F 
ATOM     76  C   UNL A   1      46.515  27.484  34.574  1.00  0.00     0.040 A 
ATOM     77  C   UNL A   1      45.060  25.670  35.206  1.00  0.00     0.040 A 
ATOM     78  F   UNL A   1      42.767  25.782  34.723  1.00  0.00    -0.206 F 
ATOM     79  C   UNL A   1      46.335  26.231  35.159  1.00  0.00     0.006 A 
ENDBRANCH  55  72
ENDBRANCH  29  30
ENDBRANCH  22  24
ENDBRANCH  21  22
ENDBRANCH  20  21
ENDBRANCH   1  20
TORSDOF 14
ENDMDL
MODEL 2
REMARK VINA RESULT:     -10.7      6.680     11.172
REMARK SMILES COC(=O)c1cncc(N2CC[C@H](C(=O)OCCOC(=O)c3ccc(-c4c5nc(c(-c6c(F)cccc6F)c6ccc([nH]6)c(-c6c(F)cccc6F)c6nc(c(-c7c(F)cccc7F)c7ccc4[nH]7)C=C6)C=C5)cc3)C2)n1
REMARK SMILES IDX 17 1 16 2 14 3 15 4 13 5 10 6 11 7 76 8 12 9 9 10 5 11 6 12
REMARK SMILES IDX 77 13 7 14 8 15 3 16 4 17 2 18 1 19 18 20 19 21 20 22 21 23
REMARK SMILES IDX 22 24 23 25 75 26 24 27 74 28 25 29 26 30 27 31 68 32 28 33
REMARK SMILES IDX 73 34 67 35 69 36 29 37 72 38 66 39 65 40 30 42 56 43 39 44
REMARK SMILES IDX 55 45 40 46 43 47 54 48 70 49 41 50 42 51 53 53 71 54 44 55
REMARK SMILES IDX 31 56 32 57 37 58 33 59 34 60 36 61 38 62 35 63 57 64 58 65
REMARK SMILES IDX 63 66 59 67 60 68 62 69 64 70 61 71 45 72 46 73 51 74 47 75
REMARK SMILES IDX 48 76 50 77 52 78 49 79
REMARK H PARENT 69 41 43 52
REMARK Flexibility Score: inf
ROOT
ATOM      1  C   UNL A   1      38.749  19.736  25.388  1.00  0.00     0.274 C 
ENDROOT
BRANCH   1   2
ATOM      2  O   UNL A   1      39.000  21.103  25.008  1.00  0.00    -0.462 OA
BRANCH   2   3
ATOM      3  C   UNL A   1      38.555  22.070  25.847  1.00  0.00     0.310 C 
ATOM      4  O   UNL A   1      39.190  22.530  26.789  1.00  0.00    -0.252 OA
BRANCH   3   5
ATOM      5  C   UNL A   1      37.172  22.555  25.501  1.00  0.00     0.120 C 
ATOM      6  N   UNL A   1      34.947  21.892  25.160  1.00  0.00    -0.354 N 
ATOM      7  C   UNL A   1      35.316  22.758  24.037  1.00  0.00     0.119 C 
ATOM      8  C   UNL A   1      36.119  21.567  25.979  1.00  0.00     0.133 C 
ATOM      9  C   UNL A   1      36.839  22.724  24.024  1.00  0.00     0.038 C 
BRANCH   6  10
ATOM     10  C   UNL A   1      34.077  20.840  24.934  1.00  0.00     0.148 A 
ATOM     11  C   UNL A   1      33.691  18.660  24.290  1.00  0.00     0.169 A 
ATOM     12  C   UNL A   1      32.345  18.787  24.594  1.00  0.00     0.147 A 
ATOM     13  N   UNL A   1      34.571  19.680  24.455  1.00  0.00    -0.221 NA
ATOM     14  N   UNL A   1      31.820  19.936  25.080  1.00  0.00    -0.258 NA
ATOM     15  C   UNL A   1      32.717  20.944  25.242  1.00  0.00     0.157 A 
BRANCH  11  16
ATOM     16  C   UNL A   1      34.264  17.377  23.820  1.00  0.00     0.358 C 
ATOM     17  O   UNL A   1      33.854  16.745  22.859  1.00  0.00    -0.244 OA
BRANCH  16  18
ATOM     18  O   UNL A   1      35.280  17.003  24.642  1.00  0.00    -0.464 OA
ATOM     19  C   UNL A   1      35.029  15.786  25.347  1.00  0.00     0.282 C 
ENDBRANCH  16  18
ENDBRANCH  11  16
ENDBRANCH   6  10
ENDBRANCH   3   5
ENDBRANCH   2   3
ENDBRANCH   1   2
BRANCH   1  20
ATOM     20  C   UNL A   1      39.886  19.205  26.264  1.00  0.00     0.275 C 
BRANCH  20  21
ATOM     21  O   UNL A   1      41.104  19.046  25.509  1.00  0.00    -0.458 OA
BRANCH  21  22
ATOM     22  C   UNL A   1      42.243  19.246  26.213  1.00  0.00     0.338 C 
ATOM     23  O   UNL A   1      43.127  18.440  26.441  1.00  0.00    -0.246 OA
BRANCH  22  24
ATOM     24  C   UNL A   1      42.360  20.667  26.571  1.00  0.00     0.060 A 
ATOM     25  C   UNL A   1      42.491  21.589  25.532  1.00  0.00     0.016 A 
ATOM     26  C   UNL A   1      42.434  21.082  27.900  1.00  0.00     0.016 A 
ATOM     27  C   UNL A   1      42.702  22.935  25.808  1.00  0.00     0.010 A 
ATOM     28  C   UNL A   1      42.648  22.436  28.182  1.00  0.00     0.010 A 
ATOM     29  C   UNL A   1      42.795  23.366  27.136  1.00  0.00    -0.014 A 
BRANCH  29  30
ATOM     30  C   UNL A   1      43.105  24.786  27.415  1.00  0.00     0.031 A 
ATOM     31  C   UNL A   1      44.480  25.318  27.137  1.00  0.00     0.074 A 
ATOM     32  C   UNL A   1      42.141  25.604  27.872  1.00  0.00     0.049 A 
ATOM     33  N   UNL A   1      44.970  26.508  27.373  1.00  0.00    -0.248 NA
ATOM     34  C   UNL A   1      45.431  24.387  26.509  1.00  0.00     0.031 C 
ATOM     35  C   UNL A   1      40.752  25.216  28.125  1.00  0.00     0.029 A 
ATOM     36  N   UNL A   1      42.183  26.935  28.203  1.00  0.00    -0.354 N 
ATOM     37  C   UNL A   1      46.289  26.465  26.942  1.00  0.00     0.074 A 
ATOM     38  C   UNL A   1      46.528  25.128  26.439  1.00  0.00     0.031 C 
ATOM     39  C   UNL A   1      40.074  26.285  28.568  1.00  0.00     0.029 A 
ATOM     40  C   UNL A   1      40.988  27.420  28.672  1.00  0.00     0.049 A 
ATOM     41  H   UNL A   1      42.992  27.488  28.113  1.00  0.00     0.167 HD
ATOM     42  C   UNL A   1      47.215  27.452  26.964  1.00  0.00     0.037 A 
ATOM     43  C   UNL A   1      40.674  28.636  29.156  1.00  0.00     0.037 A 
ATOM     44  C   UNL A   1      46.969  28.785  27.448  1.00  0.00     0.049 A 
ATOM     45  C   UNL A   1      41.735  29.699  29.221  1.00  0.00     0.074 A 
ATOM     46  C   UNL A   1      47.844  29.856  27.510  1.00  0.00     0.029 A 
ATOM     47  N   UNL A   1      45.756  29.229  27.949  1.00  0.00    -0.354 N 
ATOM     48  N   UNL A   1      42.985  29.640  28.834  1.00  0.00    -0.248 NA
ATOM     49  C   UNL A   1      41.343  30.992  29.797  1.00  0.00     0.031 C 
ATOM     50  C   UNL A   1      47.166  30.941  28.079  1.00  0.00     0.029 A 
ATOM     51  C   UNL A   1      45.861  30.554  28.338  1.00  0.00     0.049 A 
ATOM     52  H   UNL A   1      44.939  28.684  28.019  1.00  0.00     0.167 HD
ATOM     53  C   UNL A   1      43.526  30.890  29.105  1.00  0.00     0.074 A 
ATOM     54  C   UNL A   1      42.463  31.691  29.676  1.00  0.00     0.031 C 
ATOM     55  C   UNL A   1      44.790  31.334  28.901  1.00  0.00     0.037 A 
BRANCH  42  56
ATOM     56  C   UNL A   1      48.591  27.115  26.475  1.00  0.00     0.057 A 
ATOM     57  C   UNL A   1      48.965  27.287  25.136  1.00  0.00     0.134 A 
ATOM     58  C   UNL A   1      49.561  26.633  27.363  1.00  0.00     0.134 A 
ATOM     59  F   UNL A   1      48.076  27.729  24.234  1.00  0.00    -0.206 F 
ATOM     60  C   UNL A   1      50.252  26.976  24.694  1.00  0.00     0.040 A 
ATOM     61  C   UNL A   1      50.857  26.337  26.936  1.00  0.00     0.040 A 
ATOM     62  F   UNL A   1      49.267  26.447  28.658  1.00  0.00    -0.206 F 
ATOM     63  C   UNL A   1      51.204  26.505  25.597  1.00  0.00     0.006 A 
ENDBRANCH  42  56
BRANCH  43  64
ATOM     64  C   UNL A   1      39.299  28.906  29.642  1.00  0.00     0.057 A 
ATOM     65  C   UNL A   1      38.935  28.646  30.967  1.00  0.00     0.134 A 
ATOM     66  C   UNL A   1      38.317  29.426  28.790  1.00  0.00     0.134 A 
ATOM     67  F   UNL A   1      39.827  28.126  31.823  1.00  0.00    -0.206 F 
ATOM     68  C   UNL A   1      37.639  28.887  31.428  1.00  0.00     0.040 A 
ATOM     69  C   UNL A   1      37.025  29.692  29.243  1.00  0.00     0.040 A 
ATOM     70  F   UNL A   1      38.605  29.695  27.509  1.00  0.00    -0.206 F 
ATOM     71  C   UNL A   1      36.682  29.417  30.566  1.00  0.00     0.006 A 
ENDBRANCH  43  64
BRANCH  55  72
ATOM     72  C   UNL A   1      45.080  32.756  29.276  1.00  0.00     0.057 A 
ATOM     73  C   UNL A   1      44.858  33.811  28.382  1.00  0.00     0.134 A 
ATOM     74  C   UNL A   1      45.558  33.074  30.553  1.00  0.00     0.134 A 
ATOM     75  F   UNL A   1      44.415  33.568  27.140  1.00  0.00    -0.206 F 
ATOM     76  C   UNL A   1      45.118  35.134  28.742  1.00  0.00     0.040 A 
ATOM     77  C   UNL A   1      45.803  34.394  30.930  1.00  0.00     0.040 A 
ATOM     78  F   UNL A   1      45.785  32.107  31.455  1.00  0.00    -0.206 F 
ATOM     79  C   UNL A   1      45.587  35.429  30.022  1.00  0.00     0.006 A 
ENDBRANCH  55  72
ENDBRANCH  29  30
ENDBRANCH  22  24
ENDBRANCH  21  22
ENDBRANCH  20  21
ENDBRANCH   1  20
TORSDOF 14
ENDMDL
MODEL 3
REMARK VINA RESULT:     -10.7      6.410     10.104
REMARK SMILES COC(=O)c1cncc(N2CC[C@H](C(=O)OCCOC(=O)c3ccc(-c4c5nc(c(-c6c(F)cccc6F)c6ccc([nH]6)c(-c6c(F)cccc6F)c6nc(c(-c7c(F)cccc7F)c7ccc4[nH]7)C=C6)C=C5)cc3)C2)n1
REMARK SMILES IDX 17 1 16 2 14 3 15 4 13 5 10 6 11 7 76 8 12 9 9 10 5 11 6 12
REMARK SMILES IDX 77 13 7 14 8 15 3 16 4 17 2 18 1 19 18 20 19 21 20 22 21 23
REMARK SMILES IDX 22 24 23 25 75 26 24 27 74 28 25 29 26 30 27 31 68 32 28 33
REMARK SMILES IDX 73 34 67 35 69 36 29 37 72 38 66 39 65 40 30 42 56 43 39 44
REMARK SMILES IDX 55 45 40 46 43 47 54 48 70 49 41 50 42 51 53 53 71 54 44 55
REMARK SMILES IDX 31 56 32 57 37 58 33 59 34 60 36 61 38 62 35 63 57 64 58 65
REMARK SMILES IDX 63 66 59 67 60 68 62 69 64 70 61 71 45 72 46 73 51 74 47 75
REMARK SMILES IDX 48 76 50 77 52 78 49 79
REMARK H PARENT 69 41 43 52
REMARK Flexibility Score: inf
ROOT
ATOM      1  C   UNL A   1      38.350  21.702  25.419  1.00  0.00     0.274 C 
ENDROOT
BRANCH   1   2
ATOM      2  O   UNL A   1      37.116  21.971  24.725  1.00  0.00    -0.462 OA
BRANCH   2   3
ATOM      3  C   UNL A   1      36.240  22.815  25.325  1.00  0.00     0.310 C 
ATOM      4  O   UNL A   1      36.521  23.925  25.763  1.00  0.00    -0.252 OA
BRANCH   3   5
ATOM      5  C   UNL A   1      34.845  22.255  25.399  1.00  0.00     0.120 C 
ATOM      6  N   UNL A   1      33.523  20.362  24.978  1.00  0.00    -0.354 N 
ATOM      7  C   UNL A   1      32.818  21.516  24.412  1.00  0.00     0.119 C 
ATOM      8  C   UNL A   1      34.873  20.735  25.412  1.00  0.00     0.133 C 
ATOM      9  C   UNL A   1      33.902  22.571  24.244  1.00  0.00     0.038 C 
BRANCH   6  10
ATOM     10  C   UNL A   1      33.427  19.140  24.337  1.00  0.00     0.148 A 
ATOM     11  C   UNL A   1      33.779  16.863  24.298  1.00  0.00     0.169 A 
ATOM     12  C   UNL A   1      33.134  16.762  23.076  1.00  0.00     0.147 A 
ATOM     13  N   UNL A   1      33.933  18.048  24.941  1.00  0.00    -0.221 NA
ATOM     14  N   UNL A   1      32.611  17.840  22.445  1.00  0.00    -0.258 NA
ATOM     15  C   UNL A   1      32.772  19.016  23.107  1.00  0.00     0.157 A 
BRANCH  11  16
ATOM     16  C   UNL A   1      34.290  15.666  25.008  1.00  0.00     0.358 C 
ATOM     17  O   UNL A   1      35.436  15.531  25.404  1.00  0.00    -0.244 OA
BRANCH  16  18
ATOM     18  O   UNL A   1      33.300  14.740  25.111  1.00  0.00    -0.464 OA
ATOM     19  C   UNL A   1      32.300  15.075  26.075  1.00  0.00     0.282 C 
ENDBRANCH  16  18
ENDBRANCH  11  16
ENDBRANCH   6  10
ENDBRANCH   3   5
ENDBRANCH   2   3
ENDBRANCH   1   2
BRANCH   1  20
ATOM     20  C   UNL A   1      38.738  20.230  25.273  1.00  0.00     0.275 C 
BRANCH  20  21
ATOM     21  O   UNL A   1      39.551  19.786  26.378  1.00  0.00    -0.458 OA
BRANCH  21  22
ATOM     22  C   UNL A   1      40.885  19.796  26.148  1.00  0.00     0.338 C 
ATOM     23  O   UNL A   1      41.538  18.977  25.526  1.00  0.00    -0.246 OA
BRANCH  22  24
ATOM     24  C   UNL A   1      41.463  21.052  26.645  1.00  0.00     0.060 A 
ATOM     25  C   UNL A   1      41.335  21.330  28.007  1.00  0.00     0.016 A 
ATOM     26  C   UNL A   1      42.038  21.986  25.783  1.00  0.00     0.016 A 
ATOM     27  C   UNL A   1      41.775  22.544  28.522  1.00  0.00     0.010 A 
ATOM     28  C   UNL A   1      42.480  23.209  26.298  1.00  0.00     0.010 A 
ATOM     29  C   UNL A   1      42.340  23.498  27.668  1.00  0.00    -0.014 A 
BRANCH  29  30
ATOM     30  C   UNL A   1      42.725  24.819  28.214  1.00  0.00     0.031 A 
ATOM     31  C   UNL A   1      41.676  25.867  28.439  1.00  0.00     0.074 A 
ATOM     32  C   UNL A   1      44.005  25.057  28.548  1.00  0.00     0.049 A 
ATOM     33  N   UNL A   1      41.816  27.103  28.844  1.00  0.00    -0.248 NA
ATOM     34  C   UNL A   1      40.284  25.473  28.175  1.00  0.00     0.031 C 
ATOM     35  C   UNL A   1      45.103  24.095  28.429  1.00  0.00     0.029 A 
ATOM     36  N   UNL A   1      44.599  26.182  29.060  1.00  0.00    -0.354 N 
ATOM     37  C   UNL A   1      40.537  27.641  28.864  1.00  0.00     0.074 A 
ATOM     38  C   UNL A   1      39.632  26.601  28.421  1.00  0.00     0.031 C 
ATOM     39  C   UNL A   1      46.236  24.671  28.859  1.00  0.00     0.029 A 
ATOM     40  C   UNL A   1      45.953  26.052  29.241  1.00  0.00     0.049 A 
ATOM     41  H   UNL A   1      44.102  27.003  29.276  1.00  0.00     0.167 HD
ATOM     42  C   UNL A   1      40.153  28.889  29.222  1.00  0.00     0.037 A 
ATOM     43  C   UNL A   1      46.866  26.955  29.645  1.00  0.00     0.037 A 
ATOM     44  C   UNL A   1      41.052  29.915  29.678  1.00  0.00     0.049 A 
ATOM     45  C   UNL A   1      46.422  28.350  29.983  1.00  0.00     0.074 A 
ATOM     46  C   UNL A   1      40.758  31.212  30.065  1.00  0.00     0.029 A 
ATOM     47  N   UNL A   1      42.423  29.758  29.815  1.00  0.00    -0.354 N 
ATOM     48  N   UNL A   1      45.213  28.855  29.976  1.00  0.00    -0.248 NA
ATOM     49  C   UNL A   1      47.470  29.301  30.377  1.00  0.00     0.031 C 
ATOM     50  C   UNL A   1      41.958  31.849  30.405  1.00  0.00     0.029 A 
ATOM     51  C   UNL A   1      42.992  30.938  30.264  1.00  0.00     0.049 A 
ATOM     52  H   UNL A   1      42.919  28.930  29.620  1.00  0.00     0.167 HD
ATOM     53  C   UNL A   1      45.350  30.177  30.377  1.00  0.00     0.074 A 
ATOM     54  C   UNL A   1      46.760  30.392  30.634  1.00  0.00     0.031 C 
ATOM     55  C   UNL A   1      44.397  31.129  30.517  1.00  0.00     0.037 A 
BRANCH  42  56
ATOM     56  C   UNL A   1      38.696  29.221  29.102  1.00  0.00     0.057 A 
ATOM     57  C   UNL A   1      37.832  29.169  30.203  1.00  0.00     0.134 A 
ATOM     58  C   UNL A   1      38.158  29.620  27.873  1.00  0.00     0.134 A 
ATOM     59  F   UNL A   1      38.284  28.778  31.404  1.00  0.00    -0.206 F 
ATOM     60  C   UNL A   1      36.478  29.487  30.082  1.00  0.00     0.040 A 
ATOM     61  C   UNL A   1      36.809  29.960  27.743  1.00  0.00     0.040 A 
ATOM     62  F   UNL A   1      38.932  29.691  26.780  1.00  0.00    -0.206 F 
ATOM     63  C   UNL A   1      35.965  29.890  28.850  1.00  0.00     0.006 A 
ENDBRANCH  42  56
BRANCH  43  64
ATOM     64  C   UNL A   1      48.297  26.573  29.727  1.00  0.00     0.057 A 
ATOM     65  C   UNL A   1      49.171  26.803  28.659  1.00  0.00     0.134 A 
ATOM     66  C   UNL A   1      48.823  25.966  30.874  1.00  0.00     0.134 A 
ATOM     67  F   UNL A   1      48.719  27.360  27.525  1.00  0.00    -0.206 F 
ATOM     68  C   UNL A   1      50.516  26.436  28.724  1.00  0.00     0.040 A 
ATOM     69  C   UNL A   1      50.169  25.614  30.961  1.00  0.00     0.040 A 
ATOM     70  F   UNL A   1      48.035  25.719  31.931  1.00  0.00    -0.206 F 
ATOM     71  C   UNL A   1      51.019  25.845  29.882  1.00  0.00     0.006 A 
ENDBRANCH  43  64
BRANCH  55  72
ATOM     72  C   UNL A   1      44.845  32.477  30.993  1.00  0.00     0.057 A 
ATOM     73  C   UNL A   1      44.926  32.785  32.357  1.00  0.00     0.134 A 
ATOM     74  C   UNL A   1      45.229  33.466  30.079  1.00  0.00     0.134 A 
ATOM     75  F   UNL A   1      44.560  31.884  33.281  1.00  0.00    -0.206 F 
ATOM     76  C   UNL A   1      45.357  34.038  32.795  1.00  0.00     0.040 A 
ATOM     77  C   UNL A   1      45.679  34.715  30.505  1.00  0.00     0.040 A 
ATOM     78  F   UNL A   1      45.178  33.229  28.760  1.00  0.00    -0.206 F 
ATOM     79  C   UNL A   1      45.741  35.006  31.866  1.00  0.00     0.006 A 
ENDBRANCH  55  72
ENDBRANCH  29  30
ENDBRANCH  22  24
ENDBRANCH  21  22
ENDBRANCH  20  21
ENDBRANCH   1  20
TORSDOF 14
ENDMDL
