MODEL 1
REMARK VINA RESULT:     -11.1      0.000      0.000
REMARK SMILES C[NH2+][C@@]1(C(=O)OCCOC(=O)c2ccc(-c3c4nc(c(-c5c(F)cccc5F)c5ccc([nH]5)c(-c5c(F)cccc5F)c5nc(c(-c6c(F)cccc6F)c6ccc3[nH]6)C=C5)C=C4)cc2)CC[C@H]([NH+]2CC[NH+](C)CC2)C1
REMARK SMILES IDX 8 1 7 2 6 3 4 4 5 5 3 6 66 7 76 8 67 9 68 10 2 11 1 12 69 15
REMARK SMILES IDX 70 16 75 17 71 19 74 20 72 21 73 22 9 24 10 25 11 26 12 27
REMARK SMILES IDX 13 28 65 29 14 30 64 31 15 32 16 33 17 34 58 35 18 36 63 37
REMARK SMILES IDX 57 38 59 39 19 40 62 41 56 42 55 43 20 45 46 46 29 47 45 48
REMARK SMILES IDX 30 49 33 50 44 51 60 52 31 53 32 54 43 56 61 57 34 58 21 59
REMARK SMILES IDX 22 60 27 61 23 62 24 63 26 64 28 65 25 66 47 67 48 68 53 69
REMARK SMILES IDX 49 70 50 71 52 72 54 73 51 74 35 75 36 76 41 77 37 78 38 79
REMARK SMILES IDX 40 80 42 81 39 82
REMARK H PARENT 2 13 2 14 69 18 72 23 59 44 33 55
REMARK Flexibility Score: inf
ROOT
ATOM      1  C   UNL A   1      31.703  29.273  26.005  1.00  0.00     0.275 C 
ENDROOT
BRANCH   1   2
ATOM      2  C   UNL A   1      31.060  29.236  24.618  1.00  0.00     0.274 C 
BRANCH   2   3
ATOM      3  O   UNL A   1      30.851  27.863  24.211  1.00  0.00    -0.457 OA
BRANCH   3   4
ATOM      4  C   UNL A   1      31.053  27.564  22.900  1.00  0.00     0.368 C 
ATOM      5  O   UNL A   1      30.294  27.918  22.002  1.00  0.00    -0.245 OA
BRANCH   4   6
ATOM      6  C   UNL A   1      32.388  26.789  22.629  1.00  0.00     0.200 C 
ATOM      7  C   UNL A   1      32.055  25.529  21.813  1.00  0.00     0.087 C 
ATOM      8  C   UNL A   1      33.051  26.201  23.895  1.00  0.00     0.146 C 
ATOM      9  C   UNL A   1      31.567  24.539  22.856  1.00  0.00     0.072 C 
ATOM     10  C   UNL A   1      32.480  24.773  24.067  1.00  0.00     0.191 C 
BRANCH   6  11
ATOM     11  N   UNL A   1      33.242  27.623  21.749  1.00  0.00    -0.334 N 
ATOM     12  C   UNL A   1      34.110  28.577  22.412  1.00  0.00     0.331 C 
ATOM     13  H   UNL A   1      33.832  26.996  21.202  1.00  0.00     0.347 HD
ATOM     14  H   UNL A   1      32.596  28.183  21.194  1.00  0.00     0.347 HD
ENDBRANCH   6  11
BRANCH  10  15
ATOM     15  N   UNL A   1      32.027  24.399  25.412  1.00  0.00    -0.323 N 
ATOM     16  C   UNL A   1      33.119  24.078  26.349  1.00  0.00     0.324 C 
ATOM     17  C   UNL A   1      30.997  23.358  25.537  1.00  0.00     0.324 C 
ATOM     18  H   UNL A   1      31.570  25.274  25.667  1.00  0.00     0.348 HD
ATOM     19  C   UNL A   1      33.671  22.633  26.264  1.00  0.00     0.324 C 
ATOM     20  C   UNL A   1      31.501  21.912  25.372  1.00  0.00     0.324 C 
ATOM     21  N   UNL A   1      32.648  21.572  26.229  1.00  0.00    -0.328 N 
ATOM     22  C   UNL A   1      33.244  20.305  25.800  1.00  0.00     0.333 C 
ATOM     23  H   UNL A   1      32.290  21.475  27.179  1.00  0.00     0.348 HD
ENDBRANCH  10  15
ENDBRANCH   4   6
ENDBRANCH   3   4
ENDBRANCH   2   3
ENDBRANCH   1   2
BRANCH   1  24
ATOM     24  O   UNL A   1      32.945  29.984  25.890  1.00  0.00    -0.458 OA
BRANCH  24  25
ATOM     25  C   UNL A   1      33.118  30.993  26.765  1.00  0.00     0.338 C 
ATOM     26  O   UNL A   1      32.294  31.803  27.167  1.00  0.00    -0.246 OA
BRANCH  25  27
ATOM     27  C   UNL A   1      34.446  30.825  27.355  1.00  0.00     0.060 A 
ATOM     28  C   UNL A   1      34.859  29.522  27.631  1.00  0.00     0.016 A 
ATOM     29  C   UNL A   1      35.232  31.915  27.713  1.00  0.00     0.016 A 
ATOM     30  C   UNL A   1      36.018  29.299  28.360  1.00  0.00     0.010 A 
ATOM     31  C   UNL A   1      36.444  31.683  28.368  1.00  0.00     0.010 A 
ATOM     32  C   UNL A   1      36.830  30.376  28.729  1.00  0.00    -0.014 A 
BRANCH  32  33
ATOM     33  C   UNL A   1      38.047  30.145  29.546  1.00  0.00     0.031 A 
ATOM     34  C   UNL A   1      39.171  29.324  28.980  1.00  0.00     0.074 A 
ATOM     35  C   UNL A   1      38.160  30.676  30.779  1.00  0.00     0.049 A 
ATOM     36  N   UNL A   1      40.192  28.785  29.592  1.00  0.00    -0.248 NA
ATOM     37  C   UNL A   1      39.129  29.064  27.531  1.00  0.00     0.031 C 
ATOM     38  C   UNL A   1      37.182  31.558  31.419  1.00  0.00     0.029 A 
ATOM     39  N   UNL A   1      39.155  30.550  31.714  1.00  0.00    -0.354 N 
ATOM     40  C   UNL A   1      40.870  28.057  28.621  1.00  0.00     0.074 A 
ATOM     41  C   UNL A   1      40.156  28.241  27.376  1.00  0.00     0.031 C 
ATOM     42  C   UNL A   1      37.640  31.917  32.628  1.00  0.00     0.029 A 
ATOM     43  C   UNL A   1      38.892  31.215  32.886  1.00  0.00     0.049 A 
ATOM     44  H   UNL A   1      39.979  30.032  31.561  1.00  0.00     0.167 HD
ATOM     45  C   UNL A   1      41.979  27.294  28.768  1.00  0.00     0.037 A 
ATOM     46  C   UNL A   1      39.554  31.217  34.057  1.00  0.00     0.037 A 
ATOM     47  C   UNL A   1      42.715  27.176  29.999  1.00  0.00     0.049 A 
ATOM     48  C   UNL A   1      40.777  30.358  34.202  1.00  0.00     0.074 A 
ATOM     49  C   UNL A   1      43.845  26.423  30.263  1.00  0.00     0.029 A 
ATOM     50  N   UNL A   1      42.404  27.856  31.167  1.00  0.00    -0.354 N 
ATOM     51  N   UNL A   1      41.348  29.581  33.314  1.00  0.00    -0.248 NA
ATOM     52  C   UNL A   1      41.428  30.351  35.518  1.00  0.00     0.031 C 
ATOM     53  C   UNL A   1      44.209  26.635  31.598  1.00  0.00     0.029 A 
ATOM     54  C   UNL A   1      43.322  27.543  32.155  1.00  0.00     0.049 A 
ATOM     55  H   UNL A   1      41.643  28.471  31.277  1.00  0.00     0.167 HD
ATOM     56  C   UNL A   1      42.424  28.991  33.962  1.00  0.00     0.074 A 
ATOM     57  C   UNL A   1      42.441  29.521  35.311  1.00  0.00     0.031 C 
ATOM     58  C   UNL A   1      43.313  28.085  33.488  1.00  0.00     0.037 A 
BRANCH  45  59
ATOM     59  C   UNL A   1      42.427  26.494  27.583  1.00  0.00     0.057 A 
ATOM     60  C   UNL A   1      43.289  27.014  26.611  1.00  0.00     0.134 A 
ATOM     61  C   UNL A   1      41.996  25.170  27.424  1.00  0.00     0.134 A 
ATOM     62  F   UNL A   1      43.722  28.281  26.694  1.00  0.00    -0.206 F 
ATOM     63  C   UNL A   1      43.691  26.252  25.512  1.00  0.00     0.040 A 
ATOM     64  C   UNL A   1      42.409  24.392  26.342  1.00  0.00     0.040 A 
ATOM     65  F   UNL A   1      41.168  24.611  28.319  1.00  0.00    -0.206 F 
ATOM     66  C   UNL A   1      43.255  24.935  25.378  1.00  0.00     0.006 A 
ENDBRANCH  45  59
BRANCH  46  67
ATOM     67  C   UNL A   1      39.037  32.013  35.197  1.00  0.00     0.057 A 
ATOM     68  C   UNL A   1      38.259  31.422  36.198  1.00  0.00     0.134 A 
ATOM     69  C   UNL A   1      39.326  33.378  35.324  1.00  0.00     0.134 A 
ATOM     70  F   UNL A   1      37.931  30.124  36.118  1.00  0.00    -0.206 F 
ATOM     71  C   UNL A   1      37.787  32.159  37.285  1.00  0.00     0.040 A 
ATOM     72  C   UNL A   1      38.881  34.121  36.418  1.00  0.00     0.040 A 
ATOM     73  F   UNL A   1      40.068  34.002  34.398  1.00  0.00    -0.206 F 
ATOM     74  C   UNL A   1      38.105  33.510  37.402  1.00  0.00     0.006 A 
ENDBRANCH  46  67
BRANCH  58  75
ATOM     75  C   UNL A   1      44.381  27.630  34.433  1.00  0.00     0.057 A 
ATOM     76  C   UNL A   1      45.589  28.326  34.563  1.00  0.00     0.134 A 
ATOM     77  C   UNL A   1      44.187  26.502  35.239  1.00  0.00     0.134 A 
ATOM     78  F   UNL A   1      45.836  29.406  33.807  1.00  0.00    -0.206 F 
ATOM     79  C   UNL A   1      46.577  27.904  35.452  1.00  0.00     0.040 A 
ATOM     80  C   UNL A   1      45.160  26.081  36.145  1.00  0.00     0.040 A 
ATOM     81  F   UNL A   1      43.047  25.798  35.161  1.00  0.00    -0.206 F 
ATOM     82  C   UNL A   1      46.361  26.781  36.250  1.00  0.00     0.006 A 
ENDBRANCH  58  75
ENDBRANCH  32  33
ENDBRANCH  25  27
ENDBRANCH  24  25
ENDBRANCH   1  24
TORSDOF 13
ENDMDL
MODEL 2
REMARK VINA RESULT:     -11.0      4.131      8.821
REMARK SMILES C[NH2+][C@@]1(C(=O)OCCOC(=O)c2ccc(-c3c4nc(c(-c5c(F)cccc5F)c5ccc([nH]5)c(-c5c(F)cccc5F)c5nc(c(-c6c(F)cccc6F)c6ccc3[nH]6)C=C5)C=C4)cc2)CC[C@H]([NH+]2CC[NH+](C)CC2)C1
REMARK SMILES IDX 8 1 7 2 6 3 4 4 5 5 3 6 66 7 76 8 67 9 68 10 2 11 1 12 69 15
REMARK SMILES IDX 70 16 75 17 71 19 74 20 72 21 73 22 9 24 10 25 11 26 12 27
REMARK SMILES IDX 13 28 65 29 14 30 64 31 15 32 16 33 17 34 58 35 18 36 63 37
REMARK SMILES IDX 57 38 59 39 19 40 62 41 56 42 55 43 20 45 46 46 29 47 45 48
REMARK SMILES IDX 30 49 33 50 44 51 60 52 31 53 32 54 43 56 61 57 34 58 21 59
REMARK SMILES IDX 22 60 27 61 23 62 24 63 26 64 28 65 25 66 47 67 48 68 53 69
REMARK SMILES IDX 49 70 50 71 52 72 54 73 51 74 35 75 36 76 41 77 37 78 38 79
REMARK SMILES IDX 40 80 42 81 39 82
REMARK H PARENT 2 13 2 14 69 18 72 23 59 44 33 55
REMARK Flexibility Score: inf
ROOT
ATOM      1  C   UNL A   1      36.244  21.297  24.508  1.00  0.00     0.275 C 
ENDROOT
BRANCH   1   2
ATOM      2  C   UNL A   1      34.970  20.584  24.965  1.00  0.00     0.274 C 
BRANCH   2   3
ATOM      3  O   UNL A   1      33.812  21.234  24.390  1.00  0.00    -0.457 OA
BRANCH   3   4
ATOM      4  C   UNL A   1      32.640  21.134  25.070  1.00  0.00     0.368 C 
ATOM      5  O   UNL A   1      31.905  20.152  25.010  1.00  0.00    -0.245 OA
BRANCH   4   6
ATOM      6  C   UNL A   1      32.347  22.359  26.004  1.00  0.00     0.200 C 
ATOM      7  C   UNL A   1      30.846  22.682  25.915  1.00  0.00     0.087 C 
ATOM      8  C   UNL A   1      33.001  23.681  25.543  1.00  0.00     0.146 C 
ATOM      9  C   UNL A   1      30.724  23.492  24.636  1.00  0.00     0.072 C 
ATOM     10  C   UNL A   1      31.973  24.382  24.621  1.00  0.00     0.191 C 
BRANCH   6  11
ATOM     11  N   UNL A   1      32.585  21.944  27.408  1.00  0.00    -0.334 N 
ATOM     12  C   UNL A   1      33.853  22.342  27.989  1.00  0.00     0.331 C 
ATOM     13  H   UNL A   1      31.842  22.344  27.981  1.00  0.00     0.347 HD
ATOM     14  H   UNL A   1      32.602  20.925  27.391  1.00  0.00     0.347 HD
ENDBRANCH   6  11
BRANCH  10  15
ATOM     15  N   UNL A   1      32.480  24.916  23.351  1.00  0.00    -0.323 N 
ATOM     16  C   UNL A   1      33.768  25.625  23.467  1.00  0.00     0.324 C 
ATOM     17  C   UNL A   1      31.579  25.735  22.530  1.00  0.00     0.324 C 
ATOM     18  H   UNL A   1      32.591  24.035  22.851  1.00  0.00     0.348 HD
ATOM     19  C   UNL A   1      33.677  27.105  23.916  1.00  0.00     0.324 C 
ATOM     20  C   UNL A   1      31.401  27.191  23.001  1.00  0.00     0.324 C 
ATOM     21  N   UNL A   1      32.665  27.914  23.211  1.00  0.00    -0.328 N 
ATOM     22  C   UNL A   1      32.421  29.164  23.933  1.00  0.00     0.333 C 
ATOM     23  H   UNL A   1      33.045  28.123  22.288  1.00  0.00     0.348 HD
ENDBRANCH  10  15
ENDBRANCH   4   6
ENDBRANCH   3   4
ENDBRANCH   2   3
ENDBRANCH   1   2
BRANCH   1  24
ATOM     24  O   UNL A   1      36.932  21.754  25.684  1.00  0.00    -0.458 OA
BRANCH  24  25
ATOM     25  C   UNL A   1      38.220  21.375  25.785  1.00  0.00     0.338 C 
ATOM     26  O   UNL A   1      38.768  20.398  25.293  1.00  0.00    -0.246 OA
BRANCH  25  27
ATOM     27  C   UNL A   1      38.941  22.480  26.415  1.00  0.00     0.060 A 
ATOM     28  C   UNL A   1      38.474  23.770  26.167  1.00  0.00     0.016 A 
ATOM     29  C   UNL A   1      40.100  22.271  27.156  1.00  0.00     0.016 A 
ATOM     30  C   UNL A   1      39.215  24.870  26.572  1.00  0.00     0.010 A 
ATOM     31  C   UNL A   1      40.797  23.380  27.641  1.00  0.00     0.010 A 
ATOM     32  C   UNL A   1      40.380  24.688  27.323  1.00  0.00    -0.014 A 
BRANCH  32  33
ATOM     33  C   UNL A   1      41.199  25.861  27.721  1.00  0.00     0.031 A 
ATOM     34  C   UNL A   1      40.596  26.916  28.605  1.00  0.00     0.074 A 
ATOM     35  C   UNL A   1      42.477  25.979  27.312  1.00  0.00     0.049 A 
ATOM     36  N   UNL A   1      41.023  28.125  28.861  1.00  0.00    -0.248 NA
ATOM     37  C   UNL A   1      39.335  26.566  29.279  1.00  0.00     0.031 C 
ATOM     38  C   UNL A   1      43.213  24.992  26.520  1.00  0.00     0.029 A 
ATOM     39  N   UNL A   1      43.386  26.987  27.512  1.00  0.00    -0.354 N 
ATOM     40  C   UNL A   1      40.046  28.707  29.659  1.00  0.00     0.074 A 
ATOM     41  C   UNL A   1      39.016  27.712  29.863  1.00  0.00     0.031 C 
ATOM     42  C   UNL A   1      44.466  25.429  26.327  1.00  0.00     0.029 A 
ATOM     43  C   UNL A   1      44.593  26.765  26.897  1.00  0.00     0.049 A 
ATOM     44  H   UNL A   1      43.192  27.792  28.046  1.00  0.00     0.167 HD
ATOM     45  C   UNL A   1      40.012  29.964  30.159  1.00  0.00     0.037 A 
ATOM     46  C   UNL A   1      45.663  27.569  26.758  1.00  0.00     0.037 A 
ATOM     47  C   UNL A   1      41.077  30.920  30.003  1.00  0.00     0.049 A 
ATOM     48  C   UNL A   1      45.603  28.962  27.314  1.00  0.00     0.074 A 
ATOM     49  C   UNL A   1      41.144  32.224  30.459  1.00  0.00     0.029 A 
ATOM     50  N   UNL A   1      42.278  30.657  29.359  1.00  0.00    -0.354 N 
ATOM     51  N   UNL A   1      44.630  29.547  27.969  1.00  0.00    -0.248 NA
ATOM     52  C   UNL A   1      46.775  29.817  27.084  1.00  0.00     0.031 C 
ATOM     53  C   UNL A   1      42.380  32.758  30.075  1.00  0.00     0.029 A 
ATOM     54  C   UNL A   1      43.093  31.775  29.407  1.00  0.00     0.049 A 
ATOM     55  H   UNL A   1      42.514  29.803  28.931  1.00  0.00     0.167 HD
ATOM     56  C   UNL A   1      45.068  30.837  28.229  1.00  0.00     0.074 A 
ATOM     57  C   UNL A   1      46.407  30.941  27.682  1.00  0.00     0.031 C 
ATOM     58  C   UNL A   1      44.420  31.849  28.854  1.00  0.00     0.037 A 
BRANCH  45  59
ATOM     59  C   UNL A   1      38.767  30.388  30.877  1.00  0.00     0.057 A 
ATOM     60  C   UNL A   1      37.680  30.968  30.214  1.00  0.00     0.134 A 
ATOM     61  C   UNL A   1      38.652  30.195  32.261  1.00  0.00     0.134 A 
ATOM     62  F   UNL A   1      37.734  31.199  28.894  1.00  0.00    -0.206 F 
ATOM     63  C   UNL A   1      36.531  31.359  30.903  1.00  0.00     0.040 A 
ATOM     64  C   UNL A   1      37.500  30.561  32.957  1.00  0.00     0.040 A 
ATOM     65  F   UNL A   1      39.658  29.645  32.957  1.00  0.00    -0.206 F 
ATOM     66  C   UNL A   1      36.436  31.151  32.279  1.00  0.00     0.006 A 
ENDBRANCH  45  59
BRANCH  46  67
ATOM     67  C   UNL A   1      46.853  27.091  26.013  1.00  0.00     0.057 A 
ATOM     68  C   UNL A   1      47.003  27.351  24.646  1.00  0.00     0.134 A 
ATOM     69  C   UNL A   1      47.880  26.383  26.651  1.00  0.00     0.134 A 
ATOM     70  F   UNL A   1      46.042  28.004  23.975  1.00  0.00    -0.206 F 
ATOM     71  C   UNL A   1      48.129  26.924  23.941  1.00  0.00     0.040 A 
ATOM     72  C   UNL A   1      49.022  25.972  25.965  1.00  0.00     0.040 A 
ATOM     73  F   UNL A   1      47.796  26.104  27.961  1.00  0.00    -0.206 F 
ATOM     74  C   UNL A   1      49.147  26.241  24.603  1.00  0.00     0.006 A 
ENDBRANCH  46  67
BRANCH  58  75
ATOM     75  C   UNL A   1      45.162  33.142  28.991  1.00  0.00     0.057 A 
ATOM     76  C   UNL A   1      46.006  33.391  30.080  1.00  0.00     0.134 A 
ATOM     77  C   UNL A   1      45.049  34.136  28.011  1.00  0.00     0.134 A 
ATOM     78  F   UNL A   1      46.142  32.481  31.056  1.00  0.00    -0.206 F 
ATOM     79  C   UNL A   1      46.702  34.593  30.197  1.00  0.00     0.040 A 
ATOM     80  C   UNL A   1      45.754  35.335  28.109  1.00  0.00     0.040 A 
ATOM     81  F   UNL A   1      44.258  33.952  26.943  1.00  0.00    -0.206 F 
ATOM     82  C   UNL A   1      46.580  35.567  29.207  1.00  0.00     0.006 A 
ENDBRANCH  58  75
ENDBRANCH  32  33
ENDBRANCH  25  27
ENDBRANCH  24  25
ENDBRANCH   1  24
TORSDOF 13
ENDMDL
MODEL 3
REMARK VINA RESULT:     -11.0      4.072      8.777
REMARK SMILES C[NH2+][C@@]1(C(=O)OCCOC(=O)c2ccc(-c3c4nc(c(-c5c(F)cccc5F)c5ccc([nH]5)c(-c5c(F)cccc5F)c5nc(c(-c6c(F)cccc6F)c6ccc3[nH]6)C=C5)C=C4)cc2)CC[C@H]([NH+]2CC[NH+](C)CC2)C1
REMARK SMILES IDX 8 1 7 2 6 3 4 4 5 5 3 6 66 7 76 8 67 9 68 10 2 11 1 12 69 15
REMARK SMILES IDX 70 16 75 17 71 19 74 20 72 21 73 22 9 24 10 25 11 26 12 27
REMARK SMILES IDX 13 28 65 29 14 30 64 31 15 32 16 33 17 34 58 35 18 36 63 37
REMARK SMILES IDX 57 38 59 39 19 40 62 41 56 42 55 43 20 45 46 46 29 47 45 48
REMARK SMILES IDX 30 49 33 50 44 51 60 52 31 53 32 54 43 56 61 57 34 58 21 59
REMARK SMILES IDX 22 60 27 61 23 62 24 63 26 64 28 65 25 66 47 67 48 68 53 69
REMARK SMILES IDX 49 70 50 71 52 72 54 73 51 74 35 75 36 76 41 77 37 78 38 79
REMARK SMILES IDX 40 80 42 81 39 82
REMARK H PARENT 2 13 2 14 69 18 72 23 59 44 33 55
REMARK Flexibility Score: inf
ROOT
ATOM      1  C   UNL A   1      35.847  21.028  25.341  1.00  0.00     0.275 C 
ENDROOT
BRANCH   1   2
ATOM      2  C   UNL A   1      35.002  21.765  26.380  1.00  0.00     0.274 C 
BRANCH   2   3
ATOM      3  O   UNL A   1      34.640  23.073  25.879  1.00  0.00    -0.457 OA
BRANCH   3   4
ATOM      4  C   UNL A   1      33.339  23.272  25.539  1.00  0.00     0.368 C 
ATOM      5  O   UNL A   1      32.410  23.171  26.336  1.00  0.00    -0.245 OA
BRANCH   4   6
ATOM      6  C   UNL A   1      33.138  23.721  24.050  1.00  0.00     0.200 C 
ATOM      7  C   UNL A   1      34.182  24.803  23.730  1.00  0.00     0.087 C 
ATOM      8  C   UNL A   1      31.804  24.455  23.783  1.00  0.00     0.146 C 
ATOM      9  C   UNL A   1      33.580  26.072  24.306  1.00  0.00     0.072 C 
ATOM     10  C   UNL A   1      32.080  25.963  23.999  1.00  0.00     0.191 C 
BRANCH   6  11
ATOM     11  N   UNL A   1      33.464  22.574  23.168  1.00  0.00    -0.334 N 
ATOM     12  C   UNL A   1      32.357  21.711  22.802  1.00  0.00     0.331 C 
ATOM     13  H   UNL A   1      33.863  22.948  22.307  1.00  0.00     0.347 HD
ATOM     14  H   UNL A   1      34.099  21.988  23.708  1.00  0.00     0.347 HD
ENDBRANCH   6  11
BRANCH  10  15
ATOM     15  N   UNL A   1      31.108  26.703  24.812  1.00  0.00    -0.323 N 
ATOM     16  C   UNL A   1      29.729  26.657  24.291  1.00  0.00     0.324 C 
ATOM     17  C   UNL A   1      31.415  28.094  25.171  1.00  0.00     0.324 C 
ATOM     18  H   UNL A   1      31.192  26.167  25.675  1.00  0.00     0.348 HD
ATOM     19  C   UNL A   1      29.400  27.683  23.178  1.00  0.00     0.324 C 
ATOM     20  C   UNL A   1      31.179  29.129  24.055  1.00  0.00     0.324 C 
ATOM     21  N   UNL A   1      29.841  29.064  23.447  1.00  0.00    -0.328 N 
ATOM     22  C   UNL A   1      29.803  29.859  22.217  1.00  0.00     0.333 C 
ATOM     23  H   UNL A   1      29.187  29.456  24.126  1.00  0.00     0.348 HD
ENDBRANCH  10  15
ENDBRANCH   4   6
ENDBRANCH   3   4
ENDBRANCH   2   3
ENDBRANCH   1   2
BRANCH   1  24
ATOM     24  O   UNL A   1      37.037  21.801  25.119  1.00  0.00    -0.458 OA
BRANCH  24  25
ATOM     25  C   UNL A   1      38.170  21.277  25.621  1.00  0.00     0.338 C 
ATOM     26  O   UNL A   1      38.647  20.166  25.431  1.00  0.00    -0.246 OA
BRANCH  25  27
ATOM     27  C   UNL A   1      38.890  22.366  26.280  1.00  0.00     0.060 A 
ATOM     28  C   UNL A   1      38.424  23.662  26.060  1.00  0.00     0.016 A 
ATOM     29  C   UNL A   1      40.044  22.139  27.022  1.00  0.00     0.016 A 
ATOM     30  C   UNL A   1      39.164  24.752  26.494  1.00  0.00     0.010 A 
ATOM     31  C   UNL A   1      40.739  23.236  27.536  1.00  0.00     0.010 A 
ATOM     32  C   UNL A   1      40.326  24.552  27.246  1.00  0.00    -0.014 A 
BRANCH  32  33
ATOM     33  C   UNL A   1      41.144  25.715  27.675  1.00  0.00     0.031 A 
ATOM     34  C   UNL A   1      40.530  26.760  28.563  1.00  0.00     0.074 A 
ATOM     35  C   UNL A   1      42.429  25.831  27.291  1.00  0.00     0.049 A 
ATOM     36  N   UNL A   1      40.958  27.963  28.842  1.00  0.00    -0.248 NA
ATOM     37  C   UNL A   1      39.255  26.408  29.209  1.00  0.00     0.031 C 
ATOM     38  C   UNL A   1      43.174  24.850  26.499  1.00  0.00     0.029 A 
ATOM     39  N   UNL A   1      43.340  26.831  27.522  1.00  0.00    -0.354 N 
ATOM     40  C   UNL A   1      39.970  28.540  29.631  1.00  0.00     0.074 A 
ATOM     41  C   UNL A   1      38.931  27.548  29.803  1.00  0.00     0.031 C 
ATOM     42  C   UNL A   1      44.433  25.283  26.335  1.00  0.00     0.029 A 
ATOM     43  C   UNL A   1      44.556  26.611  26.925  1.00  0.00     0.049 A 
ATOM     44  H   UNL A   1      43.140  27.629  28.062  1.00  0.00     0.167 HD
ATOM     45  C   UNL A   1      39.934  29.790  30.148  1.00  0.00     0.037 A 
ATOM     46  C   UNL A   1      45.633  27.410  26.817  1.00  0.00     0.037 A 
ATOM     47  C   UNL A   1      41.007  30.742  30.024  1.00  0.00     0.049 A 
ATOM     48  C   UNL A   1      45.570  28.796  27.390  1.00  0.00     0.074 A 
ATOM     49  C   UNL A   1      41.072  32.039  30.499  1.00  0.00     0.029 A 
ATOM     50  N   UNL A   1      42.217  30.482  29.398  1.00  0.00    -0.354 N 
ATOM     51  N   UNL A   1      44.588  29.377  28.036  1.00  0.00    -0.248 NA
ATOM     52  C   UNL A   1      46.750  29.648  27.194  1.00  0.00     0.031 C 
ATOM     53  C   UNL A   1      42.318  32.571  30.145  1.00  0.00     0.029 A 
ATOM     54  C   UNL A   1      43.037  31.594  29.476  1.00  0.00     0.049 A 
ATOM     55  H   UNL A   1      42.457  29.632  28.963  1.00  0.00     0.167 HD
ATOM     56  C   UNL A   1      45.029  30.661  28.322  1.00  0.00     0.074 A 
ATOM     57  C   UNL A   1      46.378  30.766  27.801  1.00  0.00     0.031 C 
ATOM     58  C   UNL A   1      44.375  31.668  28.949  1.00  0.00     0.037 A 
BRANCH  45  59
ATOM     59  C   UNL A   1      38.678  30.211  30.849  1.00  0.00     0.057 A 
ATOM     60  C   UNL A   1      38.477  30.001  32.217  1.00  0.00     0.134 A 
ATOM     61  C   UNL A   1      37.656  30.853  30.136  1.00  0.00     0.134 A 
ATOM     62  F   UNL A   1      39.407  29.373  32.952  1.00  0.00    -0.206 F 
ATOM     63  C   UNL A   1      37.296  30.397  32.849  1.00  0.00     0.040 A 
ATOM     64  C   UNL A   1      36.482  31.274  30.761  1.00  0.00     0.040 A 
ATOM     65  F   UNL A   1      37.785  31.085  28.821  1.00  0.00    -0.206 F 
ATOM     66  C   UNL A   1      36.297  31.041  32.121  1.00  0.00     0.006 A 
ENDBRANCH  45  59
BRANCH  46  67
ATOM     67  C   UNL A   1      46.834  26.936  26.087  1.00  0.00     0.057 A 
ATOM     68  C   UNL A   1      47.003  27.201  24.723  1.00  0.00     0.134 A 
ATOM     69  C   UNL A   1      47.852  26.227  26.737  1.00  0.00     0.134 A 
ATOM     70  F   UNL A   1      46.051  27.856  24.041  1.00  0.00    -0.206 F 
ATOM     71  C   UNL A   1      48.139  26.778  24.032  1.00  0.00     0.040 A 
ATOM     72  C   UNL A   1      49.005  25.820  26.065  1.00  0.00     0.040 A 
ATOM     73  F   UNL A   1      47.750  25.943  28.044  1.00  0.00    -0.206 F 
ATOM     74  C   UNL A   1      49.149  26.093  24.706  1.00  0.00     0.006 A 
ENDBRANCH  46  67
BRANCH  58  75
ATOM     75  C   UNL A   1      45.120  32.956  29.117  1.00  0.00     0.057 A 
ATOM     76  C   UNL A   1      45.953  33.181  30.220  1.00  0.00     0.134 A 
ATOM     77  C   UNL A   1      45.024  33.966  28.153  1.00  0.00     0.134 A 
ATOM     78  F   UNL A   1      46.073  32.254  31.181  1.00  0.00    -0.206 F 
ATOM     79  C   UNL A   1      46.653  34.378  30.366  1.00  0.00     0.040 A 
ATOM     80  C   UNL A   1      45.733  35.160  28.280  1.00  0.00     0.040 A 
ATOM     81  F   UNL A   1      44.245  33.805  27.073  1.00  0.00    -0.206 F 
ATOM     82  C   UNL A   1      46.548  35.370  29.392  1.00  0.00     0.006 A 
ENDBRANCH  58  75
ENDBRANCH  32  33
ENDBRANCH  25  27
ENDBRANCH  24  25
ENDBRANCH   1  24
TORSDOF 13
ENDMDL
