MODEL 1
REMARK VINA RESULT:     -12.0      0.000      0.000
REMARK SMILES Cc1cc(Cl)cc2c1O[C@H](C(F)(F)F)C(C(=O)OCCOC(=O)c1ccc(-c3c4nc(c(-c5c(F)cccc5F)c5ccc([nH]5)c(-c5c(F)cccc5F)c5nc(c(-c6c(F)cccc6F)c6ccc3[nH]6)C=C5)C=C4)cc1)=C2
REMARK SMILES IDX 20 1 19 2 18 3 16 4 17 5 15 6 1 7 2 8 3 9 8 10 4 11 7 12
REMARK SMILES IDX 9 13 5 14 6 15 78 16 10 17 11 18 12 19 13 20 14 21 21 22
REMARK SMILES IDX 22 23 23 24 24 25 25 26 77 27 26 28 76 29 27 30 28 31 29 32
REMARK SMILES IDX 70 33 30 34 75 35 69 36 71 37 31 38 74 39 68 40 67 41 32 43
REMARK SMILES IDX 58 44 41 45 57 46 42 47 45 48 56 49 72 50 43 51 44 52 55 54
REMARK SMILES IDX 73 55 46 56 33 57 34 58 39 59 35 60 36 61 38 62 40 63 37 64
REMARK SMILES IDX 59 65 60 66 65 67 61 68 62 69 64 70 66 71 63 72 47 73 48 74
REMARK SMILES IDX 53 75 49 76 50 77 52 78 54 79 51 80
REMARK H PARENT 71 42 45 53
REMARK Flexibility Score: inf
ROOT
ATOM      1  C   UNL A   1      31.650  30.452  25.720  1.00  0.00     0.275 C 
ENDROOT
BRANCH   1   2
ATOM      2  C   UNL A   1      31.599  29.075  25.054  1.00  0.00     0.275 C 
BRANCH   2   3
ATOM      3  O   UNL A   1      32.458  28.122  25.720  1.00  0.00    -0.459 OA
BRANCH   3   4
ATOM      4  C   UNL A   1      31.821  27.160  26.427  1.00  0.00     0.338 C 
ATOM      5  O   UNL A   1      30.989  27.333  27.306  1.00  0.00    -0.246 OA
BRANCH   4   6
ATOM      6  C   UNL A   1      32.231  25.816  25.971  1.00  0.00     0.087 C 
ATOM      7  C   UNL A   1      32.542  21.198  23.718  1.00  0.00     0.048 C 
ATOM      8  C   UNL A   1      33.503  22.163  24.350  1.00  0.00    -0.007 A 
ATOM      9  C   UNL A   1      34.883  21.897  24.292  1.00  0.00     0.027 A 
ATOM     10  C   UNL A   1      33.058  23.363  24.927  1.00  0.00     0.131 A 
ATOM     11  C   UNL A   1      35.799  22.796  24.832  1.00  0.00     0.042 A 
ATOM     12  C   UNL A   1      33.989  24.268  25.441  1.00  0.00     0.019 A 
ATOM     13  O   UNL A   1      31.708  23.586  24.971  1.00  0.00    -0.475 OA
ATOM     14  Cl  UNL A   1      37.483  22.455  24.764  1.00  0.00    -0.084 Cl
ATOM     15  C   UNL A   1      35.359  23.979  25.411  1.00  0.00     0.032 A 
ATOM     16  C   UNL A   1      33.539  25.535  25.975  1.00  0.00     0.027 C 
ATOM     17  C   UNL A   1      31.205  24.888  25.390  1.00  0.00     0.316 C 
BRANCH  17  18
ATOM     18  C   UNL A   1      30.493  25.542  24.194  1.00  0.00     0.430 C 
ATOM     19  F   UNL A   1      31.353  26.267  23.441  1.00  0.00    -0.167 F 
ATOM     20  F   UNL A   1      29.944  24.615  23.372  1.00  0.00    -0.167 F 
ATOM     21  F   UNL A   1      29.498  26.370  24.587  1.00  0.00    -0.167 F 
ENDBRANCH  17  18
ENDBRANCH   4   6
ENDBRANCH   3   4
ENDBRANCH   2   3
ENDBRANCH   1   2
BRANCH   1  22
ATOM     22  O   UNL A   1      32.415  30.406  26.939  1.00  0.00    -0.458 OA
BRANCH  22  23
ATOM     23  C   UNL A   1      33.065  31.551  27.242  1.00  0.00     0.338 C 
ATOM     24  O   UNL A   1      32.594  32.673  27.319  1.00  0.00    -0.246 OA
BRANCH  23  25
ATOM     25  C   UNL A   1      34.463  31.276  27.595  1.00  0.00     0.060 A 
ATOM     26  C   UNL A   1      34.814  29.959  27.860  1.00  0.00     0.016 A 
ATOM     27  C   UNL A   1      35.341  32.308  27.911  1.00  0.00     0.016 A 
ATOM     28  C   UNL A   1      35.949  29.676  28.608  1.00  0.00     0.010 A 
ATOM     29  C   UNL A   1      36.567  32.003  28.514  1.00  0.00     0.010 A 
ATOM     30  C   UNL A   1      36.866  30.689  28.921  1.00  0.00    -0.014 A 
BRANCH  30  31
ATOM     31  C   UNL A   1      38.118  30.379  29.670  1.00  0.00     0.031 A 
ATOM     32  C   UNL A   1      39.183  29.509  29.048  1.00  0.00     0.074 A 
ATOM     33  C   UNL A   1      38.313  30.874  30.909  1.00  0.00     0.049 A 
ATOM     34  N   UNL A   1      40.201  28.913  29.616  1.00  0.00    -0.248 NA
ATOM     35  C   UNL A   1      39.081  29.267  27.599  1.00  0.00     0.031 C 
ATOM     36  C   UNL A   1      37.415  31.792  31.613  1.00  0.00     0.029 A 
ATOM     37  N   UNL A   1      39.336  30.672  31.804  1.00  0.00    -0.354 N 
ATOM     38  C   UNL A   1      40.826  28.183  28.610  1.00  0.00     0.074 A 
ATOM     39  C   UNL A   1      40.070  28.406  27.397  1.00  0.00     0.031 C 
ATOM     40  C   UNL A   1      37.943  32.109  32.802  1.00  0.00     0.029 A 
ATOM     41  C   UNL A   1      39.147  31.317  33.004  1.00  0.00     0.049 A 
ATOM     42  H   UNL A   1      40.127  30.121  31.607  1.00  0.00     0.167 HD
ATOM     43  C   UNL A   1      41.926  27.396  28.699  1.00  0.00     0.037 A 
ATOM     44  C   UNL A   1      39.818  31.234  34.167  1.00  0.00     0.037 A 
ATOM     45  C   UNL A   1      42.694  27.218  29.907  1.00  0.00     0.049 A 
ATOM     46  C   UNL A   1      40.984  30.297  34.267  1.00  0.00     0.074 A 
ATOM     47  C   UNL A   1      43.812  26.427  30.110  1.00  0.00     0.029 A 
ATOM     48  N   UNL A   1      42.434  27.858  31.110  1.00  0.00    -0.354 N 
ATOM     49  N   UNL A   1      41.503  29.527  33.342  1.00  0.00    -0.248 NA
ATOM     50  C   UNL A   1      41.644  30.202  35.575  1.00  0.00     0.031 C 
ATOM     51  C   UNL A   1      44.203  26.555  31.446  1.00  0.00     0.029 A 
ATOM     52  C   UNL A   1      43.366  27.473  32.061  1.00  0.00     0.049 A 
ATOM     53  H   UNL A   1      41.698  28.491  31.266  1.00  0.00     0.167 HD
ATOM     54  C   UNL A   1      42.568  28.874  33.946  1.00  0.00     0.074 A 
ATOM     55  C   UNL A   1      42.626  29.350  35.314  1.00  0.00     0.031 C 
ATOM     56  C   UNL A   1      43.419  27.963  33.416  1.00  0.00     0.037 A 
BRANCH  43  57
ATOM     57  C   UNL A   1      42.356  26.638  27.473  1.00  0.00     0.057 A 
ATOM     58  C   UNL A   1      43.229  27.184  26.524  1.00  0.00     0.134 A 
ATOM     59  C   UNL A   1      41.944  25.313  27.278  1.00  0.00     0.134 A 
ATOM     60  F   UNL A   1      43.653  28.452  26.641  1.00  0.00    -0.206 F 
ATOM     61  C   UNL A   1      43.667  26.445  25.422  1.00  0.00     0.040 A 
ATOM     62  C   UNL A   1      42.396  24.554  26.197  1.00  0.00     0.040 A 
ATOM     63  F   UNL A   1      41.112  24.723  28.151  1.00  0.00    -0.206 F 
ATOM     64  C   UNL A   1      43.259  25.122  25.263  1.00  0.00     0.006 A 
ENDBRANCH  43  57
BRANCH  44  65
ATOM     65  C   UNL A   1      39.368  32.034  35.336  1.00  0.00     0.057 A 
ATOM     66  C   UNL A   1      39.802  33.351  35.518  1.00  0.00     0.134 A 
ATOM     67  C   UNL A   1      38.464  31.518  36.275  1.00  0.00     0.134 A 
ATOM     68  F   UNL A   1      40.685  33.893  34.667  1.00  0.00    -0.206 F 
ATOM     69  C   UNL A   1      39.355  34.127  36.588  1.00  0.00     0.040 A 
ATOM     70  C   UNL A   1      37.983  32.294  37.331  1.00  0.00     0.040 A 
ATOM     71  F   UNL A   1      38.004  30.264  36.156  1.00  0.00    -0.206 F 
ATOM     72  C   UNL A   1      38.431  33.603  37.491  1.00  0.00     0.006 A 
ENDBRANCH  44  65
BRANCH  56  73
ATOM     73  C   UNL A   1      44.522  27.464  34.301  1.00  0.00     0.057 A 
ATOM     74  C   UNL A   1      45.748  28.131  34.411  1.00  0.00     0.134 A 
ATOM     75  C   UNL A   1      44.340  26.309  35.074  1.00  0.00     0.134 A 
ATOM     76  F   UNL A   1      45.990  29.233  33.687  1.00  0.00    -0.206 F 
ATOM     77  C   UNL A   1      46.766  27.650  35.237  1.00  0.00     0.040 A 
ATOM     78  C   UNL A   1      45.340  25.837  35.926  1.00  0.00     0.040 A 
ATOM     79  F   UNL A   1      43.186  25.628  35.023  1.00  0.00    -0.206 F 
ATOM     80  C   UNL A   1      46.560  26.504  36.002  1.00  0.00     0.006 A 
ENDBRANCH  56  73
ENDBRANCH  30  31
ENDBRANCH  23  25
ENDBRANCH  22  23
ENDBRANCH   1  22
TORSDOF 12
ENDMDL
MODEL 2
REMARK VINA RESULT:     -11.9      3.987      8.742
REMARK SMILES Cc1cc(Cl)cc2c1O[C@H](C(F)(F)F)C(C(=O)OCCOC(=O)c1ccc(-c3c4nc(c(-c5c(F)cccc5F)c5ccc([nH]5)c(-c5c(F)cccc5F)c5nc(c(-c6c(F)cccc6F)c6ccc3[nH]6)C=C5)C=C4)cc1)=C2
REMARK SMILES IDX 20 1 19 2 18 3 16 4 17 5 15 6 1 7 2 8 3 9 8 10 4 11 7 12
REMARK SMILES IDX 9 13 5 14 6 15 78 16 10 17 11 18 12 19 13 20 14 21 21 22
REMARK SMILES IDX 22 23 23 24 24 25 25 26 77 27 26 28 76 29 27 30 28 31 29 32
REMARK SMILES IDX 70 33 30 34 75 35 69 36 71 37 31 38 74 39 68 40 67 41 32 43
REMARK SMILES IDX 58 44 41 45 57 46 42 47 45 48 56 49 72 50 43 51 44 52 55 54
REMARK SMILES IDX 73 55 46 56 33 57 34 58 39 59 35 60 36 61 38 62 40 63 37 64
REMARK SMILES IDX 59 65 60 66 65 67 61 68 62 69 64 70 66 71 63 72 47 73 48 74
REMARK SMILES IDX 53 75 49 76 50 77 52 78 54 79 51 80
REMARK H PARENT 71 42 45 53
REMARK Flexibility Score: inf
ROOT
ATOM      1  C   UNL A   1      36.561  20.542  24.998  1.00  0.00     0.275 C 
ENDROOT
BRANCH   1   2
ATOM      2  C   UNL A   1      35.234  21.302  24.949  1.00  0.00     0.275 C 
BRANCH   2   3
ATOM      3  O   UNL A   1      35.432  22.734  24.924  1.00  0.00    -0.459 OA
BRANCH   3   4
ATOM      4  C   UNL A   1      35.229  23.329  23.726  1.00  0.00     0.338 C 
ATOM      5  O   UNL A   1      35.768  23.038  22.669  1.00  0.00    -0.246 OA
BRANCH   4   6
ATOM      6  C   UNL A   1      34.206  24.390  23.835  1.00  0.00     0.087 C 
ATOM      7  C   UNL A   1      29.871  27.163  23.715  1.00  0.00     0.048 C 
ATOM      8  C   UNL A   1      31.177  27.223  24.453  1.00  0.00    -0.007 A 
ATOM      9  C   UNL A   1      31.348  28.181  25.469  1.00  0.00     0.027 A 
ATOM     10  C   UNL A   1      32.199  26.293  24.206  1.00  0.00     0.131 A 
ATOM     11  C   UNL A   1      32.533  28.231  26.200  1.00  0.00     0.042 A 
ATOM     12  C   UNL A   1      33.371  26.338  24.963  1.00  0.00     0.019 A 
ATOM     13  O   UNL A   1      32.000  25.380  23.206  1.00  0.00    -0.475 OA
ATOM     14  Cl  UNL A   1      32.736  29.412  27.433  1.00  0.00    -0.084 Cl
ATOM     15  C   UNL A   1      33.548  27.316  25.949  1.00  0.00     0.032 A 
ATOM     16  C   UNL A   1      34.398  25.339  24.757  1.00  0.00     0.027 C 
ATOM     17  C   UNL A   1      32.944  24.284  23.030  1.00  0.00     0.316 C 
BRANCH  17  18
ATOM     18  C   UNL A   1      32.216  22.962  23.329  1.00  0.00     0.430 C 
ATOM     19  F   UNL A   1      30.914  23.020  22.965  1.00  0.00    -0.167 F 
ATOM     20  F   UNL A   1      32.764  21.926  22.648  1.00  0.00    -0.167 F 
ATOM     21  F   UNL A   1      32.257  22.646  24.643  1.00  0.00    -0.167 F 
ENDBRANCH  17  18
ENDBRANCH   4   6
ENDBRANCH   3   4
ENDBRANCH   2   3
ENDBRANCH   1   2
BRANCH   1  22
ATOM     22  O   UNL A   1      37.676  21.453  24.968  1.00  0.00    -0.458 OA
BRANCH  22  23
ATOM     23  C   UNL A   1      38.733  21.076  25.719  1.00  0.00     0.338 C 
ATOM     24  O   UNL A   1      39.281  19.986  25.735  1.00  0.00    -0.246 OA
BRANCH  23  25
ATOM     25  C   UNL A   1      39.257  22.213  26.485  1.00  0.00     0.060 A 
ATOM     26  C   UNL A   1      38.748  23.472  26.200  1.00  0.00     0.016 A 
ATOM     27  C   UNL A   1      40.397  22.084  27.274  1.00  0.00     0.016 A 
ATOM     28  C   UNL A   1      39.470  24.610  26.536  1.00  0.00     0.010 A 
ATOM     29  C   UNL A   1      41.029  23.237  27.756  1.00  0.00     0.010 A 
ATOM     30  C   UNL A   1      40.607  24.517  27.349  1.00  0.00    -0.014 A 
BRANCH  30  31
ATOM     31  C   UNL A   1      41.349  25.742  27.764  1.00  0.00     0.031 A 
ATOM     32  C   UNL A   1      40.677  26.788  28.620  1.00  0.00     0.074 A 
ATOM     33  C   UNL A   1      42.629  25.928  27.380  1.00  0.00     0.049 A 
ATOM     34  N   UNL A   1      41.046  28.020  28.864  1.00  0.00    -0.248 NA
ATOM     35  C   UNL A   1      39.419  26.399  29.277  1.00  0.00     0.031 C 
ATOM     36  C   UNL A   1      43.440  24.974  26.620  1.00  0.00     0.029 A 
ATOM     37  N   UNL A   1      43.479  26.990  27.577  1.00  0.00    -0.354 N 
ATOM     38  C   UNL A   1      40.041  28.571  29.652  1.00  0.00     0.074 A 
ATOM     39  C   UNL A   1      39.044  27.540  29.843  1.00  0.00     0.031 C 
ATOM     40  C   UNL A   1      44.673  25.469  26.455  1.00  0.00     0.029 A 
ATOM     41  C   UNL A   1      44.706  26.826  26.978  1.00  0.00     0.049 A 
ATOM     42  H   UNL A   1      43.234  27.790  28.096  1.00  0.00     0.167 HD
ATOM     43  C   UNL A   1      39.961  29.824  30.162  1.00  0.00     0.037 A 
ATOM     44  C   UNL A   1      45.724  27.688  26.800  1.00  0.00     0.037 A 
ATOM     45  C   UNL A   1      40.985  30.827  29.999  1.00  0.00     0.049 A 
ATOM     46  C   UNL A   1      45.582  29.093  27.303  1.00  0.00     0.074 A 
ATOM     47  C   UNL A   1      40.993  32.134  30.457  1.00  0.00     0.029 A 
ATOM     48  N   UNL A   1      42.191  30.626  29.344  1.00  0.00    -0.354 N 
ATOM     49  N   UNL A   1      44.583  29.638  27.952  1.00  0.00    -0.248 NA
ATOM     50  C   UNL A   1      46.698  30.007  27.030  1.00  0.00     0.031 C 
ATOM     51  C   UNL A   1      42.185  32.736  30.042  1.00  0.00     0.029 A 
ATOM     52  C   UNL A   1      42.947  31.788  29.378  1.00  0.00     0.049 A 
ATOM     53  H   UNL A   1      42.469  29.785  28.917  1.00  0.00     0.167 HD
ATOM     54  C   UNL A   1      44.958  30.952  28.191  1.00  0.00     0.074 A 
ATOM     55  C   UNL A   1      46.283  31.116  27.626  1.00  0.00     0.031 C 
ATOM     56  C   UNL A   1      44.268  31.934  28.821  1.00  0.00     0.037 A 
BRANCH  43  57
ATOM     57  C   UNL A   1      38.719  30.203  30.920  1.00  0.00     0.057 A 
ATOM     58  C   UNL A   1      38.591  29.998  32.299  1.00  0.00     0.134 A 
ATOM     59  C   UNL A   1      37.660  30.849  30.266  1.00  0.00     0.134 A 
ATOM     60  F   UNL A   1      39.559  29.374  32.986  1.00  0.00    -0.206 F 
ATOM     61  C   UNL A   1      37.453  30.412  32.998  1.00  0.00     0.040 A 
ATOM     62  C   UNL A   1      36.531  31.293  30.957  1.00  0.00     0.040 A 
ATOM     63  F   UNL A   1      37.717  31.084  28.946  1.00  0.00    -0.206 F 
ATOM     64  C   UNL A   1      36.424  31.071  32.328  1.00  0.00     0.006 A 
ENDBRANCH  43  57
BRANCH  44  65
ATOM     65  C   UNL A   1      46.943  27.246  26.075  1.00  0.00     0.057 A 
ATOM     66  C   UNL A   1      48.008  26.645  26.754  1.00  0.00     0.134 A 
ATOM     67  C   UNL A   1      47.059  27.377  24.684  1.00  0.00     0.134 A 
ATOM     68  F   UNL A   1      47.967  26.513  28.088  1.00  0.00    -0.206 F 
ATOM     69  C   UNL A   1      49.140  26.188  26.080  1.00  0.00     0.040 A 
ATOM     70  C   UNL A   1      48.171  26.894  23.992  1.00  0.00     0.040 A 
ATOM     71  F   UNL A   1      46.072  27.939  23.971  1.00  0.00    -0.206 F 
ATOM     72  C   UNL A   1      49.218  26.300  24.692  1.00  0.00     0.006 A 
ENDBRANCH  44  65
BRANCH  56  73
ATOM     73  C   UNL A   1      44.957  33.256  28.982  1.00  0.00     0.057 A 
ATOM     74  C   UNL A   1      44.795  34.298  28.061  1.00  0.00     0.134 A 
ATOM     75  C   UNL A   1      45.777  33.495  30.094  1.00  0.00     0.134 A 
ATOM     76  F   UNL A   1      44.035  34.127  26.968  1.00  0.00    -0.206 F 
ATOM     77  C   UNL A   1      45.446  35.521  28.224  1.00  0.00     0.040 A 
ATOM     78  C   UNL A   1      46.409  34.725  30.282  1.00  0.00     0.040 A 
ATOM     79  F   UNL A   1      45.967  32.543  31.019  1.00  0.00    -0.206 F 
ATOM     80  C   UNL A   1      46.251  35.740  29.341  1.00  0.00     0.006 A 
ENDBRANCH  56  73
ENDBRANCH  30  31
ENDBRANCH  23  25
ENDBRANCH  22  23
ENDBRANCH   1  22
TORSDOF 12
ENDMDL
MODEL 3
REMARK VINA RESULT:     -11.9      4.005      8.727
REMARK SMILES Cc1cc(Cl)cc2c1O[C@H](C(F)(F)F)C(C(=O)OCCOC(=O)c1ccc(-c3c4nc(c(-c5c(F)cccc5F)c5ccc([nH]5)c(-c5c(F)cccc5F)c5nc(c(-c6c(F)cccc6F)c6ccc3[nH]6)C=C5)C=C4)cc1)=C2
REMARK SMILES IDX 20 1 19 2 18 3 16 4 17 5 15 6 1 7 2 8 3 9 8 10 4 11 7 12
REMARK SMILES IDX 9 13 5 14 6 15 78 16 10 17 11 18 12 19 13 20 14 21 21 22
REMARK SMILES IDX 22 23 23 24 24 25 25 26 77 27 26 28 76 29 27 30 28 31 29 32
REMARK SMILES IDX 70 33 30 34 75 35 69 36 71 37 31 38 74 39 68 40 67 41 32 43
REMARK SMILES IDX 58 44 41 45 57 46 42 47 45 48 56 49 72 50 43 51 44 52 55 54
REMARK SMILES IDX 73 55 46 56 33 57 34 58 39 59 35 60 36 61 38 62 40 63 37 64
REMARK SMILES IDX 59 65 60 66 65 67 61 68 62 69 64 70 66 71 63 72 47 73 48 74
REMARK SMILES IDX 53 75 49 76 50 77 52 78 54 79 51 80
REMARK H PARENT 71 42 45 53
REMARK Flexibility Score: inf
ROOT
ATOM      1  C   UNL A   1      36.553  20.527  25.011  1.00  0.00     0.275 C 
ENDROOT
BRANCH   1   2
ATOM      2  C   UNL A   1      35.220  21.278  24.968  1.00  0.00     0.275 C 
BRANCH   2   3
ATOM      3  O   UNL A   1      35.408  22.711  24.951  1.00  0.00    -0.459 OA
BRANCH   3   4
ATOM      4  C   UNL A   1      35.211  23.311  23.754  1.00  0.00     0.338 C 
ATOM      5  O   UNL A   1      35.750  23.017  22.697  1.00  0.00    -0.246 OA
BRANCH   4   6
ATOM      6  C   UNL A   1      34.197  24.380  23.864  1.00  0.00     0.087 C 
ATOM      7  C   UNL A   1      29.884  27.186  23.757  1.00  0.00     0.048 C 
ATOM      8  C   UNL A   1      31.194  27.240  24.487  1.00  0.00    -0.007 A 
ATOM      9  C   UNL A   1      31.381  28.202  25.496  1.00  0.00     0.027 A 
ATOM     10  C   UNL A   1      32.208  26.301  24.238  1.00  0.00     0.131 A 
ATOM     11  C   UNL A   1      32.570  28.246  26.219  1.00  0.00     0.042 A 
ATOM     12  C   UNL A   1      33.385  26.341  24.987  1.00  0.00     0.019 A 
ATOM     13  O   UNL A   1      31.995  25.383  23.244  1.00  0.00    -0.475 OA
ATOM     14  Cl  UNL A   1      32.791  29.433  27.444  1.00  0.00    -0.084 Cl
ATOM     15  C   UNL A   1      33.576  27.323  25.966  1.00  0.00     0.032 A 
ATOM     16  C   UNL A   1      34.403  25.333  24.779  1.00  0.00     0.027 C 
ATOM     17  C   UNL A   1      32.929  24.279  23.069  1.00  0.00     0.316 C 
BRANCH  17  18
ATOM     18  C   UNL A   1      32.193  22.965  23.379  1.00  0.00     0.430 C 
ATOM     19  F   UNL A   1      32.739  21.921  22.713  1.00  0.00    -0.167 F 
ATOM     20  F   UNL A   1      32.255  22.658  24.698  1.00  0.00    -0.167 F 
ATOM     21  F   UNL A   1      30.885  23.024  23.041  1.00  0.00    -0.167 F 
ENDBRANCH  17  18
ENDBRANCH   4   6
ENDBRANCH   3   4
ENDBRANCH   2   3
ENDBRANCH   1   2
BRANCH   1  22
ATOM     22  O   UNL A   1      37.661  21.446  24.988  1.00  0.00    -0.458 OA
BRANCH  22  23
ATOM     23  C   UNL A   1      38.724  21.067  25.731  1.00  0.00     0.338 C 
ATOM     24  O   UNL A   1      39.267  19.975  25.744  1.00  0.00    -0.246 OA
BRANCH  23  25
ATOM     25  C   UNL A   1      39.260  22.203  26.489  1.00  0.00     0.060 A 
ATOM     26  C   UNL A   1      38.761  23.465  26.197  1.00  0.00     0.016 A 
ATOM     27  C   UNL A   1      40.399  22.069  27.276  1.00  0.00     0.016 A 
ATOM     28  C   UNL A   1      39.494  24.599  26.525  1.00  0.00     0.010 A 
ATOM     29  C   UNL A   1      41.043  23.219  27.750  1.00  0.00     0.010 A 
ATOM     30  C   UNL A   1      40.632  24.501  27.336  1.00  0.00    -0.014 A 
BRANCH  30  31
ATOM     31  C   UNL A   1      41.386  25.721  27.743  1.00  0.00     0.031 A 
ATOM     32  C   UNL A   1      40.725  26.778  28.593  1.00  0.00     0.074 A 
ATOM     33  C   UNL A   1      42.667  25.893  27.356  1.00  0.00     0.049 A 
ATOM     34  N   UNL A   1      41.105  28.009  28.829  1.00  0.00    -0.248 NA
ATOM     35  C   UNL A   1      39.464  26.405  29.255  1.00  0.00     0.031 C 
ATOM     36  C   UNL A   1      43.468  24.927  26.600  1.00  0.00     0.029 A 
ATOM     37  N   UNL A   1      43.527  26.948  27.545  1.00  0.00    -0.354 N 
ATOM     38  C   UNL A   1      40.107  28.573  29.616  1.00  0.00     0.074 A 
ATOM     39  C   UNL A   1      39.101  27.553  29.814  1.00  0.00     0.031 C 
ATOM     40  C   UNL A   1      44.705  25.409  26.430  1.00  0.00     0.029 A 
ATOM     41  C   UNL A   1      44.751  26.770  26.945  1.00  0.00     0.049 A 
ATOM     42  H   UNL A   1      43.290  27.753  28.059  1.00  0.00     0.167 HD
ATOM     43  C   UNL A   1      40.040  29.830  30.118  1.00  0.00     0.037 A 
ATOM     44  C   UNL A   1      45.777  27.621  26.759  1.00  0.00     0.037 A 
ATOM     45  C   UNL A   1      41.072  30.823  29.947  1.00  0.00     0.049 A 
ATOM     46  C   UNL A   1      45.649  29.030  27.254  1.00  0.00     0.074 A 
ATOM     47  C   UNL A   1      41.093  32.132  30.397  1.00  0.00     0.029 A 
ATOM     48  N   UNL A   1      42.275  30.607  29.291  1.00  0.00    -0.354 N 
ATOM     49  N   UNL A   1      44.656  29.589  27.901  1.00  0.00    -0.248 NA
ATOM     50  C   UNL A   1      46.772  29.932  26.974  1.00  0.00     0.031 C 
ATOM     51  C   UNL A   1      42.289  32.721  29.976  1.00  0.00     0.029 A 
ATOM     52  C   UNL A   1      43.041  31.762  29.317  1.00  0.00     0.049 A 
ATOM     53  H   UNL A   1      42.545  29.761  28.869  1.00  0.00     0.167 HD
ATOM     54  C   UNL A   1      45.043  30.901  28.132  1.00  0.00     0.074 A 
ATOM     55  C   UNL A   1      46.369  31.049  27.563  1.00  0.00     0.031 C 
ATOM     56  C   UNL A   1      44.363  31.892  28.756  1.00  0.00     0.037 A 
BRANCH  43  57
ATOM     57  C   UNL A   1      38.802  30.225  30.875  1.00  0.00     0.057 A 
ATOM     58  C   UNL A   1      37.693  30.804  30.247  1.00  0.00     0.134 A 
ATOM     59  C   UNL A   1      38.693  29.955  32.247  1.00  0.00     0.134 A 
ATOM     60  F   UNL A   1      37.732  31.104  28.939  1.00  0.00    -0.206 F 
ATOM     61  C   UNL A   1      36.527  31.109  30.955  1.00  0.00     0.040 A 
ATOM     62  C   UNL A   1      37.525  30.228  32.960  1.00  0.00     0.040 A 
ATOM     63  F   UNL A   1      39.715  29.394  32.913  1.00  0.00    -0.206 F 
ATOM     64  C   UNL A   1      36.437  30.811  32.313  1.00  0.00     0.006 A 
ENDBRANCH  43  57
BRANCH  44  65
ATOM     65  C   UNL A   1      46.991  27.164  26.035  1.00  0.00     0.057 A 
ATOM     66  C   UNL A   1      47.109  27.327  24.651  1.00  0.00     0.134 A 
ATOM     67  C   UNL A   1      48.076  26.589  26.710  1.00  0.00     0.134 A 
ATOM     68  F   UNL A   1      46.095  27.849  23.945  1.00  0.00    -0.206 F 
ATOM     69  C   UNL A   1      48.260  26.940  23.964  1.00  0.00     0.040 A 
ATOM     70  C   UNL A   1      49.247  26.227  26.042  1.00  0.00     0.040 A 
ATOM     71  F   UNL A   1      48.030  26.408  28.038  1.00  0.00    -0.206 F 
ATOM     72  C   UNL A   1      49.339  26.400  24.663  1.00  0.00     0.006 A 
ENDBRANCH  44  65
BRANCH  56  73
ATOM     73  C   UNL A   1      45.064  33.209  28.909  1.00  0.00     0.057 A 
ATOM     74  C   UNL A   1      44.917  34.244  27.977  1.00  0.00     0.134 A 
ATOM     75  C   UNL A   1      45.882  33.451  30.021  1.00  0.00     0.134 A 
ATOM     76  F   UNL A   1      44.160  34.071  26.883  1.00  0.00    -0.206 F 
ATOM     77  C   UNL A   1      45.580  35.462  28.131  1.00  0.00     0.040 A 
ATOM     78  C   UNL A   1      46.525  34.676  30.201  1.00  0.00     0.040 A 
ATOM     79  F   UNL A   1      46.058  32.506  30.956  1.00  0.00    -0.206 F 
ATOM     80  C   UNL A   1      46.381  35.683  29.250  1.00  0.00     0.006 A 
ENDBRANCH  56  73
ENDBRANCH  30  31
ENDBRANCH  23  25
ENDBRANCH  22  23
ENDBRANCH   1  22
TORSDOF 12
ENDMDL
