MODEL 1
REMARK VINA RESULT:     -11.5      0.000      0.000
REMARK SMILES CO[C@H]1C[C@@H](C(=O)OCCOC(=O)c2ccc(-c3c4nc(c(-c5c(F)cccc5F)c5ccc([nH]5)c(-c5c(F)cccc5F)c5nc(c(-c6c(F)cccc6F)c6ccc3[nH]6)C=C5)C=C4)cc2)N(C(=O)Nc2cc(C)cc(F)c2)C1
REMARK SMILES IDX 9 1 8 2 6 3 7 4 5 5 3 6 4 7 80 8 68 9 2 10 1 11 69 12 70 13
REMARK SMILES IDX 71 14 72 16 73 17 79 18 74 19 77 20 75 21 76 22 78 23 10 24
REMARK SMILES IDX 11 25 12 26 13 27 14 28 15 29 67 30 16 31 66 32 17 33 18 34
REMARK SMILES IDX 19 35 60 36 20 37 65 38 59 39 61 40 21 41 64 42 58 43 57 44
REMARK SMILES IDX 22 46 48 47 31 48 47 49 32 50 35 51 46 52 62 53 33 54 34 55
REMARK SMILES IDX 45 57 63 58 36 59 23 60 24 61 29 62 25 63 26 64 28 65 30 66
REMARK SMILES IDX 27 67 49 68 50 69 55 70 51 71 52 72 54 73 56 74 53 75 37 76
REMARK SMILES IDX 38 77 43 78 39 79 40 80 42 81 44 82 41 83
REMARK H PARENT 71 15 61 45 35 56
REMARK Flexibility Score: inf
ROOT
ATOM      1  C   UNL A   1      31.759  31.417  26.866  1.00  0.00     0.274 C 
ENDROOT
BRANCH   1   2
ATOM      2  O   UNL A   1      31.551  30.931  25.527  1.00  0.00    -0.461 OA
BRANCH   2   3
ATOM      3  C   UNL A   1      32.086  29.712  25.254  1.00  0.00     0.329 C 
ATOM      4  O   UNL A   1      33.166  29.548  24.694  1.00  0.00    -0.250 OA
BRANCH   3   5
ATOM      5  C   UNL A   1      31.179  28.524  25.664  1.00  0.00     0.199 C 
ATOM      6  C   UNL A   1      31.403  26.175  26.198  1.00  0.00     0.140 C 
ATOM      7  C   UNL A   1      32.090  27.519  26.368  1.00  0.00     0.071 C 
ATOM      8  C   UNL A   1      30.762  26.311  24.817  1.00  0.00     0.154 C 
ATOM      9  N   UNL A   1      30.437  27.724  24.662  1.00  0.00    -0.308 N 
BRANCH   6  10
ATOM     10  O   UNL A   1      32.413  25.176  26.291  1.00  0.00    -0.380 OA
ATOM     11  C   UNL A   1      31.912  23.853  26.378  1.00  0.00     0.195 C 
ENDBRANCH   6  10
BRANCH   9  12
ATOM     12  C   UNL A   1      30.321  28.245  23.402  1.00  0.00     0.322 C 
ATOM     13  O   UNL A   1      31.296  28.336  22.676  1.00  0.00    -0.248 OA
ATOM     14  N   UNL A   1      29.073  28.587  22.965  1.00  0.00    -0.308 N 
ATOM     15  H   UNL A   1      28.360  27.908  22.941  1.00  0.00     0.171 HD
BRANCH  14  16
ATOM     16  C   UNL A   1      28.796  29.913  22.544  1.00  0.00     0.046 A 
ATOM     17  C   UNL A   1      29.172  31.024  23.310  1.00  0.00     0.029 A 
ATOM     18  C   UNL A   1      28.193  30.127  21.309  1.00  0.00     0.065 A 
ATOM     19  C   UNL A   1      28.947  32.332  22.824  1.00  0.00    -0.046 A 
ATOM     20  C   UNL A   1      27.957  31.407  20.837  1.00  0.00     0.125 A 
ATOM     21  C   UNL A   1      29.327  33.541  23.627  1.00  0.00     0.044 C 
ATOM     22  C   UNL A   1      28.332  32.511  21.579  1.00  0.00     0.042 A 
ATOM     23  F   UNL A   1      27.381  31.570  19.640  1.00  0.00    -0.207 F 
ENDBRANCH  14  16
ENDBRANCH   9  12
ENDBRANCH   3   5
ENDBRANCH   2   3
ENDBRANCH   1   2
BRANCH   1  24
ATOM     24  C   UNL A   1      32.007  32.937  26.877  1.00  0.00     0.275 C 
BRANCH  24  25
ATOM     25  O   UNL A   1      32.285  33.459  28.197  1.00  0.00    -0.458 OA
BRANCH  25  26
ATOM     26  C   UNL A   1      33.420  34.205  28.302  1.00  0.00     0.338 C 
ATOM     27  O   UNL A   1      33.505  35.419  28.230  1.00  0.00    -0.246 OA
BRANCH  26  28
ATOM     28  C   UNL A   1      34.621  33.371  28.551  1.00  0.00     0.060 A 
ATOM     29  C   UNL A   1      34.463  32.139  29.196  1.00  0.00     0.016 A 
ATOM     30  C   UNL A   1      35.907  33.864  28.319  1.00  0.00     0.016 A 
ATOM     31  C   UNL A   1      35.564  31.349  29.518  1.00  0.00     0.010 A 
ATOM     32  C   UNL A   1      37.023  33.111  28.725  1.00  0.00     0.010 A 
ATOM     33  C   UNL A   1      36.854  31.854  29.331  1.00  0.00    -0.014 A 
BRANCH  33  34
ATOM     34  C   UNL A   1      37.978  31.138  29.983  1.00  0.00     0.031 A 
ATOM     35  C   UNL A   1      38.243  31.409  31.438  1.00  0.00     0.074 A 
ATOM     36  C   UNL A   1      38.679  30.192  29.335  1.00  0.00     0.049 A 
ATOM     37  N   UNL A   1      39.142  30.889  32.233  1.00  0.00    -0.248 NA
ATOM     38  C   UNL A   1      37.349  32.380  32.089  1.00  0.00     0.031 C 
ATOM     39  C   UNL A   1      38.441  29.761  27.961  1.00  0.00     0.029 A 
ATOM     40  N   UNL A   1      39.729  29.414  29.758  1.00  0.00    -0.354 N 
ATOM     41  C   UNL A   1      38.918  31.464  33.478  1.00  0.00     0.074 A 
ATOM     42  C   UNL A   1      37.798  32.368  33.334  1.00  0.00     0.031 C 
ATOM     43  C   UNL A   1      39.331  28.803  27.646  1.00  0.00     0.029 A 
ATOM     44  C   UNL A   1      40.224  28.584  28.784  1.00  0.00     0.049 A 
ATOM     45  H   UNL A   1      40.090  29.448  30.674  1.00  0.00     0.167 HD
ATOM     46  C   UNL A   1      39.597  31.274  34.634  1.00  0.00     0.037 A 
ATOM     47  C   UNL A   1      41.298  27.769  28.801  1.00  0.00     0.037 A 
ATOM     48  C   UNL A   1      40.751  30.426  34.757  1.00  0.00     0.049 A 
ATOM     49  C   UNL A   1      42.120  27.663  30.060  1.00  0.00     0.074 A 
ATOM     50  C   UNL A   1      41.558  30.216  35.861  1.00  0.00     0.029 A 
ATOM     51  N   UNL A   1      41.277  29.664  33.723  1.00  0.00    -0.354 N 
ATOM     52  N   UNL A   1      41.922  28.233  31.225  1.00  0.00    -0.248 NA
ATOM     53  C   UNL A   1      43.318  26.813  30.006  1.00  0.00     0.031 C 
ATOM     54  C   UNL A   1      42.605  29.368  35.477  1.00  0.00     0.029 A 
ATOM     55  C   UNL A   1      42.417  29.007  34.151  1.00  0.00     0.049 A 
ATOM     56  H   UNL A   1      40.895  29.601  32.817  1.00  0.00     0.167 HD
ATOM     57  C   UNL A   1      42.962  27.808  32.043  1.00  0.00     0.074 A 
ATOM     58  C   UNL A   1      43.779  26.915  31.246  1.00  0.00     0.031 C 
ATOM     59  C   UNL A   1      43.222  28.131  33.335  1.00  0.00     0.037 A 
BRANCH  46  60
ATOM     60  C   UNL A   1      39.147  32.085  35.814  1.00  0.00     0.057 A 
ATOM     61  C   UNL A   1      38.230  31.592  36.752  1.00  0.00     0.134 A 
ATOM     62  C   UNL A   1      39.590  33.404  35.974  1.00  0.00     0.134 A 
ATOM     63  F   UNL A   1      37.748  30.345  36.641  1.00  0.00    -0.206 F 
ATOM     64  C   UNL A   1      37.739  32.396  37.782  1.00  0.00     0.040 A 
ATOM     65  C   UNL A   1      39.123  34.210  37.014  1.00  0.00     0.040 A 
ATOM     66  F   UNL A   1      40.465  33.938  35.109  1.00  0.00    -0.206 F 
ATOM     67  C   UNL A   1      38.185  33.710  37.914  1.00  0.00     0.006 A 
ENDBRANCH  46  60
BRANCH  47  68
ATOM     68  C   UNL A   1      41.686  27.036  27.566  1.00  0.00     0.057 A 
ATOM     69  C   UNL A   1      42.466  27.632  26.570  1.00  0.00     0.134 A 
ATOM     70  C   UNL A   1      41.289  25.708  27.362  1.00  0.00     0.134 A 
ATOM     71  F   UNL A   1      42.856  28.909  26.689  1.00  0.00    -0.206 F 
ATOM     72  C   UNL A   1      42.840  26.934  25.419  1.00  0.00     0.040 A 
ATOM     73  C   UNL A   1      41.676  24.990  26.230  1.00  0.00     0.040 A 
ATOM     74  F   UNL A   1      40.533  25.079  28.276  1.00  0.00    -0.206 F 
ATOM     75  C   UNL A   1      42.454  25.603  25.252  1.00  0.00     0.006 A 
ENDBRANCH  47  68
BRANCH  59  76
ATOM     76  C   UNL A   1      44.433  27.512  33.969  1.00  0.00     0.057 A 
ATOM     77  C   UNL A   1      45.670  28.166  33.988  1.00  0.00     0.134 A 
ATOM     78  C   UNL A   1      44.344  26.273  34.619  1.00  0.00     0.134 A 
ATOM     79  F   UNL A   1      45.824  29.349  33.375  1.00  0.00    -0.206 F 
ATOM     80  C   UNL A   1      46.783  27.603  34.618  1.00  0.00     0.040 A 
ATOM     81  C   UNL A   1      45.442  25.712  35.273  1.00  0.00     0.040 A 
ATOM     82  F   UNL A   1      43.184  25.600  34.646  1.00  0.00    -0.206 F 
ATOM     83  C   UNL A   1      46.667  26.376  35.269  1.00  0.00     0.006 A 
ENDBRANCH  59  76
ENDBRANCH  33  34
ENDBRANCH  26  28
ENDBRANCH  25  26
ENDBRANCH  24  25
ENDBRANCH   1  24
TORSDOF 14
ENDMDL
MODEL 2
REMARK VINA RESULT:     -11.5      4.529      7.803
REMARK SMILES CO[C@H]1C[C@@H](C(=O)OCCOC(=O)c2ccc(-c3c4nc(c(-c5c(F)cccc5F)c5ccc([nH]5)c(-c5c(F)cccc5F)c5nc(c(-c6c(F)cccc6F)c6ccc3[nH]6)C=C5)C=C4)cc2)N(C(=O)Nc2cc(C)cc(F)c2)C1
REMARK SMILES IDX 9 1 8 2 6 3 7 4 5 5 3 6 4 7 80 8 68 9 2 10 1 11 69 12 70 13
REMARK SMILES IDX 71 14 72 16 73 17 79 18 74 19 77 20 75 21 76 22 78 23 10 24
REMARK SMILES IDX 11 25 12 26 13 27 14 28 15 29 67 30 16 31 66 32 17 33 18 34
REMARK SMILES IDX 19 35 60 36 20 37 65 38 59 39 61 40 21 41 64 42 58 43 57 44
REMARK SMILES IDX 22 46 48 47 31 48 47 49 32 50 35 51 46 52 62 53 33 54 34 55
REMARK SMILES IDX 45 57 63 58 36 59 23 60 24 61 29 62 25 63 26 64 28 65 30 66
REMARK SMILES IDX 27 67 49 68 50 69 55 70 51 71 52 72 54 73 56 74 53 75 37 76
REMARK SMILES IDX 38 77 43 78 39 79 40 80 42 81 44 82 41 83
REMARK H PARENT 71 15 61 45 35 56
REMARK Flexibility Score: inf
ROOT
ATOM      1  C   UNL A   1      32.825  33.156  27.674  1.00  0.00     0.274 C 
ENDROOT
BRANCH   1   2
ATOM      2  O   UNL A   1      34.049  33.912  27.705  1.00  0.00    -0.461 OA
BRANCH   2   3
ATOM      3  C   UNL A   1      34.044  35.008  28.510  1.00  0.00     0.329 C 
ATOM      4  O   UNL A   1      34.598  36.067  28.229  1.00  0.00    -0.250 OA
BRANCH   3   5
ATOM      5  C   UNL A   1      33.315  34.790  29.860  1.00  0.00     0.199 C 
ATOM      6  C   UNL A   1      32.617  36.096  31.773  1.00  0.00     0.140 C 
ATOM      7  C   UNL A   1      32.749  36.152  30.260  1.00  0.00     0.071 C 
ATOM      8  C   UNL A   1      33.815  35.233  32.171  1.00  0.00     0.154 C 
ATOM      9  N   UNL A   1      34.028  34.307  31.065  1.00  0.00    -0.308 N 
BRANCH   6  10
ATOM     10  O   UNL A   1      32.667  37.438  32.245  1.00  0.00    -0.380 OA
ATOM     11  C   UNL A   1      33.968  37.885  32.584  1.00  0.00     0.195 C 
ENDBRANCH   6  10
BRANCH   9  12
ATOM     12  C   UNL A   1      35.271  33.763  30.885  1.00  0.00     0.322 C 
ATOM     13  O   UNL A   1      35.397  32.632  30.449  1.00  0.00    -0.248 OA
ATOM     14  N   UNL A   1      36.356  34.553  31.141  1.00  0.00    -0.308 N 
ATOM     15  H   UNL A   1      36.465  35.405  30.658  1.00  0.00     0.171 HD
BRANCH  14  16
ATOM     16  C   UNL A   1      37.327  34.154  32.095  1.00  0.00     0.046 A 
ATOM     17  C   UNL A   1      38.670  34.536  31.984  1.00  0.00     0.029 A 
ATOM     18  C   UNL A   1      36.932  33.418  33.207  1.00  0.00     0.065 A 
ATOM     19  C   UNL A   1      39.595  34.183  32.993  1.00  0.00    -0.046 A 
ATOM     20  C   UNL A   1      37.839  33.058  34.189  1.00  0.00     0.125 A 
ATOM     21  C   UNL A   1      41.043  34.567  32.895  1.00  0.00     0.044 C 
ATOM     22  C   UNL A   1      39.165  33.437  34.096  1.00  0.00     0.042 A 
ATOM     23  F   UNL A   1      37.417  32.356  35.248  1.00  0.00    -0.207 F 
ENDBRANCH  14  16
ENDBRANCH   9  12
ENDBRANCH   3   5
ENDBRANCH   2   3
ENDBRANCH   1   2
BRANCH   1  24
ATOM     24  C   UNL A   1      33.103  31.642  27.627  1.00  0.00     0.275 C 
BRANCH  24  25
ATOM     25  O   UNL A   1      34.512  31.324  27.550  1.00  0.00    -0.458 OA
BRANCH  25  26
ATOM     26  C   UNL A   1      34.835  30.033  27.840  1.00  0.00     0.338 C 
ATOM     27  O   UNL A   1      34.111  29.058  27.739  1.00  0.00    -0.246 OA
BRANCH  26  28
ATOM     28  C   UNL A   1      36.240  29.894  28.295  1.00  0.00     0.060 A 
ATOM     29  C   UNL A   1      37.271  30.082  27.367  1.00  0.00     0.016 A 
ATOM     30  C   UNL A   1      36.545  29.411  29.570  1.00  0.00     0.016 A 
ATOM     31  C   UNL A   1      38.604  29.892  27.724  1.00  0.00     0.010 A 
ATOM     32  C   UNL A   1      37.881  29.132  29.906  1.00  0.00     0.010 A 
ATOM     33  C   UNL A   1      38.914  29.367  28.982  1.00  0.00    -0.014 A 
BRANCH  33  34
ATOM     34  C   UNL A   1      40.294  28.872  29.203  1.00  0.00     0.031 A 
ATOM     35  C   UNL A   1      41.244  29.739  29.981  1.00  0.00     0.074 A 
ATOM     36  C   UNL A   1      40.668  27.639  28.819  1.00  0.00     0.049 A 
ATOM     37  N   UNL A   1      42.485  29.515  30.329  1.00  0.00    -0.248 NA
ATOM     38  C   UNL A   1      40.706  31.025  30.456  1.00  0.00     0.031 C 
ATOM     39  C   UNL A   1      39.805  26.664  28.160  1.00  0.00     0.029 A 
ATOM     40  N   UNL A   1      41.875  26.995  28.944  1.00  0.00    -0.354 N 
ATOM     41  C   UNL A   1      42.873  30.627  31.068  1.00  0.00     0.074 A 
ATOM     42  C   UNL A   1      41.736  31.520  31.121  1.00  0.00     0.031 C 
ATOM     43  C   UNL A   1      40.514  25.547  27.922  1.00  0.00     0.029 A 
ATOM     44  C   UNL A   1      41.890  25.744  28.378  1.00  0.00     0.049 A 
ATOM     45  H   UNL A   1      42.654  27.392  29.397  1.00  0.00     0.167 HD
ATOM     46  C   UNL A   1      44.075  30.891  31.633  1.00  0.00     0.037 A 
ATOM     47  C   UNL A   1      42.910  24.877  28.217  1.00  0.00     0.037 A 
ATOM     48  C   UNL A   1      45.221  30.031  31.522  1.00  0.00     0.049 A 
ATOM     49  C   UNL A   1      44.274  25.240  28.743  1.00  0.00     0.074 A 
ATOM     50  C   UNL A   1      46.505  30.234  31.993  1.00  0.00     0.029 A 
ATOM     51  N   UNL A   1      45.221  28.808  30.866  1.00  0.00    -0.354 N 
ATOM     52  N   UNL A   1      44.643  26.306  29.413  1.00  0.00    -0.248 NA
ATOM     53  C   UNL A   1      45.365  24.290  28.483  1.00  0.00     0.031 C 
ATOM     54  C   UNL A   1      47.296  29.156  31.574  1.00  0.00     0.029 A 
ATOM     55  C   UNL A   1      46.491  28.258  30.890  1.00  0.00     0.049 A 
ATOM     56  H   UNL A   1      44.434  28.393  30.444  1.00  0.00     0.167 HD
ATOM     57  C   UNL A   1      46.003  26.154  29.659  1.00  0.00     0.074 A 
ATOM     58  C   UNL A   1      46.389  24.882  29.084  1.00  0.00     0.031 C 
ATOM     59  C   UNL A   1      46.855  26.993  30.299  1.00  0.00     0.037 A 
BRANCH  46  60
ATOM     60  C   UNL A   1      44.208  32.212  32.332  1.00  0.00     0.057 A 
ATOM     61  C   UNL A   1      44.556  33.385  31.650  1.00  0.00     0.134 A 
ATOM     62  C   UNL A   1      44.050  32.294  33.722  1.00  0.00     0.134 A 
ATOM     63  F   UNL A   1      44.747  33.369  30.322  1.00  0.00    -0.206 F 
ATOM     64  C   UNL A   1      44.783  34.584  32.331  1.00  0.00     0.040 A 
ATOM     65  C   UNL A   1      44.252  33.492  34.410  1.00  0.00     0.040 A 
ATOM     66  F   UNL A   1      43.722  31.207  34.435  1.00  0.00    -0.206 F 
ATOM     67  C   UNL A   1      44.632  34.638  33.715  1.00  0.00     0.006 A 
ENDBRANCH  46  60
BRANCH  47  68
ATOM     68  C   UNL A   1      42.685  23.607  27.474  1.00  0.00     0.057 A 
ATOM     69  C   UNL A   1      42.837  23.529  26.086  1.00  0.00     0.134 A 
ATOM     70  C   UNL A   1      42.321  22.434  28.148  1.00  0.00     0.134 A 
ATOM     71  F   UNL A   1      43.156  24.621  25.377  1.00  0.00    -0.206 F 
ATOM     72  C   UNL A   1      42.640  22.329  25.396  1.00  0.00     0.040 A 
ATOM     73  C   UNL A   1      42.146  21.224  27.475  1.00  0.00     0.040 A 
ATOM     74  F   UNL A   1      42.152  22.442  29.479  1.00  0.00    -0.206 F 
ATOM     75  C   UNL A   1      42.304  21.169  26.093  1.00  0.00     0.006 A 
ENDBRANCH  47  68
BRANCH  59  76
ATOM     76  C   UNL A   1      48.288  26.560  30.417  1.00  0.00     0.057 A 
ATOM     77  C   UNL A   1      48.730  25.757  31.475  1.00  0.00     0.134 A 
ATOM     78  C   UNL A   1      49.220  26.902  29.428  1.00  0.00     0.134 A 
ATOM     79  F   UNL A   1      47.889  25.404  32.458  1.00  0.00    -0.206 F 
ATOM     80  C   UNL A   1      50.055  25.322  31.555  1.00  0.00     0.040 A 
ATOM     81  C   UNL A   1      50.540  26.453  29.484  1.00  0.00     0.040 A 
ATOM     82  F   UNL A   1      48.857  27.661  28.383  1.00  0.00    -0.206 F 
ATOM     83  C   UNL A   1      50.961  25.664  30.553  1.00  0.00     0.006 A 
ENDBRANCH  59  76
ENDBRANCH  33  34
ENDBRANCH  26  28
ENDBRANCH  25  26
ENDBRANCH  24  25
ENDBRANCH   1  24
TORSDOF 14
ENDMDL
MODEL 3
REMARK VINA RESULT:     -11.5      4.242      7.305
REMARK SMILES CO[C@H]1C[C@@H](C(=O)OCCOC(=O)c2ccc(-c3c4nc(c(-c5c(F)cccc5F)c5ccc([nH]5)c(-c5c(F)cccc5F)c5nc(c(-c6c(F)cccc6F)c6ccc3[nH]6)C=C5)C=C4)cc2)N(C(=O)Nc2cc(C)cc(F)c2)C1
REMARK SMILES IDX 9 1 8 2 6 3 7 4 5 5 3 6 4 7 80 8 68 9 2 10 1 11 69 12 70 13
REMARK SMILES IDX 71 14 72 16 73 17 79 18 74 19 77 20 75 21 76 22 78 23 10 24
REMARK SMILES IDX 11 25 12 26 13 27 14 28 15 29 67 30 16 31 66 32 17 33 18 34
REMARK SMILES IDX 19 35 60 36 20 37 65 38 59 39 61 40 21 41 64 42 58 43 57 44
REMARK SMILES IDX 22 46 48 47 31 48 47 49 32 50 35 51 46 52 62 53 33 54 34 55
REMARK SMILES IDX 45 57 63 58 36 59 23 60 24 61 29 62 25 63 26 64 28 65 30 66
REMARK SMILES IDX 27 67 49 68 50 69 55 70 51 71 52 72 54 73 56 74 53 75 37 76
REMARK SMILES IDX 38 77 43 78 39 79 40 80 42 81 44 82 41 83
REMARK H PARENT 71 15 61 45 35 56
REMARK Flexibility Score: inf
ROOT
ATOM      1  C   UNL A   1      32.831  33.285  27.603  1.00  0.00     0.274 C 
ENDROOT
BRANCH   1   2
ATOM      2  O   UNL A   1      34.121  33.875  27.845  1.00  0.00    -0.461 OA
BRANCH   2   3
ATOM      3  C   UNL A   1      34.128  34.956  28.670  1.00  0.00     0.329 C 
ATOM      4  O   UNL A   1      34.711  36.007  28.416  1.00  0.00    -0.250 OA
BRANCH   3   5
ATOM      5  C   UNL A   1      33.374  34.731  30.005  1.00  0.00     0.199 C 
ATOM      6  C   UNL A   1      32.623  36.031  31.902  1.00  0.00     0.140 C 
ATOM      7  C   UNL A   1      32.786  36.087  30.392  1.00  0.00     0.071 C 
ATOM      8  C   UNL A   1      33.821  35.180  32.325  1.00  0.00     0.154 C 
ATOM      9  N   UNL A   1      34.067  34.256  31.224  1.00  0.00    -0.308 N 
BRANCH   6  10
ATOM     10  O   UNL A   1      32.648  37.373  32.374  1.00  0.00    -0.380 OA
ATOM     11  C   UNL A   1      33.952  37.892  32.574  1.00  0.00     0.195 C 
ENDBRANCH   6  10
BRANCH   9  12
ATOM     12  C   UNL A   1      35.319  33.726  31.071  1.00  0.00     0.322 C 
ATOM     13  O   UNL A   1      35.473  32.522  30.953  1.00  0.00    -0.248 OA
ATOM     14  N   UNL A   1      36.372  34.591  30.981  1.00  0.00    -0.308 N 
ATOM     15  H   UNL A   1      36.383  35.276  30.274  1.00  0.00     0.171 HD
BRANCH  14  16
ATOM     16  C   UNL A   1      37.450  34.509  31.899  1.00  0.00     0.046 A 
ATOM     17  C   UNL A   1      37.239  34.343  33.273  1.00  0.00     0.029 A 
ATOM     18  C   UNL A   1      38.758  34.530  31.423  1.00  0.00     0.065 A 
ATOM     19  C   UNL A   1      38.338  34.190  34.148  1.00  0.00    -0.046 A 
ATOM     20  C   UNL A   1      39.836  34.396  32.280  1.00  0.00     0.125 A 
ATOM     21  C   UNL A   1      38.143  34.022  35.627  1.00  0.00     0.044 C 
ATOM     22  C   UNL A   1      39.641  34.221  33.636  1.00  0.00     0.042 A 
ATOM     23  F   UNL A   1      41.078  34.414  31.780  1.00  0.00    -0.207 F 
ENDBRANCH  14  16
ENDBRANCH   9  12
ENDBRANCH   3   5
ENDBRANCH   2   3
ENDBRANCH   1   2
BRANCH   1  24
ATOM     24  C   UNL A   1      32.952  31.778  27.305  1.00  0.00     0.275 C 
BRANCH  24  25
ATOM     25  O   UNL A   1      33.880  31.098  28.181  1.00  0.00    -0.458 OA
BRANCH  25  26
ATOM     26  C   UNL A   1      34.609  30.105  27.599  1.00  0.00     0.338 C 
ATOM     27  O   UNL A   1      34.275  29.410  26.655  1.00  0.00    -0.246 OA
BRANCH  26  28
ATOM     28  C   UNL A   1      35.942  29.942  28.230  1.00  0.00     0.060 A 
ATOM     29  C   UNL A   1      37.086  30.134  27.447  1.00  0.00     0.016 A 
ATOM     30  C   UNL A   1      36.074  29.434  29.525  1.00  0.00     0.016 A 
ATOM     31  C   UNL A   1      38.359  29.924  27.971  1.00  0.00     0.010 A 
ATOM     32  C   UNL A   1      37.353  29.134  30.026  1.00  0.00     0.010 A 
ATOM     33  C   UNL A   1      38.499  29.373  29.248  1.00  0.00    -0.014 A 
BRANCH  33  34
ATOM     34  C   UNL A   1      39.835  28.859  29.637  1.00  0.00     0.031 A 
ATOM     35  C   UNL A   1      40.572  29.562  30.743  1.00  0.00     0.074 A 
ATOM     36  C   UNL A   1      40.337  27.734  29.101  1.00  0.00     0.049 A 
ATOM     37  N   UNL A   1      41.732  29.286  31.279  1.00  0.00    -0.248 NA
ATOM     38  C   UNL A   1      39.888  30.719  31.344  1.00  0.00     0.031 C 
ATOM     39  C   UNL A   1      39.667  26.902  28.105  1.00  0.00     0.029 A 
ATOM     40  N   UNL A   1      41.529  27.091  29.334  1.00  0.00    -0.354 N 
ATOM     41  C   UNL A   1      41.914  30.229  32.283  1.00  0.00     0.074 A 
ATOM     42  C   UNL A   1      40.745  31.081  32.284  1.00  0.00     0.031 C 
ATOM     43  C   UNL A   1      40.464  25.864  27.799  1.00  0.00     0.029 A 
ATOM     44  C   UNL A   1      41.716  25.981  28.548  1.00  0.00     0.049 A 
ATOM     45  H   UNL A   1      42.185  27.396  30.001  1.00  0.00     0.167 HD
ATOM     46  C   UNL A   1      42.970  30.386  33.117  1.00  0.00     0.037 A 
ATOM     47  C   UNL A   1      42.790  25.175  28.425  1.00  0.00     0.037 A 
ATOM     48  C   UNL A   1      44.158  29.579  33.068  1.00  0.00     0.049 A 
ATOM     49  C   UNL A   1      44.008  25.439  29.272  1.00  0.00     0.074 A 
ATOM     50  C   UNL A   1      45.317  29.697  33.815  1.00  0.00     0.029 A 
ATOM     51  N   UNL A   1      44.347  28.514  32.199  1.00  0.00    -0.354 N 
ATOM     52  N   UNL A   1      44.186  26.351  30.198  1.00  0.00    -0.248 NA
ATOM     53  C   UNL A   1      45.175  24.573  29.053  1.00  0.00     0.031 C 
ATOM     54  C   UNL A   1      46.227  28.735  33.359  1.00  0.00     0.029 A 
ATOM     55  C   UNL A   1      45.615  27.984  32.366  1.00  0.00     0.049 A 
ATOM     56  H   UNL A   1      43.678  28.184  31.556  1.00  0.00     0.167 HD
ATOM     57  C   UNL A   1      45.479  26.168  30.675  1.00  0.00     0.074 A 
ATOM     58  C   UNL A   1      46.032  25.042  29.949  1.00  0.00     0.031 C 
ATOM     59  C   UNL A   1      46.149  26.870  31.623  1.00  0.00     0.037 A 
BRANCH  46  60
ATOM     60  C   UNL A   1      42.900  31.540  34.073  1.00  0.00     0.057 A 
ATOM     61  C   UNL A   1      42.358  31.412  35.358  1.00  0.00     0.134 A 
ATOM     62  C   UNL A   1      43.321  32.815  33.673  1.00  0.00     0.134 A 
ATOM     63  F   UNL A   1      41.912  30.224  35.793  1.00  0.00    -0.206 F 
ATOM     64  C   UNL A   1      42.199  32.519  36.196  1.00  0.00     0.040 A 
ATOM     65  C   UNL A   1      43.189  33.924  34.510  1.00  0.00     0.040 A 
ATOM     66  F   UNL A   1      43.846  33.007  32.454  1.00  0.00    -0.206 F 
ATOM     67  C   UNL A   1      42.615  33.779  35.771  1.00  0.00     0.006 A 
ENDBRANCH  46  60
BRANCH  47  68
ATOM     68  C   UNL A   1      42.777  24.079  27.419  1.00  0.00     0.057 A 
ATOM     69  C   UNL A   1      42.346  22.788  27.741  1.00  0.00     0.134 A 
ATOM     70  C   UNL A   1      43.188  24.309  26.099  1.00  0.00     0.134 A 
ATOM     71  F   UNL A   1      41.967  22.494  28.992  1.00  0.00    -0.206 F 
ATOM     72  C   UNL A   1      42.322  21.767  26.787  1.00  0.00     0.040 A 
ATOM     73  C   UNL A   1      43.145  23.306  25.131  1.00  0.00     0.040 A 
ATOM     74  F   UNL A   1      43.619  25.524  25.726  1.00  0.00    -0.206 F 
ATOM     75  C   UNL A   1      42.711  22.028  25.473  1.00  0.00     0.006 A 
ENDBRANCH  47  68
BRANCH  59  76
ATOM     76  C   UNL A   1      47.553  26.437  31.935  1.00  0.00     0.057 A 
ATOM     77  C   UNL A   1      48.657  26.991  31.278  1.00  0.00     0.134 A 
ATOM     78  C   UNL A   1      47.802  25.500  32.947  1.00  0.00     0.134 A 
ATOM     79  F   UNL A   1      48.485  27.885  30.293  1.00  0.00    -0.206 F 
ATOM     80  C   UNL A   1      49.963  26.616  31.603  1.00  0.00     0.040 A 
ATOM     81  C   UNL A   1      49.103  25.136  33.298  1.00  0.00     0.040 A 
ATOM     82  F   UNL A   1      46.787  24.940  33.622  1.00  0.00    -0.206 F 
ATOM     83  C   UNL A   1      50.187  25.692  32.622  1.00  0.00     0.006 A 
ENDBRANCH  59  76
ENDBRANCH  33  34
ENDBRANCH  26  28
ENDBRANCH  25  26
ENDBRANCH  24  25
ENDBRANCH   1  24
TORSDOF 14
ENDMDL
