MODEL 1
REMARK VINA RESULT:     -12.7      0.000      0.000
REMARK SMILES CC(C)[C@H](NC(=O)[C@H](Cc1ccccc1)n1c(=O)[nH]c2ccccc2c1=O)C(=O)OCCOC(=O)c1ccc(-c2c3nc(c(-c4c(F)cccc4F)c4ccc([nH]4)c(-c4c(F)cccc4F)c4nc(c(-c5c(F)cccc5F)c5ccc2[nH]5)C=C4)C=C3)cc1
REMARK SMILES IDX 31 1 30 2 28 3 29 4 4 5 2 6 1 7 3 8 5 9 6 10 7 12 8 13 16 14
REMARK SMILES IDX 17 15 26 16 18 17 19 18 25 19 27 20 20 21 24 23 21 24 23 25
REMARK SMILES IDX 22 26 9 27 10 28 11 29 15 30 12 31 14 32 13 33 32 34 33 35
REMARK SMILES IDX 34 36 35 37 36 38 37 39 89 40 38 41 88 42 39 43 40 44 41 45
REMARK SMILES IDX 82 46 42 47 87 48 81 49 83 50 43 51 86 52 80 53 79 54 44 56
REMARK SMILES IDX 70 57 53 58 69 59 54 60 57 61 68 62 84 63 55 64 56 65 67 67
REMARK SMILES IDX 85 68 58 69 45 70 46 71 51 72 47 73 48 74 50 75 52 76 49 77
REMARK SMILES IDX 71 78 72 79 77 80 73 81 74 82 76 83 78 84 75 85 59 86 60 87
REMARK SMILES IDX 65 88 61 89 62 90 64 91 66 92 63 93
REMARK H PARENT 5 11 19 22 83 55 57 66
REMARK Flexibility Score: inf
ROOT
ATOM      1  C   UNL A   1      35.821  20.690  25.086  1.00  0.00     0.274 C 
ENDROOT
BRANCH   1   2
ATOM      2  O   UNL A   1      35.558  21.924  24.389  1.00  0.00    -0.461 OA
BRANCH   2   3
ATOM      3  C   UNL A   1      34.887  22.857  25.119  1.00  0.00     0.329 C 
ATOM      4  O   UNL A   1      35.343  23.373  26.135  1.00  0.00    -0.250 OA
BRANCH   3   5
ATOM      5  C   UNL A   1      33.562  23.314  24.458  1.00  0.00     0.194 C 
BRANCH   5   6
ATOM      6  C   UNL A   1      32.431  22.271  24.518  1.00  0.00     0.017 C 
ATOM      7  C   UNL A   1      31.131  22.647  25.233  1.00  0.00     0.010 C 
ATOM      8  C   UNL A   1      32.089  21.757  23.113  1.00  0.00     0.010 C 
ENDBRANCH   5   6
BRANCH   5   9
ATOM      9  N   UNL A   1      33.729  24.126  23.231  1.00  0.00    -0.341 N 
ATOM     10  C   UNL A   1      33.673  25.384  22.741  1.00  0.00     0.244 C 
ATOM     11  H   UNL A   1      33.975  23.520  22.494  1.00  0.00     0.164 HD
ATOM     12  O   UNL A   1      33.679  25.402  21.501  1.00  0.00    -0.273 OA
BRANCH  10  13
ATOM     13  C   UNL A   1      33.372  26.685  23.531  1.00  0.00     0.189 C 
BRANCH  13  14
ATOM     14  N   UNL A   1      32.269  27.568  23.116  1.00  0.00    -0.247 N 
ATOM     15  C   UNL A   1      32.556  28.824  22.611  1.00  0.00     0.329 A 
ATOM     16  C   UNL A   1      30.974  27.041  23.163  1.00  0.00     0.264 A 
ATOM     17  O   UNL A   1      33.671  29.335  22.614  1.00  0.00    -0.248 OA
ATOM     18  N   UNL A   1      31.499  29.552  22.130  1.00  0.00    -0.307 N 
ATOM     19  C   UNL A   1      29.867  27.978  22.912  1.00  0.00     0.064 A 
ATOM     20  O   UNL A   1      30.709  25.876  23.455  1.00  0.00    -0.268 OA
ATOM     21  C   UNL A   1      30.166  29.199  22.324  1.00  0.00     0.055 A 
ATOM     22  H   UNL A   1      31.693  30.371  21.619  1.00  0.00     0.171 HD
ATOM     23  C   UNL A   1      28.560  27.683  23.312  1.00  0.00     0.016 A 
ATOM     24  C   UNL A   1      29.145  30.103  22.035  1.00  0.00     0.027 A 
ATOM     25  C   UNL A   1      27.546  28.612  23.083  1.00  0.00     0.001 A 
ATOM     26  C   UNL A   1      27.834  29.809  22.423  1.00  0.00     0.002 A 
ENDBRANCH  13  14
BRANCH  13  27
ATOM     27  C   UNL A   1      33.416  26.490  25.076  1.00  0.00     0.071 C 
BRANCH  27  28
ATOM     28  C   UNL A   1      33.291  27.711  25.963  1.00  0.00    -0.045 A 
ATOM     29  C   UNL A   1      34.412  28.476  26.314  1.00  0.00     0.004 A 
ATOM     30  C   UNL A   1      32.037  28.101  26.457  1.00  0.00     0.004 A 
ATOM     31  C   UNL A   1      34.271  29.633  27.085  1.00  0.00     0.000 A 
ATOM     32  C   UNL A   1      31.898  29.248  27.241  1.00  0.00     0.000 A 
ATOM     33  C   UNL A   1      33.015  30.021  27.545  1.00  0.00     0.000 A 
ENDBRANCH  27  28
ENDBRANCH  13  27
ENDBRANCH  10  13
ENDBRANCH   5   9
ENDBRANCH   3   5
ENDBRANCH   2   3
ENDBRANCH   1   2
BRANCH   1  34
ATOM     34  C   UNL A   1      37.295  20.262  25.004  1.00  0.00     0.275 C 
BRANCH  34  35
ATOM     35  O   UNL A   1      38.232  21.342  25.214  1.00  0.00    -0.458 OA
BRANCH  35  36
ATOM     36  C   UNL A   1      39.214  21.073  26.102  1.00  0.00     0.338 C 
ATOM     37  O   UNL A   1      39.731  19.984  26.314  1.00  0.00    -0.246 OA
BRANCH  36  38
ATOM     38  C   UNL A   1      39.733  22.301  26.730  1.00  0.00     0.060 A 
ATOM     39  C   UNL A   1      39.261  23.518  26.238  1.00  0.00     0.016 A 
ATOM     40  C   UNL A   1      40.780  22.284  27.651  1.00  0.00     0.016 A 
ATOM     41  C   UNL A   1      39.856  24.716  26.597  1.00  0.00     0.010 A 
ATOM     42  C   UNL A   1      41.358  23.499  28.048  1.00  0.00     0.010 A 
ATOM     43  C   UNL A   1      40.916  24.720  27.503  1.00  0.00    -0.014 A 
BRANCH  43  44
ATOM     44  C   UNL A   1      41.587  26.006  27.810  1.00  0.00     0.031 A 
ATOM     45  C   UNL A   1      40.877  27.041  28.632  1.00  0.00     0.074 A 
ATOM     46  C   UNL A   1      42.858  26.214  27.415  1.00  0.00     0.049 A 
ATOM     47  N   UNL A   1      41.230  28.273  28.894  1.00  0.00    -0.248 NA
ATOM     48  C   UNL A   1      39.600  26.636  29.242  1.00  0.00     0.031 C 
ATOM     49  C   UNL A   1      43.690  25.249  26.695  1.00  0.00     0.029 A 
ATOM     50  N   UNL A   1      43.673  27.306  27.573  1.00  0.00    -0.354 N 
ATOM     51  C   UNL A   1      40.200  28.806  29.658  1.00  0.00     0.074 A 
ATOM     52  C   UNL A   1      39.210  27.763  29.824  1.00  0.00     0.031 C 
ATOM     53  C   UNL A   1      44.901  25.789  26.480  1.00  0.00     0.029 A 
ATOM     54  C   UNL A   1      44.905  27.157  26.983  1.00  0.00     0.049 A 
ATOM     55  H   UNL A   1      43.402  28.116  28.062  1.00  0.00     0.167 HD
ATOM     56  C   UNL A   1      40.091  30.056  30.166  1.00  0.00     0.037 A 
ATOM     57  C   UNL A   1      45.906  28.042  26.825  1.00  0.00     0.037 A 
ATOM     58  C   UNL A   1      41.097  31.076  30.031  1.00  0.00     0.049 A 
ATOM     59  C   UNL A   1      45.736  29.441  27.344  1.00  0.00     0.074 A 
ATOM     60  C   UNL A   1      41.079  32.377  30.504  1.00  0.00     0.029 A 
ATOM     61  N   UNL A   1      42.312  30.901  29.386  1.00  0.00    -0.354 N 
ATOM     62  N   UNL A   1      44.729  29.960  28.002  1.00  0.00    -0.248 NA
ATOM     63  C   UNL A   1      46.833  30.383  27.081  1.00  0.00     0.031 C 
ATOM     64  C   UNL A   1      42.272  32.998  30.118  1.00  0.00     0.029 A 
ATOM     65  C   UNL A   1      43.046  32.074  29.437  1.00  0.00     0.049 A 
ATOM     66  H   UNL A   1      42.609  30.066  28.956  1.00  0.00     0.167 HD
ATOM     67  C   UNL A   1      45.071  31.283  28.241  1.00  0.00     0.074 A 
ATOM     68  C   UNL A   1      46.389  31.483  27.671  1.00  0.00     0.031 C 
ATOM     69  C   UNL A   1      44.357  32.248  28.868  1.00  0.00     0.037 A 
BRANCH  56  70
ATOM     70  C   UNL A   1      38.816  30.402  30.873  1.00  0.00     0.057 A 
ATOM     71  C   UNL A   1      37.702  30.913  30.196  1.00  0.00     0.134 A 
ATOM     72  C   UNL A   1      38.696  30.195  32.253  1.00  0.00     0.134 A 
ATOM     73  F   UNL A   1      37.760  31.150  28.876  1.00  0.00    -0.206 F 
ATOM     74  C   UNL A   1      36.519  31.222  30.870  1.00  0.00     0.040 A 
ATOM     75  C   UNL A   1      37.512  30.480  32.934  1.00  0.00     0.040 A 
ATOM     76  F   UNL A   1      39.726  29.706  32.961  1.00  0.00    -0.206 F 
ATOM     77  C   UNL A   1      36.421  31.000  32.243  1.00  0.00     0.006 A 
ENDBRANCH  56  70
BRANCH  57  78
ATOM     78  C   UNL A   1      47.133  27.646  26.091  1.00  0.00     0.057 A 
ATOM     79  C   UNL A   1      47.196  27.707  24.696  1.00  0.00     0.134 A 
ATOM     80  C   UNL A   1      48.272  27.195  26.772  1.00  0.00     0.134 A 
ATOM     81  F   UNL A   1      46.130  28.110  23.989  1.00  0.00    -0.206 F 
ATOM     82  C   UNL A   1      48.345  27.326  24.000  1.00  0.00     0.040 A 
ATOM     83  C   UNL A   1      49.435  26.835  26.091  1.00  0.00     0.040 A 
ATOM     84  F   UNL A   1      48.274  27.114  28.111  1.00  0.00    -0.206 F 
ATOM     85  C   UNL A   1      49.472  26.895  24.700  1.00  0.00     0.006 A 
ENDBRANCH  57  78
BRANCH  69  86
ATOM     86  C   UNL A   1      45.000  33.595  28.993  1.00  0.00     0.057 A 
ATOM     87  C   UNL A   1      44.793  34.599  28.040  1.00  0.00     0.134 A 
ATOM     88  C   UNL A   1      45.809  33.900  30.095  1.00  0.00     0.134 A 
ATOM     89  F   UNL A   1      44.041  34.361  26.955  1.00  0.00    -0.206 F 
ATOM     90  C   UNL A   1      45.383  35.858  28.170  1.00  0.00     0.040 A 
ATOM     91  C   UNL A   1      46.388  35.161  30.246  1.00  0.00     0.040 A 
ATOM     92  F   UNL A   1      46.042  32.981  31.044  1.00  0.00    -0.206 F 
ATOM     93  C   UNL A   1      46.178  36.142  29.279  1.00  0.00     0.006 A 
ENDBRANCH  69  86
ENDBRANCH  43  44
ENDBRANCH  36  38
ENDBRANCH  35  36
ENDBRANCH  34  35
ENDBRANCH   1  34
TORSDOF 17
ENDMDL
MODEL 2
REMARK VINA RESULT:     -12.5      2.581      7.365
REMARK SMILES CC(C)[C@H](NC(=O)[C@H](Cc1ccccc1)n1c(=O)[nH]c2ccccc2c1=O)C(=O)OCCOC(=O)c1ccc(-c2c3nc(c(-c4c(F)cccc4F)c4ccc([nH]4)c(-c4c(F)cccc4F)c4nc(c(-c5c(F)cccc5F)c5ccc2[nH]5)C=C4)C=C3)cc1
REMARK SMILES IDX 31 1 30 2 28 3 29 4 4 5 2 6 1 7 3 8 5 9 6 10 7 12 8 13 16 14
REMARK SMILES IDX 17 15 26 16 18 17 19 18 25 19 27 20 20 21 24 23 21 24 23 25
REMARK SMILES IDX 22 26 9 27 10 28 11 29 15 30 12 31 14 32 13 33 32 34 33 35
REMARK SMILES IDX 34 36 35 37 36 38 37 39 89 40 38 41 88 42 39 43 40 44 41 45
REMARK SMILES IDX 82 46 42 47 87 48 81 49 83 50 43 51 86 52 80 53 79 54 44 56
REMARK SMILES IDX 70 57 53 58 69 59 54 60 57 61 68 62 84 63 55 64 56 65 67 67
REMARK SMILES IDX 85 68 58 69 45 70 46 71 51 72 47 73 48 74 50 75 52 76 49 77
REMARK SMILES IDX 71 78 72 79 77 80 73 81 74 82 76 83 78 84 75 85 59 86 60 87
REMARK SMILES IDX 65 88 61 89 62 90 64 91 66 92 63 93
REMARK H PARENT 5 11 19 22 83 55 57 66
REMARK Flexibility Score: inf
ROOT
ATOM      1  C   UNL A   1      32.227  29.310  26.269  1.00  0.00     0.274 C 
ENDROOT
BRANCH   1   2
ATOM      2  O   UNL A   1      31.404  28.287  25.674  1.00  0.00    -0.461 OA
BRANCH   2   3
ATOM      3  C   UNL A   1      32.059  27.461  24.812  1.00  0.00     0.329 C 
ATOM      4  O   UNL A   1      33.196  27.678  24.403  1.00  0.00    -0.250 OA
BRANCH   3   5
ATOM      5  C   UNL A   1      31.291  26.146  24.523  1.00  0.00     0.194 C 
BRANCH   5   6
ATOM      6  C   UNL A   1      30.212  26.271  23.431  1.00  0.00     0.017 C 
ATOM      7  C   UNL A   1      28.772  26.565  23.860  1.00  0.00     0.010 C 
ATOM      8  C   UNL A   1      30.628  27.299  22.370  1.00  0.00     0.010 C 
ENDBRANCH   5   6
BRANCH   5   9
ATOM      9  N   UNL A   1      31.017  25.312  25.714  1.00  0.00    -0.341 N 
ATOM     10  C   UNL A   1      31.501  24.304  26.473  1.00  0.00     0.244 C 
ATOM     11  H   UNL A   1      30.158  25.602  26.100  1.00  0.00     0.164 HD
ATOM     12  O   UNL A   1      30.647  23.855  27.253  1.00  0.00    -0.273 OA
BRANCH  10  13
ATOM     13  C   UNL A   1      32.848  23.556  26.289  1.00  0.00     0.189 C 
BRANCH  13  14
ATOM     14  N   UNL A   1      32.862  22.138  25.892  1.00  0.00    -0.247 N 
ATOM     15  C   UNL A   1      33.402  21.196  26.750  1.00  0.00     0.329 A 
ATOM     16  C   UNL A   1      32.227  21.804  24.692  1.00  0.00     0.264 A 
ATOM     17  O   UNL A   1      34.018  21.465  27.777  1.00  0.00    -0.248 OA
ATOM     18  N   UNL A   1      33.279  19.882  26.381  1.00  0.00    -0.307 N 
ATOM     19  C   UNL A   1      32.392  20.420  24.217  1.00  0.00     0.064 A 
ATOM     20  O   UNL A   1      31.601  22.598  23.993  1.00  0.00    -0.268 OA
ATOM     21  C   UNL A   1      32.854  19.472  25.120  1.00  0.00     0.055 A 
ATOM     22  H   UNL A   1      33.504  19.190  27.044  1.00  0.00     0.171 HD
ATOM     23  C   UNL A   1      32.158  20.076  22.882  1.00  0.00     0.016 A 
ATOM     24  C   UNL A   1      32.992  18.142  24.725  1.00  0.00     0.027 A 
ATOM     25  C   UNL A   1      32.358  18.759  22.468  1.00  0.00     0.001 A 
ATOM     26  C   UNL A   1      32.749  17.789  23.393  1.00  0.00     0.002 A 
ENDBRANCH  13  14
BRANCH  13  27
ATOM     27  C   UNL A   1      33.915  24.391  25.520  1.00  0.00     0.071 C 
BRANCH  27  28
ATOM     28  C   UNL A   1      35.247  23.744  25.201  1.00  0.00    -0.045 A 
ATOM     29  C   UNL A   1      36.278  23.692  26.150  1.00  0.00     0.004 A 
ATOM     30  C   UNL A   1      35.476  23.182  23.936  1.00  0.00     0.004 A 
ATOM     31  C   UNL A   1      37.479  23.040  25.859  1.00  0.00     0.000 A 
ATOM     32  C   UNL A   1      36.683  22.546  23.640  1.00  0.00     0.000 A 
ATOM     33  C   UNL A   1      37.681  22.465  24.607  1.00  0.00     0.000 A 
ENDBRANCH  27  28
ENDBRANCH  13  27
ENDBRANCH  10  13
ENDBRANCH   5   9
ENDBRANCH   3   5
ENDBRANCH   2   3
ENDBRANCH   1   2
BRANCH   1  34
ATOM     34  C   UNL A   1      32.929  28.838  27.552  1.00  0.00     0.275 C 
BRANCH  34  35
ATOM     35  O   UNL A   1      34.371  28.920  27.497  1.00  0.00    -0.458 OA
BRANCH  35  36
ATOM     36  C   UNL A   1      34.895  30.038  28.043  1.00  0.00     0.338 C 
ATOM     37  O   UNL A   1      34.286  31.051  28.364  1.00  0.00    -0.246 OA
BRANCH  36  38
ATOM     38  C   UNL A   1      36.323  29.870  28.367  1.00  0.00     0.060 A 
ATOM     39  C   UNL A   1      37.238  30.069  27.333  1.00  0.00     0.016 A 
ATOM     40  C   UNL A   1      36.758  29.365  29.591  1.00  0.00     0.016 A 
ATOM     41  C   UNL A   1      38.569  29.710  27.474  1.00  0.00     0.010 A 
ATOM     42  C   UNL A   1      38.114  29.039  29.751  1.00  0.00     0.010 A 
ATOM     43  C   UNL A   1      39.021  29.186  28.684  1.00  0.00    -0.014 A 
BRANCH  43  44
ATOM     44  C   UNL A   1      40.430  28.737  28.784  1.00  0.00     0.031 A 
ATOM     45  C   UNL A   1      41.476  29.673  29.317  1.00  0.00     0.074 A 
ATOM     46  C   UNL A   1      40.757  27.469  28.469  1.00  0.00     0.049 A 
ATOM     47  N   UNL A   1      42.775  29.523  29.355  1.00  0.00    -0.248 NA
ATOM     48  C   UNL A   1      40.997  30.945  29.881  1.00  0.00     0.031 C 
ATOM     49  C   UNL A   1      39.818  26.435  28.032  1.00  0.00     0.029 A 
ATOM     50  N   UNL A   1      41.974  26.834  28.475  1.00  0.00    -0.354 N 
ATOM     51  C   UNL A   1      43.273  30.698  29.903  1.00  0.00     0.074 A 
ATOM     52  C   UNL A   1      42.137  31.549  30.188  1.00  0.00     0.031 C 
ATOM     53  C   UNL A   1      40.491  25.293  27.821  1.00  0.00     0.029 A 
ATOM     54  C   UNL A   1      41.913  25.534  28.037  1.00  0.00     0.049 A 
ATOM     55  H   UNL A   1      42.808  27.268  28.765  1.00  0.00     0.167 HD
ATOM     56  C   UNL A   1      44.563  31.035  30.138  1.00  0.00     0.037 A 
ATOM     57  C   UNL A   1      42.898  24.651  27.792  1.00  0.00     0.037 A 
ATOM     58  C   UNL A   1      45.684  30.169  29.890  1.00  0.00     0.049 A 
ATOM     59  C   UNL A   1      44.325  25.069  28.003  1.00  0.00     0.074 A 
ATOM     60  C   UNL A   1      47.031  30.419  30.088  1.00  0.00     0.029 A 
ATOM     61  N   UNL A   1      45.585  28.874  29.402  1.00  0.00    -0.354 N 
ATOM     62  N   UNL A   1      44.793  26.207  28.453  1.00  0.00    -0.248 NA
ATOM     63  C   UNL A   1      45.361  24.088  27.653  1.00  0.00     0.031 C 
ATOM     64  C   UNL A   1      47.749  29.285  29.692  1.00  0.00     0.029 A 
ATOM     65  C   UNL A   1      46.847  28.318  29.280  1.00  0.00     0.049 A 
ATOM     66  H   UNL A   1      44.742  28.418  29.176  1.00  0.00     0.167 HD
ATOM     67  C   UNL A   1      46.175  26.078  28.450  1.00  0.00     0.074 A 
ATOM     68  C   UNL A   1      46.469  24.743  27.969  1.00  0.00     0.031 C 
ATOM     69  C   UNL A   1      47.116  26.985  28.806  1.00  0.00     0.037 A 
BRANCH  56  70
ATOM     70  C   UNL A   1      44.831  32.419  30.647  1.00  0.00     0.057 A 
ATOM     71  C   UNL A   1      44.920  32.706  32.015  1.00  0.00     0.134 A 
ATOM     72  C   UNL A   1      45.029  33.475  29.750  1.00  0.00     0.134 A 
ATOM     73  F   UNL A   1      44.723  31.740  32.926  1.00  0.00    -0.206 F 
ATOM     74  C   UNL A   1      45.179  34.000  32.472  1.00  0.00     0.040 A 
ATOM     75  C   UNL A   1      45.310  34.768  30.193  1.00  0.00     0.040 A 
ATOM     76  F   UNL A   1      44.959  33.266  28.426  1.00  0.00    -0.206 F 
ATOM     77  C   UNL A   1      45.380  35.033  31.559  1.00  0.00     0.006 A 
ENDBRANCH  56  70
BRANCH  57  78
ATOM     78  C   UNL A   1      42.569  23.304  27.264  1.00  0.00     0.057 A 
ATOM     79  C   UNL A   1      42.248  22.247  28.121  1.00  0.00     0.134 A 
ATOM     80  C   UNL A   1      42.571  23.044  25.887  1.00  0.00     0.134 A 
ATOM     81  F   UNL A   1      42.251  22.431  29.450  1.00  0.00    -0.206 F 
ATOM     82  C   UNL A   1      41.947  20.976  27.630  1.00  0.00     0.040 A 
ATOM     83  C   UNL A   1      42.249  21.784  25.381  1.00  0.00     0.040 A 
ATOM     84  F   UNL A   1      42.872  24.016  25.014  1.00  0.00    -0.206 F 
ATOM     85  C   UNL A   1      41.940  20.744  26.255  1.00  0.00     0.006 A 
ENDBRANCH  57  78
BRANCH  69  86
ATOM     86  C   UNL A   1      48.546  26.551  28.713  1.00  0.00     0.057 A 
ATOM     87  C   UNL A   1      49.311  26.784  27.565  1.00  0.00     0.134 A 
ATOM     88  C   UNL A   1      49.172  25.922  29.796  1.00  0.00     0.134 A 
ATOM     89  F   UNL A   1      48.763  27.368  26.489  1.00  0.00    -0.206 F 
ATOM     90  C   UNL A   1      50.649  26.391  27.491  1.00  0.00     0.040 A 
ATOM     91  C   UNL A   1      50.513  25.541  29.742  1.00  0.00     0.040 A 
ATOM     92  F   UNL A   1      48.492  25.674  30.926  1.00  0.00    -0.206 F 
ATOM     93  C   UNL A   1      51.254  25.772  28.584  1.00  0.00     0.006 A 
ENDBRANCH  69  86
ENDBRANCH  43  44
ENDBRANCH  36  38
ENDBRANCH  35  36
ENDBRANCH  34  35
ENDBRANCH   1  34
TORSDOF 17
ENDMDL
MODEL 3
REMARK VINA RESULT:     -12.5      1.781      2.344
REMARK SMILES CC(C)[C@H](NC(=O)[C@H](Cc1ccccc1)n1c(=O)[nH]c2ccccc2c1=O)C(=O)OCCOC(=O)c1ccc(-c2c3nc(c(-c4c(F)cccc4F)c4ccc([nH]4)c(-c4c(F)cccc4F)c4nc(c(-c5c(F)cccc5F)c5ccc2[nH]5)C=C4)C=C3)cc1
REMARK SMILES IDX 31 1 30 2 28 3 29 4 4 5 2 6 1 7 3 8 5 9 6 10 7 12 8 13 16 14
REMARK SMILES IDX 17 15 26 16 18 17 19 18 25 19 27 20 20 21 24 23 21 24 23 25
REMARK SMILES IDX 22 26 9 27 10 28 11 29 15 30 12 31 14 32 13 33 32 34 33 35
REMARK SMILES IDX 34 36 35 37 36 38 37 39 89 40 38 41 88 42 39 43 40 44 41 45
REMARK SMILES IDX 82 46 42 47 87 48 81 49 83 50 43 51 86 52 80 53 79 54 44 56
REMARK SMILES IDX 70 57 53 58 69 59 54 60 57 61 68 62 84 63 55 64 56 65 67 67
REMARK SMILES IDX 85 68 58 69 45 70 46 71 51 72 47 73 48 74 50 75 52 76 49 77
REMARK SMILES IDX 71 78 72 79 77 80 73 81 74 82 76 83 78 84 75 85 59 86 60 87
REMARK SMILES IDX 65 88 61 89 62 90 64 91 66 92 63 93
REMARK H PARENT 5 11 19 22 83 55 57 66
REMARK Flexibility Score: inf
ROOT
ATOM      1  C   UNL A   1      37.604  21.780  25.122  1.00  0.00     0.274 C 
ENDROOT
BRANCH   1   2
ATOM      2  O   UNL A   1      36.281  21.648  24.567  1.00  0.00    -0.461 OA
BRANCH   2   3
ATOM      3  C   UNL A   1      35.943  22.613  23.668  1.00  0.00     0.329 C 
ATOM      4  O   UNL A   1      36.721  23.051  22.826  1.00  0.00    -0.250 OA
BRANCH   3   5
ATOM      5  C   UNL A   1      34.440  22.989  23.710  1.00  0.00     0.194 C 
BRANCH   5   6
ATOM      6  C   UNL A   1      33.520  21.864  24.223  1.00  0.00     0.017 C 
ATOM      7  C   UNL A   1      33.168  21.834  25.712  1.00  0.00     0.010 C 
ATOM      8  C   UNL A   1      32.220  21.812  23.409  1.00  0.00     0.010 C 
ENDBRANCH   5   6
BRANCH   5   9
ATOM      9  N   UNL A   1      33.981  23.840  22.590  1.00  0.00    -0.341 N 
ATOM     10  C   UNL A   1      33.499  25.063  22.277  1.00  0.00     0.244 C 
ATOM     11  H   UNL A   1      34.057  23.318  21.758  1.00  0.00     0.164 HD
ATOM     12  O   UNL A   1      33.048  25.106  21.122  1.00  0.00    -0.273 OA
BRANCH  10  13
ATOM     13  C   UNL A   1      33.252  26.249  23.247  1.00  0.00     0.189 C 
BRANCH  13  14
ATOM     14  N   UNL A   1      32.247  27.276  22.923  1.00  0.00    -0.247 N 
ATOM     15  C   UNL A   1      32.664  28.535  22.526  1.00  0.00     0.329 A 
ATOM     16  C   UNL A   1      30.905  26.886  22.941  1.00  0.00     0.264 A 
ATOM     17  O   UNL A   1      33.828  28.923  22.560  1.00  0.00    -0.248 OA
ATOM     18  N   UNL A   1      31.690  29.409  22.123  1.00  0.00    -0.307 N 
ATOM     19  C   UNL A   1      29.902  27.953  22.787  1.00  0.00     0.064 A 
ATOM     20  O   UNL A   1      30.519  25.735  23.134  1.00  0.00    -0.268 OA
ATOM     21  C   UNL A   1      30.327  29.182  22.303  1.00  0.00     0.055 A 
ATOM     22  H   UNL A   1      31.967  30.245  21.683  1.00  0.00     0.171 HD
ATOM     23  C   UNL A   1      28.572  27.764  23.177  1.00  0.00     0.016 A 
ATOM     24  C   UNL A   1      29.407  30.211  22.107  1.00  0.00     0.027 A 
ATOM     25  C   UNL A   1      27.662  28.811  23.042  1.00  0.00     0.001 A 
ATOM     26  C   UNL A   1      28.073  30.024  22.484  1.00  0.00     0.002 A 
ENDBRANCH  13  14
BRANCH  13  27
ATOM     27  C   UNL A   1      33.188  25.817  24.743  1.00  0.00     0.071 C 
BRANCH  27  28
ATOM     28  C   UNL A   1      32.924  26.878  25.791  1.00  0.00    -0.045 A 
ATOM     29  C   UNL A   1      33.867  27.877  26.071  1.00  0.00     0.004 A 
ATOM     30  C   UNL A   1      31.719  26.879  26.509  1.00  0.00     0.004 A 
ATOM     31  C   UNL A   1      33.584  28.882  27.000  1.00  0.00     0.000 A 
ATOM     32  C   UNL A   1      31.443  27.873  27.449  1.00  0.00     0.000 A 
ATOM     33  C   UNL A   1      32.372  28.883  27.686  1.00  0.00     0.000 A 
ENDBRANCH  27  28
ENDBRANCH  13  27
ENDBRANCH  10  13
ENDBRANCH   5   9
ENDBRANCH   3   5
ENDBRANCH   2   3
ENDBRANCH   1   2
BRANCH   1  34
ATOM     34  C   UNL A   1      38.423  20.483  25.025  1.00  0.00     0.275 C 
BRANCH  34  35
ATOM     35  O   UNL A   1      39.080  20.111  26.258  1.00  0.00    -0.458 OA
BRANCH  35  36
ATOM     36  C   UNL A   1      40.412  19.916  26.152  1.00  0.00     0.338 C 
ATOM     37  O   UNL A   1      40.972  18.953  25.644  1.00  0.00    -0.246 OA
BRANCH  36  38
ATOM     38  C   UNL A   1      41.175  21.093  26.603  1.00  0.00     0.060 A 
ATOM     39  C   UNL A   1      41.214  21.340  27.976  1.00  0.00     0.016 A 
ATOM     40  C   UNL A   1      41.693  22.033  25.714  1.00  0.00     0.016 A 
ATOM     41  C   UNL A   1      41.700  22.537  28.476  1.00  0.00     0.010 A 
ATOM     42  C   UNL A   1      42.224  23.230  26.220  1.00  0.00     0.010 A 
ATOM     43  C   UNL A   1      42.207  23.499  27.602  1.00  0.00    -0.014 A 
BRANCH  43  44
ATOM     44  C   UNL A   1      42.648  24.801  28.155  1.00  0.00     0.031 A 
ATOM     45  C   UNL A   1      41.633  25.857  28.482  1.00  0.00     0.074 A 
ATOM     46  C   UNL A   1      43.950  25.008  28.433  1.00  0.00     0.049 A 
ATOM     47  N   UNL A   1      41.822  27.101  28.840  1.00  0.00    -0.248 NA
ATOM     48  C   UNL A   1      40.219  25.461  28.394  1.00  0.00     0.031 C 
ATOM     49  C   UNL A   1      45.021  24.027  28.252  1.00  0.00     0.029 A 
ATOM     50  N   UNL A   1      44.590  26.113  28.935  1.00  0.00    -0.354 N 
ATOM     51  C   UNL A   1      40.553  27.650  28.975  1.00  0.00     0.074 A 
ATOM     52  C   UNL A   1      39.602  26.603  28.667  1.00  0.00     0.031 C 
ATOM     53  C   UNL A   1      46.185  24.571  28.646  1.00  0.00     0.029 A 
ATOM     54  C   UNL A   1      45.951  25.957  29.036  1.00  0.00     0.049 A 
ATOM     55  H   UNL A   1      44.119  26.937  29.197  1.00  0.00     0.167 HD
ATOM     56  C   UNL A   1      40.217  28.916  29.318  1.00  0.00     0.037 A 
ATOM     57  C   UNL A   1      46.907  26.846  29.362  1.00  0.00     0.037 A 
ATOM     58  C   UNL A   1      41.167  29.940  29.663  1.00  0.00     0.049 A 
ATOM     59  C   UNL A   1      46.514  28.260  29.680  1.00  0.00     0.074 A 
ATOM     60  C   UNL A   1      40.929  31.256  30.018  1.00  0.00     0.029 A 
ATOM     61  N   UNL A   1      42.541  29.755  29.710  1.00  0.00    -0.354 N 
ATOM     62  N   UNL A   1      45.317  28.791  29.736  1.00  0.00    -0.248 NA
ATOM     63  C   UNL A   1      47.605  29.203  29.961  1.00  0.00     0.031 C 
ATOM     64  C   UNL A   1      42.161  31.876  30.252  1.00  0.00     0.029 A 
ATOM     65  C   UNL A   1      43.163  30.936  30.075  1.00  0.00     0.049 A 
ATOM     66  H   UNL A   1      43.004  28.909  29.512  1.00  0.00     0.167 HD
ATOM     67  C   UNL A   1      45.509  30.126  30.065  1.00  0.00     0.074 A 
ATOM     68  C   UNL A   1      46.937  30.319  30.215  1.00  0.00     0.031 C 
ATOM     69  C   UNL A   1      44.586  31.104  30.224  1.00  0.00     0.037 A 
BRANCH  56  70
ATOM     70  C   UNL A   1      38.763  29.273  29.291  1.00  0.00     0.057 A 
ATOM     71  C   UNL A   1      37.965  29.241  30.441  1.00  0.00     0.134 A 
ATOM     72  C   UNL A   1      38.158  29.682  28.095  1.00  0.00     0.134 A 
ATOM     73  F   UNL A   1      38.480  28.843  31.614  1.00  0.00    -0.206 F 
ATOM     74  C   UNL A   1      36.612  29.586  30.398  1.00  0.00     0.040 A 
ATOM     75  C   UNL A   1      36.814  30.049  28.044  1.00  0.00     0.040 A 
ATOM     76  F   UNL A   1      38.869  29.736  26.958  1.00  0.00    -0.206 F 
ATOM     77  C   UNL A   1      36.035  29.997  29.198  1.00  0.00     0.006 A 
ENDBRANCH  56  70
BRANCH  57  78
ATOM     78  C   UNL A   1      48.333  26.437  29.346  1.00  0.00     0.057 A 
ATOM     79  C   UNL A   1      49.117  26.585  28.198  1.00  0.00     0.134 A 
ATOM     80  C   UNL A   1      48.943  25.887  30.481  1.00  0.00     0.134 A 
ATOM     81  F   UNL A   1      48.581  27.085  27.075  1.00  0.00    -0.206 F 
ATOM     82  C   UNL A   1      50.456  26.193  28.174  1.00  0.00     0.040 A 
ATOM     83  C   UNL A   1      50.287  25.513  30.479  1.00  0.00     0.040 A 
ATOM     84  F   UNL A   1      48.244  25.719  31.613  1.00  0.00    -0.206 F 
ATOM     85  C   UNL A   1      51.046  25.661  29.321  1.00  0.00     0.006 A 
ENDBRANCH  57  78
BRANCH  69  86
ATOM     86  C   UNL A   1      45.094  32.462  30.602  1.00  0.00     0.057 A 
ATOM     87  C   UNL A   1      45.386  33.432  29.637  1.00  0.00     0.134 A 
ATOM     88  C   UNL A   1      45.262  32.810  31.948  1.00  0.00     0.134 A 
ATOM     89  F   UNL A   1      45.260  33.152  28.331  1.00  0.00    -0.206 F 
ATOM     90  C   UNL A   1      45.845  34.701  29.997  1.00  0.00     0.040 A 
ATOM     91  C   UNL A   1      45.701  34.081  32.322  1.00  0.00     0.040 A 
ATOM     92  F   UNL A   1      44.995  31.925  32.920  1.00  0.00    -0.206 F 
ATOM     93  C   UNL A   1      45.998  35.029  31.343  1.00  0.00     0.006 A 
ENDBRANCH  69  86
ENDBRANCH  43  44
ENDBRANCH  36  38
ENDBRANCH  35  36
ENDBRANCH  34  35
ENDBRANCH   1  34
TORSDOF 17
ENDMDL
