MODEL 1
REMARK VINA RESULT:     -10.3      0.000      0.000
REMARK SMILES Cc1n[nH]c(C[N@H+]2CCC[C@H](c3cccc(C(=O)OCCOC(=O)c4ccc(-c5c6nc(c(-c7c(F)cccc7F)c7ccc([nH]7)c(-c7c(F)cccc7F)c7nc(c(-c8c(F)cccc8F)c8ccc5[nH]8)C=C7)C=C6)cc4)c3)C2)n1
REMARK SMILES IDX 20 1 19 2 17 3 18 4 16 5 12 6 13 7 79 8 14 9 15 10 11 11
REMARK SMILES IDX 7 12 8 13 80 14 9 16 10 17 6 18 5 19 1 20 2 21 3 22 81 23
REMARK SMILES IDX 4 24 21 26 22 27 23 28 24 29 25 30 26 31 78 32 27 33 77 34
REMARK SMILES IDX 28 35 29 36 30 37 71 38 31 39 76 40 70 41 72 42 32 43 75 44
REMARK SMILES IDX 69 45 68 46 33 48 59 49 42 50 58 51 43 52 46 53 57 54 73 55
REMARK SMILES IDX 44 56 45 57 56 59 74 60 47 61 34 62 35 63 40 64 36 65 37 66
REMARK SMILES IDX 39 67 41 68 38 69 60 70 61 71 66 72 62 73 63 74 65 75 67 76
REMARK SMILES IDX 64 77 48 78 49 79 54 80 50 81 51 82 53 83 55 84 52 85
REMARK H PARENT 7 15 4 25 72 47 46 58
REMARK Flexibility Score: inf
ROOT
ATOM      1  C   UNL A   1      34.185  34.481  28.908  1.00  0.00     0.275 C 
ENDROOT
BRANCH   1   2
ATOM      2  O   UNL A   1      35.352  34.277  29.718  1.00  0.00    -0.458 OA
BRANCH   2   3
ATOM      3  C   UNL A   1      35.150  34.222  31.065  1.00  0.00     0.338 C 
ATOM      4  O   UNL A   1      34.313  34.837  31.691  1.00  0.00    -0.246 OA
BRANCH   3   5
ATOM      5  C   UNL A   1      36.027  33.178  31.664  1.00  0.00     0.060 A 
ATOM      6  C   UNL A   1      38.212  32.432  32.471  1.00  0.00    -0.038 A 
ATOM      7  C   UNL A   1      37.641  31.181  32.750  1.00  0.00     0.004 A 
ATOM      8  C   UNL A   1      37.393  33.403  31.875  1.00  0.00     0.020 A 
ATOM      9  C   UNL A   1      36.289  30.931  32.502  1.00  0.00     0.001 A 
ATOM     10  C   UNL A   1      35.477  31.933  31.977  1.00  0.00     0.016 A 
BRANCH   6  11
ATOM     11  C   UNL A   1      39.666  32.787  32.785  1.00  0.00     0.074 C 
ATOM     12  N   UNL A   1      39.556  32.853  35.294  1.00  0.00    -0.328 N 
ATOM     13  C   UNL A   1      39.709  34.312  35.307  1.00  0.00     0.262 C 
ATOM     14  C   UNL A   1      40.219  32.239  34.124  1.00  0.00     0.270 C 
ATOM     15  H   UNL A   1      38.556  32.675  35.202  1.00  0.00     0.348 HD
ATOM     16  C   UNL A   1      39.228  34.955  34.006  1.00  0.00     0.062 C 
ATOM     17  C   UNL A   1      39.908  34.315  32.796  1.00  0.00     0.020 C 
BRANCH  12  18
ATOM     18  C   UNL A   1      39.964  32.218  36.559  1.00  0.00     0.340 C 
BRANCH  18  19
ATOM     19  C   UNL A   1      38.832  31.763  37.416  1.00  0.00     0.179 A 
ATOM     20  C   UNL A   1      36.276  32.014  39.826  1.00  0.00     0.092 C 
ATOM     21  C   UNL A   1      37.218  31.616  38.765  1.00  0.00     0.147 A 
ATOM     22  N   UNL A   1      37.029  30.560  37.964  1.00  0.00    -0.159 NA
ATOM     23  N   UNL A   1      38.339  32.350  38.488  1.00  0.00    -0.211 NA
ATOM     24  N   UNL A   1      38.075  30.665  37.128  1.00  0.00    -0.258 N 
ATOM     25  H   UNL A   1      38.269  30.032  36.401  1.00  0.00     0.192 HD
ENDBRANCH  18  19
ENDBRANCH  12  18
ENDBRANCH   6  11
ENDBRANCH   3   5
ENDBRANCH   2   3
ENDBRANCH   1   2
BRANCH   1  26
ATOM     26  C   UNL A   1      33.981  33.308  27.958  1.00  0.00     0.275 C 
BRANCH  26  27
ATOM     27  O   UNL A   1      35.224  32.665  27.680  1.00  0.00    -0.458 OA
BRANCH  27  28
ATOM     28  C   UNL A   1      35.211  31.315  27.755  1.00  0.00     0.338 C 
ATOM     29  O   UNL A   1      34.369  30.556  27.302  1.00  0.00    -0.246 OA
BRANCH  28  30
ATOM     30  C   UNL A   1      36.294  30.874  28.641  1.00  0.00     0.060 A 
ATOM     31  C   UNL A   1      37.430  31.686  28.735  1.00  0.00     0.016 A 
ATOM     32  C   UNL A   1      36.284  29.556  29.115  1.00  0.00     0.016 A 
ATOM     33  C   UNL A   1      38.620  31.109  29.130  1.00  0.00     0.010 A 
ATOM     34  C   UNL A   1      37.473  28.979  29.488  1.00  0.00     0.010 A 
ATOM     35  C   UNL A   1      38.638  29.740  29.408  1.00  0.00    -0.014 A 
BRANCH  35  36
ATOM     36  C   UNL A   1      39.917  29.083  29.588  1.00  0.00     0.031 A 
ATOM     37  C   UNL A   1      40.359  28.960  30.993  1.00  0.00     0.074 A 
ATOM     38  C   UNL A   1      40.527  28.473  28.552  1.00  0.00     0.049 A 
ATOM     39  N   UNL A   1      41.448  29.390  31.537  1.00  0.00    -0.248 NA
ATOM     40  C   UNL A   1      39.411  28.351  31.943  1.00  0.00     0.031 C 
ATOM     41  C   UNL A   1      39.965  28.235  27.215  1.00  0.00     0.029 A 
ATOM     42  N   UNL A   1      41.722  27.822  28.507  1.00  0.00    -0.354 N 
ATOM     43  C   UNL A   1      41.405  28.946  32.855  1.00  0.00     0.074 A 
ATOM     44  C   UNL A   1      40.073  28.464  33.093  1.00  0.00     0.031 C 
ATOM     45  C   UNL A   1      40.715  27.309  26.578  1.00  0.00     0.029 A 
ATOM     46  C   UNL A   1      41.873  27.002  27.399  1.00  0.00     0.049 A 
ATOM     47  H   UNL A   1      42.415  27.923  29.199  1.00  0.00     0.167 HD
ATOM     48  C   UNL A   1      42.537  28.765  33.582  1.00  0.00     0.037 A 
ATOM     49  C   UNL A   1      42.846  26.084  27.206  1.00  0.00     0.037 A 
ATOM     50  C   UNL A   1      43.669  29.405  32.973  1.00  0.00     0.049 A 
ATOM     51  C   UNL A   1      43.967  26.392  28.124  1.00  0.00     0.074 A 
ATOM     52  C   UNL A   1      44.159  30.688  32.886  1.00  0.00     0.029 A 
ATOM     53  N   UNL A   1      44.304  28.653  32.022  1.00  0.00    -0.354 N 
ATOM     54  N   UNL A   1      44.706  27.463  28.043  1.00  0.00    -0.248 NA
ATOM     55  C   UNL A   1      44.096  25.642  29.369  1.00  0.00     0.031 C 
ATOM     56  C   UNL A   1      44.973  30.723  31.717  1.00  0.00     0.029 A 
ATOM     57  C   UNL A   1      44.954  29.460  31.126  1.00  0.00     0.049 A 
ATOM     58  H   UNL A   1      44.296  27.670  31.987  1.00  0.00     0.167 HD
ATOM     59  C   UNL A   1      45.071  27.734  29.348  1.00  0.00     0.074 A 
ATOM     60  C   UNL A   1      44.826  26.503  30.083  1.00  0.00     0.031 C 
ATOM     61  C   UNL A   1      45.234  29.016  29.778  1.00  0.00     0.037 A 
BRANCH  48  62
ATOM     62  C   UNL A   1      42.720  27.670  34.601  1.00  0.00     0.057 A 
ATOM     63  C   UNL A   1      43.006  26.364  34.170  1.00  0.00     0.134 A 
ATOM     64  C   UNL A   1      42.337  27.786  35.955  1.00  0.00     0.134 A 
ATOM     65  F   UNL A   1      43.347  26.120  32.895  1.00  0.00    -0.206 F 
ATOM     66  C   UNL A   1      42.882  25.253  35.012  1.00  0.00     0.040 A 
ATOM     67  C   UNL A   1      42.265  26.691  36.819  1.00  0.00     0.040 A 
ATOM     68  F   UNL A   1      41.913  28.943  36.480  1.00  0.00    -0.206 F 
ATOM     69  C   UNL A   1      42.511  25.414  36.342  1.00  0.00     0.006 A 
ENDBRANCH  48  62
BRANCH  49  70
ATOM     70  C   UNL A   1      42.759  24.805  26.469  1.00  0.00     0.057 A 
ATOM     71  C   UNL A   1      43.564  24.556  25.351  1.00  0.00     0.134 A 
ATOM     72  C   UNL A   1      42.077  23.698  27.004  1.00  0.00     0.134 A 
ATOM     73  F   UNL A   1      44.279  25.545  24.795  1.00  0.00    -0.206 F 
ATOM     74  C   UNL A   1      43.706  23.273  24.809  1.00  0.00     0.040 A 
ATOM     75  C   UNL A   1      42.201  22.413  26.467  1.00  0.00     0.040 A 
ATOM     76  F   UNL A   1      41.336  23.811  28.116  1.00  0.00    -0.206 F 
ATOM     77  C   UNL A   1      43.032  22.194  25.376  1.00  0.00     0.006 A 
ENDBRANCH  49  70
BRANCH  61  78
ATOM     78  C   UNL A   1      45.505  30.060  28.743  1.00  0.00     0.057 A 
ATOM     79  C   UNL A   1      46.770  30.313  28.200  1.00  0.00     0.134 A 
ATOM     80  C   UNL A   1      44.423  30.761  28.202  1.00  0.00     0.134 A 
ATOM     81  F   UNL A   1      47.847  29.630  28.607  1.00  0.00    -0.206 F 
ATOM     82  C   UNL A   1      46.953  31.252  27.180  1.00  0.00     0.040 A 
ATOM     83  C   UNL A   1      44.587  31.677  27.163  1.00  0.00     0.040 A 
ATOM     84  F   UNL A   1      43.178  30.529  28.647  1.00  0.00    -0.206 F 
ATOM     85  C   UNL A   1      45.858  31.932  26.654  1.00  0.00     0.006 A 
ENDBRANCH  61  78
ENDBRANCH  35  36
ENDBRANCH  28  30
ENDBRANCH  27  28
ENDBRANCH  26  27
ENDBRANCH   1  26
TORSDOF 14
ENDMDL
MODEL 2
REMARK VINA RESULT:     -10.2      3.726     10.847
REMARK SMILES Cc1n[nH]c(C[N@H+]2CCC[C@H](c3cccc(C(=O)OCCOC(=O)c4ccc(-c5c6nc(c(-c7c(F)cccc7F)c7ccc([nH]7)c(-c7c(F)cccc7F)c7nc(c(-c8c(F)cccc8F)c8ccc5[nH]8)C=C7)C=C6)cc4)c3)C2)n1
REMARK SMILES IDX 20 1 19 2 17 3 18 4 16 5 12 6 13 7 79 8 14 9 15 10 11 11
REMARK SMILES IDX 7 12 8 13 80 14 9 16 10 17 6 18 5 19 1 20 2 21 3 22 81 23
REMARK SMILES IDX 4 24 21 26 22 27 23 28 24 29 25 30 26 31 78 32 27 33 77 34
REMARK SMILES IDX 28 35 29 36 30 37 71 38 31 39 76 40 70 41 72 42 32 43 75 44
REMARK SMILES IDX 69 45 68 46 33 48 59 49 42 50 58 51 43 52 46 53 57 54 73 55
REMARK SMILES IDX 44 56 45 57 56 59 74 60 47 61 34 62 35 63 40 64 36 65 37 66
REMARK SMILES IDX 39 67 41 68 38 69 60 70 61 71 66 72 62 73 63 74 65 75 67 76
REMARK SMILES IDX 64 77 48 78 49 79 54 80 50 81 51 82 53 83 55 84 52 85
REMARK H PARENT 7 15 4 25 72 47 46 58
REMARK Flexibility Score: inf
ROOT
ATOM      1  C   UNL A   1      39.914  20.565  26.234  1.00  0.00     0.275 C 
ENDROOT
BRANCH   1   2
ATOM      2  O   UNL A   1      40.600  20.837  27.465  1.00  0.00    -0.458 OA
BRANCH   2   3
ATOM      3  C   UNL A   1      41.957  20.935  27.390  1.00  0.00     0.338 C 
ATOM      4  O   UNL A   1      42.717  20.086  26.975  1.00  0.00    -0.246 OA
BRANCH   3   5
ATOM      5  C   UNL A   1      42.385  22.310  27.771  1.00  0.00     0.060 A 
ATOM      6  C   UNL A   1      43.359  24.479  27.197  1.00  0.00    -0.038 A 
ATOM      7  C   UNL A   1      43.209  24.861  28.539  1.00  0.00     0.004 A 
ATOM      8  C   UNL A   1      42.987  23.172  26.847  1.00  0.00     0.020 A 
ATOM      9  C   UNL A   1      42.650  23.992  29.480  1.00  0.00     0.001 A 
ATOM     10  C   UNL A   1      42.221  22.724  29.095  1.00  0.00     0.016 A 
BRANCH   6  11
ATOM     11  C   UNL A   1      43.898  25.408  26.108  1.00  0.00     0.074 C 
ATOM     12  N   UNL A   1      45.839  24.035  25.298  1.00  0.00    -0.328 N 
ATOM     13  C   UNL A   1      46.805  24.969  25.889  1.00  0.00     0.262 C 
ATOM     14  C   UNL A   1      44.584  24.713  24.908  1.00  0.00     0.270 C 
ATOM     15  H   UNL A   1      45.606  23.368  26.033  1.00  0.00     0.348 HD
ATOM     16  C   UNL A   1      46.212  25.744  27.067  1.00  0.00     0.062 C 
ATOM     17  C   UNL A   1      44.911  26.437  26.664  1.00  0.00     0.020 C 
BRANCH  12  18
ATOM     18  C   UNL A   1      46.406  23.240  24.195  1.00  0.00     0.340 C 
BRANCH  18  19
ATOM     19  C   UNL A   1      46.009  21.802  24.203  1.00  0.00     0.179 A 
ATOM     20  C   UNL A   1      45.809  18.493  25.390  1.00  0.00     0.092 C 
ATOM     21  C   UNL A   1      45.679  19.774  24.674  1.00  0.00     0.147 A 
ATOM     22  N   UNL A   1      44.710  20.030  23.785  1.00  0.00    -0.159 NA
ATOM     23  N   UNL A   1      46.522  20.822  24.919  1.00  0.00    -0.211 NA
ATOM     24  N   UNL A   1      44.952  21.318  23.489  1.00  0.00    -0.258 N 
ATOM     25  H   UNL A   1      44.431  21.844  22.841  1.00  0.00     0.192 HD
ENDBRANCH  18  19
ENDBRANCH  12  18
ENDBRANCH   6  11
ENDBRANCH   3   5
ENDBRANCH   2   3
ENDBRANCH   1   2
BRANCH   1  26
ATOM     26  C   UNL A   1      39.070  21.762  25.815  1.00  0.00     0.275 C 
BRANCH  26  27
ATOM     27  O   UNL A   1      39.011  22.727  26.864  1.00  0.00    -0.458 OA
BRANCH  27  28
ATOM     28  C   UNL A   1      38.623  23.968  26.494  1.00  0.00     0.338 C 
ATOM     29  O   UNL A   1      37.775  24.262  25.667  1.00  0.00    -0.246 OA
BRANCH  28  30
ATOM     30  C   UNL A   1      39.517  24.953  27.112  1.00  0.00     0.060 A 
ATOM     31  C   UNL A   1      39.414  25.149  28.494  1.00  0.00     0.016 A 
ATOM     32  C   UNL A   1      40.209  25.849  26.286  1.00  0.00     0.016 A 
ATOM     33  C   UNL A   1      39.842  26.351  29.022  1.00  0.00     0.010 A 
ATOM     34  C   UNL A   1      40.614  27.051  26.809  1.00  0.00     0.010 A 
ATOM     35  C   UNL A   1      40.348  27.319  28.151  1.00  0.00    -0.014 A 
BRANCH  35  36
ATOM     36  C   UNL A   1      40.574  28.659  28.655  1.00  0.00     0.031 A 
ATOM     37  C   UNL A   1      41.841  29.282  28.217  1.00  0.00     0.074 A 
ATOM     38  C   UNL A   1      39.596  29.322  29.305  1.00  0.00     0.049 A 
ATOM     39  N   UNL A   1      42.802  29.749  28.941  1.00  0.00    -0.248 NA
ATOM     40  C   UNL A   1      42.112  29.302  26.769  1.00  0.00     0.031 C 
ATOM     41  C   UNL A   1      38.193  28.906  29.445  1.00  0.00     0.029 A 
ATOM     42  N   UNL A   1      39.609  30.564  29.863  1.00  0.00    -0.354 N 
ATOM     43  C   UNL A   1      43.716  30.288  28.040  1.00  0.00     0.074 A 
ATOM     44  C   UNL A   1      43.328  29.843  26.730  1.00  0.00     0.031 C 
ATOM     45  C   UNL A   1      37.455  29.965  29.842  1.00  0.00     0.029 A 
ATOM     46  C   UNL A   1      38.347  31.079  30.116  1.00  0.00     0.049 A 
ATOM     47  H   UNL A   1      40.439  31.052  30.067  1.00  0.00     0.167 HD
ATOM     48  C   UNL A   1      44.576  31.273  28.404  1.00  0.00     0.037 A 
ATOM     49  C   UNL A   1      38.053  32.354  30.457  1.00  0.00     0.037 A 
ATOM     50  C   UNL A   1      44.662  31.406  29.830  1.00  0.00     0.049 A 
ATOM     51  C   UNL A   1      39.288  32.999  30.958  1.00  0.00     0.074 A 
ATOM     52  C   UNL A   1      45.293  30.741  30.856  1.00  0.00     0.029 A 
ATOM     53  N   UNL A   1      43.700  32.207  30.386  1.00  0.00    -0.354 N 
ATOM     54  N   UNL A   1      39.902  32.652  32.055  1.00  0.00    -0.248 NA
ATOM     55  C   UNL A   1      40.053  33.864  30.066  1.00  0.00     0.031 C 
ATOM     56  C   UNL A   1      44.545  31.026  32.035  1.00  0.00     0.029 A 
ATOM     57  C   UNL A   1      43.478  31.857  31.692  1.00  0.00     0.049 A 
ATOM     58  H   UNL A   1      43.234  32.934  29.914  1.00  0.00     0.167 HD
ATOM     59  C   UNL A   1      41.236  32.912  31.804  1.00  0.00     0.074 A 
ATOM     60  C   UNL A   1      41.248  33.809  30.659  1.00  0.00     0.031 C 
ATOM     61  C   UNL A   1      42.215  32.130  32.339  1.00  0.00     0.037 A 
BRANCH  48  62
ATOM     62  C   UNL A   1      45.012  32.392  27.492  1.00  0.00     0.057 A 
ATOM     63  C   UNL A   1      46.317  32.392  26.973  1.00  0.00     0.134 A 
ATOM     64  C   UNL A   1      44.307  33.605  27.345  1.00  0.00     0.134 A 
ATOM     65  F   UNL A   1      47.102  31.308  27.083  1.00  0.00    -0.206 F 
ATOM     66  C   UNL A   1      46.891  33.527  26.387  1.00  0.00     0.040 A 
ATOM     67  C   UNL A   1      44.849  34.726  26.712  1.00  0.00     0.040 A 
ATOM     68  F   UNL A   1      43.102  33.802  27.898  1.00  0.00    -0.206 F 
ATOM     69  C   UNL A   1      46.156  34.699  26.254  1.00  0.00     0.006 A 
ENDBRANCH  48  62
BRANCH  49  70
ATOM     70  C   UNL A   1      36.837  33.127  30.129  1.00  0.00     0.057 A 
ATOM     71  C   UNL A   1      36.472  33.377  28.800  1.00  0.00     0.134 A 
ATOM     72  C   UNL A   1      35.863  33.409  31.104  1.00  0.00     0.134 A 
ATOM     73  F   UNL A   1      37.324  33.106  27.800  1.00  0.00    -0.206 F 
ATOM     74  C   UNL A   1      35.202  33.855  28.455  1.00  0.00     0.040 A 
ATOM     75  C   UNL A   1      34.594  33.895  30.774  1.00  0.00     0.040 A 
ATOM     76  F   UNL A   1      36.081  33.139  32.399  1.00  0.00    -0.206 F 
ATOM     77  C   UNL A   1      34.255  34.104  29.444  1.00  0.00     0.006 A 
ENDBRANCH  49  70
BRANCH  61  78
ATOM     78  C   UNL A   1      41.871  31.336  33.559  1.00  0.00     0.057 A 
ATOM     79  C   UNL A   1      41.412  30.014  33.528  1.00  0.00     0.134 A 
ATOM     80  C   UNL A   1      42.118  31.900  34.814  1.00  0.00     0.134 A 
ATOM     81  F   UNL A   1      41.225  29.374  32.367  1.00  0.00    -0.206 F 
ATOM     82  C   UNL A   1      41.177  29.294  34.703  1.00  0.00     0.040 A 
ATOM     83  C   UNL A   1      41.917  31.183  35.994  1.00  0.00     0.040 A 
ATOM     84  F   UNL A   1      42.604  33.148  34.910  1.00  0.00    -0.206 F 
ATOM     85  C   UNL A   1      41.436  29.877  35.941  1.00  0.00     0.006 A 
ENDBRANCH  61  78
ENDBRANCH  35  36
ENDBRANCH  28  30
ENDBRANCH  27  28
ENDBRANCH  26  27
ENDBRANCH   1  26
TORSDOF 14
ENDMDL
MODEL 3
REMARK VINA RESULT:     -10.1      4.807      9.573
REMARK SMILES Cc1n[nH]c(C[N@H+]2CCC[C@H](c3cccc(C(=O)OCCOC(=O)c4ccc(-c5c6nc(c(-c7c(F)cccc7F)c7ccc([nH]7)c(-c7c(F)cccc7F)c7nc(c(-c8c(F)cccc8F)c8ccc5[nH]8)C=C7)C=C6)cc4)c3)C2)n1
REMARK SMILES IDX 20 1 19 2 17 3 18 4 16 5 12 6 13 7 79 8 14 9 15 10 11 11
REMARK SMILES IDX 7 12 8 13 80 14 9 16 10 17 6 18 5 19 1 20 2 21 3 22 81 23
REMARK SMILES IDX 4 24 21 26 22 27 23 28 24 29 25 30 26 31 78 32 27 33 77 34
REMARK SMILES IDX 28 35 29 36 30 37 71 38 31 39 76 40 70 41 72 42 32 43 75 44
REMARK SMILES IDX 69 45 68 46 33 48 59 49 42 50 58 51 43 52 46 53 57 54 73 55
REMARK SMILES IDX 44 56 45 57 56 59 74 60 47 61 34 62 35 63 40 64 36 65 37 66
REMARK SMILES IDX 39 67 41 68 38 69 60 70 61 71 66 72 62 73 63 74 65 75 67 76
REMARK SMILES IDX 64 77 48 78 49 79 54 80 50 81 51 82 53 83 55 84 52 85
REMARK H PARENT 7 15 4 25 72 47 46 58
REMARK Flexibility Score: inf
ROOT
ATOM      1  C   UNL A   1      33.726  32.382  27.639  1.00  0.00     0.275 C 
ENDROOT
BRANCH   1   2
ATOM      2  O   UNL A   1      33.127  31.078  27.646  1.00  0.00    -0.458 OA
BRANCH   2   3
ATOM      3  C   UNL A   1      32.249  30.811  26.639  1.00  0.00     0.338 C 
ATOM      4  O   UNL A   1      31.379  31.550  26.230  1.00  0.00    -0.246 OA
BRANCH   3   5
ATOM      5  C   UNL A   1      32.594  29.510  26.000  1.00  0.00     0.060 A 
ATOM      6  C   UNL A   1      32.315  27.874  24.204  1.00  0.00    -0.038 A 
ATOM      7  C   UNL A   1      33.241  27.050  24.860  1.00  0.00     0.004 A 
ATOM      8  C   UNL A   1      31.966  29.083  24.825  1.00  0.00     0.020 A 
ATOM      9  C   UNL A   1      33.842  27.447  26.058  1.00  0.00     0.001 A 
ATOM     10  C   UNL A   1      33.534  28.684  26.619  1.00  0.00     0.016 A 
BRANCH   6  11
ATOM     11  C   UNL A   1      31.679  27.525  22.858  1.00  0.00     0.074 C 
ATOM     12  N   UNL A   1      29.255  27.529  23.519  1.00  0.00    -0.328 N 
ATOM     13  C   UNL A   1      29.169  26.071  23.384  1.00  0.00     0.262 C 
ATOM     14  C   UNL A   1      30.267  28.109  22.609  1.00  0.00     0.270 C 
ATOM     15  H   UNL A   1      29.570  27.707  24.473  1.00  0.00     0.348 HD
ATOM     16  C   UNL A   1      30.526  25.393  23.572  1.00  0.00     0.062 C 
ATOM     17  C   UNL A   1      31.573  25.997  22.637  1.00  0.00     0.020 C 
BRANCH  12  18
ATOM     18  C   UNL A   1      27.949  28.199  23.394  1.00  0.00     0.340 C 
BRANCH  18  19
ATOM     19  C   UNL A   1      28.018  29.600  22.886  1.00  0.00     0.179 A 
ATOM     20  C   UNL A   1      28.956  32.994  22.832  1.00  0.00     0.092 C 
ATOM     21  C   UNL A   1      28.443  31.639  22.562  1.00  0.00     0.147 A 
ATOM     22  N   UNL A   1      28.042  31.227  21.353  1.00  0.00    -0.159 NA
ATOM     23  N   UNL A   1      28.397  30.681  23.537  1.00  0.00    -0.211 NA
ATOM     24  N   UNL A   1      27.762  29.935  21.588  1.00  0.00    -0.258 N 
ATOM     25  H   UNL A   1      27.417  29.310  20.911  1.00  0.00     0.192 HD
ENDBRANCH  18  19
ENDBRANCH  12  18
ENDBRANCH   6  11
ENDBRANCH   3   5
ENDBRANCH   2   3
ENDBRANCH   1   2
BRANCH   1  26
ATOM     26  C   UNL A   1      35.195  32.299  28.034  1.00  0.00     0.275 C 
BRANCH  26  27
ATOM     27  O   UNL A   1      35.635  30.942  28.051  1.00  0.00    -0.458 OA
BRANCH  27  28
ATOM     28  C   UNL A   1      36.269  30.549  29.179  1.00  0.00     0.338 C 
ATOM     29  O   UNL A   1      36.150  31.022  30.298  1.00  0.00    -0.246 OA
BRANCH  28  30
ATOM     30  C   UNL A   1      37.292  29.557  28.832  1.00  0.00     0.060 A 
ATOM     31  C   UNL A   1      37.713  28.678  29.836  1.00  0.00     0.016 A 
ATOM     32  C   UNL A   1      38.006  29.713  27.636  1.00  0.00     0.016 A 
ATOM     33  C   UNL A   1      38.961  28.097  29.721  1.00  0.00     0.010 A 
ATOM     34  C   UNL A   1      39.254  29.150  27.533  1.00  0.00     0.010 A 
ATOM     35  C   UNL A   1      39.748  28.420  28.613  1.00  0.00    -0.014 A 
BRANCH  35  36
ATOM     36  C   UNL A   1      41.138  28.009  28.603  1.00  0.00     0.031 A 
ATOM     37  C   UNL A   1      41.395  26.710  27.947  1.00  0.00     0.074 A 
ATOM     38  C   UNL A   1      42.108  28.860  28.993  1.00  0.00     0.049 A 
ATOM     39  N   UNL A   1      41.957  25.656  28.438  1.00  0.00    -0.248 NA
ATOM     40  C   UNL A   1      40.872  26.533  26.581  1.00  0.00     0.031 C 
ATOM     41  C   UNL A   1      41.955  30.289  29.300  1.00  0.00     0.029 A 
ATOM     42  N   UNL A   1      43.454  28.668  29.073  1.00  0.00    -0.354 N 
ATOM     43  C   UNL A   1      42.021  24.746  27.386  1.00  0.00     0.074 A 
ATOM     44  C   UNL A   1      41.200  25.268  26.329  1.00  0.00     0.031 C 
ATOM     45  C   UNL A   1      43.173  30.873  29.309  1.00  0.00     0.029 A 
ATOM     46  C   UNL A   1      44.185  29.843  29.150  1.00  0.00     0.049 A 
ATOM     47  H   UNL A   1      43.869  27.775  29.073  1.00  0.00     0.167 HD
ATOM     48  C   UNL A   1      42.950  23.757  27.358  1.00  0.00     0.037 A 
ATOM     49  C   UNL A   1      45.525  29.965  29.021  1.00  0.00     0.037 A 
ATOM     50  C   UNL A   1      43.562  23.564  28.642  1.00  0.00     0.049 A 
ATOM     51  C   UNL A   1      46.138  28.634  29.235  1.00  0.00     0.074 A 
ATOM     52  C   UNL A   1      43.222  22.948  29.825  1.00  0.00     0.029 A 
ATOM     53  N   UNL A   1      44.625  24.389  28.895  1.00  0.00    -0.354 N 
ATOM     54  N   UNL A   1      46.120  27.994  30.371  1.00  0.00    -0.248 NA
ATOM     55  C   UNL A   1      46.527  27.834  28.078  1.00  0.00     0.031 C 
ATOM     56  C   UNL A   1      43.998  23.581  30.839  1.00  0.00     0.029 A 
ATOM     57  C   UNL A   1      44.787  24.565  30.244  1.00  0.00     0.049 A 
ATOM     58  H   UNL A   1      45.195  24.798  28.205  1.00  0.00     0.167 HD
ATOM     59  C   UNL A   1      46.099  26.659  30.018  1.00  0.00     0.074 A 
ATOM     60  C   UNL A   1      46.528  26.617  28.629  1.00  0.00     0.031 C 
ATOM     61  C   UNL A   1      45.433  25.744  30.777  1.00  0.00     0.037 A 
BRANCH  48  62
ATOM     62  C   UNL A   1      43.611  23.255  26.100  1.00  0.00     0.057 A 
ATOM     63  C   UNL A   1      43.610  21.879  25.820  1.00  0.00     0.134 A 
ATOM     64  C   UNL A   1      44.493  24.028  25.314  1.00  0.00     0.134 A 
ATOM     65  F   UNL A   1      42.840  21.034  26.523  1.00  0.00    -0.206 F 
ATOM     66  C   UNL A   1      44.452  21.310  24.857  1.00  0.00     0.040 A 
ATOM     67  C   UNL A   1      45.297  23.478  24.313  1.00  0.00     0.040 A 
ATOM     68  F   UNL A   1      44.700  25.331  25.546  1.00  0.00    -0.206 F 
ATOM     69  C   UNL A   1      45.299  22.110  24.099  1.00  0.00     0.006 A 
ENDBRANCH  48  62
BRANCH  49  70
ATOM     70  C   UNL A   1      46.286  31.103  28.464  1.00  0.00     0.057 A 
ATOM     71  C   UNL A   1      46.194  31.443  27.108  1.00  0.00     0.134 A 
ATOM     72  C   UNL A   1      46.912  32.045  29.299  1.00  0.00     0.134 A 
ATOM     73  F   UNL A   1      45.583  30.621  26.242  1.00  0.00    -0.206 F 
ATOM     74  C   UNL A   1      46.673  32.662  26.614  1.00  0.00     0.040 A 
ATOM     75  C   UNL A   1      47.403  33.262  28.818  1.00  0.00     0.040 A 
ATOM     76  F   UNL A   1      46.989  31.853  30.624  1.00  0.00    -0.206 F 
ATOM     77  C   UNL A   1      47.269  33.581  27.473  1.00  0.00     0.006 A 
ENDBRANCH  49  70
BRANCH  61  78
ATOM     78  C   UNL A   1      45.169  26.096  32.206  1.00  0.00     0.057 A 
ATOM     79  C   UNL A   1      44.000  26.723  32.654  1.00  0.00     0.134 A 
ATOM     80  C   UNL A   1      46.090  25.687  33.176  1.00  0.00     0.134 A 
ATOM     81  F   UNL A   1      43.033  27.076  31.798  1.00  0.00    -0.206 F 
ATOM     82  C   UNL A   1      43.774  26.963  34.013  1.00  0.00     0.040 A 
ATOM     83  C   UNL A   1      45.862  25.892  34.537  1.00  0.00     0.040 A 
ATOM     84  F   UNL A   1      47.208  25.038  32.814  1.00  0.00    -0.206 F 
ATOM     85  C   UNL A   1      44.704  26.540  34.959  1.00  0.00     0.006 A 
ENDBRANCH  61  78
ENDBRANCH  35  36
ENDBRANCH  28  30
ENDBRANCH  27  28
ENDBRANCH  26  27
ENDBRANCH   1  26
TORSDOF 14
ENDMDL
