MODEL 1
REMARK VINA RESULT:     -10.1      0.000      0.000
REMARK SMILES Cc1csc(CSCC[C@H]([NH3+])C(=O)OCCOC(=O)c2ccc(-c3c4nc(c(-c5c(F)cccc5F)c5ccc([nH]5)c(-c5c(F)cccc5F)c5nc(c(-c6c(F)cccc6F)c6ccc3[nH]6)C=C5)C=C4)cc2)n1
REMARK SMILES IDX 14 1 12 2 13 3 10 4 9 5 8 6 7 7 6 8 5 9 1 10 2 11 3 12 74 13
REMARK SMILES IDX 4 14 11 15 15 19 16 20 17 21 18 22 19 23 20 24 21 25 73 26
REMARK SMILES IDX 22 27 72 28 23 29 24 30 25 31 66 32 26 33 71 34 65 35 67 36
REMARK SMILES IDX 27 37 70 38 64 39 63 40 28 42 54 43 37 44 53 45 38 46 41 47
REMARK SMILES IDX 52 48 68 49 39 50 40 51 51 53 69 54 42 55 29 56 30 57 35 58
REMARK SMILES IDX 31 59 32 60 34 61 36 62 33 63 55 64 56 65 61 66 57 67 58 68
REMARK SMILES IDX 60 69 62 70 59 71 43 72 44 73 49 74 45 75 46 76 48 77 50 78
REMARK SMILES IDX 47 79
REMARK H PARENT 11 16 11 17 11 18 67 41 41 52
REMARK Flexibility Score: inf
ROOT
ATOM      1  O   UNL A   1      43.618  21.039  26.075  1.00  0.00    -0.458 OA
ENDROOT
BRANCH   1   2
ATOM      2  C   UNL A   1      42.967  19.883  25.769  1.00  0.00     0.364 C 
ATOM      3  O   UNL A   1      43.243  19.166  24.817  1.00  0.00    -0.245 OA
BRANCH   2   4
ATOM      4  C   UNL A   1      41.826  19.583  26.757  1.00  0.00     0.292 C 
BRANCH   4   5
ATOM      5  C   UNL A   1      40.909  20.786  27.027  1.00  0.00     0.088 C 
BRANCH   5   6
ATOM      6  C   UNL A   1      40.235  21.487  25.843  1.00  0.00     0.077 C 
BRANCH   6   7
ATOM      7  S   UNL A   1      38.606  22.267  26.126  1.00  0.00    -0.154 SA
BRANCH   7   8
ATOM      8  C   UNL A   1      37.488  21.431  24.969  1.00  0.00     0.137 C 
BRANCH   8   9
ATOM      9  C   UNL A   1      36.037  21.315  25.348  1.00  0.00     0.103 A 
ATOM     10  C   UNL A   1      32.934  19.504  25.034  1.00  0.00     0.067 C 
ATOM     11  C   UNL A   1      33.947  20.547  25.315  1.00  0.00     0.049 A 
ATOM     12  C   UNL A   1      33.708  21.785  25.875  1.00  0.00     0.090 A 
ATOM     13  N   UNL A   1      35.273  20.296  25.001  1.00  0.00    -0.246 NA
ATOM     14  S   UNL A   1      35.179  22.602  26.107  1.00  0.00    -0.126 S 
ENDBRANCH   8   9
ENDBRANCH   7   8
ENDBRANCH   6   7
ENDBRANCH   5   6
ENDBRANCH   4   5
BRANCH   4  15
ATOM     15  N   UNL A   1      42.278  18.908  27.996  1.00  0.00    -0.346 N 
ATOM     16  H   UNL A   1      41.708  19.223  28.782  1.00  0.00     0.345 HD
ATOM     17  H   UNL A   1      43.256  19.136  28.171  1.00  0.00     0.345 HD
ATOM     18  H   UNL A   1      42.179  17.898  27.889  1.00  0.00     0.345 HD
ENDBRANCH   4  15
ENDBRANCH   2   4
ENDBRANCH   1   2
BRANCH   1  19
ATOM     19  C   UNL A   1      44.731  21.458  25.252  1.00  0.00     0.274 C 
BRANCH  19  20
ATOM     20  C   UNL A   1      44.225  22.334  24.105  1.00  0.00     0.275 C 
BRANCH  20  21
ATOM     21  O   UNL A   1      43.523  23.463  24.649  1.00  0.00    -0.458 OA
BRANCH  21  22
ATOM     22  C   UNL A   1      44.323  24.453  25.104  1.00  0.00     0.338 C 
ATOM     23  O   UNL A   1      45.382  24.831  24.626  1.00  0.00    -0.246 OA
BRANCH  22  24
ATOM     24  C   UNL A   1      43.577  25.211  26.119  1.00  0.00     0.060 A 
ATOM     25  C   UNL A   1      43.972  26.534  26.336  1.00  0.00     0.016 A 
ATOM     26  C   UNL A   1      42.504  24.661  26.823  1.00  0.00     0.016 A 
ATOM     27  C   UNL A   1      43.306  27.316  27.265  1.00  0.00     0.010 A 
ATOM     28  C   UNL A   1      41.844  25.441  27.773  1.00  0.00     0.010 A 
ATOM     29  C   UNL A   1      42.262  26.761  28.011  1.00  0.00    -0.014 A 
BRANCH  29  30
ATOM     30  C   UNL A   1      41.734  27.533  29.152  1.00  0.00     0.031 A 
ATOM     31  C   UNL A   1      42.463  27.460  30.461  1.00  0.00     0.074 A 
ATOM     32  C   UNL A   1      40.679  28.348  28.982  1.00  0.00     0.049 A 
ATOM     33  N   UNL A   1      42.205  28.064  31.590  1.00  0.00    -0.248 NA
ATOM     34  C   UNL A   1      43.649  26.585  30.504  1.00  0.00     0.031 C 
ATOM     35  C   UNL A   1      39.944  28.529  27.730  1.00  0.00     0.029 A 
ATOM     36  N   UNL A   1      40.055  29.189  29.864  1.00  0.00    -0.354 N 
ATOM     37  C   UNL A   1      43.180  27.630  32.480  1.00  0.00     0.074 A 
ATOM     38  C   UNL A   1      44.022  26.695  31.770  1.00  0.00     0.031 C 
ATOM     39  C   UNL A   1      38.973  29.439  27.921  1.00  0.00     0.029 A 
ATOM     40  C   UNL A   1      38.996  29.871  29.316  1.00  0.00     0.049 A 
ATOM     41  H   UNL A   1      40.337  29.294  30.801  1.00  0.00     0.167 HD
ATOM     42  C   UNL A   1      43.353  27.989  33.772  1.00  0.00     0.037 A 
ATOM     43  C   UNL A   1      38.140  30.736  29.889  1.00  0.00     0.037 A 
ATOM     44  C   UNL A   1      42.512  28.936  34.456  1.00  0.00     0.049 A 
ATOM     45  C   UNL A   1      38.328  31.072  31.345  1.00  0.00     0.074 A 
ATOM     46  C   UNL A   1      42.604  29.390  35.759  1.00  0.00     0.029 A 
ATOM     47  N   UNL A   1      41.418  29.572  33.885  1.00  0.00    -0.354 N 
ATOM     48  N   UNL A   1      39.261  30.669  32.177  1.00  0.00    -0.248 NA
ATOM     49  C   UNL A   1      37.346  31.986  31.941  1.00  0.00     0.031 C 
ATOM     50  C   UNL A   1      41.530  30.255  35.994  1.00  0.00     0.029 A 
ATOM     51  C   UNL A   1      40.807  30.392  34.819  1.00  0.00     0.049 A 
ATOM     52  H   UNL A   1      41.120  29.456  32.954  1.00  0.00     0.167 HD
ATOM     53  C   UNL A   1      38.996  31.306  33.383  1.00  0.00     0.074 A 
ATOM     54  C   UNL A   1      37.831  32.140  33.163  1.00  0.00     0.031 C 
ATOM     55  C   UNL A   1      39.649  31.211  34.569  1.00  0.00     0.037 A 
BRANCH  42  56
ATOM     56  C   UNL A   1      44.460  27.325  34.537  1.00  0.00     0.057 A 
ATOM     57  C   UNL A   1      44.281  26.115  35.220  1.00  0.00     0.134 A 
ATOM     58  C   UNL A   1      45.739  27.899  34.568  1.00  0.00     0.134 A 
ATOM     59  F   UNL A   1      43.077  25.523  35.251  1.00  0.00    -0.206 F 
ATOM     60  C   UNL A   1      45.327  25.510  35.921  1.00  0.00     0.040 A 
ATOM     61  C   UNL A   1      46.798  27.288  35.241  1.00  0.00     0.040 A 
ATOM     62  F   UNL A   1      45.980  29.058  33.939  1.00  0.00    -0.206 F 
ATOM     63  C   UNL A   1      46.592  26.092  35.925  1.00  0.00     0.006 A 
ENDBRANCH  42  56
BRANCH  43  64
ATOM     64  C   UNL A   1      37.029  31.335  29.106  1.00  0.00     0.057 A 
ATOM     65  C   UNL A   1      37.080  32.664  28.671  1.00  0.00     0.134 A 
ATOM     66  C   UNL A   1      35.868  30.607  28.814  1.00  0.00     0.134 A 
ATOM     67  F   UNL A   1      38.154  33.421  28.936  1.00  0.00    -0.206 F 
ATOM     68  C   UNL A   1      36.006  33.258  28.003  1.00  0.00     0.040 A 
ATOM     69  C   UNL A   1      34.800  31.179  28.119  1.00  0.00     0.040 A 
ATOM     70  F   UNL A   1      35.753  29.329  29.200  1.00  0.00    -0.206 F 
ATOM     71  C   UNL A   1      34.863  32.513  27.722  1.00  0.00     0.006 A 
ENDBRANCH  43  64
BRANCH  55  72
ATOM     72  C   UNL A   1      39.134  32.064  35.693  1.00  0.00     0.057 A 
ATOM     73  C   UNL A   1      38.226  31.576  36.641  1.00  0.00     0.134 A 
ATOM     74  C   UNL A   1      39.551  33.396  35.821  1.00  0.00     0.134 A 
ATOM     75  F   UNL A   1      37.779  30.313  36.569  1.00  0.00    -0.206 F 
ATOM     76  C   UNL A   1      37.714  32.395  37.648  1.00  0.00     0.040 A 
ATOM     77  C   UNL A   1      39.075  34.213  36.846  1.00  0.00     0.040 A 
ATOM     78  F   UNL A   1      40.431  33.922  34.957  1.00  0.00    -0.206 F 
ATOM     79  C   UNL A   1      38.141  33.717  37.754  1.00  0.00     0.006 A 
ENDBRANCH  55  72
ENDBRANCH  29  30
ENDBRANCH  22  24
ENDBRANCH  21  22
ENDBRANCH  20  21
ENDBRANCH  19  20
ENDBRANCH   1  19
TORSDOF 17
ENDMDL
MODEL 2
REMARK VINA RESULT:     -10.1      6.086     11.762
REMARK SMILES Cc1csc(CSCC[C@H]([NH3+])C(=O)OCCOC(=O)c2ccc(-c3c4nc(c(-c5c(F)cccc5F)c5ccc([nH]5)c(-c5c(F)cccc5F)c5nc(c(-c6c(F)cccc6F)c6ccc3[nH]6)C=C5)C=C4)cc2)n1
REMARK SMILES IDX 14 1 12 2 13 3 10 4 9 5 8 6 7 7 6 8 5 9 1 10 2 11 3 12 74 13
REMARK SMILES IDX 4 14 11 15 15 19 16 20 17 21 18 22 19 23 20 24 21 25 73 26
REMARK SMILES IDX 22 27 72 28 23 29 24 30 25 31 66 32 26 33 71 34 65 35 67 36
REMARK SMILES IDX 27 37 70 38 64 39 63 40 28 42 54 43 37 44 53 45 38 46 41 47
REMARK SMILES IDX 52 48 68 49 39 50 40 51 51 53 69 54 42 55 29 56 30 57 35 58
REMARK SMILES IDX 31 59 32 60 34 61 36 62 33 63 55 64 56 65 61 66 57 67 58 68
REMARK SMILES IDX 60 69 62 70 59 71 43 72 44 73 49 74 45 75 46 76 48 77 50 78
REMARK SMILES IDX 47 79
REMARK H PARENT 11 16 11 17 11 18 67 41 41 52
REMARK Flexibility Score: inf
ROOT
ATOM      1  O   UNL A   1      35.015  35.770  32.887  1.00  0.00    -0.458 OA
ENDROOT
BRANCH   1   2
ATOM      2  C   UNL A   1      33.829  36.434  32.811  1.00  0.00     0.364 C 
ATOM      3  O   UNL A   1      33.626  37.544  33.285  1.00  0.00    -0.245 OA
BRANCH   2   4
ATOM      4  C   UNL A   1      32.757  35.619  32.064  1.00  0.00     0.292 C 
BRANCH   4   5
ATOM      5  C   UNL A   1      32.580  36.032  30.595  1.00  0.00     0.088 C 
BRANCH   5   6
ATOM      6  C   UNL A   1      33.695  35.715  29.594  1.00  0.00     0.077 C 
BRANCH   6   7
ATOM      7  S   UNL A   1      34.465  34.059  29.666  1.00  0.00    -0.154 SA
BRANCH   7   8
ATOM      8  C   UNL A   1      33.863  33.205  28.184  1.00  0.00     0.137 C 
BRANCH   8   9
ATOM      9  C   UNL A   1      34.293  31.780  27.966  1.00  0.00     0.103 A 
ATOM     10  C   UNL A   1      36.979  29.374  27.928  1.00  0.00     0.067 C 
ATOM     11  C   UNL A   1      35.678  30.053  27.729  1.00  0.00     0.049 A 
ATOM     12  C   UNL A   1      34.570  29.522  27.104  1.00  0.00     0.090 A 
ATOM     13  N   UNL A   1      35.517  31.347  28.199  1.00  0.00    -0.246 NA
ATOM     14  S   UNL A   1      33.277  30.619  27.201  1.00  0.00    -0.126 S 
ENDBRANCH   8   9
ENDBRANCH   7   8
ENDBRANCH   6   7
ENDBRANCH   5   6
ENDBRANCH   4   5
BRANCH   4  15
ATOM     15  N   UNL A   1      31.474  35.516  32.798  1.00  0.00    -0.346 N 
ATOM     16  H   UNL A   1      31.658  35.490  33.801  1.00  0.00     0.345 HD
ATOM     17  H   UNL A   1      30.990  34.664  32.518  1.00  0.00     0.345 HD
ATOM     18  H   UNL A   1      30.892  36.325  32.580  1.00  0.00     0.345 HD
ENDBRANCH   4  15
ENDBRANCH   2   4
ENDBRANCH   1   2
BRANCH   1  19
ATOM     19  C   UNL A   1      35.269  34.914  34.024  1.00  0.00     0.274 C 
BRANCH  19  20
ATOM     20  C   UNL A   1      34.818  33.487  33.708  1.00  0.00     0.275 C 
BRANCH  20  21
ATOM     21  O   UNL A   1      35.813  32.848  32.894  1.00  0.00    -0.458 OA
BRANCH  21  22
ATOM     22  C   UNL A   1      36.851  32.326  33.586  1.00  0.00     0.338 C 
ATOM     23  O   UNL A   1      36.926  32.153  34.794  1.00  0.00    -0.246 OA
BRANCH  22  24
ATOM     24  C   UNL A   1      37.786  31.728  32.622  1.00  0.00     0.060 A 
ATOM     25  C   UNL A   1      38.770  30.879  33.140  1.00  0.00     0.016 A 
ATOM     26  C   UNL A   1      37.695  31.962  31.250  1.00  0.00     0.016 A 
ATOM     27  C   UNL A   1      39.676  30.266  32.292  1.00  0.00     0.010 A 
ATOM     28  C   UNL A   1      38.620  31.361  30.395  1.00  0.00     0.010 A 
ATOM     29  C   UNL A   1      39.626  30.532  30.920  1.00  0.00    -0.014 A 
BRANCH  29  30
ATOM     30  C   UNL A   1      40.742  30.061  30.077  1.00  0.00     0.031 A 
ATOM     31  C   UNL A   1      41.899  30.987  29.845  1.00  0.00     0.074 A 
ATOM     32  C   UNL A   1      40.748  28.800  29.613  1.00  0.00     0.049 A 
ATOM     33  N   UNL A   1      42.997  30.788  29.165  1.00  0.00    -0.248 NA
ATOM     34  C   UNL A   1      41.808  32.321  30.465  1.00  0.00     0.031 C 
ATOM     35  C   UNL A   1      39.694  27.811  29.839  1.00  0.00     0.029 A 
ATOM     36  N   UNL A   1      41.683  28.133  28.869  1.00  0.00    -0.354 N 
ATOM     37  C   UNL A   1      43.716  31.974  29.259  1.00  0.00     0.074 A 
ATOM     38  C   UNL A   1      42.924  32.895  30.041  1.00  0.00     0.031 C 
ATOM     39  C   UNL A   1      40.049  26.653  29.255  1.00  0.00     0.029 A 
ATOM     40  C   UNL A   1      41.333  26.836  28.584  1.00  0.00     0.049 A 
ATOM     41  H   UNL A   1      42.525  28.543  28.566  1.00  0.00     0.167 HD
ATOM     42  C   UNL A   1      44.931  32.258  28.740  1.00  0.00     0.037 A 
ATOM     43  C   UNL A   1      41.979  25.911  27.850  1.00  0.00     0.037 A 
ATOM     44  C   UNL A   1      45.712  31.320  27.978  1.00  0.00     0.049 A 
ATOM     45  C   UNL A   1      43.306  26.279  27.241  1.00  0.00     0.074 A 
ATOM     46  C   UNL A   1      46.965  31.492  27.419  1.00  0.00     0.029 A 
ATOM     47  N   UNL A   1      45.307  30.030  27.666  1.00  0.00    -0.354 N 
ATOM     48  N   UNL A   1      43.988  27.396  27.345  1.00  0.00    -0.248 NA
ATOM     49  C   UNL A   1      43.956  25.255  26.413  1.00  0.00     0.031 C 
ATOM     50  C   UNL A   1      47.291  30.325  26.718  1.00  0.00     0.029 A 
ATOM     51  C   UNL A   1      46.272  29.403  26.895  1.00  0.00     0.049 A 
ATOM     52  H   UNL A   1      44.458  29.620  27.950  1.00  0.00     0.167 HD
ATOM     53  C   UNL A   1      45.158  27.198  26.625  1.00  0.00     0.074 A 
ATOM     54  C   UNL A   1      45.103  25.843  26.112  1.00  0.00     0.031 C 
ATOM     55  C   UNL A   1      46.188  28.053  26.400  1.00  0.00     0.037 A 
BRANCH  42  56
ATOM     56  C   UNL A   1      45.467  33.646  28.941  1.00  0.00     0.057 A 
ATOM     57  C   UNL A   1      46.299  33.982  30.017  1.00  0.00     0.134 A 
ATOM     58  C   UNL A   1      45.162  34.659  28.022  1.00  0.00     0.134 A 
ATOM     59  F   UNL A   1      46.612  33.066  30.947  1.00  0.00    -0.206 F 
ATOM     60  C   UNL A   1      46.792  35.278  30.182  1.00  0.00     0.040 A 
ATOM     61  C   UNL A   1      45.673  35.951  28.161  1.00  0.00     0.040 A 
ATOM     62  F   UNL A   1      44.369  34.408  26.970  1.00  0.00    -0.206 F 
ATOM     63  C   UNL A   1      46.487  36.264  29.247  1.00  0.00     0.006 A 
ENDBRANCH  42  56
BRANCH  43  64
ATOM     64  C   UNL A   1      41.391  24.564  27.639  1.00  0.00     0.057 A 
ATOM     65  C   UNL A   1      40.354  24.358  26.721  1.00  0.00     0.134 A 
ATOM     66  C   UNL A   1      41.818  23.456  28.384  1.00  0.00     0.134 A 
ATOM     67  F   UNL A   1      39.886  25.381  25.992  1.00  0.00    -0.206 F 
ATOM     68  C   UNL A   1      39.742  23.111  26.574  1.00  0.00     0.040 A 
ATOM     69  C   UNL A   1      41.237  22.197  28.223  1.00  0.00     0.040 A 
ATOM     70  F   UNL A   1      42.808  23.582  29.279  1.00  0.00    -0.206 F 
ATOM     71  C   UNL A   1      40.187  22.025  27.324  1.00  0.00     0.006 A 
ENDBRANCH  43  64
BRANCH  55  72
ATOM     72  C   UNL A   1      47.344  27.523  25.601  1.00  0.00     0.057 A 
ATOM     73  C   UNL A   1      47.401  27.643  24.207  1.00  0.00     0.134 A 
ATOM     74  C   UNL A   1      48.411  26.877  26.240  1.00  0.00     0.134 A 
ATOM     75  F   UNL A   1      46.407  28.241  23.534  1.00  0.00    -0.206 F 
ATOM     76  C   UNL A   1      48.455  27.098  23.472  1.00  0.00     0.040 A 
ATOM     77  C   UNL A   1      49.488  26.361  25.518  1.00  0.00     0.040 A 
ATOM     78  F   UNL A   1      48.427  26.741  27.574  1.00  0.00    -0.206 F 
ATOM     79  C   UNL A   1      49.504  26.458  24.128  1.00  0.00     0.006 A 
ENDBRANCH  55  72
ENDBRANCH  29  30
ENDBRANCH  22  24
ENDBRANCH  21  22
ENDBRANCH  20  21
ENDBRANCH  19  20
ENDBRANCH   1  19
TORSDOF 17
ENDMDL
MODEL 3
REMARK VINA RESULT:     -10.1      5.971     11.393
REMARK SMILES Cc1csc(CSCC[C@H]([NH3+])C(=O)OCCOC(=O)c2ccc(-c3c4nc(c(-c5c(F)cccc5F)c5ccc([nH]5)c(-c5c(F)cccc5F)c5nc(c(-c6c(F)cccc6F)c6ccc3[nH]6)C=C5)C=C4)cc2)n1
REMARK SMILES IDX 14 1 12 2 13 3 10 4 9 5 8 6 7 7 6 8 5 9 1 10 2 11 3 12 74 13
REMARK SMILES IDX 4 14 11 15 15 19 16 20 17 21 18 22 19 23 20 24 21 25 73 26
REMARK SMILES IDX 22 27 72 28 23 29 24 30 25 31 66 32 26 33 71 34 65 35 67 36
REMARK SMILES IDX 27 37 70 38 64 39 63 40 28 42 54 43 37 44 53 45 38 46 41 47
REMARK SMILES IDX 52 48 68 49 39 50 40 51 51 53 69 54 42 55 29 56 30 57 35 58
REMARK SMILES IDX 31 59 32 60 34 61 36 62 33 63 55 64 56 65 61 66 57 67 58 68
REMARK SMILES IDX 60 69 62 70 59 71 43 72 44 73 49 74 45 75 46 76 48 77 50 78
REMARK SMILES IDX 47 79
REMARK H PARENT 11 16 11 17 11 18 67 41 41 52
REMARK Flexibility Score: inf
ROOT
ATOM      1  O   UNL A   1      32.918  34.953  31.063  1.00  0.00    -0.458 OA
ENDROOT
BRANCH   1   2
ATOM      2  C   UNL A   1      33.014  36.067  30.285  1.00  0.00     0.364 C 
ATOM      3  O   UNL A   1      32.900  37.212  30.700  1.00  0.00    -0.245 OA
BRANCH   2   4
ATOM      4  C   UNL A   1      33.273  35.719  28.807  1.00  0.00     0.292 C 
BRANCH   4   5
ATOM      5  C   UNL A   1      33.157  34.219  28.496  1.00  0.00     0.088 C 
BRANCH   5   6
ATOM      6  C   UNL A   1      34.430  33.420  28.200  1.00  0.00     0.077 C 
BRANCH   6   7
ATOM      7  S   UNL A   1      34.273  31.612  27.984  1.00  0.00    -0.154 SA
BRANCH   7   8
ATOM      8  C   UNL A   1      32.631  31.376  27.252  1.00  0.00     0.137 C 
BRANCH   8   9
ATOM      9  C   UNL A   1      32.360  30.085  26.528  1.00  0.00     0.103 A 
ATOM     10  C   UNL A   1      30.687  28.400  23.814  1.00  0.00     0.067 C 
ATOM     11  C   UNL A   1      31.416  28.692  25.069  1.00  0.00     0.049 A 
ATOM     12  C   UNL A   1      31.880  27.764  25.976  1.00  0.00     0.090 A 
ATOM     13  N   UNL A   1      31.676  30.013  25.402  1.00  0.00    -0.246 NA
ATOM     14  S   UNL A   1      32.746  28.550  27.208  1.00  0.00    -0.126 S 
ENDBRANCH   8   9
ENDBRANCH   7   8
ENDBRANCH   6   7
ENDBRANCH   5   6
ENDBRANCH   4   5
BRANCH   4  15
ATOM     15  N   UNL A   1      34.507  36.332  28.263  1.00  0.00    -0.346 N 
ATOM     16  H   UNL A   1      35.255  35.638  28.252  1.00  0.00     0.345 HD
ATOM     17  H   UNL A   1      34.782  37.121  28.848  1.00  0.00     0.345 HD
ATOM     18  H   UNL A   1      34.333  36.659  27.312  1.00  0.00     0.345 HD
ENDBRANCH   4  15
ENDBRANCH   2   4
ENDBRANCH   1   2
BRANCH   1  19
ATOM     19  C   UNL A   1      33.640  34.907  32.314  1.00  0.00     0.274 C 
BRANCH  19  20
ATOM     20  C   UNL A   1      35.091  34.493  32.060  1.00  0.00     0.275 C 
BRANCH  20  21
ATOM     21  O   UNL A   1      35.162  33.062  31.965  1.00  0.00    -0.458 OA
BRANCH  21  22
ATOM     22  C   UNL A   1      36.069  32.492  32.792  1.00  0.00     0.338 C 
ATOM     23  O   UNL A   1      35.976  32.333  34.000  1.00  0.00    -0.246 OA
BRANCH  22  24
ATOM     24  C   UNL A   1      37.083  31.825  31.963  1.00  0.00     0.060 A 
ATOM     25  C   UNL A   1      38.153  31.226  32.635  1.00  0.00     0.016 A 
ATOM     26  C   UNL A   1      36.987  31.761  30.572  1.00  0.00     0.016 A 
ATOM     27  C   UNL A   1      39.139  30.565  31.922  1.00  0.00     0.010 A 
ATOM     28  C   UNL A   1      37.990  31.113  29.851  1.00  0.00     0.010 A 
ATOM     29  C   UNL A   1      39.080  30.536  30.526  1.00  0.00    -0.014 A 
BRANCH  29  30
ATOM     30  C   UNL A   1      40.257  30.040  29.787  1.00  0.00     0.031 A 
ATOM     31  C   UNL A   1      41.421  30.968  29.595  1.00  0.00     0.074 A 
ATOM     32  C   UNL A   1      40.307  28.759  29.384  1.00  0.00     0.049 A 
ATOM     33  N   UNL A   1      42.566  30.751  29.006  1.00  0.00    -0.248 NA
ATOM     34  C   UNL A   1      41.274  32.327  30.145  1.00  0.00     0.031 C 
ATOM     35  C   UNL A   1      39.248  27.769  29.581  1.00  0.00     0.029 A 
ATOM     36  N   UNL A   1      41.299  28.069  28.741  1.00  0.00    -0.354 N 
ATOM     37  C   UNL A   1      43.266  31.948  29.095  1.00  0.00     0.074 A 
ATOM     38  C   UNL A   1      42.412  32.895  29.775  1.00  0.00     0.031 C 
ATOM     39  C   UNL A   1      39.654  26.590  29.078  1.00  0.00     0.029 A 
ATOM     40  C   UNL A   1      40.981  26.756  28.493  1.00  0.00     0.049 A 
ATOM     41  H   UNL A   1      42.157  28.475  28.480  1.00  0.00     0.167 HD
ATOM     42  C   UNL A   1      44.514  32.222  28.652  1.00  0.00     0.037 A 
ATOM     43  C   UNL A   1      41.687  25.807  27.851  1.00  0.00     0.037 A 
ATOM     44  C   UNL A   1      45.355  31.259  27.992  1.00  0.00     0.049 A 
ATOM     45  C   UNL A   1      43.051  26.162  27.321  1.00  0.00     0.074 A 
ATOM     46  C   UNL A   1      46.644  31.420  27.516  1.00  0.00     0.029 A 
ATOM     47  N   UNL A   1      44.984  29.951  27.712  1.00  0.00    -0.354 N 
ATOM     48  N   UNL A   1      43.714  27.291  27.422  1.00  0.00    -0.248 NA
ATOM     49  C   UNL A   1      43.767  25.108  26.591  1.00  0.00     0.031 C 
ATOM     50  C   UNL A   1      47.029  30.226  26.895  1.00  0.00     0.029 A 
ATOM     51  C   UNL A   1      46.007  29.302  27.043  1.00  0.00     0.049 A 
ATOM     52  H   UNL A   1      44.120  29.545  27.954  1.00  0.00     0.167 HD
ATOM     53  C   UNL A   1      44.935  27.073  26.797  1.00  0.00     0.074 A 
ATOM     54  C   UNL A   1      44.928  25.695  26.345  1.00  0.00     0.031 C 
ATOM     55  C   UNL A   1      45.971  27.929  26.606  1.00  0.00     0.037 A 
BRANCH  42  56
ATOM     56  C   UNL A   1      45.022  33.624  28.825  1.00  0.00     0.057 A 
ATOM     57  C   UNL A   1      44.787  34.631  27.879  1.00  0.00     0.134 A 
ATOM     58  C   UNL A   1      45.741  33.976  29.975  1.00  0.00     0.134 A 
ATOM     59  F   UNL A   1      44.126  34.357  26.744  1.00  0.00    -0.206 F 
ATOM     60  C   UNL A   1      45.263  35.931  28.063  1.00  0.00     0.040 A 
ATOM     61  C   UNL A   1      46.197  35.279  30.183  1.00  0.00     0.040 A 
ATOM     62  F   UNL A   1      46.005  33.061  30.920  1.00  0.00    -0.206 F 
ATOM     63  C   UNL A   1      45.962  36.260  29.222  1.00  0.00     0.006 A 
ENDBRANCH  42  56
BRANCH  43  64
ATOM     64  C   UNL A   1      41.126  24.444  27.661  1.00  0.00     0.057 A 
ATOM     65  C   UNL A   1      41.622  23.347  28.375  1.00  0.00     0.134 A 
ATOM     66  C   UNL A   1      40.112  24.197  26.726  1.00  0.00     0.134 A 
ATOM     67  F   UNL A   1      42.606  23.513  29.270  1.00  0.00    -0.206 F 
ATOM     68  C   UNL A   1      41.155  22.051  28.145  1.00  0.00     0.040 A 
ATOM     69  C   UNL A   1      39.613  22.911  26.509  1.00  0.00     0.040 A 
ATOM     70  F   UNL A   1      39.591  25.202  26.009  1.00  0.00    -0.206 F 
ATOM     71  C   UNL A   1      40.144  21.831  27.212  1.00  0.00     0.006 A 
ENDBRANCH  43  64
BRANCH  55  72
ATOM     72  C   UNL A   1      47.185  27.376  25.918  1.00  0.00     0.057 A 
ATOM     73  C   UNL A   1      47.351  27.451  24.529  1.00  0.00     0.134 A 
ATOM     74  C   UNL A   1      48.200  26.755  26.658  1.00  0.00     0.134 A 
ATOM     75  F   UNL A   1      46.411  28.023  23.761  1.00  0.00    -0.206 F 
ATOM     76  C   UNL A   1      48.458  26.885  23.896  1.00  0.00     0.040 A 
ATOM     77  C   UNL A   1      49.329  26.219  26.040  1.00  0.00     0.040 A 
ATOM     78  F   UNL A   1      48.112  26.663  27.993  1.00  0.00    -0.206 F 
ATOM     79  C   UNL A   1      49.454  26.270  24.653  1.00  0.00     0.006 A 
ENDBRANCH  55  72
ENDBRANCH  29  30
ENDBRANCH  22  24
ENDBRANCH  21  22
ENDBRANCH  20  21
ENDBRANCH  19  20
ENDBRANCH   1  19
TORSDOF 17
ENDMDL
