MODEL 1
REMARK VINA RESULT:     -11.8      0.000      0.000
REMARK SMILES COc1cc([C@@H]2Oc3c(OC)cc(/C=C/C(=O)OCCOC(=O)c4ccc(-c5c6nc(c(-c7c(F)cccc7F)c7ccc([nH]7)c(-c7c(F)cccc7F)c7nc(c(-c8c(F)cccc8F)c8ccc5[nH]8)C=C7)C=C6)cc4)cc3[C@@H]2CO)ccc1O
REMARK SMILES IDX 19 1 18 2 16 3 17 4 15 5 14 6 13 7 6 8 7 9 80 10 8 11 79 12
REMARK SMILES IDX 9 13 78 14 12 15 5 16 3 17 4 18 85 19 84 20 83 21 2 22 1 23
REMARK SMILES IDX 86 24 81 26 82 27 10 29 11 30 20 31 21 32 22 33 23 34 24 35
REMARK SMILES IDX 25 36 77 37 26 38 76 39 27 40 28 41 29 42 70 43 30 44 75 45
REMARK SMILES IDX 69 46 71 47 31 48 74 49 68 50 67 51 32 53 58 54 41 55 57 56
REMARK SMILES IDX 42 57 45 58 56 59 72 60 43 61 44 62 55 64 73 65 46 66 33 67
REMARK SMILES IDX 34 68 39 69 35 70 36 71 38 72 40 73 37 74 59 75 60 76 65 77
REMARK SMILES IDX 61 78 62 79 64 80 66 81 63 82 47 83 48 84 53 85 49 86 50 87
REMARK SMILES IDX 52 88 54 89 51 90
REMARK H PARENT 86 25 82 28 71 52 45 63
REMARK Flexibility Score: inf
ROOT
ATOM      1  C   UNL A   1      38.175  21.284  25.404  1.00  0.00     0.275 C 
ENDROOT
BRANCH   1   2
ATOM      2  O   UNL A   1      36.971  21.372  24.619  1.00  0.00    -0.459 OA
BRANCH   2   3
ATOM      3  C   UNL A   1      35.879  21.818  25.279  1.00  0.00     0.330 C 
ATOM      4  O   UNL A   1      35.325  21.267  26.219  1.00  0.00    -0.247 OA
BRANCH   3   5
ATOM      5  C   UNL A   1      35.396  23.115  24.772  1.00  0.00     0.094 C 
ATOM      6  C   UNL A   1      34.645  24.005  25.441  1.00  0.00     0.016 C 
BRANCH   6   7
ATOM      7  C   UNL A   1      34.144  25.232  24.797  1.00  0.00    -0.021 A 
ATOM      8  C   UNL A   1      32.213  29.398  24.214  1.00  0.00     0.214 C 
ATOM      9  O   UNL A   1      32.959  28.813  23.092  1.00  0.00    -0.481 OA
ATOM     10  C   UNL A   1      32.952  28.840  25.461  1.00  0.00     0.094 C 
ATOM     11  C   UNL A   1      33.295  27.556  23.538  1.00  0.00     0.165 A 
ATOM     12  C   UNL A   1      33.323  27.487  24.932  1.00  0.00     0.008 A 
ATOM     13  C   UNL A   1      33.618  26.471  22.743  1.00  0.00     0.161 A 
ATOM     14  C   UNL A   1      33.752  26.333  25.575  1.00  0.00     0.016 A 
ATOM     15  C   UNL A   1      34.034  25.308  23.391  1.00  0.00     0.058 A 
BRANCH   8  16
ATOM     16  C   UNL A   1      30.732  29.195  23.875  1.00  0.00    -0.003 A 
ATOM     17  C   UNL A   1      28.482  29.890  23.241  1.00  0.00     0.160 A 
ATOM     18  C   UNL A   1      29.815  30.206  23.553  1.00  0.00     0.058 A 
ATOM     19  C   UNL A   1      28.053  28.563  23.222  1.00  0.00     0.157 A 
ATOM     20  C   UNL A   1      28.933  27.544  23.528  1.00  0.00     0.050 A 
ATOM     21  C   UNL A   1      30.261  27.860  23.812  1.00  0.00     0.011 A 
BRANCH  17  22
ATOM     22  O   UNL A   1      27.655  30.907  22.836  1.00  0.00    -0.493 OA
ATOM     23  C   UNL A   1      28.309  32.176  22.887  1.00  0.00     0.278 C 
ENDBRANCH  17  22
BRANCH  19  24
ATOM     24  O   UNL A   1      26.792  28.212  22.841  1.00  0.00    -0.504 OA
ATOM     25  H   UNL A   1      26.189  28.869  22.553  1.00  0.00     0.293 HD
ENDBRANCH  19  24
ENDBRANCH   8  16
BRANCH  10  26
ATOM     26  C   UNL A   1      32.260  28.917  26.810  1.00  0.00     0.168 C 
BRANCH  26  27
ATOM     27  O   UNL A   1      31.832  30.252  27.091  1.00  0.00    -0.396 OA
ATOM     28  H   UNL A   1      32.348  30.608  27.832  1.00  0.00     0.210 HD
ENDBRANCH  26  27
ENDBRANCH  10  26
BRANCH  13  29
ATOM     29  O   UNL A   1      33.610  26.397  21.382  1.00  0.00    -0.493 OA
ATOM     30  C   UNL A   1      32.498  25.729  20.802  1.00  0.00     0.278 C 
ENDBRANCH  13  29
ENDBRANCH   6   7
ENDBRANCH   3   5
ENDBRANCH   2   3
ENDBRANCH   1   2
BRANCH   1  31
ATOM     31  C   UNL A   1      38.909  19.965  25.152  1.00  0.00     0.275 C 
BRANCH  31  32
ATOM     32  O   UNL A   1      39.684  19.550  26.294  1.00  0.00    -0.458 OA
BRANCH  32  33
ATOM     33  C   UNL A   1      41.025  19.598  26.132  1.00  0.00     0.338 C 
ATOM     34  O   UNL A   1      41.737  18.748  25.608  1.00  0.00    -0.246 OA
BRANCH  33  35
ATOM     35  C   UNL A   1      41.540  20.901  26.580  1.00  0.00     0.060 A 
ATOM     36  C   UNL A   1      41.452  21.214  27.941  1.00  0.00     0.016 A 
ATOM     37  C   UNL A   1      42.046  21.835  25.672  1.00  0.00     0.016 A 
ATOM     38  C   UNL A   1      41.870  22.463  28.399  1.00  0.00     0.010 A 
ATOM     39  C   UNL A   1      42.463  23.089  26.133  1.00  0.00     0.010 A 
ATOM     40  C   UNL A   1      42.370  23.414  27.497  1.00  0.00    -0.014 A 
BRANCH  40  41
ATOM     41  C   UNL A   1      42.767  24.758  27.985  1.00  0.00     0.031 A 
ATOM     42  C   UNL A   1      41.723  25.810  28.227  1.00  0.00     0.074 A 
ATOM     43  C   UNL A   1      44.063  25.029  28.222  1.00  0.00     0.049 A 
ATOM     44  N   UNL A   1      41.874  27.050  28.619  1.00  0.00    -0.248 NA
ATOM     45  C   UNL A   1      40.326  25.416  27.996  1.00  0.00     0.031 C 
ATOM     46  C   UNL A   1      45.166  24.084  28.049  1.00  0.00     0.029 A 
ATOM     47  N   UNL A   1      44.670  26.179  28.660  1.00  0.00    -0.354 N 
ATOM     48  C   UNL A   1      40.595  27.588  28.676  1.00  0.00     0.074 A 
ATOM     49  C   UNL A   1      39.682  26.547  28.253  1.00  0.00     0.031 C 
ATOM     50  C   UNL A   1      46.316  24.693  28.379  1.00  0.00     0.029 A 
ATOM     51  C   UNL A   1      46.036  26.077  28.754  1.00  0.00     0.049 A 
ATOM     52  H   UNL A   1      44.173  26.998  28.886  1.00  0.00     0.167 HD
ATOM     53  C   UNL A   1      40.216  28.832  29.055  1.00  0.00     0.037 A 
ATOM     54  C   UNL A   1      46.958  27.001  29.083  1.00  0.00     0.037 A 
ATOM     55  C   UNL A   1      41.123  29.865  29.484  1.00  0.00     0.049 A 
ATOM     56  C   UNL A   1      46.517  28.393  29.440  1.00  0.00     0.074 A 
ATOM     57  C   UNL A   1      40.830  31.147  29.916  1.00  0.00     0.029 A 
ATOM     58  N   UNL A   1      42.504  29.737  29.526  1.00  0.00    -0.354 N 
ATOM     59  N   UNL A   1      45.302  28.883  29.515  1.00  0.00    -0.248 NA
ATOM     60  C   UNL A   1      47.575  29.364  29.752  1.00  0.00     0.031 C 
ATOM     61  C   UNL A   1      42.035  31.808  30.179  1.00  0.00     0.029 A 
ATOM     62  C   UNL A   1      43.077  30.925  29.949  1.00  0.00     0.049 A 
ATOM     63  H   UNL A   1      43.003  28.921  29.290  1.00  0.00     0.167 HD
ATOM     64  C   UNL A   1      45.449  30.210  29.897  1.00  0.00     0.074 A 
ATOM     65  C   UNL A   1      46.870  30.445  30.056  1.00  0.00     0.031 C 
ATOM     66  C   UNL A   1      44.493  31.148  30.097  1.00  0.00     0.037 A 
BRANCH  53  67
ATOM     67  C   UNL A   1      38.752  29.154  29.002  1.00  0.00     0.057 A 
ATOM     68  C   UNL A   1      37.934  29.062  30.135  1.00  0.00     0.134 A 
ATOM     69  C   UNL A   1      38.161  29.590  27.811  1.00  0.00     0.134 A 
ATOM     70  F   UNL A   1      38.436  28.639  31.305  1.00  0.00    -0.206 F 
ATOM     71  C   UNL A   1      36.574  29.373  30.079  1.00  0.00     0.040 A 
ATOM     72  C   UNL A   1      36.807  29.926  27.747  1.00  0.00     0.040 A 
ATOM     73  F   UNL A   1      38.890  29.706  26.691  1.00  0.00    -0.206 F 
ATOM     74  C   UNL A   1      36.008  29.812  28.883  1.00  0.00     0.006 A 
ENDBRANCH  53  67
BRANCH  54  75
ATOM     75  C   UNL A   1      48.398  26.642  29.078  1.00  0.00     0.057 A 
ATOM     76  C   UNL A   1      49.171  26.768  27.919  1.00  0.00     0.134 A 
ATOM     77  C   UNL A   1      49.030  26.156  30.228  1.00  0.00     0.134 A 
ATOM     78  F   UNL A   1      48.615  27.204  26.779  1.00  0.00    -0.206 F 
ATOM     79  C   UNL A   1      50.521  26.415  27.901  1.00  0.00     0.040 A 
ATOM     80  C   UNL A   1      50.385  25.821  30.232  1.00  0.00     0.040 A 
ATOM     81  F   UNL A   1      48.341  26.010  31.369  1.00  0.00    -0.206 F 
ATOM     82  C   UNL A   1      51.133  25.945  29.062  1.00  0.00     0.006 A 
ENDBRANCH  54  75
BRANCH  66  83
ATOM     83  C   UNL A   1      44.950  32.513  30.522  1.00  0.00     0.057 A 
ATOM     84  C   UNL A   1      45.197  33.529  29.590  1.00  0.00     0.134 A 
ATOM     85  C   UNL A   1      45.112  32.825  31.878  1.00  0.00     0.134 A 
ATOM     86  F   UNL A   1      45.074  33.290  28.275  1.00  0.00    -0.206 F 
ATOM     87  C   UNL A   1      45.607  34.802  29.990  1.00  0.00     0.040 A 
ATOM     88  C   UNL A   1      45.499  34.100  32.292  1.00  0.00     0.040 A 
ATOM     89  F   UNL A   1      44.884  31.898  32.821  1.00  0.00    -0.206 F 
ATOM     90  C   UNL A   1      45.752  35.092  31.346  1.00  0.00     0.006 A 
ENDBRANCH  66  83
ENDBRANCH  40  41
ENDBRANCH  33  35
ENDBRANCH  32  33
ENDBRANCH  31  32
ENDBRANCH   1  31
TORSDOF 18
ENDMDL
MODEL 2
REMARK VINA RESULT:     -11.7      5.800     11.647
REMARK SMILES COc1cc([C@@H]2Oc3c(OC)cc(/C=C/C(=O)OCCOC(=O)c4ccc(-c5c6nc(c(-c7c(F)cccc7F)c7ccc([nH]7)c(-c7c(F)cccc7F)c7nc(c(-c8c(F)cccc8F)c8ccc5[nH]8)C=C7)C=C6)cc4)cc3[C@@H]2CO)ccc1O
REMARK SMILES IDX 19 1 18 2 16 3 17 4 15 5 14 6 13 7 6 8 7 9 80 10 8 11 79 12
REMARK SMILES IDX 9 13 78 14 12 15 5 16 3 17 4 18 85 19 84 20 83 21 2 22 1 23
REMARK SMILES IDX 86 24 81 26 82 27 10 29 11 30 20 31 21 32 22 33 23 34 24 35
REMARK SMILES IDX 25 36 77 37 26 38 76 39 27 40 28 41 29 42 70 43 30 44 75 45
REMARK SMILES IDX 69 46 71 47 31 48 74 49 68 50 67 51 32 53 58 54 41 55 57 56
REMARK SMILES IDX 42 57 45 58 56 59 72 60 43 61 44 62 55 64 73 65 46 66 33 67
REMARK SMILES IDX 34 68 39 69 35 70 36 71 38 72 40 73 37 74 59 75 60 76 65 77
REMARK SMILES IDX 61 78 62 79 64 80 66 81 63 82 47 83 48 84 53 85 49 86 50 87
REMARK SMILES IDX 52 88 54 89 51 90
REMARK H PARENT 86 25 82 28 71 52 45 63
REMARK Flexibility Score: inf
ROOT
ATOM      1  C   UNL A   1      45.613  22.974  35.954  1.00  0.00     0.275 C 
ENDROOT
BRANCH   1   2
ATOM      2  O   UNL A   1      45.481  23.210  34.540  1.00  0.00    -0.459 OA
BRANCH   2   3
ATOM      3  C   UNL A   1      44.213  23.236  34.072  1.00  0.00     0.330 C 
ATOM      4  O   UNL A   1      43.193  23.289  34.744  1.00  0.00    -0.247 OA
BRANCH   3   5
ATOM      5  C   UNL A   1      44.149  23.229  32.599  1.00  0.00     0.094 C 
ATOM      6  C   UNL A   1      44.529  24.223  31.778  1.00  0.00     0.016 C 
BRANCH   6   7
ATOM      7  C   UNL A   1      44.331  24.138  30.320  1.00  0.00    -0.021 A 
ATOM      8  C   UNL A   1      42.607  22.933  26.198  1.00  0.00     0.214 C 
ATOM      9  O   UNL A   1      43.544  24.061  26.257  1.00  0.00    -0.481 OA
ATOM     10  C   UNL A   1      41.878  23.004  27.567  1.00  0.00     0.094 C 
ATOM     11  C   UNL A   1      43.951  24.084  27.571  1.00  0.00     0.165 A 
ATOM     12  C   UNL A   1      43.016  23.486  28.417  1.00  0.00     0.008 A 
ATOM     13  C   UNL A   1      45.114  24.659  28.052  1.00  0.00     0.161 A 
ATOM     14  C   UNL A   1      43.190  23.510  29.796  1.00  0.00     0.016 A 
ATOM     15  C   UNL A   1      45.294  24.670  29.436  1.00  0.00     0.058 A 
BRANCH   8  16
ATOM     16  C   UNL A   1      43.421  21.747  25.668  1.00  0.00    -0.003 A 
ATOM     17  C   UNL A   1      43.944  19.392  25.314  1.00  0.00     0.160 A 
ATOM     18  C   UNL A   1      43.128  20.391  25.870  1.00  0.00     0.058 A 
ATOM     19  C   UNL A   1      45.046  19.730  24.529  1.00  0.00     0.157 A 
ATOM     20  C   UNL A   1      45.357  21.057  24.305  1.00  0.00     0.050 A 
ATOM     21  C   UNL A   1      44.530  22.045  24.838  1.00  0.00     0.011 A 
BRANCH  17  22
ATOM     22  O   UNL A   1      43.554  18.084  25.460  1.00  0.00    -0.493 OA
ATOM     23  C   UNL A   1      42.857  17.871  26.689  1.00  0.00     0.278 C 
ENDBRANCH  17  22
BRANCH  19  24
ATOM     24  O   UNL A   1      45.810  18.790  23.903  1.00  0.00    -0.504 OA
ATOM     25  H   UNL A   1      46.667  18.592  24.225  1.00  0.00     0.293 HD
ENDBRANCH  19  24
ENDBRANCH   8  16
BRANCH  10  26
ATOM     26  C   UNL A   1      41.097  21.791  28.038  1.00  0.00     0.168 C 
BRANCH  26  27
ATOM     27  O   UNL A   1      39.891  21.635  27.286  1.00  0.00    -0.396 OA
ATOM     28  H   UNL A   1      39.317  20.988  27.726  1.00  0.00     0.210 HD
ENDBRANCH  26  27
ENDBRANCH  10  26
BRANCH  13  29
ATOM     29  O   UNL A   1      46.113  25.253  27.340  1.00  0.00    -0.493 OA
ATOM     30  C   UNL A   1      47.417  24.723  27.538  1.00  0.00     0.278 C 
ENDBRANCH  13  29
ENDBRANCH   6   7
ENDBRANCH   3   5
ENDBRANCH   2   3
ENDBRANCH   1   2
BRANCH   1  31
ATOM     31  C   UNL A   1      46.751  23.804  36.553  1.00  0.00     0.275 C 
BRANCH  31  32
ATOM     32  O   UNL A   1      47.114  24.914  35.711  1.00  0.00    -0.458 OA
BRANCH  32  33
ATOM     33  C   UNL A   1      46.882  26.139  36.234  1.00  0.00     0.338 C 
ATOM     34  O   UNL A   1      47.557  26.723  37.075  1.00  0.00    -0.246 OA
BRANCH  33  35
ATOM     35  C   UNL A   1      45.730  26.763  35.566  1.00  0.00     0.060 A 
ATOM     36  C   UNL A   1      45.970  27.829  34.692  1.00  0.00     0.016 A 
ATOM     37  C   UNL A   1      44.421  26.353  35.837  1.00  0.00     0.016 A 
ATOM     38  C   UNL A   1      44.902  28.489  34.086  1.00  0.00     0.010 A 
ATOM     39  C   UNL A   1      43.351  27.019  35.230  1.00  0.00     0.010 A 
ATOM     40  C   UNL A   1      43.583  28.096  34.358  1.00  0.00    -0.014 A 
BRANCH  40  41
ATOM     41  C   UNL A   1      42.451  28.836  33.748  1.00  0.00     0.031 A 
ATOM     42  C   UNL A   1      42.018  28.529  32.343  1.00  0.00     0.074 A 
ATOM     43  C   UNL A   1      41.804  29.776  34.461  1.00  0.00     0.049 A 
ATOM     44  N   UNL A   1      41.077  29.089  31.626  1.00  0.00    -0.248 NA
ATOM     45  C   UNL A   1      42.743  27.451  31.653  1.00  0.00     0.031 C 
ATOM     46  C   UNL A   1      42.113  30.148  35.841  1.00  0.00     0.029 A 
ATOM     47  N   UNL A   1      40.751  30.589  34.120  1.00  0.00    -0.354 N 
ATOM     48  C   UNL A   1      41.098  28.438  30.400  1.00  0.00     0.074 A 
ATOM     49  C   UNL A   1      42.163  27.459  30.460  1.00  0.00     0.031 C 
ATOM     50  C   UNL A   1      41.267  31.115  36.231  1.00  0.00     0.029 A 
ATOM     51  C   UNL A   1      40.381  31.454  35.120  1.00  0.00     0.049 A 
ATOM     52  H   UNL A   1      40.305  30.554  33.243  1.00  0.00     0.167 HD
ATOM     53  C   UNL A   1      40.296  28.633  29.325  1.00  0.00     0.037 A 
ATOM     54  C   UNL A   1      39.447  32.423  35.131  1.00  0.00     0.037 A 
ATOM     55  C   UNL A   1      39.232  29.600  29.267  1.00  0.00     0.049 A 
ATOM     56  C   UNL A   1      38.612  32.661  33.904  1.00  0.00     0.074 A 
ATOM     57  C   UNL A   1      38.346  29.849  28.232  1.00  0.00     0.029 A 
ATOM     58  N   UNL A   1      38.913  30.487  30.286  1.00  0.00    -0.354 N 
ATOM     59  N   UNL A   1      38.623  32.023  32.758  1.00  0.00    -0.248 NA
ATOM     60  C   UNL A   1      37.637  33.760  33.968  1.00  0.00     0.031 C 
ATOM     61  C   UNL A   1      37.520  30.915  28.608  1.00  0.00     0.029 A 
ATOM     62  C   UNL A   1      37.864  31.303  29.892  1.00  0.00     0.049 A 
ATOM     63  H   UNL A   1      39.366  30.530  31.159  1.00  0.00     0.167 HD
ATOM     64  C   UNL A   1      37.651  32.629  31.974  1.00  0.00     0.074 A 
ATOM     65  C   UNL A   1      37.056  33.676  32.780  1.00  0.00     0.031 C 
ATOM     66  C   UNL A   1      37.286  32.345  30.701  1.00  0.00     0.037 A 
BRANCH  53  67
ATOM     67  C   UNL A   1      40.555  27.792  28.110  1.00  0.00     0.057 A 
ATOM     68  C   UNL A   1      39.965  26.533  27.942  1.00  0.00     0.134 A 
ATOM     69  C   UNL A   1      41.381  28.262  27.081  1.00  0.00     0.134 A 
ATOM     70  F   UNL A   1      39.173  26.021  28.895  1.00  0.00    -0.206 F 
ATOM     71  C   UNL A   1      40.204  25.763  26.802  1.00  0.00     0.040 A 
ATOM     72  C   UNL A   1      41.610  27.511  25.927  1.00  0.00     0.040 A 
ATOM     73  F   UNL A   1      41.973  29.463  27.177  1.00  0.00    -0.206 F 
ATOM     74  C   UNL A   1      41.025  26.254  25.788  1.00  0.00     0.006 A 
ENDBRANCH  53  67
BRANCH  54  75
ATOM     75  C   UNL A   1      39.260  33.255  36.346  1.00  0.00     0.057 A 
ATOM     76  C   UNL A   1      38.396  32.856  37.371  1.00  0.00     0.134 A 
ATOM     77  C   UNL A   1      39.933  34.472  36.504  1.00  0.00     0.134 A 
ATOM     78  F   UNL A   1      37.703  31.713  37.264  1.00  0.00    -0.206 F 
ATOM     79  C   UNL A   1      38.200  33.642  38.508  1.00  0.00     0.040 A 
ATOM     80  C   UNL A   1      39.766  35.257  37.645  1.00  0.00     0.040 A 
ATOM     81  F   UNL A   1      40.773  34.910  35.555  1.00  0.00    -0.206 F 
ATOM     82  C   UNL A   1      38.891  34.844  38.649  1.00  0.00     0.006 A 
ENDBRANCH  54  75
BRANCH  66  83
ATOM     83  C   UNL A   1      36.183  33.169  30.104  1.00  0.00     0.057 A 
ATOM     84  C   UNL A   1      34.845  32.988  30.478  1.00  0.00     0.134 A 
ATOM     85  C   UNL A   1      36.464  34.175  29.171  1.00  0.00     0.134 A 
ATOM     86  F   UNL A   1      34.508  32.031  31.356  1.00  0.00    -0.206 F 
ATOM     87  C   UNL A   1      33.824  33.767  29.931  1.00  0.00     0.040 A 
ATOM     88  C   UNL A   1      35.454  34.975  28.635  1.00  0.00     0.040 A 
ATOM     89  F   UNL A   1      37.725  34.404  28.776  1.00  0.00    -0.206 F 
ATOM     90  C   UNL A   1      34.128  34.769  29.012  1.00  0.00     0.006 A 
ENDBRANCH  66  83
ENDBRANCH  40  41
ENDBRANCH  33  35
ENDBRANCH  32  33
ENDBRANCH  31  32
ENDBRANCH   1  31
TORSDOF 18
ENDMDL
MODEL 3
REMARK VINA RESULT:     -11.6      1.320      2.419
REMARK SMILES COc1cc([C@@H]2Oc3c(OC)cc(/C=C/C(=O)OCCOC(=O)c4ccc(-c5c6nc(c(-c7c(F)cccc7F)c7ccc([nH]7)c(-c7c(F)cccc7F)c7nc(c(-c8c(F)cccc8F)c8ccc5[nH]8)C=C7)C=C6)cc4)cc3[C@@H]2CO)ccc1O
REMARK SMILES IDX 19 1 18 2 16 3 17 4 15 5 14 6 13 7 6 8 7 9 80 10 8 11 79 12
REMARK SMILES IDX 9 13 78 14 12 15 5 16 3 17 4 18 85 19 84 20 83 21 2 22 1 23
REMARK SMILES IDX 86 24 81 26 82 27 10 29 11 30 20 31 21 32 22 33 23 34 24 35
REMARK SMILES IDX 25 36 77 37 26 38 76 39 27 40 28 41 29 42 70 43 30 44 75 45
REMARK SMILES IDX 69 46 71 47 31 48 74 49 68 50 67 51 32 53 58 54 41 55 57 56
REMARK SMILES IDX 42 57 45 58 56 59 72 60 43 61 44 62 55 64 73 65 46 66 33 67
REMARK SMILES IDX 34 68 39 69 35 70 36 71 38 72 40 73 37 74 59 75 60 76 65 77
REMARK SMILES IDX 61 78 62 79 64 80 66 81 63 82 47 83 48 84 53 85 49 86 50 87
REMARK SMILES IDX 52 88 54 89 51 90
REMARK H PARENT 86 25 82 28 71 52 45 63
REMARK Flexibility Score: inf
ROOT
ATOM      1  C   UNL A   1      37.664  20.591  25.104  1.00  0.00     0.275 C 
ENDROOT
BRANCH   1   2
ATOM      2  O   UNL A   1      38.100  21.928  24.794  1.00  0.00    -0.459 OA
BRANCH   2   3
ATOM      3  C   UNL A   1      37.702  22.884  25.663  1.00  0.00     0.330 C 
ATOM      4  O   UNL A   1      38.327  23.288  26.632  1.00  0.00    -0.247 OA
BRANCH   3   5
ATOM      5  C   UNL A   1      36.392  23.463  25.313  1.00  0.00     0.094 C 
ATOM      6  C   UNL A   1      35.261  23.373  26.033  1.00  0.00     0.016 C 
BRANCH   6   7
ATOM      7  C   UNL A   1      33.984  23.915  25.535  1.00  0.00    -0.021 A 
ATOM      8  C   UNL A   1      30.891  26.067  22.848  1.00  0.00     0.214 C 
ATOM      9  O   UNL A   1      30.395  25.231  23.948  1.00  0.00    -0.481 OA
ATOM     10  C   UNL A   1      32.208  25.359  22.430  1.00  0.00     0.094 C 
ATOM     11  C   UNL A   1      31.537  24.841  24.609  1.00  0.00     0.165 A 
ATOM     12  C   UNL A   1      32.658  24.879  23.777  1.00  0.00     0.008 A 
ATOM     13  C   UNL A   1      31.610  24.412  25.921  1.00  0.00     0.161 A 
ATOM     14  C   UNL A   1      33.888  24.413  24.226  1.00  0.00     0.016 A 
ATOM     15  C   UNL A   1      32.850  23.958  26.375  1.00  0.00     0.058 A 
BRANCH   8  16
ATOM     16  C   UNL A   1      30.758  27.514  23.337  1.00  0.00    -0.003 A 
ATOM     17  C   UNL A   1      29.731  29.720  23.495  1.00  0.00     0.160 A 
ATOM     18  C   UNL A   1      29.757  28.421  22.961  1.00  0.00     0.058 A 
ATOM     19  C   UNL A   1      30.687  30.123  24.428  1.00  0.00     0.157 A 
ATOM     20  C   UNL A   1      31.681  29.250  24.824  1.00  0.00     0.050 A 
ATOM     21  C   UNL A   1      31.687  27.954  24.310  1.00  0.00     0.011 A 
BRANCH  17  22
ATOM     22  O   UNL A   1      28.673  30.532  23.170  1.00  0.00    -0.493 OA
ATOM     23  C   UNL A   1      28.079  30.157  21.926  1.00  0.00     0.278 C 
ENDBRANCH  17  22
BRANCH  19  24
ATOM     24  O   UNL A   1      30.644  31.344  25.032  1.00  0.00    -0.504 OA
ATOM     25  H   UNL A   1      30.657  32.124  24.514  1.00  0.00     0.293 HD
ENDBRANCH  19  24
ENDBRANCH   8  16
BRANCH  10  26
ATOM     26  C   UNL A   1      33.202  26.122  21.573  1.00  0.00     0.168 C 
BRANCH  26  27
ATOM     27  O   UNL A   1      32.921  25.945  20.183  1.00  0.00    -0.396 OA
ATOM     28  H   UNL A   1      32.252  26.590  19.903  1.00  0.00     0.210 HD
ENDBRANCH  26  27
ENDBRANCH  10  26
BRANCH  13  29
ATOM     29  O   UNL A   1      30.606  24.346  26.840  1.00  0.00    -0.493 OA
ATOM     30  C   UNL A   1      29.952  23.089  26.956  1.00  0.00     0.278 C 
ENDBRANCH  13  29
ENDBRANCH   6   7
ENDBRANCH   3   5
ENDBRANCH   2   3
ENDBRANCH   1   2
BRANCH   1  31
ATOM     31  C   UNL A   1      38.806  19.583  24.945  1.00  0.00     0.275 C 
BRANCH  31  32
ATOM     32  O   UNL A   1      39.538  19.396  26.172  1.00  0.00    -0.458 OA
BRANCH  32  33
ATOM     33  C   UNL A   1      40.870  19.608  26.088  1.00  0.00     0.338 C 
ATOM     34  O   UNL A   1      41.702  18.878  25.560  1.00  0.00    -0.246 OA
BRANCH  33  35
ATOM     35  C   UNL A   1      41.206  20.931  26.636  1.00  0.00     0.060 A 
ATOM     36  C   UNL A   1      41.591  21.938  25.744  1.00  0.00     0.016 A 
ATOM     37  C   UNL A   1      41.207  21.169  28.013  1.00  0.00     0.016 A 
ATOM     38  C   UNL A   1      41.978  23.187  26.226  1.00  0.00     0.010 A 
ATOM     39  C   UNL A   1      41.598  22.423  28.495  1.00  0.00     0.010 A 
ATOM     40  C   UNL A   1      41.994  23.437  27.606  1.00  0.00    -0.014 A 
BRANCH  40  41
ATOM     41  C   UNL A   1      42.455  24.753  28.113  1.00  0.00     0.031 A 
ATOM     42  C   UNL A   1      41.462  25.844  28.391  1.00  0.00     0.074 A 
ATOM     43  C   UNL A   1      43.766  24.963  28.336  1.00  0.00     0.049 A 
ATOM     44  N   UNL A   1      41.672  27.069  28.804  1.00  0.00    -0.248 NA
ATOM     45  C   UNL A   1      40.045  25.515  28.173  1.00  0.00     0.031 C 
ATOM     46  C   UNL A   1      44.825  23.977  28.129  1.00  0.00     0.029 A 
ATOM     47  N   UNL A   1      44.427  26.078  28.786  1.00  0.00    -0.354 N 
ATOM     48  C   UNL A   1      40.417  27.660  28.890  1.00  0.00     0.074 A 
ATOM     49  C   UNL A   1      39.454  26.667  28.461  1.00  0.00     0.031 C 
ATOM     50  C   UNL A   1      46.004  24.529  28.454  1.00  0.00     0.029 A 
ATOM     51  C   UNL A   1      45.789  25.916  28.858  1.00  0.00     0.049 A 
ATOM     52  H   UNL A   1      43.969  26.914  29.035  1.00  0.00     0.167 HD
ATOM     53  C   UNL A   1      40.098  28.912  29.297  1.00  0.00     0.037 A 
ATOM     54  C   UNL A   1      46.754  26.793  29.191  1.00  0.00     0.037 A 
ATOM     55  C   UNL A   1      41.055  29.896  29.731  1.00  0.00     0.049 A 
ATOM     56  C   UNL A   1      46.378  28.196  29.580  1.00  0.00     0.074 A 
ATOM     57  C   UNL A   1      40.823  31.181  30.192  1.00  0.00     0.029 A 
ATOM     58  N   UNL A   1      42.429  29.708  29.751  1.00  0.00    -0.354 N 
ATOM     59  N   UNL A   1      45.188  28.736  29.682  1.00  0.00    -0.248 NA
ATOM     60  C   UNL A   1      47.482  29.115  29.895  1.00  0.00     0.031 C 
ATOM     61  C   UNL A   1      42.059  31.785  30.449  1.00  0.00     0.029 A 
ATOM     62  C   UNL A   1      43.059  30.863  30.187  1.00  0.00     0.049 A 
ATOM     63  H   UNL A   1      42.889  28.877  29.492  1.00  0.00     0.167 HD
ATOM     64  C   UNL A   1      45.397  30.047  30.087  1.00  0.00     0.074 A 
ATOM     65  C   UNL A   1      46.829  30.219  30.228  1.00  0.00     0.031 C 
ATOM     66  C   UNL A   1      44.485  31.022  30.318  1.00  0.00     0.037 A 
BRANCH  53  67
ATOM     67  C   UNL A   1      38.649  29.296  29.273  1.00  0.00     0.057 A 
ATOM     68  C   UNL A   1      37.849  29.240  30.421  1.00  0.00     0.134 A 
ATOM     69  C   UNL A   1      38.054  29.758  28.092  1.00  0.00     0.134 A 
ATOM     70  F   UNL A   1      38.355  28.796  31.581  1.00  0.00    -0.206 F 
ATOM     71  C   UNL A   1      36.503  29.610  30.391  1.00  0.00     0.040 A 
ATOM     72  C   UNL A   1      36.715  30.152  28.054  1.00  0.00     0.040 A 
ATOM     73  F   UNL A   1      38.766  29.842  26.958  1.00  0.00    -0.206 F 
ATOM     74  C   UNL A   1      35.934  30.073  29.205  1.00  0.00     0.006 A 
ENDBRANCH  53  67
BRANCH  54  75
ATOM     75  C   UNL A   1      48.177  26.373  29.157  1.00  0.00     0.057 A 
ATOM     76  C   UNL A   1      48.780  25.768  30.265  1.00  0.00     0.134 A 
ATOM     77  C   UNL A   1      48.969  26.577  28.021  1.00  0.00     0.134 A 
ATOM     78  F   UNL A   1      48.079  25.571  31.392  1.00  0.00    -0.206 F 
ATOM     79  C   UNL A   1      50.123  25.388  30.249  1.00  0.00     0.040 A 
ATOM     80  C   UNL A   1      50.306  26.181  27.981  1.00  0.00     0.040 A 
ATOM     81  F   UNL A   1      48.449  27.155  26.928  1.00  0.00    -0.206 F 
ATOM     82  C   UNL A   1      50.888  25.589  29.101  1.00  0.00     0.006 A 
ENDBRANCH  54  75
BRANCH  66  83
ATOM     83  C   UNL A   1      45.006  32.357  30.762  1.00  0.00     0.057 A 
ATOM     84  C   UNL A   1      45.276  33.383  29.846  1.00  0.00     0.134 A 
ATOM     85  C   UNL A   1      45.208  32.633  32.120  1.00  0.00     0.134 A 
ATOM     86  F   UNL A   1      45.117  33.177  28.530  1.00  0.00    -0.206 F 
ATOM     87  C   UNL A   1      45.746  34.629  30.264  1.00  0.00     0.040 A 
ATOM     88  C   UNL A   1      45.656  33.882  32.552  1.00  0.00     0.040 A 
ATOM     89  F   UNL A   1      44.963  31.696  33.048  1.00  0.00    -0.206 F 
ATOM     90  C   UNL A   1      45.930  34.883  31.622  1.00  0.00     0.006 A 
ENDBRANCH  66  83
ENDBRANCH  40  41
ENDBRANCH  33  35
ENDBRANCH  32  33
ENDBRANCH  31  32
ENDBRANCH   1  31
TORSDOF 18
ENDMDL
