MODEL 1
REMARK VINA RESULT:     -10.2      0.000      0.000
REMARK SMILES Cc1nn(C)cc1-c1cc(C(F)(F)F)nc(N2CCC[C@@H]2C(=O)OCCOC(=O)c2ccc(-c3c4nc(c(-c5c(F)cccc5F)c5ccc([nH]5)c(-c5c(F)cccc5F)c5nc(c(-c6c(F)cccc6F)c6ccc3[nH]6)C=C5)C=C4)cc2)n1
REMARK SMILES IDX 25 1 24 2 22 3 23 4 21 5 17 6 18 7 19 8 20 9 16 10 8 11 9 12
REMARK SMILES IDX 84 13 10 14 15 15 7 16 1 17 2 18 3 19 4 20 6 21 5 22 11 23
REMARK SMILES IDX 12 24 13 25 14 26 26 27 27 28 28 29 29 30 30 31 31 32 83 33
REMARK SMILES IDX 32 34 82 35 33 36 34 37 35 38 76 39 36 40 81 41 75 42 77 43
REMARK SMILES IDX 37 44 80 45 74 46 73 47 38 49 64 50 47 51 63 52 48 53 51 54
REMARK SMILES IDX 62 55 78 56 49 57 50 58 61 60 79 61 52 62 39 63 40 64 45 65
REMARK SMILES IDX 41 66 42 67 44 68 46 69 43 70 65 71 66 72 71 73 67 74 68 75
REMARK SMILES IDX 70 76 72 77 69 78 53 79 54 80 59 81 55 82 56 83 58 84 60 85
REMARK SMILES IDX 57 86
REMARK H PARENT 77 48 51 59
REMARK Flexibility Score: inf
ROOT
ATOM      1  C   UNL A   1      34.378  33.952  29.274  1.00  0.00     0.274 C 
ENDROOT
BRANCH   1   2
ATOM      2  O   UNL A   1      34.393  33.094  30.434  1.00  0.00    -0.461 OA
BRANCH   2   3
ATOM      3  C   UNL A   1      34.033  33.683  31.610  1.00  0.00     0.328 C 
ATOM      4  O   UNL A   1      33.754  33.044  32.623  1.00  0.00    -0.250 OA
BRANCH   3   5
ATOM      5  C   UNL A   1      34.025  35.231  31.552  1.00  0.00     0.195 C 
ATOM      6  N   UNL A   1      34.824  35.877  32.598  1.00  0.00    -0.327 N 
ATOM      7  C   UNL A   1      34.027  36.694  33.488  1.00  0.00     0.121 C 
ATOM      8  C   UNL A   1      32.592  36.280  33.179  1.00  0.00     0.024 C 
ATOM      9  C   UNL A   1      32.641  35.877  31.711  1.00  0.00     0.039 C 
BRANCH   6  10
ATOM     10  C   UNL A   1      35.989  35.282  32.983  1.00  0.00     0.227 A 
ATOM     11  C   UNL A   1      37.983  34.300  32.421  1.00  0.00     0.080 A 
ATOM     12  C   UNL A   1      38.121  33.756  33.678  1.00  0.00     0.062 A 
ATOM     13  N   UNL A   1      36.930  35.058  32.061  1.00  0.00    -0.213 NA
ATOM     14  C   UNL A   1      37.123  34.055  34.580  1.00  0.00     0.150 A 
ATOM     15  N   UNL A   1      36.068  34.834  34.240  1.00  0.00    -0.208 NA
BRANCH  11  16
ATOM     16  C   UNL A   1      39.010  34.087  31.421  1.00  0.00     0.041 A 
ATOM     17  C   UNL A   1      37.762  33.184  29.295  1.00  0.00     0.069 C 
ATOM     18  C   UNL A   1      38.949  33.575  30.095  1.00  0.00     0.069 A 
ATOM     19  N   UNL A   1      40.171  33.449  29.557  1.00  0.00    -0.178 NA
ATOM     20  N   UNL A   1      40.998  33.907  30.513  1.00  0.00    -0.275 N 
ATOM     21  C   UNL A   1      40.353  34.312  31.643  1.00  0.00     0.119 A 
ATOM     22  C   UNL A   1      42.422  33.878  30.286  1.00  0.00     0.173 C 
ENDBRANCH  11  16
BRANCH  14  23
ATOM     23  C   UNL A   1      37.147  33.455  35.971  1.00  0.00     0.433 C 
ATOM     24  F   UNL A   1      37.407  32.117  35.980  1.00  0.00    -0.165 F 
ATOM     25  F   UNL A   1      38.089  34.028  36.774  1.00  0.00    -0.165 F 
ATOM     26  F   UNL A   1      35.964  33.601  36.639  1.00  0.00    -0.165 F 
ENDBRANCH  14  23
ENDBRANCH   6  10
ENDBRANCH   3   5
ENDBRANCH   2   3
ENDBRANCH   1   2
BRANCH   1  27
ATOM     27  C   UNL A   1      33.794  33.256  28.037  1.00  0.00     0.275 C 
BRANCH  27  28
ATOM     28  O   UNL A   1      34.711  32.316  27.443  1.00  0.00    -0.458 OA
BRANCH  28  29
ATOM     29  C   UNL A   1      34.436  31.018  27.702  1.00  0.00     0.338 C 
ATOM     30  O   UNL A   1      33.364  30.451  27.568  1.00  0.00    -0.246 OA
BRANCH  29  31
ATOM     31  C   UNL A   1      35.662  30.283  28.044  1.00  0.00     0.060 A 
ATOM     32  C   UNL A   1      35.725  29.704  29.312  1.00  0.00     0.016 A 
ATOM     33  C   UNL A   1      36.780  30.278  27.210  1.00  0.00     0.016 A 
ATOM     34  C   UNL A   1      36.906  29.142  29.774  1.00  0.00     0.010 A 
ATOM     35  C   UNL A   1      37.972  29.705  27.672  1.00  0.00     0.010 A 
ATOM     36  C   UNL A   1      38.046  29.155  28.964  1.00  0.00    -0.014 A 
BRANCH  36  37
ATOM     37  C   UNL A   1      39.323  28.661  29.529  1.00  0.00     0.031 A 
ATOM     38  C   UNL A   1      39.876  29.280  30.779  1.00  0.00     0.074 A 
ATOM     39  C   UNL A   1      39.942  27.608  28.963  1.00  0.00     0.049 A 
ATOM     40  N   UNL A   1      41.000  29.031  31.399  1.00  0.00    -0.248 NA
ATOM     41  C   UNL A   1      39.050  30.317  31.418  1.00  0.00     0.031 C 
ATOM     42  C   UNL A   1      39.465  26.881  27.787  1.00  0.00     0.029 A 
ATOM     43  N   UNL A   1      41.101  26.965  29.312  1.00  0.00    -0.354 N 
ATOM     44  C   UNL A   1      41.032  29.896  32.484  1.00  0.00     0.074 A 
ATOM     45  C   UNL A   1      39.818  30.684  32.434  1.00  0.00     0.031 C 
ATOM     46  C   UNL A   1      40.325  25.886  27.512  1.00  0.00     0.029 A 
ATOM     47  C   UNL A   1      41.430  25.936  28.465  1.00  0.00     0.049 A 
ATOM     48  H   UNL A   1      41.645  27.216  30.094  1.00  0.00     0.167 HD
ATOM     49  C   UNL A   1      41.987  30.020  33.436  1.00  0.00     0.037 A 
ATOM     50  C   UNL A   1      42.515  25.141  28.444  1.00  0.00     0.037 A 
ATOM     51  C   UNL A   1      43.182  29.220  33.496  1.00  0.00     0.049 A 
ATOM     52  C   UNL A   1      43.580  25.321  29.488  1.00  0.00     0.074 A 
ATOM     53  C   UNL A   1      44.218  29.280  34.411  1.00  0.00     0.029 A 
ATOM     54  N   UNL A   1      43.494  28.207  32.602  1.00  0.00    -0.354 N 
ATOM     55  N   UNL A   1      43.623  26.173  30.485  1.00  0.00    -0.248 NA
ATOM     56  C   UNL A   1      44.750  24.436  29.401  1.00  0.00     0.031 C 
ATOM     57  C   UNL A   1      45.171  28.317  34.055  1.00  0.00     0.029 A 
ATOM     58  C   UNL A   1      44.711  27.637  32.940  1.00  0.00     0.049 A 
ATOM     59  H   UNL A   1      42.934  27.932  31.841  1.00  0.00     0.167 HD
ATOM     60  C   UNL A   1      44.816  25.924  31.147  1.00  0.00     0.074 A 
ATOM     61  C   UNL A   1      45.460  24.828  30.451  1.00  0.00     0.031 C 
ATOM     62  C   UNL A   1      45.335  26.548  32.232  1.00  0.00     0.037 A 
BRANCH  49  63
ATOM     63  C   UNL A   1      41.786  31.087  34.470  1.00  0.00     0.057 A 
ATOM     64  C   UNL A   1      41.062  30.854  35.646  1.00  0.00     0.134 A 
ATOM     65  C   UNL A   1      42.328  32.365  34.284  1.00  0.00     0.134 A 
ATOM     66  F   UNL A   1      40.502  29.657  35.873  1.00  0.00    -0.206 F 
ATOM     67  C   UNL A   1      40.865  31.863  36.591  1.00  0.00     0.040 A 
ATOM     68  C   UNL A   1      42.155  33.375  35.232  1.00  0.00     0.040 A 
ATOM     69  F   UNL A   1      43.032  32.653  33.179  1.00  0.00    -0.206 F 
ATOM     70  C   UNL A   1      41.415  33.127  36.385  1.00  0.00     0.006 A 
ENDBRANCH  49  63
BRANCH  50  71
ATOM     71  C   UNL A   1      42.653  24.123  27.377  1.00  0.00     0.057 A 
ATOM     72  C   UNL A   1      43.216  24.439  26.137  1.00  0.00     0.134 A 
ATOM     73  C   UNL A   1      42.241  22.800  27.583  1.00  0.00     0.134 A 
ATOM     74  F   UNL A   1      43.610  25.694  25.875  1.00  0.00    -0.206 F 
ATOM     75  C   UNL A   1      43.365  23.476  25.137  1.00  0.00     0.040 A 
ATOM     76  C   UNL A   1      42.405  21.822  26.602  1.00  0.00     0.040 A 
ATOM     77  F   UNL A   1      41.693  22.437  28.752  1.00  0.00    -0.206 F 
ATOM     78  C   UNL A   1      42.967  22.162  25.373  1.00  0.00     0.006 A 
ENDBRANCH  50  71
BRANCH  62  79
ATOM     79  C   UNL A   1      46.653  26.048  32.738  1.00  0.00     0.057 A 
ATOM     80  C   UNL A   1      46.733  25.016  33.681  1.00  0.00     0.134 A 
ATOM     81  C   UNL A   1      47.853  26.581  32.254  1.00  0.00     0.134 A 
ATOM     82  F   UNL A   1      45.617  24.474  34.191  1.00  0.00    -0.206 F 
ATOM     83  C   UNL A   1      47.963  24.544  34.139  1.00  0.00     0.040 A 
ATOM     84  C   UNL A   1      49.090  26.106  32.691  1.00  0.00     0.040 A 
ATOM     85  F   UNL A   1      47.843  27.569  31.346  1.00  0.00    -0.206 F 
ATOM     86  C   UNL A   1      49.147  25.085  33.640  1.00  0.00     0.006 A 
ENDBRANCH  62  79
ENDBRANCH  36  37
ENDBRANCH  29  31
ENDBRANCH  28  29
ENDBRANCH  27  28
ENDBRANCH   1  27
TORSDOF 14
ENDMDL
MODEL 2
REMARK VINA RESULT:     -10.0      4.920      8.518
REMARK SMILES Cc1nn(C)cc1-c1cc(C(F)(F)F)nc(N2CCC[C@@H]2C(=O)OCCOC(=O)c2ccc(-c3c4nc(c(-c5c(F)cccc5F)c5ccc([nH]5)c(-c5c(F)cccc5F)c5nc(c(-c6c(F)cccc6F)c6ccc3[nH]6)C=C5)C=C4)cc2)n1
REMARK SMILES IDX 25 1 24 2 22 3 23 4 21 5 17 6 18 7 19 8 20 9 16 10 8 11 9 12
REMARK SMILES IDX 84 13 10 14 15 15 7 16 1 17 2 18 3 19 4 20 6 21 5 22 11 23
REMARK SMILES IDX 12 24 13 25 14 26 26 27 27 28 28 29 29 30 30 31 31 32 83 33
REMARK SMILES IDX 32 34 82 35 33 36 34 37 35 38 76 39 36 40 81 41 75 42 77 43
REMARK SMILES IDX 37 44 80 45 74 46 73 47 38 49 64 50 47 51 63 52 48 53 51 54
REMARK SMILES IDX 62 55 78 56 49 57 50 58 61 60 79 61 52 62 39 63 40 64 45 65
REMARK SMILES IDX 41 66 42 67 44 68 46 69 43 70 65 71 66 72 71 73 67 74 68 75
REMARK SMILES IDX 70 76 72 77 69 78 53 79 54 80 59 81 55 82 56 83 58 84 60 85
REMARK SMILES IDX 57 86
REMARK H PARENT 77 48 51 59
REMARK Flexibility Score: inf
ROOT
ATOM      1  C   UNL A   1      33.663  28.408  24.528  1.00  0.00     0.274 C 
ENDROOT
BRANCH   1   2
ATOM      2  O   UNL A   1      34.025  27.037  24.794  1.00  0.00    -0.461 OA
BRANCH   2   3
ATOM      3  C   UNL A   1      33.006  26.132  24.731  1.00  0.00     0.328 C 
ATOM      4  O   UNL A   1      32.571  25.686  23.672  1.00  0.00    -0.250 OA
BRANCH   3   5
ATOM      5  C   UNL A   1      32.464  25.711  26.120  1.00  0.00     0.195 C 
ATOM      6  N   UNL A   1      32.337  24.261  26.302  1.00  0.00    -0.327 N 
ATOM      7  C   UNL A   1      30.969  23.841  26.518  1.00  0.00     0.121 C 
ATOM      8  C   UNL A   1      30.144  25.062  26.126  1.00  0.00     0.024 C 
ATOM      9  C   UNL A   1      31.059  26.236  26.452  1.00  0.00     0.039 C 
BRANCH   6  10
ATOM     10  C   UNL A   1      33.279  23.453  25.738  1.00  0.00     0.227 A 
ATOM     11  C   UNL A   1      33.856  21.424  24.839  1.00  0.00     0.080 A 
ATOM     12  C   UNL A   1      35.199  21.693  24.978  1.00  0.00     0.062 A 
ATOM     13  N   UNL A   1      32.892  22.286  25.213  1.00  0.00    -0.213 NA
ATOM     14  C   UNL A   1      35.518  22.928  25.502  1.00  0.00     0.150 A 
ATOM     15  N   UNL A   1      34.560  23.816  25.863  1.00  0.00    -0.208 NA
BRANCH  11  16
ATOM     16  C   UNL A   1      33.425  20.174  24.246  1.00  0.00     0.041 A 
ATOM     17  C   UNL A   1      31.823  20.833  22.273  1.00  0.00     0.069 C 
ATOM     18  C   UNL A   1      32.528  19.892  23.178  1.00  0.00     0.069 A 
ATOM     19  N   UNL A   1      32.336  18.573  23.029  1.00  0.00    -0.178 NA
ATOM     20  N   UNL A   1      33.125  18.020  23.966  1.00  0.00    -0.275 N 
ATOM     21  C   UNL A   1      33.807  18.933  24.712  1.00  0.00     0.119 A 
ATOM     22  C   UNL A   1      33.135  16.586  24.122  1.00  0.00     0.173 C 
ENDBRANCH  11  16
BRANCH  14  23
ATOM     23  C   UNL A   1      36.964  23.298  25.755  1.00  0.00     0.433 C 
ATOM     24  F   UNL A   1      37.535  23.990  24.729  1.00  0.00    -0.165 F 
ATOM     25  F   UNL A   1      37.122  24.074  26.867  1.00  0.00    -0.165 F 
ATOM     26  F   UNL A   1      37.770  22.212  25.955  1.00  0.00    -0.165 F 
ENDBRANCH  14  23
ENDBRANCH   6  10
ENDBRANCH   3   5
ENDBRANCH   2   3
ENDBRANCH   1   2
BRANCH   1  27
ATOM     27  C   UNL A   1      33.289  29.175  25.803  1.00  0.00     0.275 C 
BRANCH  27  28
ATOM     28  O   UNL A   1      34.160  28.870  26.911  1.00  0.00    -0.458 OA
BRANCH  28  29
ATOM     29  C   UNL A   1      34.566  29.946  27.622  1.00  0.00     0.338 C 
ATOM     30  O   UNL A   1      33.880  30.881  28.001  1.00  0.00    -0.246 OA
BRANCH  29  31
ATOM     31  C   UNL A   1      35.967  29.797  28.039  1.00  0.00     0.060 A 
ATOM     32  C   UNL A   1      36.947  30.003  27.066  1.00  0.00     0.016 A 
ATOM     33  C   UNL A   1      36.318  29.328  29.305  1.00  0.00     0.016 A 
ATOM     34  C   UNL A   1      38.278  29.717  27.333  1.00  0.00     0.010 A 
ATOM     35  C   UNL A   1      37.663  29.045  29.579  1.00  0.00     0.010 A 
ATOM     36  C   UNL A   1      38.644  29.216  28.586  1.00  0.00    -0.014 A 
BRANCH  36  37
ATOM     37  C   UNL A   1      40.050  28.804  28.802  1.00  0.00     0.031 A 
ATOM     38  C   UNL A   1      41.006  29.740  29.482  1.00  0.00     0.074 A 
ATOM     39  C   UNL A   1      40.445  27.564  28.458  1.00  0.00     0.049 A 
ATOM     40  N   UNL A   1      42.285  29.592  29.715  1.00  0.00    -0.248 NA
ATOM     41  C   UNL A   1      40.447  31.011  29.968  1.00  0.00     0.031 C 
ATOM     42  C   UNL A   1      39.590  26.544  27.853  1.00  0.00     0.029 A 
ATOM     43  N   UNL A   1      41.666  26.953  28.579  1.00  0.00    -0.354 N 
ATOM     44  C   UNL A   1      42.690  30.759  30.349  1.00  0.00     0.074 A 
ATOM     45  C   UNL A   1      41.523  31.610  30.457  1.00  0.00     0.031 C 
ATOM     46  C   UNL A   1      40.313  25.429  27.658  1.00  0.00     0.029 A 
ATOM     47  C   UNL A   1      41.688  25.674  28.084  1.00  0.00     0.049 A 
ATOM     48  H   UNL A   1      42.452  27.390  28.983  1.00  0.00     0.167 HD
ATOM     49  C   UNL A   1      43.924  31.089  30.801  1.00  0.00     0.037 A 
ATOM     50  C   UNL A   1      42.709  24.807  27.962  1.00  0.00     0.037 A 
ATOM     51  C   UNL A   1      45.076  30.232  30.712  1.00  0.00     0.049 A 
ATOM     52  C   UNL A   1      44.077  25.208  28.436  1.00  0.00     0.074 A 
ATOM     53  C   UNL A   1      46.373  30.480  31.126  1.00  0.00     0.029 A 
ATOM     54  N   UNL A   1      45.065  28.953  30.177  1.00  0.00    -0.354 N 
ATOM     55  N   UNL A   1      44.460  26.332  28.993  1.00  0.00    -0.248 NA
ATOM     56  C   UNL A   1      45.155  24.226  28.258  1.00  0.00     0.031 C 
ATOM     57  C   UNL A   1      47.153  29.359  30.817  1.00  0.00     0.029 A 
ATOM     58  C   UNL A   1      46.334  28.401  30.242  1.00  0.00     0.049 A 
ATOM     59  H   UNL A   1      44.272  28.503  29.806  1.00  0.00     0.167 HD
ATOM     60  C   UNL A   1      45.818  26.191  29.239  1.00  0.00     0.074 A 
ATOM     61  C   UNL A   1      46.189  24.864  28.787  1.00  0.00     0.031 C 
ATOM     62  C   UNL A   1      46.682  27.080  29.785  1.00  0.00     0.037 A 
BRANCH  49  63
ATOM     63  C   UNL A   1      44.088  32.453  31.401  1.00  0.00     0.057 A 
ATOM     64  C   UNL A   1      44.396  33.574  30.621  1.00  0.00     0.134 A 
ATOM     65  C   UNL A   1      43.933  32.645  32.779  1.00  0.00     0.134 A 
ATOM     66  F   UNL A   1      44.576  33.452  29.298  1.00  0.00    -0.206 F 
ATOM     67  C   UNL A   1      44.566  34.836  31.195  1.00  0.00     0.040 A 
ATOM     68  C   UNL A   1      44.080  33.905  33.362  1.00  0.00     0.040 A 
ATOM     69  F   UNL A   1      43.637  31.611  33.583  1.00  0.00    -0.206 F 
ATOM     70  C   UNL A   1      44.405  35.003  32.569  1.00  0.00     0.006 A 
ENDBRANCH  49  63
BRANCH  50  71
ATOM     71  C   UNL A   1      42.472  23.484  27.337  1.00  0.00     0.057 A 
ATOM     72  C   UNL A   1      42.646  23.285  25.964  1.00  0.00     0.134 A 
ATOM     73  C   UNL A   1      42.086  22.380  28.108  1.00  0.00     0.134 A 
ATOM     74  F   UNL A   1      42.995  24.310  25.173  1.00  0.00    -0.206 F 
ATOM     75  C   UNL A   1      42.442  22.035  25.377  1.00  0.00     0.040 A 
ATOM     76  C   UNL A   1      41.901  21.121  27.539  1.00  0.00     0.040 A 
ATOM     77  F   UNL A   1      41.903  22.509  29.431  1.00  0.00    -0.206 F 
ATOM     78  C   UNL A   1      42.078  20.947  26.168  1.00  0.00     0.006 A 
ENDBRANCH  50  71
BRANCH  62  79
ATOM     79  C   UNL A   1      48.105  26.639  29.938  1.00  0.00     0.057 A 
ATOM     80  C   UNL A   1      48.541  25.950  31.078  1.00  0.00     0.134 A 
ATOM     81  C   UNL A   1      49.040  26.876  28.924  1.00  0.00     0.134 A 
ATOM     82  F   UNL A   1      47.695  25.705  32.089  1.00  0.00    -0.206 F 
ATOM     83  C   UNL A   1      49.865  25.529  31.210  1.00  0.00     0.040 A 
ATOM     84  C   UNL A   1      50.362  26.444  29.036  1.00  0.00     0.040 A 
ATOM     85  F   UNL A   1      48.682  27.526  27.806  1.00  0.00    -0.206 F 
ATOM     86  C   UNL A   1      50.778  25.771  30.185  1.00  0.00     0.006 A 
ENDBRANCH  62  79
ENDBRANCH  36  37
ENDBRANCH  29  31
ENDBRANCH  28  29
ENDBRANCH  27  28
ENDBRANCH   1  27
TORSDOF 14
ENDMDL
MODEL 3
REMARK VINA RESULT:     -10.0      5.550     10.616
REMARK SMILES Cc1nn(C)cc1-c1cc(C(F)(F)F)nc(N2CCC[C@@H]2C(=O)OCCOC(=O)c2ccc(-c3c4nc(c(-c5c(F)cccc5F)c5ccc([nH]5)c(-c5c(F)cccc5F)c5nc(c(-c6c(F)cccc6F)c6ccc3[nH]6)C=C5)C=C4)cc2)n1
REMARK SMILES IDX 25 1 24 2 22 3 23 4 21 5 17 6 18 7 19 8 20 9 16 10 8 11 9 12
REMARK SMILES IDX 84 13 10 14 15 15 7 16 1 17 2 18 3 19 4 20 6 21 5 22 11 23
REMARK SMILES IDX 12 24 13 25 14 26 26 27 27 28 28 29 29 30 30 31 31 32 83 33
REMARK SMILES IDX 32 34 82 35 33 36 34 37 35 38 76 39 36 40 81 41 75 42 77 43
REMARK SMILES IDX 37 44 80 45 74 46 73 47 38 49 64 50 47 51 63 52 48 53 51 54
REMARK SMILES IDX 62 55 78 56 49 57 50 58 61 60 79 61 52 62 39 63 40 64 45 65
REMARK SMILES IDX 41 66 42 67 44 68 46 69 43 70 65 71 66 72 71 73 67 74 68 75
REMARK SMILES IDX 70 76 72 77 69 78 53 79 54 80 59 81 55 82 56 83 58 84 60 85
REMARK SMILES IDX 57 86
REMARK H PARENT 77 48 51 59
REMARK Flexibility Score: inf
ROOT
ATOM      1  C   UNL A   1      36.000  20.677  24.773  1.00  0.00     0.274 C 
ENDROOT
BRANCH   1   2
ATOM      2  O   UNL A   1      35.896  22.101  24.564  1.00  0.00    -0.461 OA
BRANCH   2   3
ATOM      3  C   UNL A   1      35.235  22.796  25.534  1.00  0.00     0.328 C 
ATOM      4  O   UNL A   1      35.754  23.702  26.182  1.00  0.00    -0.250 OA
BRANCH   3   5
ATOM      5  C   UNL A   1      33.766  22.344  25.728  1.00  0.00     0.195 C 
ATOM      6  N   UNL A   1      32.812  23.448  25.880  1.00  0.00    -0.327 N 
ATOM      7  C   UNL A   1      32.153  23.445  27.168  1.00  0.00     0.121 C 
ATOM      8  C   UNL A   1      32.979  22.471  28.001  1.00  0.00     0.024 C 
ATOM      9  C   UNL A   1      33.514  21.482  26.974  1.00  0.00     0.039 C 
BRANCH   6  10
ATOM     10  C   UNL A   1      33.016  24.584  25.154  1.00  0.00     0.227 A 
ATOM     11  C   UNL A   1      33.170  26.870  25.069  1.00  0.00     0.080 A 
ATOM     12  C   UNL A   1      33.027  26.873  23.700  1.00  0.00     0.062 A 
ATOM     13  N   UNL A   1      33.164  25.742  25.804  1.00  0.00    -0.213 NA
ATOM     14  C   UNL A   1      32.906  25.638  23.100  1.00  0.00     0.150 A 
ATOM     15  N   UNL A   1      32.921  24.493  23.823  1.00  0.00    -0.208 NA
BRANCH  11  16
ATOM     16  C   UNL A   1      33.359  28.117  25.782  1.00  0.00     0.041 A 
ATOM     17  C   UNL A   1      31.404  29.689  25.006  1.00  0.00     0.069 C 
ATOM     18  C   UNL A   1      32.645  29.348  25.745  1.00  0.00     0.069 A 
ATOM     19  N   UNL A   1      33.236  30.285  26.500  1.00  0.00    -0.178 NA
ATOM     20  N   UNL A   1      34.292  29.652  27.039  1.00  0.00    -0.275 N 
ATOM     21  C   UNL A   1      34.404  28.351  26.653  1.00  0.00     0.119 A 
ATOM     22  C   UNL A   1      35.194  30.387  27.892  1.00  0.00     0.173 C 
ENDBRANCH  11  16
BRANCH  14  23
ATOM     23  C   UNL A   1      32.682  25.535  21.606  1.00  0.00     0.433 C 
ATOM     24  F   UNL A   1      33.484  26.362  20.878  1.00  0.00    -0.165 F 
ATOM     25  F   UNL A   1      32.904  24.276  21.127  1.00  0.00    -0.165 F 
ATOM     26  F   UNL A   1      31.404  25.843  21.232  1.00  0.00    -0.165 F 
ENDBRANCH  14  23
ENDBRANCH   6  10
ENDBRANCH   3   5
ENDBRANCH   2   3
ENDBRANCH   1   2
BRANCH   1  27
ATOM     27  C   UNL A   1      37.448  20.222  25.001  1.00  0.00     0.275 C 
BRANCH  27  28
ATOM     28  O   UNL A   1      38.351  21.325  25.214  1.00  0.00    -0.458 OA
BRANCH  28  29
ATOM     29  C   UNL A   1      39.325  21.089  26.122  1.00  0.00     0.338 C 
ATOM     30  O   UNL A   1      39.850  20.019  26.379  1.00  0.00    -0.246 OA
BRANCH  29  31
ATOM     31  C   UNL A   1      39.817  22.349  26.698  1.00  0.00     0.060 A 
ATOM     32  C   UNL A   1      39.300  23.534  26.172  1.00  0.00     0.016 A 
ATOM     33  C   UNL A   1      40.858  22.384  27.625  1.00  0.00     0.016 A 
ATOM     34  C   UNL A   1      39.834  24.762  26.539  1.00  0.00     0.010 A 
ATOM     35  C   UNL A   1      41.394  23.622  28.002  1.00  0.00     0.010 A 
ATOM     36  C   UNL A   1      40.899  24.814  27.444  1.00  0.00    -0.014 A 
BRANCH  36  37
ATOM     37  C   UNL A   1      41.528  26.125  27.723  1.00  0.00     0.031 A 
ATOM     38  C   UNL A   1      42.903  26.420  27.197  1.00  0.00     0.074 A 
ATOM     39  C   UNL A   1      40.837  27.074  28.380  1.00  0.00     0.049 A 
ATOM     40  N   UNL A   1      43.648  27.480  27.377  1.00  0.00    -0.248 NA
ATOM     41  C   UNL A   1      43.519  25.384  26.353  1.00  0.00     0.031 C 
ATOM     42  C   UNL A   1      39.470  26.928  28.880  1.00  0.00     0.029 A 
ATOM     43  N   UNL A   1      41.190  28.352  28.730  1.00  0.00    -0.354 N 
ATOM     44  C   UNL A   1      44.830  27.229  26.693  1.00  0.00     0.074 A 
ATOM     45  C   UNL A   1      44.707  25.913  26.102  1.00  0.00     0.031 C 
ATOM     46  C   UNL A   1      39.097  28.075  29.470  1.00  0.00     0.029 A 
ATOM     47  C   UNL A   1      40.213  29.017  29.428  1.00  0.00     0.049 A 
ATOM     48  H   UNL A   1      42.060  28.754  28.502  1.00  0.00     0.167 HD
ATOM     49  C   UNL A   1      45.918  28.027  26.569  1.00  0.00     0.037 A 
ATOM     50  C   UNL A   1      40.227  30.237  29.993  1.00  0.00     0.037 A 
ATOM     51  C   UNL A   1      46.028  29.343  27.139  1.00  0.00     0.049 A 
ATOM     52  C   UNL A   1      41.458  31.089  29.875  1.00  0.00     0.074 A 
ATOM     53  C   UNL A   1      47.095  30.223  27.084  1.00  0.00     0.029 A 
ATOM     54  N   UNL A   1      45.027  29.971  27.865  1.00  0.00    -0.354 N 
ATOM     55  N   UNL A   1      42.588  30.825  29.264  1.00  0.00    -0.248 NA
ATOM     56  C   UNL A   1      41.419  32.404  30.530  1.00  0.00     0.031 C 
ATOM     57  C   UNL A   1      46.747  31.376  27.800  1.00  0.00     0.029 A 
ATOM     58  C   UNL A   1      45.453  31.226  28.271  1.00  0.00     0.049 A 
ATOM     59  H   UNL A   1      44.144  29.583  28.063  1.00  0.00     0.167 HD
ATOM     60  C   UNL A   1      43.392  31.940  29.454  1.00  0.00     0.074 A 
ATOM     61  C   UNL A   1      42.613  32.892  30.221  1.00  0.00     0.031 C 
ATOM     62  C   UNL A   1      44.662  32.156  29.035  1.00  0.00     0.037 A 
BRANCH  49  63
ATOM     63  C   UNL A   1      47.087  27.472  25.812  1.00  0.00     0.057 A 
ATOM     64  C   UNL A   1      47.196  27.595  24.421  1.00  0.00     0.134 A 
ATOM     65  C   UNL A   1      48.119  26.810  26.487  1.00  0.00     0.134 A 
ATOM     66  F   UNL A   1      46.231  28.202  23.715  1.00  0.00    -0.206 F 
ATOM     67  C   UNL A   1      48.281  27.057  23.725  1.00  0.00     0.040 A 
ATOM     68  C   UNL A   1      49.219  26.285  25.805  1.00  0.00     0.040 A 
ATOM     69  F   UNL A   1      48.076  26.659  27.820  1.00  0.00    -0.206 F 
ATOM     70  C   UNL A   1      49.297  26.402  24.419  1.00  0.00     0.006 A 
ENDBRANCH  49  63
BRANCH  50  71
ATOM     71  C   UNL A   1      39.039  30.706  30.745  1.00  0.00     0.057 A 
ATOM     72  C   UNL A   1      38.036  31.458  30.126  1.00  0.00     0.134 A 
ATOM     73  C   UNL A   1      38.869  30.391  32.099  1.00  0.00     0.134 A 
ATOM     74  F   UNL A   1      38.153  31.807  28.836  1.00  0.00    -0.206 F 
ATOM     75  C   UNL A   1      36.906  31.883  30.826  1.00  0.00     0.040 A 
ATOM     76  C   UNL A   1      37.736  30.789  32.805  1.00  0.00     0.040 A 
ATOM     77  F   UNL A   1      39.798  29.672  32.747  1.00  0.00    -0.206 F 
ATOM     78  C   UNL A   1      36.750  31.540  32.168  1.00  0.00     0.006 A 
ENDBRANCH  50  71
BRANCH  62  79
ATOM     79  C   UNL A   1      45.278  33.476  29.384  1.00  0.00     0.057 A 
ATOM     80  C   UNL A   1      46.009  33.655  30.565  1.00  0.00     0.134 A 
ATOM     81  C   UNL A   1      45.166  34.569  28.516  1.00  0.00     0.134 A 
ATOM     82  F   UNL A   1      46.140  32.650  31.442  1.00  0.00    -0.206 F 
ATOM     83  C   UNL A   1      46.593  34.883  30.879  1.00  0.00     0.040 A 
ATOM     84  C   UNL A   1      45.761  35.797  28.810  1.00  0.00     0.040 A 
ATOM     85  F   UNL A   1      44.483  34.459  27.366  1.00  0.00    -0.206 F 
ATOM     86  C   UNL A   1      46.474  35.957  29.998  1.00  0.00     0.006 A 
ENDBRANCH  62  79
ENDBRANCH  36  37
ENDBRANCH  29  31
ENDBRANCH  28  29
ENDBRANCH  27  28
ENDBRANCH   1  27
TORSDOF 14
ENDMDL
