MODEL 1
REMARK VINA RESULT:     -12.0      0.000      0.000
REMARK SMILES CC(C)[C@@H]1C(=O)Nc2ccccc2N1C(=O)N[C@H](Cc1ccccc1)C(=O)OCCOC(=O)c1ccc(-c2c3nc(c(-c4c(F)cccc4F)c4ccc([nH]4)c(-c4c(F)cccc4F)c4nc(c(-c5c(F)cccc5F)c5ccc2[nH]5)C=C4)C=C3)cc1
REMARK SMILES IDX 29 1 28 2 26 3 27 4 18 5 17 6 15 7 16 8 14 10 4 11 5 12 6 13
REMARK SMILES IDX 7 14 13 15 8 16 12 18 9 19 11 20 10 21 2 22 1 23 3 24 19 25
REMARK SMILES IDX 20 26 21 27 25 28 22 29 24 30 23 31 30 32 31 33 32 34 33 35
REMARK SMILES IDX 34 36 35 37 87 38 36 39 86 40 37 41 38 42 39 43 80 44 40 45
REMARK SMILES IDX 85 46 79 47 81 48 41 49 84 50 78 51 77 52 42 54 68 55 51 56
REMARK SMILES IDX 67 57 52 58 55 59 66 60 82 61 53 62 54 63 65 65 83 66 56 67
REMARK SMILES IDX 43 68 44 69 49 70 45 71 46 72 48 73 50 74 47 75 69 76 70 77
REMARK SMILES IDX 75 78 71 79 72 80 74 81 76 82 73 83 57 84 58 85 63 86 59 87
REMARK SMILES IDX 60 88 62 89 64 90 61 91
REMARK H PARENT 17 9 7 17 81 53 55 64
REMARK Flexibility Score: inf
ROOT
ATOM      1  C   UNL A   1      31.570  29.933  25.377  1.00  0.00     0.274 C 
ENDROOT
BRANCH   1   2
ATOM      2  O   UNL A   1      32.586  29.061  25.933  1.00  0.00    -0.461 OA
BRANCH   2   3
ATOM      3  C   UNL A   1      32.285  27.838  26.457  1.00  0.00     0.329 C 
ATOM      4  O   UNL A   1      31.690  27.672  27.515  1.00  0.00    -0.250 OA
BRANCH   3   5
ATOM      5  C   UNL A   1      32.836  26.657  25.596  1.00  0.00     0.198 C 
BRANCH   5   6
ATOM      6  N   UNL A   1      31.828  25.567  25.444  1.00  0.00    -0.324 N 
ATOM      7  C   UNL A   1      30.603  25.724  24.830  1.00  0.00     0.323 C 
ATOM      8  O   UNL A   1      29.590  25.541  25.502  1.00  0.00    -0.248 OA
ATOM      9  H   UNL A   1      32.050  24.679  25.806  1.00  0.00     0.166 HD
BRANCH   7  10
ATOM     10  N   UNL A   1      30.593  25.817  23.449  1.00  0.00    -0.280 N 
ATOM     11  C   UNL A   1      31.711  25.272  22.579  1.00  0.00     0.184 C 
ATOM     12  C   UNL A   1      32.780  26.357  22.321  1.00  0.00     0.247 C 
ATOM     13  O   UNL A   1      33.980  26.167  22.143  1.00  0.00    -0.272 OA
ATOM     14  N   UNL A   1      32.288  27.593  22.017  1.00  0.00    -0.322 N 
ATOM     15  C   UNL A   1      30.124  27.130  23.011  1.00  0.00     0.070 A 
ATOM     16  C   UNL A   1      30.979  27.977  22.285  1.00  0.00     0.065 A 
ATOM     17  H   UNL A   1      32.888  28.244  21.586  1.00  0.00     0.170 HD
ATOM     18  C   UNL A   1      28.899  27.657  23.447  1.00  0.00     0.028 A 
ATOM     19  C   UNL A   1      30.611  29.284  21.957  1.00  0.00     0.028 A 
ATOM     20  C   UNL A   1      28.534  28.974  23.130  1.00  0.00     0.002 A 
ATOM     21  C   UNL A   1      29.384  29.783  22.380  1.00  0.00     0.002 A 
BRANCH  11  22
ATOM     22  C   UNL A   1      32.325  23.857  22.896  1.00  0.00     0.015 C 
ATOM     23  C   UNL A   1      31.282  22.809  23.293  1.00  0.00     0.010 C 
ATOM     24  C   UNL A   1      33.047  23.187  21.708  1.00  0.00     0.010 C 
ENDBRANCH  11  22
ENDBRANCH   7  10
ENDBRANCH   5   6
BRANCH   5  25
ATOM     25  C   UNL A   1      34.213  25.938  25.789  1.00  0.00     0.072 C 
BRANCH  25  26
ATOM     26  C   UNL A   1      34.672  24.511  25.575  1.00  0.00    -0.045 A 
ATOM     27  C   UNL A   1      33.956  23.482  26.238  1.00  0.00     0.004 A 
ATOM     28  C   UNL A   1      35.549  24.131  24.561  1.00  0.00     0.004 A 
ATOM     29  C   UNL A   1      34.108  22.135  25.915  1.00  0.00     0.000 A 
ATOM     30  C   UNL A   1      35.687  22.773  24.219  1.00  0.00     0.000 A 
ATOM     31  C   UNL A   1      34.969  21.779  24.891  1.00  0.00     0.000 A 
ENDBRANCH  25  26
ENDBRANCH   5  25
ENDBRANCH   3   5
ENDBRANCH   2   3
ENDBRANCH   1   2
BRANCH   1  32
ATOM     32  C   UNL A   1      31.412  31.255  26.136  1.00  0.00     0.275 C 
BRANCH  32  33
ATOM     33  O   UNL A   1      32.377  31.238  27.189  1.00  0.00    -0.458 OA
BRANCH  33  34
ATOM     34  C   UNL A   1      33.050  32.375  27.476  1.00  0.00     0.338 C 
ATOM     35  O   UNL A   1      32.665  33.519  27.353  1.00  0.00    -0.246 OA
BRANCH  34  36
ATOM     36  C   UNL A   1      34.367  31.939  27.992  1.00  0.00     0.060 A 
ATOM     37  C   UNL A   1      35.373  32.897  28.172  1.00  0.00     0.016 A 
ATOM     38  C   UNL A   1      34.599  30.611  28.334  1.00  0.00     0.016 A 
ATOM     39  C   UNL A   1      36.578  32.566  28.767  1.00  0.00     0.010 A 
ATOM     40  C   UNL A   1      35.805  30.277  28.957  1.00  0.00     0.010 A 
ATOM     41  C   UNL A   1      36.786  31.259  29.203  1.00  0.00    -0.014 A 
BRANCH  41  42
ATOM     42  C   UNL A   1      38.033  30.906  29.915  1.00  0.00     0.031 A 
ATOM     43  C   UNL A   1      39.013  29.991  29.257  1.00  0.00     0.074 A 
ATOM     44  C   UNL A   1      38.260  31.378  31.157  1.00  0.00     0.049 A 
ATOM     45  N   UNL A   1      40.013  29.335  29.780  1.00  0.00    -0.248 NA
ATOM     46  C   UNL A   1      38.828  29.773  27.813  1.00  0.00     0.031 C 
ATOM     47  C   UNL A   1      37.414  32.338  31.870  1.00  0.00     0.029 A 
ATOM     48  N   UNL A   1      39.263  31.093  32.047  1.00  0.00    -0.354 N 
ATOM     49  C   UNL A   1      40.544  28.579  28.744  1.00  0.00     0.074 A 
ATOM     50  C   UNL A   1      39.758  28.864  27.562  1.00  0.00     0.031 C 
ATOM     51  C   UNL A   1      37.927  32.551  33.092  1.00  0.00     0.029 A 
ATOM     52  C   UNL A   1      39.090  31.690  33.272  1.00  0.00     0.049 A 
ATOM     53  H   UNL A   1      40.032  30.518  31.829  1.00  0.00     0.167 HD
ATOM     54  C   UNL A   1      41.587  27.719  28.790  1.00  0.00     0.037 A 
ATOM     55  C   UNL A   1      39.762  31.515  34.425  1.00  0.00     0.037 A 
ATOM     56  C   UNL A   1      42.372  27.474  29.972  1.00  0.00     0.049 A 
ATOM     57  C   UNL A   1      40.887  30.519  34.464  1.00  0.00     0.074 A 
ATOM     58  C   UNL A   1      43.447  26.619  30.135  1.00  0.00     0.029 A 
ATOM     59  N   UNL A   1      42.168  28.101  31.193  1.00  0.00    -0.354 N 
ATOM     60  N   UNL A   1      41.349  29.757  33.502  1.00  0.00    -0.248 NA
ATOM     61  C   UNL A   1      41.573  30.346  35.752  1.00  0.00     0.031 C 
ATOM     62  C   UNL A   1      43.876  26.707  31.464  1.00  0.00     0.029 A 
ATOM     63  C   UNL A   1      43.096  27.649  32.117  1.00  0.00     0.049 A 
ATOM     64  H   UNL A   1      41.468  28.768  31.376  1.00  0.00     0.167 HD
ATOM     65  C   UNL A   1      42.395  29.033  34.059  1.00  0.00     0.074 A 
ATOM     66  C   UNL A   1      42.504  29.456  35.441  1.00  0.00     0.031 C 
ATOM     67  C   UNL A   1      43.192  28.101  33.481  1.00  0.00     0.037 A 
BRANCH  54  68
ATOM     68  C   UNL A   1      41.903  26.954  27.539  1.00  0.00     0.057 A 
ATOM     69  C   UNL A   1      41.365  25.686  27.283  1.00  0.00     0.134 A 
ATOM     70  C   UNL A   1      42.756  27.502  26.572  1.00  0.00     0.134 A 
ATOM     71  F   UNL A   1      40.559  25.097  28.179  1.00  0.00    -0.206 F 
ATOM     72  C   UNL A   1      41.682  24.981  26.122  1.00  0.00     0.040 A 
ATOM     73  C   UNL A   1      43.060  26.817  25.394  1.00  0.00     0.040 A 
ATOM     74  F   UNL A   1      43.306  28.712  26.754  1.00  0.00    -0.206 F 
ATOM     75  C   UNL A   1      42.528  25.550  25.170  1.00  0.00     0.006 A 
ENDBRANCH  54  68
BRANCH  55  76
ATOM     76  C   UNL A   1      39.361  32.263  35.643  1.00  0.00     0.057 A 
ATOM     77  C   UNL A   1      38.451  31.719  36.557  1.00  0.00     0.134 A 
ATOM     78  C   UNL A   1      39.873  33.536  35.925  1.00  0.00     0.134 A 
ATOM     79  F   UNL A   1      37.909  30.512  36.331  1.00  0.00    -0.206 F 
ATOM     80  C   UNL A   1      38.054  32.417  37.698  1.00  0.00     0.040 A 
ATOM     81  C   UNL A   1      39.506  34.235  37.076  1.00  0.00     0.040 A 
ATOM     82  F   UNL A   1      40.749  34.114  35.091  1.00  0.00    -0.206 F 
ATOM     83  C   UNL A   1      38.587  33.676  37.964  1.00  0.00     0.006 A 
ENDBRANCH  55  76
BRANCH  67  84
ATOM     84  C   UNL A   1      44.284  27.522  34.330  1.00  0.00     0.057 A 
ATOM     85  C   UNL A   1      45.541  28.128  34.434  1.00  0.00     0.134 A 
ATOM     86  C   UNL A   1      44.058  26.358  35.074  1.00  0.00     0.134 A 
ATOM     87  F   UNL A   1      45.823  29.237  33.734  1.00  0.00    -0.206 F 
ATOM     88  C   UNL A   1      46.546  27.583  35.236  1.00  0.00     0.040 A 
ATOM     89  C   UNL A   1      45.046  25.816  35.897  1.00  0.00     0.040 A 
ATOM     90  F   UNL A   1      42.872  25.734  35.021  1.00  0.00    -0.206 F 
ATOM     91  C   UNL A   1      46.297  26.427  35.974  1.00  0.00     0.006 A 
ENDBRANCH  67  84
ENDBRANCH  41  42
ENDBRANCH  34  36
ENDBRANCH  33  34
ENDBRANCH  32  33
ENDBRANCH   1  32
TORSDOF 16
ENDMDL
MODEL 2
REMARK VINA RESULT:     -11.6      4.032      8.945
REMARK SMILES CC(C)[C@@H]1C(=O)Nc2ccccc2N1C(=O)N[C@H](Cc1ccccc1)C(=O)OCCOC(=O)c1ccc(-c2c3nc(c(-c4c(F)cccc4F)c4ccc([nH]4)c(-c4c(F)cccc4F)c4nc(c(-c5c(F)cccc5F)c5ccc2[nH]5)C=C4)C=C3)cc1
REMARK SMILES IDX 29 1 28 2 26 3 27 4 18 5 17 6 15 7 16 8 14 10 4 11 5 12 6 13
REMARK SMILES IDX 7 14 13 15 8 16 12 18 9 19 11 20 10 21 2 22 1 23 3 24 19 25
REMARK SMILES IDX 20 26 21 27 25 28 22 29 24 30 23 31 30 32 31 33 32 34 33 35
REMARK SMILES IDX 34 36 35 37 87 38 36 39 86 40 37 41 38 42 39 43 80 44 40 45
REMARK SMILES IDX 85 46 79 47 81 48 41 49 84 50 78 51 77 52 42 54 68 55 51 56
REMARK SMILES IDX 67 57 52 58 55 59 66 60 82 61 53 62 54 63 65 65 83 66 56 67
REMARK SMILES IDX 43 68 44 69 49 70 45 71 46 72 48 73 50 74 47 75 69 76 70 77
REMARK SMILES IDX 75 78 71 79 72 80 74 81 76 82 73 83 57 84 58 85 63 86 59 87
REMARK SMILES IDX 60 88 62 89 64 90 61 91
REMARK H PARENT 17 9 7 17 81 53 55 64
REMARK Flexibility Score: inf
ROOT
ATOM      1  C   UNL A   1      35.844  20.828  25.077  1.00  0.00     0.274 C 
ENDROOT
BRANCH   1   2
ATOM      2  O   UNL A   1      35.371  21.617  23.956  1.00  0.00    -0.461 OA
BRANCH   2   3
ATOM      3  C   UNL A   1      35.657  22.944  23.829  1.00  0.00     0.329 C 
ATOM      4  O   UNL A   1      36.696  23.379  23.346  1.00  0.00    -0.250 OA
BRANCH   3   5
ATOM      5  C   UNL A   1      34.545  23.865  24.426  1.00  0.00     0.198 C 
BRANCH   5   6
ATOM      6  N   UNL A   1      33.480  24.164  23.423  1.00  0.00    -0.324 N 
ATOM      7  C   UNL A   1      32.693  23.206  22.820  1.00  0.00     0.323 C 
ATOM      8  O   UNL A   1      32.758  23.087  21.598  1.00  0.00    -0.248 OA
ATOM      9  H   UNL A   1      33.331  25.105  23.176  1.00  0.00     0.166 HD
BRANCH   7  10
ATOM     10  N   UNL A   1      31.696  22.628  23.588  1.00  0.00    -0.280 N 
ATOM     11  C   UNL A   1      31.111  23.300  24.817  1.00  0.00     0.184 C 
ATOM     12  C   UNL A   1      31.884  22.881  26.087  1.00  0.00     0.247 C 
ATOM     13  O   UNL A   1      32.048  23.563  27.095  1.00  0.00    -0.272 OA
ATOM     14  N   UNL A   1      32.180  21.552  26.174  1.00  0.00    -0.322 N 
ATOM     15  C   UNL A   1      31.943  21.201  23.785  1.00  0.00     0.070 A 
ATOM     16  C   UNL A   1      32.157  20.695  25.079  1.00  0.00     0.065 A 
ATOM     17  H   UNL A   1      32.422  21.182  27.053  1.00  0.00     0.170 HD
ATOM     18  C   UNL A   1      32.153  20.334  22.702  1.00  0.00     0.028 A 
ATOM     19  C   UNL A   1      32.516  19.363  25.295  1.00  0.00     0.028 A 
ATOM     20  C   UNL A   1      32.528  18.999  22.917  1.00  0.00     0.002 A 
ATOM     21  C   UNL A   1      32.701  18.513  24.211  1.00  0.00     0.002 A 
BRANCH  11  22
ATOM     22  C   UNL A   1      30.765  24.834  24.776  1.00  0.00     0.015 C 
ATOM     23  C   UNL A   1      30.052  25.271  23.493  1.00  0.00     0.010 C 
ATOM     24  C   UNL A   1      29.799  25.308  25.881  1.00  0.00     0.010 C 
ENDBRANCH  11  22
ENDBRANCH   7  10
ENDBRANCH   5   6
BRANCH   5  25
ATOM     25  C   UNL A   1      34.775  25.199  25.211  1.00  0.00     0.072 C 
BRANCH  25  26
ATOM     26  C   UNL A   1      33.968  26.473  25.342  1.00  0.00    -0.045 A 
ATOM     27  C   UNL A   1      33.654  27.179  24.153  1.00  0.00     0.004 A 
ATOM     28  C   UNL A   1      33.281  26.831  26.500  1.00  0.00     0.004 A 
ATOM     29  C   UNL A   1      32.706  28.200  24.115  1.00  0.00     0.000 A 
ATOM     30  C   UNL A   1      32.308  27.846  26.459  1.00  0.00     0.000 A 
ATOM     31  C   UNL A   1      32.019  28.527  25.272  1.00  0.00     0.000 A 
ENDBRANCH  25  26
ENDBRANCH   5  25
ENDBRANCH   3   5
ENDBRANCH   2   3
ENDBRANCH   1   2
BRANCH   1  32
ATOM     32  C   UNL A   1      37.330  20.465  24.988  1.00  0.00     0.275 C 
BRANCH  32  33
ATOM     33  O   UNL A   1      38.037  21.455  25.738  1.00  0.00    -0.458 OA
BRANCH  33  34
ATOM     34  C   UNL A   1      39.290  21.179  26.165  1.00  0.00     0.338 C 
ATOM     35  O   UNL A   1      39.873  20.116  26.126  1.00  0.00    -0.246 OA
BRANCH  34  36
ATOM     36  C   UNL A   1      39.823  22.457  26.686  1.00  0.00     0.060 A 
ATOM     37  C   UNL A   1      40.862  22.424  27.626  1.00  0.00     0.016 A 
ATOM     38  C   UNL A   1      39.338  23.677  26.227  1.00  0.00     0.016 A 
ATOM     39  C   UNL A   1      41.480  23.587  28.052  1.00  0.00     0.010 A 
ATOM     40  C   UNL A   1      39.975  24.853  26.636  1.00  0.00     0.010 A 
ATOM     41  C   UNL A   1      41.067  24.810  27.526  1.00  0.00    -0.014 A 
BRANCH  41  42
ATOM     42  C   UNL A   1      41.771  26.054  27.905  1.00  0.00     0.031 A 
ATOM     43  C   UNL A   1      41.044  27.085  28.705  1.00  0.00     0.074 A 
ATOM     44  C   UNL A   1      43.039  26.263  27.501  1.00  0.00     0.049 A 
ATOM     45  N   UNL A   1      41.349  28.338  28.911  1.00  0.00    -0.248 NA
ATOM     46  C   UNL A   1      39.792  26.648  29.343  1.00  0.00     0.031 C 
ATOM     47  C   UNL A   1      43.875  25.298  26.784  1.00  0.00     0.029 A 
ATOM     48  N   UNL A   1      43.838  27.372  27.620  1.00  0.00    -0.354 N 
ATOM     49  C   UNL A   1      40.299  28.857  29.655  1.00  0.00     0.074 A 
ATOM     50  C   UNL A   1      39.354  27.782  29.868  1.00  0.00     0.031 C 
ATOM     51  C   UNL A   1      45.063  25.861  26.515  1.00  0.00     0.029 A 
ATOM     52  C   UNL A   1      45.043  27.246  26.974  1.00  0.00     0.049 A 
ATOM     53  H   UNL A   1      43.573  28.178  28.119  1.00  0.00     0.167 HD
ATOM     54  C   UNL A   1      40.144  30.124  30.106  1.00  0.00     0.037 A 
ATOM     55  C   UNL A   1      45.998  28.163  26.731  1.00  0.00     0.037 A 
ATOM     56  C   UNL A   1      41.114  31.169  29.905  1.00  0.00     0.049 A 
ATOM     57  C   UNL A   1      45.782  29.574  27.200  1.00  0.00     0.074 A 
ATOM     58  C   UNL A   1      41.058  32.490  30.312  1.00  0.00     0.029 A 
ATOM     59  N   UNL A   1      42.325  31.002  29.249  1.00  0.00    -0.354 N 
ATOM     60  N   UNL A   1      44.761  30.083  27.848  1.00  0.00    -0.248 NA
ATOM     61  C   UNL A   1      46.841  30.544  26.889  1.00  0.00     0.031 C 
ATOM     62  C   UNL A   1      42.224  33.130  29.876  1.00  0.00     0.029 A 
ATOM     63  C   UNL A   1      43.025  32.197  29.236  1.00  0.00     0.049 A 
ATOM     64  H   UNL A   1      42.640  30.158  28.851  1.00  0.00     0.167 HD
ATOM     65  C   UNL A   1      45.065  31.423  28.046  1.00  0.00     0.074 A 
ATOM     66  C   UNL A   1      46.370  31.645  27.457  1.00  0.00     0.031 C 
ATOM     67  C   UNL A   1      44.330  32.384  28.658  1.00  0.00     0.037 A 
BRANCH  54  68
ATOM     68  C   UNL A   1      38.864  30.449  30.815  1.00  0.00     0.057 A 
ATOM     69  C   UNL A   1      38.716  30.290  32.199  1.00  0.00     0.134 A 
ATOM     70  C   UNL A   1      37.763  30.937  30.100  1.00  0.00     0.134 A 
ATOM     71  F   UNL A   1      39.726  29.806  32.939  1.00  0.00    -0.206 F 
ATOM     72  C   UNL A   1      37.512  30.582  32.842  1.00  0.00     0.040 A 
ATOM     73  C   UNL A   1      36.562  31.257  30.735  1.00  0.00     0.040 A 
ATOM     74  F   UNL A   1      37.836  31.113  28.771  1.00  0.00    -0.206 F 
ATOM     75  C   UNL A   1      36.432  31.073  32.109  1.00  0.00     0.006 A 
ENDBRANCH  54  68
BRANCH  55  76
ATOM     76  C   UNL A   1      47.218  27.788  25.973  1.00  0.00     0.057 A 
ATOM     77  C   UNL A   1      48.399  27.437  26.636  1.00  0.00     0.134 A 
ATOM     78  C   UNL A   1      47.237  27.773  24.572  1.00  0.00     0.134 A 
ATOM     79  F   UNL A   1      48.451  27.454  27.976  1.00  0.00    -0.206 F 
ATOM     80  C   UNL A   1      49.558  27.096  25.935  1.00  0.00     0.040 A 
ATOM     81  C   UNL A   1      48.380  27.410  23.859  1.00  0.00     0.040 A 
ATOM     82  F   UNL A   1      46.137  28.099  23.876  1.00  0.00    -0.206 F 
ATOM     83  C   UNL A   1      49.548  27.076  24.542  1.00  0.00     0.006 A 
ENDBRANCH  55  76
BRANCH  67  84
ATOM     84  C   UNL A   1      44.950  33.745  28.766  1.00  0.00     0.057 A 
ATOM     85  C   UNL A   1      45.784  34.096  29.834  1.00  0.00     0.134 A 
ATOM     86  C   UNL A   1      44.730  34.704  27.770  1.00  0.00     0.134 A 
ATOM     87  F   UNL A   1      46.021  33.226  30.827  1.00  0.00    -0.206 F 
ATOM     88  C   UNL A   1      46.362  35.364  29.918  1.00  0.00     0.040 A 
ATOM     89  C   UNL A   1      45.320  35.966  27.831  1.00  0.00     0.040 A 
ATOM     90  F   UNL A   1      43.945  34.426  26.719  1.00  0.00    -0.206 F 
ATOM     91  C   UNL A   1      46.135  36.301  28.911  1.00  0.00     0.006 A 
ENDBRANCH  67  84
ENDBRANCH  41  42
ENDBRANCH  34  36
ENDBRANCH  33  34
ENDBRANCH  32  33
ENDBRANCH   1  32
TORSDOF 16
ENDMDL
MODEL 3
REMARK VINA RESULT:     -11.6      4.003      8.453
REMARK SMILES CC(C)[C@@H]1C(=O)Nc2ccccc2N1C(=O)N[C@H](Cc1ccccc1)C(=O)OCCOC(=O)c1ccc(-c2c3nc(c(-c4c(F)cccc4F)c4ccc([nH]4)c(-c4c(F)cccc4F)c4nc(c(-c5c(F)cccc5F)c5ccc2[nH]5)C=C4)C=C3)cc1
REMARK SMILES IDX 29 1 28 2 26 3 27 4 18 5 17 6 15 7 16 8 14 10 4 11 5 12 6 13
REMARK SMILES IDX 7 14 13 15 8 16 12 18 9 19 11 20 10 21 2 22 1 23 3 24 19 25
REMARK SMILES IDX 20 26 21 27 25 28 22 29 24 30 23 31 30 32 31 33 32 34 33 35
REMARK SMILES IDX 34 36 35 37 87 38 36 39 86 40 37 41 38 42 39 43 80 44 40 45
REMARK SMILES IDX 85 46 79 47 81 48 41 49 84 50 78 51 77 52 42 54 68 55 51 56
REMARK SMILES IDX 67 57 52 58 55 59 66 60 82 61 53 62 54 63 65 65 83 66 56 67
REMARK SMILES IDX 43 68 44 69 49 70 45 71 46 72 48 73 50 74 47 75 69 76 70 77
REMARK SMILES IDX 75 78 71 79 72 80 74 81 76 82 73 83 57 84 58 85 63 86 59 87
REMARK SMILES IDX 60 88 62 89 64 90 61 91
REMARK H PARENT 17 9 7 17 81 53 55 64
REMARK Flexibility Score: inf
ROOT
ATOM      1  C   UNL A   1      35.836  22.569  25.483  1.00  0.00     0.274 C 
ENDROOT
BRANCH   1   2
ATOM      2  O   UNL A   1      34.669  22.317  24.660  1.00  0.00    -0.461 OA
BRANCH   2   3
ATOM      3  C   UNL A   1      34.590  22.735  23.364  1.00  0.00     0.329 C 
ATOM      4  O   UNL A   1      35.469  23.372  22.795  1.00  0.00    -0.250 OA
BRANCH   3   5
ATOM      5  C   UNL A   1      33.228  22.374  22.691  1.00  0.00     0.198 C 
BRANCH   5   6
ATOM      6  N   UNL A   1      32.441  23.596  22.349  1.00  0.00    -0.324 N 
ATOM      7  C   UNL A   1      31.513  24.179  23.186  1.00  0.00     0.323 C 
ATOM      8  O   UNL A   1      30.345  24.237  22.806  1.00  0.00    -0.248 OA
ATOM      9  H   UNL A   1      32.593  24.011  21.470  1.00  0.00     0.166 HD
BRANCH   7  10
ATOM     10  N   UNL A   1      31.995  24.891  24.271  1.00  0.00    -0.280 N 
ATOM     11  C   UNL A   1      31.624  24.557  25.704  1.00  0.00     0.184 C 
ATOM     12  C   UNL A   1      30.378  25.358  26.145  1.00  0.00     0.247 C 
ATOM     13  O   UNL A   1      29.532  24.996  26.958  1.00  0.00    -0.272 OA
ATOM     14  N   UNL A   1      30.376  26.673  25.780  1.00  0.00    -0.322 N 
ATOM     15  C   UNL A   1      31.992  26.328  24.004  1.00  0.00     0.070 A 
ATOM     16  C   UNL A   1      31.197  27.186  24.782  1.00  0.00     0.065 A 
ATOM     17  H   UNL A   1      29.765  27.288  26.247  1.00  0.00     0.170 HD
ATOM     18  C   UNL A   1      32.621  26.867  22.872  1.00  0.00     0.028 A 
ATOM     19  C   UNL A   1      31.072  28.544  24.480  1.00  0.00     0.028 A 
ATOM     20  C   UNL A   1      32.485  28.228  22.559  1.00  0.00     0.002 A 
ATOM     21  C   UNL A   1      31.719  29.066  23.366  1.00  0.00     0.002 A 
BRANCH  11  22
ATOM     22  C   UNL A   1      31.596  23.055  26.173  1.00  0.00     0.015 C 
ATOM     23  C   UNL A   1      32.349  22.805  27.482  1.00  0.00     0.010 C 
ATOM     24  C   UNL A   1      30.189  22.500  26.477  1.00  0.00     0.010 C 
ENDBRANCH  11  22
ENDBRANCH   7  10
ENDBRANCH   5   6
BRANCH   5  25
ATOM     25  C   UNL A   1      32.186  21.333  23.218  1.00  0.00     0.072 C 
BRANCH  25  26
ATOM     26  C   UNL A   1      32.295  19.881  23.634  1.00  0.00    -0.045 A 
ATOM     27  C   UNL A   1      32.493  18.917  22.613  1.00  0.00     0.004 A 
ATOM     28  C   UNL A   1      32.503  19.472  24.950  1.00  0.00     0.004 A 
ATOM     29  C   UNL A   1      32.872  17.603  22.885  1.00  0.00     0.000 A 
ATOM     30  C   UNL A   1      32.908  18.153  25.225  1.00  0.00     0.000 A 
ATOM     31  C   UNL A   1      33.094  17.223  24.198  1.00  0.00     0.000 A 
ENDBRANCH  25  26
ENDBRANCH   5  25
ENDBRANCH   3   5
ENDBRANCH   2   3
ENDBRANCH   1   2
BRANCH   1  32
ATOM     32  C   UNL A   1      36.716  21.333  25.696  1.00  0.00     0.275 C 
BRANCH  32  33
ATOM     33  O   UNL A   1      38.027  21.684  25.246  1.00  0.00    -0.458 OA
BRANCH  33  34
ATOM     34  C   UNL A   1      39.094  21.301  25.983  1.00  0.00     0.338 C 
ATOM     35  O   UNL A   1      39.529  20.179  26.137  1.00  0.00    -0.246 OA
BRANCH  34  36
ATOM     36  C   UNL A   1      39.642  22.546  26.566  1.00  0.00     0.060 A 
ATOM     37  C   UNL A   1      40.620  22.452  27.565  1.00  0.00     0.016 A 
ATOM     38  C   UNL A   1      39.231  23.794  26.108  1.00  0.00     0.016 A 
ATOM     39  C   UNL A   1      41.254  23.580  28.055  1.00  0.00     0.010 A 
ATOM     40  C   UNL A   1      39.886  24.934  26.582  1.00  0.00     0.010 A 
ATOM     41  C   UNL A   1      40.920  24.830  27.534  1.00  0.00    -0.014 A 
BRANCH  41  42
ATOM     42  C   UNL A   1      41.645  26.037  27.984  1.00  0.00     0.031 A 
ATOM     43  C   UNL A   1      40.915  27.071  28.776  1.00  0.00     0.074 A 
ATOM     44  C   UNL A   1      42.939  26.212  27.651  1.00  0.00     0.049 A 
ATOM     45  N   UNL A   1      41.252  28.306  29.034  1.00  0.00    -0.248 NA
ATOM     46  C   UNL A   1      39.618  26.662  29.338  1.00  0.00     0.031 C 
ATOM     47  C   UNL A   1      43.777  25.237  26.948  1.00  0.00     0.029 A 
ATOM     48  N   UNL A   1      43.768  27.287  27.842  1.00  0.00    -0.354 N 
ATOM     49  C   UNL A   1      40.184  28.842  29.739  1.00  0.00     0.074 A 
ATOM     50  C   UNL A   1      39.192  27.796  29.873  1.00  0.00     0.031 C 
ATOM     51  C   UNL A   1      44.996  25.765  26.756  1.00  0.00     0.029 A 
ATOM     52  C   UNL A   1      45.000  27.136  27.253  1.00  0.00     0.049 A 
ATOM     53  H   UNL A   1      43.506  28.088  28.350  1.00  0.00     0.167 HD
ATOM     54  C   UNL A   1      40.049  30.101  30.218  1.00  0.00     0.037 A 
ATOM     55  C   UNL A   1      45.997  28.025  27.085  1.00  0.00     0.037 A 
ATOM     56  C   UNL A   1      41.063  31.116  30.097  1.00  0.00     0.049 A 
ATOM     57  C   UNL A   1      45.806  29.430  27.584  1.00  0.00     0.074 A 
ATOM     58  C   UNL A   1      41.032  32.426  30.539  1.00  0.00     0.029 A 
ATOM     59  N   UNL A   1      42.300  30.923  29.498  1.00  0.00    -0.354 N 
ATOM     60  N   UNL A   1      44.772  29.957  28.195  1.00  0.00    -0.248 NA
ATOM     61  C   UNL A   1      46.913  30.369  27.355  1.00  0.00     0.031 C 
ATOM     62  C   UNL A   1      42.240  33.036  30.181  1.00  0.00     0.029 A 
ATOM     63  C   UNL A   1      43.040  32.092  29.555  1.00  0.00     0.049 A 
ATOM     64  H   UNL A   1      42.605  30.080  29.092  1.00  0.00     0.167 HD
ATOM     65  C   UNL A   1      45.111  31.279  28.446  1.00  0.00     0.074 A 
ATOM     66  C   UNL A   1      46.451  31.471  27.930  1.00  0.00     0.031 C 
ATOM     67  C   UNL A   1      44.379  32.249  29.048  1.00  0.00     0.037 A 
BRANCH  54  68
ATOM     68  C   UNL A   1      38.747  30.452  30.872  1.00  0.00     0.057 A 
ATOM     69  C   UNL A   1      38.530  30.279  32.245  1.00  0.00     0.134 A 
ATOM     70  C   UNL A   1      37.694  30.979  30.113  1.00  0.00     0.134 A 
ATOM     71  F   UNL A   1      39.490  29.760  33.025  1.00  0.00    -0.206 F 
ATOM     72  C   UNL A   1      37.305  30.596  32.835  1.00  0.00     0.040 A 
ATOM     73  C   UNL A   1      36.473  31.323  30.696  1.00  0.00     0.040 A 
ATOM     74  F   UNL A   1      37.834  31.169  28.792  1.00  0.00    -0.206 F 
ATOM     75  C   UNL A   1      36.274  31.126  32.060  1.00  0.00     0.006 A 
ENDBRANCH  54  68
BRANCH  55  76
ATOM     76  C   UNL A   1      47.241  27.628  26.378  1.00  0.00     0.057 A 
ATOM     77  C   UNL A   1      47.321  27.670  24.982  1.00  0.00     0.134 A 
ATOM     78  C   UNL A   1      48.376  27.195  27.075  1.00  0.00     0.134 A 
ATOM     79  F   UNL A   1      46.259  28.054  24.257  1.00  0.00    -0.206 F 
ATOM     80  C   UNL A   1      48.479  27.286  24.303  1.00  0.00     0.040 A 
ATOM     81  C   UNL A   1      49.549  26.832  26.412  1.00  0.00     0.040 A 
ATOM     82  F   UNL A   1      48.365  27.132  28.415  1.00  0.00    -0.206 F 
ATOM     83  C   UNL A   1      49.600  26.871  25.020  1.00  0.00     0.006 A 
ENDBRANCH  55  76
BRANCH  67  84
ATOM     84  C   UNL A   1      45.039  33.583  29.227  1.00  0.00     0.057 A 
ATOM     85  C   UNL A   1      45.784  33.893  30.371  1.00  0.00     0.134 A 
ATOM     86  C   UNL A   1      44.948  34.557  28.225  1.00  0.00     0.134 A 
ATOM     87  F   UNL A   1      45.895  33.008  31.372  1.00  0.00    -0.206 F 
ATOM     88  C   UNL A   1      46.401  35.137  30.521  1.00  0.00     0.040 A 
ATOM     89  C   UNL A   1      45.579  35.794  28.353  1.00  0.00     0.040 A 
ATOM     90  F   UNL A   1      44.253  34.318  27.104  1.00  0.00    -0.206 F 
ATOM     91  C   UNL A   1      46.304  36.089  29.507  1.00  0.00     0.006 A 
ENDBRANCH  67  84
ENDBRANCH  41  42
ENDBRANCH  34  36
ENDBRANCH  33  34
ENDBRANCH  32  33
ENDBRANCH   1  32
TORSDOF 16
ENDMDL
