MODEL 1
REMARK VINA RESULT:     -12.8      0.000      0.000
REMARK SMILES O=C(OCCOC(=O)c1ccc(-c2c3nc(c(-c4c(F)cccc4F)c4ccc([nH]4)c(-c4c(F)cccc4F)c4nc(c(-c5c(F)cccc5F)c5ccc2[nH]5)C=C4)C=C3)cc1)c1ccc(NC(=O)[C@@H]2CC=CC[C@@H]2C(=O)Nc2ccc(Br)cc2)cc1
REMARK SMILES IDX 4 1 3 2 2 3 1 4 63 5 64 6 87 7 65 8 86 9 66 10 67 11 68 12
REMARK SMILES IDX 69 14 70 15 71 16 75 17 72 18 74 19 73 20 76 21 77 22 78 23
REMARK SMILES IDX 79 25 80 26 85 27 81 28 84 29 82 30 83 31 5 32 6 33 7 34
REMARK SMILES IDX 8 35 9 36 10 37 62 38 11 39 61 40 12 41 13 42 14 43 55 44
REMARK SMILES IDX 15 45 60 46 54 47 56 48 16 49 59 50 53 51 52 52 17 54 43 55
REMARK SMILES IDX 26 56 42 57 27 58 30 59 41 60 57 61 28 62 29 63 40 65 58 66
REMARK SMILES IDX 31 67 18 68 19 69 24 70 20 71 21 72 23 73 25 74 22 75 44 76
REMARK SMILES IDX 45 77 50 78 46 79 47 80 49 81 51 82 48 83 32 84 33 85 38 86
REMARK SMILES IDX 34 87 35 88 37 89 39 90 36 91
REMARK H PARENT 67 13 78 24 56 53 30 64
REMARK Flexibility Score: inf
ROOT
ATOM      1  C   UNL A   1      43.176  21.290  25.937  1.00  0.00     0.275 C 
ENDROOT
BRANCH   1   2
ATOM      2  O   UNL A   1      41.768  21.089  25.689  1.00  0.00    -0.458 OA
BRANCH   2   3
ATOM      3  C   UNL A   1      40.700  21.198  26.515  1.00  0.00     0.338 C 
ATOM      4  O   UNL A   1      40.788  20.727  27.649  1.00  0.00    -0.246 OA
BRANCH   3   5
ATOM      5  C   UNL A   1      39.381  21.802  26.129  1.00  0.00     0.060 A 
ATOM      6  C   UNL A   1      38.921  23.075  26.469  1.00  0.00     0.018 A 
ATOM      7  C   UNL A   1      38.486  20.982  25.427  1.00  0.00     0.018 A 
ATOM      8  C   UNL A   1      37.711  23.589  25.933  1.00  0.00     0.027 A 
ATOM      9  C   UNL A   1      37.302  21.503  24.879  1.00  0.00     0.027 A 
ATOM     10  C   UNL A   1      36.999  22.866  24.986  1.00  0.00     0.041 A 
BRANCH  10  11
ATOM     11  N   UNL A   1      36.120  23.373  24.001  1.00  0.00    -0.326 N 
ATOM     12  C   UNL A   1      34.836  23.366  23.555  1.00  0.00     0.228 C 
ATOM     13  H   UNL A   1      36.641  23.959  23.407  1.00  0.00     0.169 HD
ATOM     14  O   UNL A   1      34.708  24.145  22.584  1.00  0.00    -0.274 OA
BRANCH  12  15
ATOM     15  C   UNL A   1      33.498  22.729  24.045  1.00  0.00     0.095 C 
ATOM     16  C   UNL A   1      32.251  23.490  23.458  1.00  0.00     0.041 C 
ATOM     17  C   UNL A   1      33.246  22.110  25.437  1.00  0.00     0.095 C 
ATOM     18  C   UNL A   1      30.965  23.365  24.238  1.00  0.00    -0.030 C 
ATOM     19  C   UNL A   1      31.864  21.402  25.424  1.00  0.00     0.041 C 
ATOM     20  C   UNL A   1      30.772  22.392  25.138  1.00  0.00    -0.030 C 
BRANCH  17  21
ATOM     21  C   UNL A   1      33.199  23.041  26.660  1.00  0.00     0.228 C 
ATOM     22  O   UNL A   1      32.782  22.675  27.755  1.00  0.00    -0.274 OA
ATOM     23  N   UNL A   1      33.803  24.249  26.458  1.00  0.00    -0.326 N 
ATOM     24  H   UNL A   1      34.782  24.280  26.560  1.00  0.00     0.169 HD
BRANCH  23  25
ATOM     25  C   UNL A   1      33.168  25.435  26.124  1.00  0.00     0.041 A 
ATOM     26  C   UNL A   1      33.894  26.235  25.236  1.00  0.00     0.027 A 
ATOM     27  C   UNL A   1      31.862  25.737  26.465  1.00  0.00     0.027 A 
ATOM     28  C   UNL A   1      33.239  27.215  24.516  1.00  0.00     0.018 A 
ATOM     29  C   UNL A   1      31.254  26.832  25.852  1.00  0.00     0.018 A 
ATOM     30  C   UNL A   1      31.930  27.537  24.851  1.00  0.00     0.018 A 
ATOM     31  Br  UNL A   1      31.097  28.972  23.956  1.00  0.00    -0.051 Br
ENDBRANCH  23  25
ENDBRANCH  17  21
ENDBRANCH  12  15
ENDBRANCH  10  11
ENDBRANCH   3   5
ENDBRANCH   2   3
ENDBRANCH   1   2
BRANCH   1  32
ATOM     32  C   UNL A   1      43.921  22.083  24.866  1.00  0.00     0.275 C 
BRANCH  32  33
ATOM     33  O   UNL A   1      43.371  23.388  24.670  1.00  0.00    -0.458 OA
BRANCH  33  34
ATOM     34  C   UNL A   1      44.181  24.425  25.004  1.00  0.00     0.338 C 
ATOM     35  O   UNL A   1      45.326  24.636  24.636  1.00  0.00    -0.246 OA
BRANCH  34  36
ATOM     36  C   UNL A   1      43.430  25.266  25.945  1.00  0.00     0.060 A 
ATOM     37  C   UNL A   1      42.399  24.751  26.725  1.00  0.00     0.016 A 
ATOM     38  C   UNL A   1      43.822  26.584  26.108  1.00  0.00     0.016 A 
ATOM     39  C   UNL A   1      41.812  25.547  27.728  1.00  0.00     0.010 A 
ATOM     40  C   UNL A   1      43.281  27.335  27.157  1.00  0.00     0.010 A 
ATOM     41  C   UNL A   1      42.281  26.843  28.011  1.00  0.00    -0.014 A 
BRANCH  41  42
ATOM     42  C   UNL A   1      41.767  27.684  29.161  1.00  0.00     0.031 A 
ATOM     43  C   UNL A   1      42.392  27.597  30.546  1.00  0.00     0.074 A 
ATOM     44  C   UNL A   1      40.665  28.464  29.045  1.00  0.00     0.049 A 
ATOM     45  N   UNL A   1      42.009  28.165  31.668  1.00  0.00    -0.248 NA
ATOM     46  C   UNL A   1      43.550  26.706  30.713  1.00  0.00     0.031 C 
ATOM     47  C   UNL A   1      39.838  28.609  27.849  1.00  0.00     0.029 A 
ATOM     48  N   UNL A   1      40.034  29.285  29.962  1.00  0.00    -0.354 N 
ATOM     49  C   UNL A   1      42.842  27.655  32.657  1.00  0.00     0.074 A 
ATOM     50  C   UNL A   1      43.656  26.640  32.030  1.00  0.00     0.031 C 
ATOM     51  C   UNL A   1      38.842  29.479  28.086  1.00  0.00     0.029 A 
ATOM     52  C   UNL A   1      38.939  29.957  29.461  1.00  0.00     0.049 A 
ATOM     53  H   UNL A   1      40.340  29.382  30.892  1.00  0.00     0.167 HD
ATOM     54  C   UNL A   1      42.997  28.036  33.950  1.00  0.00     0.037 A 
ATOM     55  C   UNL A   1      38.114  30.869  30.020  1.00  0.00     0.037 A 
ATOM     56  C   UNL A   1      42.297  29.123  34.576  1.00  0.00     0.049 A 
ATOM     57  C   UNL A   1      38.336  31.333  31.439  1.00  0.00     0.074 A 
ATOM     58  C   UNL A   1      42.513  29.676  35.827  1.00  0.00     0.029 A 
ATOM     59  N   UNL A   1      41.257  29.831  34.001  1.00  0.00    -0.354 N 
ATOM     60  N   UNL A   1      39.245  30.952  32.301  1.00  0.00    -0.248 NA
ATOM     61  C   UNL A   1      37.428  32.373  31.955  1.00  0.00     0.031 C 
ATOM     62  C   UNL A   1      41.576  30.692  36.028  1.00  0.00     0.029 A 
ATOM     63  C   UNL A   1      40.807  30.801  34.882  1.00  0.00     0.049 A 
ATOM     64  H   UNL A   1      40.892  29.671  33.101  1.00  0.00     0.167 HD
ATOM     65  C   UNL A   1      39.047  31.735  33.435  1.00  0.00     0.074 A 
ATOM     66  C   UNL A   1      37.940  32.618  33.154  1.00  0.00     0.031 C 
ATOM     67  C   UNL A   1      39.731  31.715  34.604  1.00  0.00     0.037 A 
BRANCH  54  68
ATOM     68  C   UNL A   1      44.031  27.310  34.766  1.00  0.00     0.057 A 
ATOM     69  C   UNL A   1      43.715  26.157  35.498  1.00  0.00     0.134 A 
ATOM     70  C   UNL A   1      45.362  27.747  34.793  1.00  0.00     0.134 A 
ATOM     71  F   UNL A   1      42.459  25.682  35.513  1.00  0.00    -0.206 F 
ATOM     72  C   UNL A   1      44.669  25.498  36.274  1.00  0.00     0.040 A 
ATOM     73  C   UNL A   1      46.335  27.071  35.532  1.00  0.00     0.040 A 
ATOM     74  F   UNL A   1      45.741  28.827  34.095  1.00  0.00    -0.206 F 
ATOM     75  C   UNL A   1      45.985  25.952  36.287  1.00  0.00     0.006 A 
ENDBRANCH  54  68
BRANCH  55  76
ATOM     76  C   UNL A   1      37.011  31.481  29.227  1.00  0.00     0.057 A 
ATOM     77  C   UNL A   1      37.118  32.793  28.743  1.00  0.00     0.134 A 
ATOM     78  C   UNL A   1      35.805  30.810  29.002  1.00  0.00     0.134 A 
ATOM     79  F   UNL A   1      38.241  33.498  28.949  1.00  0.00    -0.206 F 
ATOM     80  C   UNL A   1      36.052  33.430  28.105  1.00  0.00     0.040 A 
ATOM     81  C   UNL A   1      34.738  31.426  28.341  1.00  0.00     0.040 A 
ATOM     82  F   UNL A   1      35.641  29.550  29.426  1.00  0.00    -0.206 F 
ATOM     83  C   UNL A   1      34.856  32.745  27.903  1.00  0.00     0.006 A 
ENDBRANCH  55  76
BRANCH  67  84
ATOM     84  C   UNL A   1      39.361  32.710  35.667  1.00  0.00     0.057 A 
ATOM     85  C   UNL A   1      38.438  32.413  36.676  1.00  0.00     0.134 A 
ATOM     86  C   UNL A   1      40.003  33.955  35.729  1.00  0.00     0.134 A 
ATOM     87  F   UNL A   1      37.778  31.244  36.672  1.00  0.00    -0.206 F 
ATOM     88  C   UNL A   1      38.160  33.317  37.703  1.00  0.00     0.040 A 
ATOM     89  C   UNL A   1      39.755  34.856  36.766  1.00  0.00     0.040 A 
ATOM     90  F   UNL A   1      40.906  34.303  34.799  1.00  0.00    -0.206 F 
ATOM     91  C   UNL A   1      38.829  34.539  37.757  1.00  0.00     0.006 A 
ENDBRANCH  67  84
ENDBRANCH  41  42
ENDBRANCH  34  36
ENDBRANCH  33  34
ENDBRANCH  32  33
ENDBRANCH   1  32
TORSDOF 15
ENDMDL
MODEL 2
REMARK VINA RESULT:     -12.7      1.446      2.508
REMARK SMILES O=C(OCCOC(=O)c1ccc(-c2c3nc(c(-c4c(F)cccc4F)c4ccc([nH]4)c(-c4c(F)cccc4F)c4nc(c(-c5c(F)cccc5F)c5ccc2[nH]5)C=C4)C=C3)cc1)c1ccc(NC(=O)[C@@H]2CC=CC[C@@H]2C(=O)Nc2ccc(Br)cc2)cc1
REMARK SMILES IDX 4 1 3 2 2 3 1 4 63 5 64 6 87 7 65 8 86 9 66 10 67 11 68 12
REMARK SMILES IDX 69 14 70 15 71 16 75 17 72 18 74 19 73 20 76 21 77 22 78 23
REMARK SMILES IDX 79 25 80 26 85 27 81 28 84 29 82 30 83 31 5 32 6 33 7 34
REMARK SMILES IDX 8 35 9 36 10 37 62 38 11 39 61 40 12 41 13 42 14 43 55 44
REMARK SMILES IDX 15 45 60 46 54 47 56 48 16 49 59 50 53 51 52 52 17 54 43 55
REMARK SMILES IDX 26 56 42 57 27 58 30 59 41 60 57 61 28 62 29 63 40 65 58 66
REMARK SMILES IDX 31 67 18 68 19 69 24 70 20 71 21 72 23 73 25 74 22 75 44 76
REMARK SMILES IDX 45 77 50 78 46 79 47 80 49 81 51 82 48 83 32 84 33 85 38 86
REMARK SMILES IDX 34 87 35 88 37 89 39 90 36 91
REMARK H PARENT 67 13 78 24 56 53 30 64
REMARK Flexibility Score: inf
ROOT
ATOM      1  C   UNL A   1      43.017  21.417  26.098  1.00  0.00     0.275 C 
ENDROOT
BRANCH   1   2
ATOM      2  O   UNL A   1      41.607  21.472  25.792  1.00  0.00    -0.458 OA
BRANCH   2   3
ATOM      3  C   UNL A   1      40.534  21.655  26.598  1.00  0.00     0.338 C 
ATOM      4  O   UNL A   1      40.651  21.394  27.796  1.00  0.00    -0.246 OA
BRANCH   3   5
ATOM      5  C   UNL A   1      39.180  22.097  26.127  1.00  0.00     0.060 A 
ATOM      6  C   UNL A   1      38.607  23.356  26.315  1.00  0.00     0.018 A 
ATOM      7  C   UNL A   1      38.372  21.131  25.508  1.00  0.00     0.018 A 
ATOM      8  C   UNL A   1      37.371  23.702  25.707  1.00  0.00     0.027 A 
ATOM      9  C   UNL A   1      37.163  21.485  24.888  1.00  0.00     0.027 A 
ATOM     10  C   UNL A   1      36.746  22.821  24.837  1.00  0.00     0.041 A 
BRANCH  10  11
ATOM     11  N   UNL A   1      35.851  23.139  23.788  1.00  0.00    -0.326 N 
ATOM     12  C   UNL A   1      34.819  23.943  23.419  1.00  0.00     0.228 C 
ATOM     13  H   UNL A   1      36.056  22.547  23.029  1.00  0.00     0.169 HD
ATOM     14  O   UNL A   1      34.501  23.726  22.229  1.00  0.00    -0.274 OA
BRANCH  12  15
ATOM     15  C   UNL A   1      34.051  25.129  24.081  1.00  0.00     0.095 C 
ATOM     16  C   UNL A   1      33.945  24.946  25.641  1.00  0.00     0.041 C 
ATOM     17  C   UNL A   1      32.857  25.891  23.465  1.00  0.00     0.095 C 
ATOM     18  C   UNL A   1      32.811  25.671  26.323  1.00  0.00    -0.030 C 
ATOM     19  C   UNL A   1      32.543  27.127  24.354  1.00  0.00     0.041 C 
ATOM     20  C   UNL A   1      32.167  26.691  25.740  1.00  0.00    -0.030 C 
BRANCH  17  21
ATOM     21  C   UNL A   1      31.512  25.160  23.320  1.00  0.00     0.228 C 
ATOM     22  O   UNL A   1      30.436  25.699  23.564  1.00  0.00    -0.274 OA
ATOM     23  N   UNL A   1      31.615  23.923  22.750  1.00  0.00    -0.326 N 
ATOM     24  H   UNL A   1      31.660  23.888  21.767  1.00  0.00     0.169 HD
BRANCH  23  25
ATOM     25  C   UNL A   1      31.660  22.713  23.426  1.00  0.00     0.041 A 
ATOM     26  C   UNL A   1      32.036  21.631  22.624  1.00  0.00     0.027 A 
ATOM     27  C   UNL A   1      31.539  22.587  24.798  1.00  0.00     0.027 A 
ATOM     28  C   UNL A   1      32.508  20.478  23.219  1.00  0.00     0.018 A 
ATOM     29  C   UNL A   1      31.864  21.363  25.381  1.00  0.00     0.018 A 
ATOM     30  C   UNL A   1      32.387  20.331  24.595  1.00  0.00     0.018 A 
ATOM     31  Br  UNL A   1      32.905  18.695  25.376  1.00  0.00    -0.051 Br
ENDBRANCH  23  25
ENDBRANCH  17  21
ENDBRANCH  12  15
ENDBRANCH  10  11
ENDBRANCH   3   5
ENDBRANCH   2   3
ENDBRANCH   1   2
BRANCH   1  32
ATOM     32  C   UNL A   1      43.930  22.126  25.101  1.00  0.00     0.275 C 
BRANCH  32  33
ATOM     33  O   UNL A   1      43.428  23.408  24.715  1.00  0.00    -0.458 OA
BRANCH  33  34
ATOM     34  C   UNL A   1      44.228  24.466  25.002  1.00  0.00     0.338 C 
ATOM     35  O   UNL A   1      45.361  24.684  24.601  1.00  0.00    -0.246 OA
BRANCH  34  36
ATOM     36  C   UNL A   1      43.486  25.321  25.938  1.00  0.00     0.060 A 
ATOM     37  C   UNL A   1      42.311  24.891  26.546  1.00  0.00     0.016 A 
ATOM     38  C   UNL A   1      44.025  26.550  26.275  1.00  0.00     0.016 A 
ATOM     39  C   UNL A   1      41.717  25.673  27.557  1.00  0.00     0.010 A 
ATOM     40  C   UNL A   1      43.466  27.277  27.332  1.00  0.00     0.010 A 
ATOM     41  C   UNL A   1      42.314  26.859  28.019  1.00  0.00    -0.014 A 
BRANCH  41  42
ATOM     42  C   UNL A   1      41.781  27.663  29.187  1.00  0.00     0.031 A 
ATOM     43  C   UNL A   1      42.410  27.561  30.570  1.00  0.00     0.074 A 
ATOM     44  C   UNL A   1      40.659  28.418  29.089  1.00  0.00     0.049 A 
ATOM     45  N   UNL A   1      42.014  28.095  31.705  1.00  0.00    -0.248 NA
ATOM     46  C   UNL A   1      43.589  26.696  30.717  1.00  0.00     0.031 C 
ATOM     47  C   UNL A   1      39.828  28.567  27.897  1.00  0.00     0.029 A 
ATOM     48  N   UNL A   1      40.009  29.202  30.024  1.00  0.00    -0.354 N 
ATOM     49  C   UNL A   1      42.861  27.584  32.682  1.00  0.00     0.074 A 
ATOM     50  C   UNL A   1      43.699  26.604  32.032  1.00  0.00     0.031 C 
ATOM     51  C   UNL A   1      38.811  29.406  28.153  1.00  0.00     0.029 A 
ATOM     52  C   UNL A   1      38.897  29.857  29.538  1.00  0.00     0.049 A 
ATOM     53  H   UNL A   1      40.314  29.286  30.955  1.00  0.00     0.167 HD
ATOM     54  C   UNL A   1      43.007  27.941  33.982  1.00  0.00     0.037 A 
ATOM     55  C   UNL A   1      38.051  30.736  30.118  1.00  0.00     0.037 A 
ATOM     56  C   UNL A   1      42.282  28.997  34.632  1.00  0.00     0.049 A 
ATOM     57  C   UNL A   1      38.263  31.174  31.546  1.00  0.00     0.074 A 
ATOM     58  C   UNL A   1      42.485  29.528  35.895  1.00  0.00     0.029 A 
ATOM     59  N   UNL A   1      41.223  29.691  34.073  1.00  0.00    -0.354 N 
ATOM     60  N   UNL A   1      39.182  30.798  32.399  1.00  0.00    -0.248 NA
ATOM     61  C   UNL A   1      37.330  32.180  32.085  1.00  0.00     0.031 C 
ATOM     62  C   UNL A   1      41.523  30.515  36.118  1.00  0.00     0.029 A 
ATOM     63  C   UNL A   1      40.751  30.630  34.975  1.00  0.00     0.049 A 
ATOM     64  H   UNL A   1      40.861  29.541  33.171  1.00  0.00     0.167 HD
ATOM     65  C   UNL A   1      38.966  31.550  33.550  1.00  0.00     0.074 A 
ATOM     66  C   UNL A   1      37.837  32.412  33.289  1.00  0.00     0.031 C 
ATOM     67  C   UNL A   1      39.652  31.522  34.718  1.00  0.00     0.037 A 
BRANCH  54  68
ATOM     68  C   UNL A   1      44.060  27.224  34.781  1.00  0.00     0.057 A 
ATOM     69  C   UNL A   1      43.792  26.011  35.433  1.00  0.00     0.134 A 
ATOM     70  C   UNL A   1      45.363  27.730  34.873  1.00  0.00     0.134 A 
ATOM     71  F   UNL A   1      42.565  25.469  35.383  1.00  0.00    -0.206 F 
ATOM     72  C   UNL A   1      44.761  25.359  36.194  1.00  0.00     0.040 A 
ATOM     73  C   UNL A   1      46.354  27.064  35.597  1.00  0.00     0.040 A 
ATOM     74  F   UNL A   1      45.698  28.871  34.253  1.00  0.00    -0.206 F 
ATOM     75  C   UNL A   1      46.049  25.883  36.272  1.00  0.00     0.006 A 
ENDBRANCH  54  68
BRANCH  55  76
ATOM     76  C   UNL A   1      36.932  31.337  29.339  1.00  0.00     0.057 A 
ATOM     77  C   UNL A   1      35.783  30.591  29.040  1.00  0.00     0.134 A 
ATOM     78  C   UNL A   1      37.013  32.630  28.812  1.00  0.00     0.134 A 
ATOM     79  F   UNL A   1      35.657  29.335  29.497  1.00  0.00    -0.206 F 
ATOM     80  C   UNL A   1      34.777  31.090  28.212  1.00  0.00     0.040 A 
ATOM     81  C   UNL A   1      36.001  33.153  28.001  1.00  0.00     0.040 A 
ATOM     82  F   UNL A   1      38.077  33.402  29.069  1.00  0.00    -0.206 F 
ATOM     83  C   UNL A   1      34.886  32.377  27.687  1.00  0.00     0.006 A 
ENDBRANCH  55  76
BRANCH  67  84
ATOM     84  C   UNL A   1      39.258  32.485  35.803  1.00  0.00     0.057 A 
ATOM     85  C   UNL A   1      38.377  32.128  36.830  1.00  0.00     0.134 A 
ATOM     86  C   UNL A   1      39.837  33.760  35.865  1.00  0.00     0.134 A 
ATOM     87  F   UNL A   1      37.778  30.927  36.827  1.00  0.00    -0.206 F 
ATOM     88  C   UNL A   1      38.079  33.006  37.875  1.00  0.00     0.040 A 
ATOM     89  C   UNL A   1      39.569  34.635  36.919  1.00  0.00     0.040 A 
ATOM     90  F   UNL A   1      40.697  34.165  34.918  1.00  0.00    -0.206 F 
ATOM     91  C   UNL A   1      38.686  34.259  37.929  1.00  0.00     0.006 A 
ENDBRANCH  67  84
ENDBRANCH  41  42
ENDBRANCH  34  36
ENDBRANCH  33  34
ENDBRANCH  32  33
ENDBRANCH   1  32
TORSDOF 15
ENDMDL
MODEL 3
REMARK VINA RESULT:     -12.6      4.599      9.735
REMARK SMILES O=C(OCCOC(=O)c1ccc(-c2c3nc(c(-c4c(F)cccc4F)c4ccc([nH]4)c(-c4c(F)cccc4F)c4nc(c(-c5c(F)cccc5F)c5ccc2[nH]5)C=C4)C=C3)cc1)c1ccc(NC(=O)[C@@H]2CC=CC[C@@H]2C(=O)Nc2ccc(Br)cc2)cc1
REMARK SMILES IDX 4 1 3 2 2 3 1 4 63 5 64 6 87 7 65 8 86 9 66 10 67 11 68 12
REMARK SMILES IDX 69 14 70 15 71 16 75 17 72 18 74 19 73 20 76 21 77 22 78 23
REMARK SMILES IDX 79 25 80 26 85 27 81 28 84 29 82 30 83 31 5 32 6 33 7 34
REMARK SMILES IDX 8 35 9 36 10 37 62 38 11 39 61 40 12 41 13 42 14 43 55 44
REMARK SMILES IDX 15 45 60 46 54 47 56 48 16 49 59 50 53 51 52 52 17 54 43 55
REMARK SMILES IDX 26 56 42 57 27 58 30 59 41 60 57 61 28 62 29 63 40 65 58 66
REMARK SMILES IDX 31 67 18 68 19 69 24 70 20 71 21 72 23 73 25 74 22 75 44 76
REMARK SMILES IDX 45 77 50 78 46 79 47 80 49 81 51 82 48 83 32 84 33 85 38 86
REMARK SMILES IDX 34 87 35 88 37 89 39 90 36 91
REMARK H PARENT 67 13 78 24 56 53 30 64
REMARK Flexibility Score: inf
ROOT
ATOM      1  C   UNL A   1      34.463  33.873  30.161  1.00  0.00     0.275 C 
ENDROOT
BRANCH   1   2
ATOM      2  O   UNL A   1      33.969  32.802  29.331  1.00  0.00    -0.458 OA
BRANCH   2   3
ATOM      3  C   UNL A   1      34.485  32.239  28.213  1.00  0.00     0.338 C 
ATOM      4  O   UNL A   1      35.364  32.849  27.604  1.00  0.00    -0.246 OA
BRANCH   3   5
ATOM      5  C   UNL A   1      34.020  30.941  27.618  1.00  0.00     0.060 A 
ATOM      6  C   UNL A   1      34.757  29.761  27.525  1.00  0.00     0.018 A 
ATOM      7  C   UNL A   1      32.750  30.932  27.022  1.00  0.00     0.018 A 
ATOM      8  C   UNL A   1      34.166  28.556  27.062  1.00  0.00     0.027 A 
ATOM      9  C   UNL A   1      32.161  29.733  26.589  1.00  0.00     0.027 A 
ATOM     10  C   UNL A   1      32.809  28.506  26.773  1.00  0.00     0.041 A 
BRANCH  10  11
ATOM     11  N   UNL A   1      31.966  27.371  26.804  1.00  0.00    -0.326 N 
ATOM     12  C   UNL A   1      31.878  26.048  26.502  1.00  0.00     0.228 C 
ATOM     13  H   UNL A   1      31.107  27.646  27.198  1.00  0.00     0.169 HD
ATOM     14  O   UNL A   1      30.775  25.589  26.872  1.00  0.00    -0.274 OA
BRANCH  12  15
ATOM     15  C   UNL A   1      32.860  24.977  25.934  1.00  0.00     0.095 C 
ATOM     16  C   UNL A   1      33.941  25.630  24.993  1.00  0.00     0.041 C 
ATOM     17  C   UNL A   1      32.493  23.528  25.544  1.00  0.00     0.095 C 
ATOM     18  C   UNL A   1      34.577  24.716  23.974  1.00  0.00    -0.030 C 
ATOM     19  C   UNL A   1      33.802  22.748  25.237  1.00  0.00     0.041 C 
ATOM     20  C   UNL A   1      34.530  23.382  24.088  1.00  0.00    -0.030 C 
BRANCH  17  21
ATOM     21  C   UNL A   1      31.603  23.301  24.311  1.00  0.00     0.228 C 
ATOM     22  O   UNL A   1      31.780  22.371  23.528  1.00  0.00    -0.274 OA
ATOM     23  N   UNL A   1      30.515  24.124  24.256  1.00  0.00    -0.326 N 
ATOM     24  H   UNL A   1      29.728  23.859  24.785  1.00  0.00     0.169 HD
BRANCH  23  25
ATOM     25  C   UNL A   1      30.414  25.297  23.523  1.00  0.00     0.041 A 
ATOM     26  C   UNL A   1      29.315  26.088  23.872  1.00  0.00     0.027 A 
ATOM     27  C   UNL A   1      31.393  25.760  22.662  1.00  0.00     0.027 A 
ATOM     28  C   UNL A   1      29.309  27.427  23.533  1.00  0.00     0.018 A 
ATOM     29  C   UNL A   1      31.295  27.069  22.192  1.00  0.00     0.018 A 
ATOM     30  C   UNL A   1      30.280  27.907  22.663  1.00  0.00     0.018 A 
ATOM     31  Br  UNL A   1      30.177  29.703  22.098  1.00  0.00    -0.051 Br
ENDBRANCH  23  25
ENDBRANCH  17  21
ENDBRANCH  12  15
ENDBRANCH  10  11
ENDBRANCH   3   5
ENDBRANCH   2   3
ENDBRANCH   1   2
BRANCH   1  32
ATOM     32  C   UNL A   1      34.747  33.497  31.614  1.00  0.00     0.275 C 
BRANCH  32  33
ATOM     33  O   UNL A   1      35.092  32.118  31.764  1.00  0.00    -0.458 OA
BRANCH  33  34
ATOM     34  C   UNL A   1      36.143  31.859  32.583  1.00  0.00     0.338 C 
ATOM     35  O   UNL A   1      36.256  32.122  33.770  1.00  0.00    -0.246 OA
BRANCH  34  36
ATOM     36  C   UNL A   1      37.174  31.213  31.760  1.00  0.00     0.060 A 
ATOM     37  C   UNL A   1      37.253  31.424  30.387  1.00  0.00     0.016 A 
ATOM     38  C   UNL A   1      38.134  30.442  32.394  1.00  0.00     0.016 A 
ATOM     39  C   UNL A   1      38.349  30.918  29.661  1.00  0.00     0.010 A 
ATOM     40  C   UNL A   1      39.253  30.012  31.672  1.00  0.00     0.010 A 
ATOM     41  C   UNL A   1      39.411  30.249  30.297  1.00  0.00    -0.014 A 
BRANCH  41  42
ATOM     42  C   UNL A   1      40.666  29.801  29.577  1.00  0.00     0.031 A 
ATOM     43  C   UNL A   1      40.788  28.398  28.999  1.00  0.00     0.074 A 
ATOM     44  C   UNL A   1      41.774  30.578  29.512  1.00  0.00     0.049 A 
ATOM     45  N   UNL A   1      41.829  27.813  28.447  1.00  0.00    -0.248 NA
ATOM     46  C   UNL A   1      39.621  27.512  29.116  1.00  0.00     0.031 C 
ATOM     47  C   UNL A   1      41.924  31.908  30.098  1.00  0.00     0.029 A 
ATOM     48  N   UNL A   1      43.006  30.355  28.925  1.00  0.00    -0.354 N 
ATOM     49  C   UNL A   1      41.447  26.498  28.212  1.00  0.00     0.074 A 
ATOM     50  C   UNL A   1      40.136  26.336  28.797  1.00  0.00     0.031 C 
ATOM     51  C   UNL A   1      43.146  32.393  29.820  1.00  0.00     0.029 A 
ATOM     52  C   UNL A   1      43.888  31.409  29.040  1.00  0.00     0.049 A 
ATOM     53  H   UNL A   1      43.234  29.515  28.465  1.00  0.00     0.167 HD
ATOM     54  C   UNL A   1      42.069  25.522  27.504  1.00  0.00     0.037 A 
ATOM     55  C   UNL A   1      45.138  31.586  28.562  1.00  0.00     0.037 A 
ATOM     56  C   UNL A   1      43.312  25.682  26.801  1.00  0.00     0.049 A 
ATOM     57  C   UNL A   1      45.795  30.519  27.721  1.00  0.00     0.074 A 
ATOM     58  C   UNL A   1      43.925  24.797  25.930  1.00  0.00     0.029 A 
ATOM     59  N   UNL A   1      44.127  26.797  26.877  1.00  0.00    -0.354 N 
ATOM     60  N   UNL A   1      45.337  29.344  27.371  1.00  0.00    -0.248 NA
ATOM     61  C   UNL A   1      47.137  30.815  27.189  1.00  0.00     0.031 C 
ATOM     62  C   UNL A   1      45.133  25.358  25.510  1.00  0.00     0.029 A 
ATOM     63  C   UNL A   1      45.248  26.612  26.084  1.00  0.00     0.049 A 
ATOM     64  H   UNL A   1      43.939  27.601  27.412  1.00  0.00     0.167 HD
ATOM     65  C   UNL A   1      46.309  28.785  26.545  1.00  0.00     0.074 A 
ATOM     66  C   UNL A   1      47.379  29.749  26.437  1.00  0.00     0.031 C 
ATOM     67  C   UNL A   1      46.305  27.577  25.934  1.00  0.00     0.037 A 
BRANCH  54  68
ATOM     68  C   UNL A   1      41.367  24.197  27.388  1.00  0.00     0.057 A 
ATOM     69  C   UNL A   1      41.775  23.080  28.131  1.00  0.00     0.134 A 
ATOM     70  C   UNL A   1      40.253  24.045  26.554  1.00  0.00     0.134 A 
ATOM     71  F   UNL A   1      42.834  23.159  28.953  1.00  0.00    -0.206 F 
ATOM     72  C   UNL A   1      41.139  21.846  28.006  1.00  0.00     0.040 A 
ATOM     73  C   UNL A   1      39.582  22.824  26.452  1.00  0.00     0.040 A 
ATOM     74  F   UNL A   1      39.790  25.077  25.834  1.00  0.00    -0.206 F 
ATOM     75  C   UNL A   1      40.035  21.717  27.167  1.00  0.00     0.006 A 
ENDBRANCH  54  68
BRANCH  55  76
ATOM     76  C   UNL A   1      45.867  32.864  28.801  1.00  0.00     0.057 A 
ATOM     77  C   UNL A   1      45.747  33.937  27.905  1.00  0.00     0.134 A 
ATOM     78  C   UNL A   1      46.752  33.018  29.872  1.00  0.00     0.134 A 
ATOM     79  F   UNL A   1      44.932  33.840  26.844  1.00  0.00    -0.206 F 
ATOM     80  C   UNL A   1      46.512  35.096  28.041  1.00  0.00     0.040 A 
ATOM     81  C   UNL A   1      47.506  34.184  30.036  1.00  0.00     0.040 A 
ATOM     82  F   UNL A   1      46.905  32.037  30.772  1.00  0.00    -0.206 F 
ATOM     83  C   UNL A   1      47.397  35.221  29.110  1.00  0.00     0.006 A 
ENDBRANCH  55  76
BRANCH  67  84
ATOM     84  C   UNL A   1      47.457  27.224  25.036  1.00  0.00     0.057 A 
ATOM     85  C   UNL A   1      47.494  27.604  23.689  1.00  0.00     0.134 A 
ATOM     86  C   UNL A   1      48.584  26.567  25.551  1.00  0.00     0.134 A 
ATOM     87  F   UNL A   1      46.446  28.225  23.128  1.00  0.00    -0.206 F 
ATOM     88  C   UNL A   1      48.605  27.337  22.885  1.00  0.00     0.040 A 
ATOM     89  C   UNL A   1      49.710  26.320  24.765  1.00  0.00     0.040 A 
ATOM     90  F   UNL A   1      48.619  26.182  26.836  1.00  0.00    -0.206 F 
ATOM     91  C   UNL A   1      49.723  26.705  23.426  1.00  0.00     0.006 A 
ENDBRANCH  67  84
ENDBRANCH  41  42
ENDBRANCH  34  36
ENDBRANCH  33  34
ENDBRANCH  32  33
ENDBRANCH   1  32
TORSDOF 15
ENDMDL
