MODEL 1
REMARK VINA RESULT:     -13.0      0.000      0.000
REMARK SMILES O=C(CCCN1C(=O)c2ccc3c4c(ccc(c24)C1=O)C(=O)NC3=O)OCCOC(=O)c1ccc(-c2c3nc(c(-c4c(F)cccc4F)c4ccc([nH]4)c(-c4c(F)cccc4F)c4nc(c(-c5c(F)cccc5F)c5ccc2[nH]5)C=C4)C=C3)cc1
REMARK SMILES IDX 27 1 26 2 2 3 1 4 3 5 4 6 5 7 6 8 19 9 7 10 20 11 17 12 9 13
REMARK SMILES IDX 8 14 16 15 18 16 10 17 15 18 13 19 11 20 14 21 12 22 21 23
REMARK SMILES IDX 24 24 23 25 22 26 25 27 28 29 29 30 30 31 31 32 32 33 33 34
REMARK SMILES IDX 85 35 34 36 84 37 35 38 36 39 37 40 78 41 38 42 83 43 77 44
REMARK SMILES IDX 79 45 39 46 82 47 76 48 75 49 40 51 66 52 49 53 65 54 50 55
REMARK SMILES IDX 53 56 64 57 80 58 51 59 52 60 63 62 81 63 54 64 41 65 42 66
REMARK SMILES IDX 47 67 43 68 44 69 46 70 48 71 45 72 67 73 68 74 73 75 69 76
REMARK SMILES IDX 70 77 72 78 74 79 71 80 55 81 56 82 61 83 57 84 58 85 60 86
REMARK SMILES IDX 62 87 59 88
REMARK H PARENT 23 28 79 50 53 61
REMARK Flexibility Score: inf
ROOT
ATOM      1  C   UNL A   1      44.623  20.435  25.292  1.00  0.00     0.274 C 
ENDROOT
BRANCH   1   2
ATOM      2  O   UNL A   1      43.202  20.292  25.119  1.00  0.00    -0.462 OA
BRANCH   2   3
ATOM      3  C   UNL A   1      42.449  19.638  26.039  1.00  0.00     0.305 C 
ATOM      4  O   UNL A   1      41.919  18.564  25.771  1.00  0.00    -0.252 OA
BRANCH   3   5
ATOM      5  C   UNL A   1      42.153  20.361  27.333  1.00  0.00     0.124 C 
BRANCH   5   6
ATOM      6  C   UNL A   1      40.804  21.071  27.372  1.00  0.00     0.034 C 
BRANCH   6   7
ATOM      7  C   UNL A   1      40.261  21.551  26.016  1.00  0.00     0.130 C 
BRANCH   7   8
ATOM      8  N   UNL A   1      38.804  21.556  25.806  1.00  0.00    -0.274 N 
ATOM      9  C   UNL A   1      38.248  20.368  25.320  1.00  0.00     0.261 C 
ATOM     10  C   UNL A   1      38.081  22.744  25.918  1.00  0.00     0.261 C 
ATOM     11  O   UNL A   1      38.902  19.365  25.046  1.00  0.00    -0.269 OA
ATOM     12  C   UNL A   1      36.776  20.309  25.170  1.00  0.00     0.049 A 
ATOM     13  C   UNL A   1      36.602  22.644  25.831  1.00  0.00     0.049 A 
ATOM     14  O   UNL A   1      38.582  23.847  26.101  1.00  0.00    -0.269 OA
ATOM     15  C   UNL A   1      36.170  19.109  24.770  1.00  0.00     0.015 A 
ATOM     16  C   UNL A   1      36.004  21.434  25.467  1.00  0.00     0.009 A 
ATOM     17  C   UNL A   1      35.812  23.764  26.129  1.00  0.00     0.015 A 
ATOM     18  C   UNL A   1      34.782  19.023  24.680  1.00  0.00     0.015 A 
ATOM     19  C   UNL A   1      34.590  21.345  25.395  1.00  0.00     0.009 A 
ATOM     20  C   UNL A   1      34.421  23.673  26.088  1.00  0.00     0.015 A 
ATOM     21  C   UNL A   1      33.998  20.135  24.999  1.00  0.00     0.048 A 
ATOM     22  C   UNL A   1      33.815  22.468  25.720  1.00  0.00     0.048 A 
ATOM     23  C   UNL A   1      32.522  20.038  24.919  1.00  0.00     0.258 C 
ATOM     24  C   UNL A   1      32.338  22.372  25.675  1.00  0.00     0.258 C 
ATOM     25  N   UNL A   1      31.819  21.166  25.266  1.00  0.00    -0.288 N 
ATOM     26  O   UNL A   1      31.967  19.005  24.567  1.00  0.00    -0.269 OA
ATOM     27  O   UNL A   1      31.624  23.314  25.993  1.00  0.00    -0.269 OA
ATOM     28  H   UNL A   1      30.839  21.104  25.217  1.00  0.00     0.173 HD
ENDBRANCH   7   8
ENDBRANCH   6   7
ENDBRANCH   5   6
ENDBRANCH   3   5
ENDBRANCH   2   3
ENDBRANCH   1   2
BRANCH   1  29
ATOM     29  C   UNL A   1      45.041  21.877  25.594  1.00  0.00     0.275 C 
BRANCH  29  30
ATOM     30  O   UNL A   1      43.904  22.758  25.574  1.00  0.00    -0.458 OA
BRANCH  30  31
ATOM     31  C   UNL A   1      44.199  24.051  25.270  1.00  0.00     0.338 C 
ATOM     32  O   UNL A   1      44.844  24.443  24.319  1.00  0.00    -0.246 OA
BRANCH  31  33
ATOM     33  C   UNL A   1      43.483  24.961  26.195  1.00  0.00     0.060 A 
ATOM     34  C   UNL A   1      43.884  26.302  26.235  1.00  0.00     0.016 A 
ATOM     35  C   UNL A   1      42.447  24.516  27.019  1.00  0.00     0.016 A 
ATOM     36  C   UNL A   1      43.278  27.193  27.123  1.00  0.00     0.010 A 
ATOM     37  C   UNL A   1      41.831  25.409  27.901  1.00  0.00     0.010 A 
ATOM     38  C   UNL A   1      42.268  26.743  27.985  1.00  0.00    -0.014 A 
BRANCH  38  39
ATOM     39  C   UNL A   1      41.799  27.602  29.099  1.00  0.00     0.031 A 
ATOM     40  C   UNL A   1      42.511  27.513  30.420  1.00  0.00     0.074 A 
ATOM     41  C   UNL A   1      40.756  28.438  28.955  1.00  0.00     0.049 A 
ATOM     42  N   UNL A   1      42.240  28.106  31.554  1.00  0.00    -0.248 NA
ATOM     43  C   UNL A   1      43.681  26.623  30.470  1.00  0.00     0.031 C 
ATOM     44  C   UNL A   1      39.990  28.634  27.728  1.00  0.00     0.029 A 
ATOM     45  N   UNL A   1      40.156  29.270  29.868  1.00  0.00    -0.354 N 
ATOM     46  C   UNL A   1      43.193  27.649  32.455  1.00  0.00     0.074 A 
ATOM     47  C   UNL A   1      44.031  26.707  31.744  1.00  0.00     0.031 C 
ATOM     48  C   UNL A   1      39.009  29.523  27.967  1.00  0.00     0.029 A 
ATOM     49  C   UNL A   1      39.063  29.935  29.369  1.00  0.00     0.049 A 
ATOM     50  H   UNL A   1      40.478  29.379  30.791  1.00  0.00     0.167 HD
ATOM     51  C   UNL A   1      43.366  27.990  33.753  1.00  0.00     0.037 A 
ATOM     52  C   UNL A   1      38.197  30.766  29.981  1.00  0.00     0.037 A 
ATOM     53  C   UNL A   1      42.548  28.934  34.462  1.00  0.00     0.049 A 
ATOM     54  C   UNL A   1      38.381  31.102  31.438  1.00  0.00     0.074 A 
ATOM     55  C   UNL A   1      42.667  29.369  35.771  1.00  0.00     0.029 A 
ATOM     56  N   UNL A   1      41.452  29.588  33.921  1.00  0.00    -0.354 N 
ATOM     57  N   UNL A   1      39.307  30.692  32.270  1.00  0.00    -0.248 NA
ATOM     58  C   UNL A   1      37.398  32.018  32.040  1.00  0.00     0.031 C 
ATOM     59  C   UNL A   1      41.618  30.257  36.033  1.00  0.00     0.029 A 
ATOM     60  C   UNL A   1      40.871  30.405  34.875  1.00  0.00     0.049 A 
ATOM     61  H   UNL A   1      41.133  29.486  32.994  1.00  0.00     0.167 HD
ATOM     62  C   UNL A   1      39.037  31.319  33.482  1.00  0.00     0.074 A 
ATOM     63  C   UNL A   1      37.862  32.139  33.277  1.00  0.00     0.031 C 
ATOM     64  C   UNL A   1      39.709  31.228  34.655  1.00  0.00     0.037 A 
BRANCH  51  65
ATOM     65  C   UNL A   1      44.476  27.306  34.492  1.00  0.00     0.057 A 
ATOM     66  C   UNL A   1      45.764  27.853  34.564  1.00  0.00     0.134 A 
ATOM     67  C   UNL A   1      44.256  26.079  35.129  1.00  0.00     0.134 A 
ATOM     68  F   UNL A   1      46.043  29.017  33.957  1.00  0.00    -0.206 F 
ATOM     69  C   UNL A   1      46.802  27.187  35.217  1.00  0.00     0.040 A 
ATOM     70  C   UNL A   1      45.280  25.416  35.805  1.00  0.00     0.040 A 
ATOM     71  F   UNL A   1      43.045  25.502  35.097  1.00  0.00    -0.206 F 
ATOM     72  C   UNL A   1      46.560  25.966  35.844  1.00  0.00     0.006 A 
ENDBRANCH  51  65
BRANCH  52  73
ATOM     73  C   UNL A   1      37.063  31.340  29.215  1.00  0.00     0.057 A 
ATOM     74  C   UNL A   1      37.096  32.660  28.753  1.00  0.00     0.134 A 
ATOM     75  C   UNL A   1      35.920  30.584  28.933  1.00  0.00     0.134 A 
ATOM     76  F   UNL A   1      38.154  33.440  29.015  1.00  0.00    -0.206 F 
ATOM     77  C   UNL A   1      36.028  33.211  28.042  1.00  0.00     0.040 A 
ATOM     78  C   UNL A   1      34.853  31.115  28.207  1.00  0.00     0.040 A 
ATOM     79  F   UNL A   1      35.828  29.312  29.353  1.00  0.00    -0.206 F 
ATOM     80  C   UNL A   1      34.905  32.435  27.762  1.00  0.00     0.006 A 
ENDBRANCH  52  73
BRANCH  64  81
ATOM     81  C   UNL A   1      39.222  32.060  35.805  1.00  0.00     0.057 A 
ATOM     82  C   UNL A   1      39.636  33.384  35.985  1.00  0.00     0.134 A 
ATOM     83  C   UNL A   1      38.270  31.550  36.697  1.00  0.00     0.134 A 
ATOM     84  F   UNL A   1      40.553  33.928  35.171  1.00  0.00    -0.206 F 
ATOM     85  C   UNL A   1      39.125  34.172  37.019  1.00  0.00     0.040 A 
ATOM     86  C   UNL A   1      37.736  32.334  37.720  1.00  0.00     0.040 A 
ATOM     87  F   UNL A   1      37.826  30.290  36.572  1.00  0.00    -0.206 F 
ATOM     88  C   UNL A   1      38.165  33.649  37.884  1.00  0.00     0.006 A 
ENDBRANCH  64  81
ENDBRANCH  38  39
ENDBRANCH  31  33
ENDBRANCH  30  31
ENDBRANCH  29  30
ENDBRANCH   1  29
TORSDOF 14
ENDMDL
MODEL 2
REMARK VINA RESULT:     -12.1      1.733      2.989
REMARK SMILES O=C(CCCN1C(=O)c2ccc3c4c(ccc(c24)C1=O)C(=O)NC3=O)OCCOC(=O)c1ccc(-c2c3nc(c(-c4c(F)cccc4F)c4ccc([nH]4)c(-c4c(F)cccc4F)c4nc(c(-c5c(F)cccc5F)c5ccc2[nH]5)C=C4)C=C3)cc1
REMARK SMILES IDX 27 1 26 2 2 3 1 4 3 5 4 6 5 7 6 8 19 9 7 10 20 11 17 12 9 13
REMARK SMILES IDX 8 14 16 15 18 16 10 17 15 18 13 19 11 20 14 21 12 22 21 23
REMARK SMILES IDX 24 24 23 25 22 26 25 27 28 29 29 30 30 31 31 32 32 33 33 34
REMARK SMILES IDX 85 35 34 36 84 37 35 38 36 39 37 40 78 41 38 42 83 43 77 44
REMARK SMILES IDX 79 45 39 46 82 47 76 48 75 49 40 51 66 52 49 53 65 54 50 55
REMARK SMILES IDX 53 56 64 57 80 58 51 59 52 60 63 62 81 63 54 64 41 65 42 66
REMARK SMILES IDX 47 67 43 68 44 69 46 70 48 71 45 72 67 73 68 74 73 75 69 76
REMARK SMILES IDX 70 77 72 78 74 79 71 80 55 81 56 82 61 83 57 84 58 85 60 86
REMARK SMILES IDX 62 87 59 88
REMARK H PARENT 23 28 79 50 53 61
REMARK Flexibility Score: inf
ROOT
ATOM      1  C   UNL A   1      42.532  20.821  26.093  1.00  0.00     0.274 C 
ENDROOT
BRANCH   1   2
ATOM      2  O   UNL A   1      41.206  21.069  25.596  1.00  0.00    -0.462 OA
BRANCH   2   3
ATOM      3  C   UNL A   1      40.230  21.539  26.413  1.00  0.00     0.305 C 
ATOM      4  O   UNL A   1      40.307  21.402  27.631  1.00  0.00    -0.252 OA
BRANCH   3   5
ATOM      5  C   UNL A   1      38.978  22.080  25.759  1.00  0.00     0.124 C 
BRANCH   5   6
ATOM      6  C   UNL A   1      37.792  21.122  25.765  1.00  0.00     0.034 C 
BRANCH   6   7
ATOM      7  C   UNL A   1      36.825  21.247  24.576  1.00  0.00     0.130 C 
BRANCH   7   8
ATOM      8  N   UNL A   1      35.676  22.160  24.699  1.00  0.00    -0.274 N 
ATOM      9  C   UNL A   1      35.525  23.101  23.675  1.00  0.00     0.261 C 
ATOM     10  C   UNL A   1      34.916  22.180  25.869  1.00  0.00     0.261 C 
ATOM     11  O   UNL A   1      36.296  23.213  22.726  1.00  0.00    -0.269 OA
ATOM     12  C   UNL A   1      34.339  23.986  23.725  1.00  0.00     0.049 A 
ATOM     13  C   UNL A   1      33.694  23.023  25.864  1.00  0.00     0.049 A 
ATOM     14  O   UNL A   1      35.179  21.538  26.879  1.00  0.00    -0.269 OA
ATOM     15  C   UNL A   1      34.102  24.883  22.673  1.00  0.00     0.015 A 
ATOM     16  C   UNL A   1      33.447  23.889  24.794  1.00  0.00     0.009 A 
ATOM     17  C   UNL A   1      32.787  22.936  26.930  1.00  0.00     0.015 A 
ATOM     18  C   UNL A   1      32.959  25.681  22.678  1.00  0.00     0.015 A 
ATOM     19  C   UNL A   1      32.272  24.685  24.794  1.00  0.00     0.009 A 
ATOM     20  C   UNL A   1      31.617  23.695  26.920  1.00  0.00     0.015 A 
ATOM     21  C   UNL A   1      32.047  25.574  23.731  1.00  0.00     0.048 A 
ATOM     22  C   UNL A   1      31.364  24.566  25.857  1.00  0.00     0.048 A 
ATOM     23  C   UNL A   1      30.824  26.410  23.728  1.00  0.00     0.258 C 
ATOM     24  C   UNL A   1      30.122  25.374  25.846  1.00  0.00     0.258 C 
ATOM     25  N   UNL A   1      29.965  26.236  24.787  1.00  0.00    -0.288 N 
ATOM     26  O   UNL A   1      30.595  27.206  22.826  1.00  0.00    -0.269 OA
ATOM     27  O   UNL A   1      29.282  25.269  26.731  1.00  0.00    -0.269 OA
ATOM     28  H   UNL A   1      29.151  26.786  24.786  1.00  0.00     0.173 HD
ENDBRANCH   7   8
ENDBRANCH   6   7
ENDBRANCH   5   6
ENDBRANCH   3   5
ENDBRANCH   2   3
ENDBRANCH   1   2
BRANCH   1  29
ATOM     29  C   UNL A   1      43.593  21.688  25.409  1.00  0.00     0.275 C 
BRANCH  29  30
ATOM     30  O   UNL A   1      43.004  22.875  24.849  1.00  0.00    -0.458 OA
BRANCH  30  31
ATOM     31  C   UNL A   1      43.762  23.997  24.986  1.00  0.00     0.338 C 
ATOM     32  O   UNL A   1      44.767  24.274  24.362  1.00  0.00    -0.246 OA
BRANCH  31  33
ATOM     33  C   UNL A   1      43.100  24.941  25.917  1.00  0.00     0.060 A 
ATOM     34  C   UNL A   1      43.641  26.227  26.040  1.00  0.00     0.016 A 
ATOM     35  C   UNL A   1      41.979  24.580  26.667  1.00  0.00     0.016 A 
ATOM     36  C   UNL A   1      43.088  27.141  26.939  1.00  0.00     0.010 A 
ATOM     37  C   UNL A   1      41.417  25.497  27.560  1.00  0.00     0.010 A 
ATOM     38  C   UNL A   1      41.991  26.770  27.728  1.00  0.00    -0.014 A 
BRANCH  38  39
ATOM     39  C   UNL A   1      41.558  27.628  28.858  1.00  0.00     0.031 A 
ATOM     40  C   UNL A   1      42.298  27.522  30.162  1.00  0.00     0.074 A 
ATOM     41  C   UNL A   1      40.523  28.478  28.742  1.00  0.00     0.049 A 
ATOM     42  N   UNL A   1      42.060  28.111  31.305  1.00  0.00    -0.248 NA
ATOM     43  C   UNL A   1      43.457  26.616  30.180  1.00  0.00     0.031 C 
ATOM     44  C   UNL A   1      39.732  28.693  27.533  1.00  0.00     0.029 A 
ATOM     45  N   UNL A   1      39.955  29.313  29.673  1.00  0.00    -0.354 N 
ATOM     46  C   UNL A   1      43.027  27.636  32.181  1.00  0.00     0.074 A 
ATOM     47  C   UNL A   1      43.836  26.687  31.446  1.00  0.00     0.031 C 
ATOM     48  C   UNL A   1      38.769  29.593  27.800  1.00  0.00     0.029 A 
ATOM     49  C   UNL A   1      38.860  29.996  29.203  1.00  0.00     0.049 A 
ATOM     50  H   UNL A   1      40.299  29.412  30.589  1.00  0.00     0.167 HD
ATOM     51  C   UNL A   1      43.234  27.966  33.477  1.00  0.00     0.037 A 
ATOM     52  C   UNL A   1      38.019  30.834  29.839  1.00  0.00     0.037 A 
ATOM     53  C   UNL A   1      42.444  28.917  34.210  1.00  0.00     0.049 A 
ATOM     54  C   UNL A   1      38.239  31.158  31.293  1.00  0.00     0.074 A 
ATOM     55  C   UNL A   1      42.599  29.342  35.518  1.00  0.00     0.029 A 
ATOM     56  N   UNL A   1      41.345  29.588  33.697  1.00  0.00    -0.354 N 
ATOM     57  N   UNL A   1      39.178  30.731  32.102  1.00  0.00    -0.248 NA
ATOM     58  C   UNL A   1      37.283  32.083  31.922  1.00  0.00     0.031 C 
ATOM     59  C   UNL A   1      41.568  30.241  35.809  1.00  0.00     0.029 A 
ATOM     60  C   UNL A   1      40.797  30.407  34.670  1.00  0.00     0.049 A 
ATOM     61  H   UNL A   1      41.004  29.496  32.778  1.00  0.00     0.167 HD
ATOM     62  C   UNL A   1      38.944  31.354  33.323  1.00  0.00     0.074 A 
ATOM     63  C   UNL A   1      37.775  32.190  33.149  1.00  0.00     0.031 C 
ATOM     64  C   UNL A   1      39.641  31.247  34.481  1.00  0.00     0.037 A 
BRANCH  51  65
ATOM     65  C   UNL A   1      44.351  27.263  34.187  1.00  0.00     0.057 A 
ATOM     66  C   UNL A   1      44.152  26.049  34.858  1.00  0.00     0.134 A 
ATOM     67  C   UNL A   1      45.638  27.813  34.208  1.00  0.00     0.134 A 
ATOM     68  F   UNL A   1      42.937  25.481  34.891  1.00  0.00    -0.206 F 
ATOM     69  C   UNL A   1      45.189  25.424  35.552  1.00  0.00     0.040 A 
ATOM     70  C   UNL A   1      46.688  27.184  34.878  1.00  0.00     0.040 A 
ATOM     71  F   UNL A   1      45.895  28.973  33.583  1.00  0.00    -0.206 F 
ATOM     72  C   UNL A   1      46.462  25.990  35.560  1.00  0.00     0.006 A 
ENDBRANCH  51  65
BRANCH  52  73
ATOM     73  C   UNL A   1      36.876  31.427  29.101  1.00  0.00     0.057 A 
ATOM     74  C   UNL A   1      35.730  30.676  28.816  1.00  0.00     0.134 A 
ATOM     75  C   UNL A   1      36.906  32.755  28.661  1.00  0.00     0.134 A 
ATOM     76  F   UNL A   1      35.656  29.391  29.190  1.00  0.00    -0.206 F 
ATOM     77  C   UNL A   1      34.656  31.223  28.111  1.00  0.00     0.040 A 
ATOM     78  C   UNL A   1      35.832  33.320  27.973  1.00  0.00     0.040 A 
ATOM     79  F   UNL A   1      37.979  33.524  28.901  1.00  0.00    -0.206 F 
ATOM     80  C   UNL A   1      34.703  32.552  27.693  1.00  0.00     0.006 A 
ENDBRANCH  52  73
BRANCH  64  81
ATOM     81  C   UNL A   1      39.191  32.077  35.646  1.00  0.00     0.057 A 
ATOM     82  C   UNL A   1      38.356  31.561  36.642  1.00  0.00     0.134 A 
ATOM     83  C   UNL A   1      39.664  33.386  35.809  1.00  0.00     0.134 A 
ATOM     84  F   UNL A   1      37.862  30.318  36.540  1.00  0.00    -0.206 F 
ATOM     85  C   UNL A   1      37.998  32.321  37.758  1.00  0.00     0.040 A 
ATOM     86  C   UNL A   1      39.331  34.147  36.929  1.00  0.00     0.040 A 
ATOM     87  F   UNL A   1      40.477  33.936  34.893  1.00  0.00    -0.206 F 
ATOM     88  C   UNL A   1      38.494  33.615  37.908  1.00  0.00     0.006 A 
ENDBRANCH  64  81
ENDBRANCH  38  39
ENDBRANCH  31  33
ENDBRANCH  30  31
ENDBRANCH  29  30
ENDBRANCH   1  29
TORSDOF 14
ENDMDL
MODEL 3
REMARK VINA RESULT:     -12.0      4.784     10.097
REMARK SMILES O=C(CCCN1C(=O)c2ccc3c4c(ccc(c24)C1=O)C(=O)NC3=O)OCCOC(=O)c1ccc(-c2c3nc(c(-c4c(F)cccc4F)c4ccc([nH]4)c(-c4c(F)cccc4F)c4nc(c(-c5c(F)cccc5F)c5ccc2[nH]5)C=C4)C=C3)cc1
REMARK SMILES IDX 27 1 26 2 2 3 1 4 3 5 4 6 5 7 6 8 19 9 7 10 20 11 17 12 9 13
REMARK SMILES IDX 8 14 16 15 18 16 10 17 15 18 13 19 11 20 14 21 12 22 21 23
REMARK SMILES IDX 24 24 23 25 22 26 25 27 28 29 29 30 30 31 31 32 32 33 33 34
REMARK SMILES IDX 85 35 34 36 84 37 35 38 36 39 37 40 78 41 38 42 83 43 77 44
REMARK SMILES IDX 79 45 39 46 82 47 76 48 75 49 40 51 66 52 49 53 65 54 50 55
REMARK SMILES IDX 53 56 64 57 80 58 51 59 52 60 63 62 81 63 54 64 41 65 42 66
REMARK SMILES IDX 47 67 43 68 44 69 46 70 48 71 45 72 67 73 68 74 73 75 69 76
REMARK SMILES IDX 70 77 72 78 74 79 71 80 55 81 56 82 61 83 57 84 58 85 60 86
REMARK SMILES IDX 62 87 59 88
REMARK H PARENT 23 28 79 50 53 61
REMARK Flexibility Score: inf
ROOT
ATOM      1  C   UNL A   1      34.573  34.063  30.115  1.00  0.00     0.274 C 
ENDROOT
BRANCH   1   2
ATOM      2  O   UNL A   1      33.744  33.113  29.422  1.00  0.00    -0.462 OA
BRANCH   2   3
ATOM      3  C   UNL A   1      34.087  32.654  28.192  1.00  0.00     0.305 C 
ATOM      4  O   UNL A   1      35.208  32.855  27.733  1.00  0.00    -0.252 OA
BRANCH   3   5
ATOM      5  C   UNL A   1      32.990  32.041  27.350  1.00  0.00     0.124 C 
BRANCH   5   6
ATOM      6  C   UNL A   1      33.030  30.520  27.262  1.00  0.00     0.034 C 
BRANCH   6   7
ATOM      7  C   UNL A   1      31.902  29.867  26.445  1.00  0.00     0.130 C 
BRANCH   7   8
ATOM      8  N   UNL A   1      32.157  28.558  25.820  1.00  0.00    -0.274 N 
ATOM      9  C   UNL A   1      31.842  27.436  26.593  1.00  0.00     0.261 C 
ATOM     10  C   UNL A   1      32.841  28.479  24.607  1.00  0.00     0.261 C 
ATOM     11  O   UNL A   1      31.403  27.492  27.739  1.00  0.00    -0.269 OA
ATOM     12  C   UNL A   1      32.012  26.104  25.970  1.00  0.00     0.049 A 
ATOM     13  C   UNL A   1      32.936  27.140  23.972  1.00  0.00     0.049 A 
ATOM     14  O   UNL A   1      33.345  29.436  24.031  1.00  0.00    -0.269 OA
ATOM     15  C   UNL A   1      31.626  24.955  26.678  1.00  0.00     0.015 A 
ATOM     16  C   UNL A   1      32.514  26.005  24.671  1.00  0.00     0.009 A 
ATOM     17  C   UNL A   1      33.436  27.025  22.667  1.00  0.00     0.015 A 
ATOM     18  C   UNL A   1      31.726  23.700  26.082  1.00  0.00     0.015 A 
ATOM     19  C   UNL A   1      32.601  24.730  24.054  1.00  0.00     0.009 A 
ATOM     20  C   UNL A   1      33.495  25.777  22.046  1.00  0.00     0.015 A 
ATOM     21  C   UNL A   1      32.205  23.591  24.774  1.00  0.00     0.048 A 
ATOM     22  C   UNL A   1      33.081  24.637  22.739  1.00  0.00     0.048 A 
ATOM     23  C   UNL A   1      32.296  22.258  24.135  1.00  0.00     0.258 C 
ATOM     24  C   UNL A   1      33.145  23.312  22.080  1.00  0.00     0.258 C 
ATOM     25  N   UNL A   1      32.757  22.234  22.841  1.00  0.00    -0.288 N 
ATOM     26  O   UNL A   1      31.971  21.239  24.731  1.00  0.00    -0.269 OA
ATOM     27  O   UNL A   1      33.516  23.191  20.920  1.00  0.00    -0.269 OA
ATOM     28  H   UNL A   1      32.815  21.351  22.412  1.00  0.00     0.173 HD
ENDBRANCH   7   8
ENDBRANCH   6   7
ENDBRANCH   5   6
ENDBRANCH   3   5
ENDBRANCH   2   3
ENDBRANCH   1   2
BRANCH   1  29
ATOM     29  C   UNL A   1      34.608  33.826  31.627  1.00  0.00     0.275 C 
BRANCH  29  30
ATOM     30  O   UNL A   1      34.819  32.435  31.926  1.00  0.00    -0.458 OA
BRANCH  30  31
ATOM     31  C   UNL A   1      35.888  32.188  32.732  1.00  0.00     0.338 C 
ATOM     32  O   UNL A   1      35.968  32.423  33.921  1.00  0.00    -0.246 OA
BRANCH  31  33
ATOM     33  C   UNL A   1      36.920  31.434  31.983  1.00  0.00     0.060 A 
ATOM     34  C   UNL A   1      37.888  30.740  32.721  1.00  0.00     0.016 A 
ATOM     35  C   UNL A   1      36.954  31.409  30.587  1.00  0.00     0.016 A 
ATOM     36  C   UNL A   1      38.913  30.053  32.067  1.00  0.00     0.010 A 
ATOM     37  C   UNL A   1      37.973  30.712  29.931  1.00  0.00     0.010 A 
ATOM     38  C   UNL A   1      38.979  30.062  30.667  1.00  0.00    -0.014 A 
BRANCH  38  39
ATOM     39  C   UNL A   1      40.190  29.561  29.973  1.00  0.00     0.031 A 
ATOM     40  C   UNL A   1      41.335  30.511  29.754  1.00  0.00     0.074 A 
ATOM     41  C   UNL A   1      40.278  28.294  29.532  1.00  0.00     0.049 A 
ATOM     42  N   UNL A   1      42.460  30.326  29.113  1.00  0.00    -0.248 NA
ATOM     43  C   UNL A   1      41.181  31.858  30.326  1.00  0.00     0.031 C 
ATOM     44  C   UNL A   1      39.253  27.267  29.694  1.00  0.00     0.029 A 
ATOM     45  N   UNL A   1      41.284  27.664  28.842  1.00  0.00    -0.354 N 
ATOM     46  C   UNL A   1      43.139  31.534  29.190  1.00  0.00     0.074 A 
ATOM     47  C   UNL A   1      42.288  32.454  29.913  1.00  0.00     0.031 C 
ATOM     48  C   UNL A   1      39.677  26.135  29.105  1.00  0.00     0.029 A 
ATOM     49  C   UNL A   1      40.990  26.366  28.504  1.00  0.00     0.049 A 
ATOM     50  H   UNL A   1      42.135  28.101  28.611  1.00  0.00     0.167 HD
ATOM     51  C   UNL A   1      44.366  31.850  28.714  1.00  0.00     0.037 A 
ATOM     52  C   UNL A   1      41.692  25.476  27.776  1.00  0.00     0.037 A 
ATOM     53  C   UNL A   1      45.223  30.939  28.006  1.00  0.00     0.049 A 
ATOM     54  C   UNL A   1      43.038  25.859  27.218  1.00  0.00     0.074 A 
ATOM     55  C   UNL A   1      46.498  31.159  27.514  1.00  0.00     0.029 A 
ATOM     56  N   UNL A   1      44.889  29.633  27.685  1.00  0.00    -0.354 N 
ATOM     57  N   UNL A   1      43.687  26.993  27.328  1.00  0.00    -0.248 NA
ATOM     58  C   UNL A   1      43.750  24.835  26.436  1.00  0.00     0.031 C 
ATOM     59  C   UNL A   1      46.919  29.997  26.860  1.00  0.00     0.029 A 
ATOM     60  C   UNL A   1      45.923  29.041  26.981  1.00  0.00     0.049 A 
ATOM     61  H   UNL A   1      44.041  29.192  27.923  1.00  0.00     0.167 HD
ATOM     62  C   UNL A   1      44.891  26.811  26.656  1.00  0.00     0.074 A 
ATOM     63  C   UNL A   1      44.885  25.458  26.143  1.00  0.00     0.031 C 
ATOM     64  C   UNL A   1      45.911  27.687  26.487  1.00  0.00     0.037 A 
BRANCH  51  65
ATOM     65  C   UNL A   1      44.834  33.258  28.925  1.00  0.00     0.057 A 
ATOM     66  C   UNL A   1      44.556  34.277  28.005  1.00  0.00     0.134 A 
ATOM     67  C   UNL A   1      45.583  33.596  30.059  1.00  0.00     0.134 A 
ATOM     68  F   UNL A   1      43.859  34.012  26.888  1.00  0.00    -0.206 F 
ATOM     69  C   UNL A   1      45.032  35.575  28.189  1.00  0.00     0.040 A 
ATOM     70  C   UNL A   1      46.044  34.896  30.267  1.00  0.00     0.040 A 
ATOM     71  F   UNL A   1      45.883  32.666  30.980  1.00  0.00    -0.206 F 
ATOM     72  C   UNL A   1      45.776  35.888  29.325  1.00  0.00     0.006 A 
ENDBRANCH  51  65
BRANCH  52  73
ATOM     73  C   UNL A   1      41.131  24.126  27.525  1.00  0.00     0.057 A 
ATOM     74  C   UNL A   1      41.607  23.004  28.213  1.00  0.00     0.134 A 
ATOM     75  C   UNL A   1      40.111  23.926  26.588  1.00  0.00     0.134 A 
ATOM     76  F   UNL A   1      42.601  23.131  29.103  1.00  0.00    -0.206 F 
ATOM     77  C   UNL A   1      41.092  21.729  27.973  1.00  0.00     0.040 A 
ATOM     78  C   UNL A   1      39.574  22.659  26.353  1.00  0.00     0.040 A 
ATOM     79  F   UNL A   1      39.616  24.962  25.894  1.00  0.00    -0.206 F 
ATOM     80  C   UNL A   1      40.068  21.555  27.045  1.00  0.00     0.006 A 
ENDBRANCH  52  73
BRANCH  64  81
ATOM     81  C   UNL A   1      47.128  27.209  25.752  1.00  0.00     0.057 A 
ATOM     82  C   UNL A   1      47.318  27.470  24.390  1.00  0.00     0.134 A 
ATOM     83  C   UNL A   1      48.155  26.545  26.435  1.00  0.00     0.134 A 
ATOM     84  F   UNL A   1      46.368  28.093  23.678  1.00  0.00    -0.206 F 
ATOM     85  C   UNL A   1      48.485  27.080  23.731  1.00  0.00     0.040 A 
ATOM     86  C   UNL A   1      49.334  26.169  25.791  1.00  0.00     0.040 A 
ATOM     87  F   UNL A   1      48.037  26.273  27.744  1.00  0.00    -0.206 F 
ATOM     88  C   UNL A   1      49.501  26.435  24.434  1.00  0.00     0.006 A 
ENDBRANCH  64  81
ENDBRANCH  38  39
ENDBRANCH  31  33
ENDBRANCH  30  31
ENDBRANCH  29  30
ENDBRANCH   1  29
TORSDOF 14
ENDMDL
