MODEL 1
REMARK VINA RESULT:     -11.4      0.000      0.000
REMARK SMILES COc1ccc([C@H](C)[N@H+]2CC[C@H](C(=O)OCCOC(=O)c3ccc(-c4c5nc(c(-c6c(F)cccc6F)c6ccc([nH]6)c(-c6c(F)cccc6F)c6nc(c(-c7c(F)cccc7F)c7ccc4[nH]7)C=C6)C=C5)cc3)[C@@H]2C)cc1
REMARK SMILES IDX 16 1 15 2 13 3 14 4 12 5 9 6 10 7 75 8 11 10 76 11 7 12 8 13
REMARK SMILES IDX 6 14 3 15 4 16 78 17 5 18 77 19 2 20 1 21 17 22 18 23 19 24
REMARK SMILES IDX 20 25 21 26 22 27 74 28 23 29 73 30 24 31 25 32 26 33 67 34
REMARK SMILES IDX 27 35 72 36 66 37 68 38 28 39 71 40 65 41 64 42 29 44 55 45
REMARK SMILES IDX 38 46 54 47 39 48 42 49 53 50 69 51 40 52 41 53 52 55 70 56
REMARK SMILES IDX 43 57 30 58 31 59 36 60 32 61 33 62 35 63 37 64 34 65 56 66
REMARK SMILES IDX 57 67 62 68 58 69 59 70 61 71 63 72 60 73 44 74 45 75 50 76
REMARK SMILES IDX 46 77 47 78 49 79 51 80 48 81
REMARK H PARENT 9 9 68 43 42 54
REMARK Flexibility Score: inf
ROOT
ATOM      1  C   UNL A   1      31.489  28.951  24.113  1.00  0.00     0.274 C 
ENDROOT
BRANCH   1   2
ATOM      2  O   UNL A   1      30.696  27.762  24.298  1.00  0.00    -0.462 OA
BRANCH   2   3
ATOM      3  C   UNL A   1      31.333  26.671  24.822  1.00  0.00     0.315 C 
ATOM      4  O   UNL A   1      30.811  25.853  25.562  1.00  0.00    -0.252 OA
BRANCH   3   5
ATOM      5  C   UNL A   1      32.808  26.738  24.459  1.00  0.00     0.162 C 
ATOM      6  N   UNL A   1      33.643  24.517  24.353  1.00  0.00    -0.326 N 
ATOM      7  C   UNL A   1      33.756  24.951  25.745  1.00  0.00     0.264 C 
ATOM      8  C   UNL A   1      33.372  25.680  23.504  1.00  0.00     0.196 C 
ATOM      9  H   UNL A   1      32.832  23.904  24.281  1.00  0.00     0.348 HD
ATOM     10  C   UNL A   1      33.614  26.468  25.722  1.00  0.00     0.083 C 
ATOM     11  C   UNL A   1      32.512  25.330  22.302  1.00  0.00     0.076 C 
BRANCH   6  12
ATOM     12  C   UNL A   1      34.637  23.544  23.878  1.00  0.00     0.212 C 
ATOM     13  C   UNL A   1      36.030  23.725  24.507  1.00  0.00     0.081 C 
BRANCH  12  14
ATOM     14  C   UNL A   1      34.073  22.127  24.002  1.00  0.00     0.009 A 
ATOM     15  C   UNL A   1      32.827  19.648  24.438  1.00  0.00     0.118 A 
ATOM     16  C   UNL A   1      32.192  20.612  23.662  1.00  0.00     0.047 A 
ATOM     17  C   UNL A   1      34.108  19.877  24.934  1.00  0.00     0.047 A 
ATOM     18  C   UNL A   1      32.806  21.850  23.458  1.00  0.00     0.013 A 
ATOM     19  C   UNL A   1      34.726  21.111  24.720  1.00  0.00     0.013 A 
BRANCH  15  20
ATOM     20  O   UNL A   1      32.152  18.480  24.669  1.00  0.00    -0.497 OA
ATOM     21  C   UNL A   1      32.737  17.750  25.751  1.00  0.00     0.278 C 
ENDBRANCH  15  20
ENDBRANCH  12  14
ENDBRANCH   6  12
ENDBRANCH   3   5
ENDBRANCH   2   3
ENDBRANCH   1   2
BRANCH   1  22
ATOM     22  C   UNL A   1      31.503  29.814  25.371  1.00  0.00     0.275 C 
BRANCH  22  23
ATOM     23  O   UNL A   1      32.858  30.125  25.733  1.00  0.00    -0.458 OA
BRANCH  23  24
ATOM     24  C   UNL A   1      33.011  31.005  26.746  1.00  0.00     0.338 C 
ATOM     25  O   UNL A   1      32.216  31.835  27.147  1.00  0.00    -0.246 OA
BRANCH  24  26
ATOM     26  C   UNL A   1      34.330  30.795  27.358  1.00  0.00     0.060 A 
ATOM     27  C   UNL A   1      34.737  29.495  27.637  1.00  0.00     0.016 A 
ATOM     28  C   UNL A   1      35.109  31.878  27.758  1.00  0.00     0.016 A 
ATOM     29  C   UNL A   1      35.882  29.265  28.393  1.00  0.00     0.010 A 
ATOM     30  C   UNL A   1      36.310  31.643  28.439  1.00  0.00     0.010 A 
ATOM     31  C   UNL A   1      36.693  30.335  28.792  1.00  0.00    -0.014 A 
BRANCH  31  32
ATOM     32  C   UNL A   1      37.914  30.089  29.607  1.00  0.00     0.031 A 
ATOM     33  C   UNL A   1      39.052  29.285  29.040  1.00  0.00     0.074 A 
ATOM     34  C   UNL A   1      38.023  30.598  30.851  1.00  0.00     0.049 A 
ATOM     35  N   UNL A   1      40.105  28.797  29.646  1.00  0.00    -0.248 NA
ATOM     36  C   UNL A   1      38.994  28.978  27.601  1.00  0.00     0.031 C 
ATOM     37  C   UNL A   1      37.026  31.438  31.517  1.00  0.00     0.029 A 
ATOM     38  N   UNL A   1      39.033  30.489  31.776  1.00  0.00    -0.354 N 
ATOM     39  C   UNL A   1      40.792  28.068  28.685  1.00  0.00     0.074 A 
ATOM     40  C   UNL A   1      40.051  28.192  27.449  1.00  0.00     0.031 C 
ATOM     41  C   UNL A   1      37.491  31.803  32.721  1.00  0.00     0.029 A 
ATOM     42  C   UNL A   1      38.778  31.155  32.949  1.00  0.00     0.049 A 
ATOM     43  H   UNL A   1      39.861  29.982  31.612  1.00  0.00     0.167 HD
ATOM     44  C   UNL A   1      41.934  27.352  28.826  1.00  0.00     0.037 A 
ATOM     45  C   UNL A   1      39.478  31.208  34.098  1.00  0.00     0.037 A 
ATOM     46  C   UNL A   1      42.714  27.290  30.035  1.00  0.00     0.049 A 
ATOM     47  C   UNL A   1      40.744  30.415  34.228  1.00  0.00     0.074 A 
ATOM     48  C   UNL A   1      43.893  26.603  30.267  1.00  0.00     0.029 A 
ATOM     49  N   UNL A   1      42.404  27.961  31.206  1.00  0.00    -0.354 N 
ATOM     50  N   UNL A   1      41.337  29.655  33.340  1.00  0.00    -0.248 NA
ATOM     51  C   UNL A   1      41.422  30.459  35.532  1.00  0.00     0.031 C 
ATOM     52  C   UNL A   1      44.287  26.844  31.588  1.00  0.00     0.029 A 
ATOM     53  C   UNL A   1      43.366  27.701  32.167  1.00  0.00     0.049 A 
ATOM     54  H   UNL A   1      41.616  28.537  31.336  1.00  0.00     0.167 HD
ATOM     55  C   UNL A   1      42.447  29.121  33.977  1.00  0.00     0.074 A 
ATOM     56  C   UNL A   1      42.466  29.669  35.319  1.00  0.00     0.031 C 
ATOM     57  C   UNL A   1      43.361  28.243  33.500  1.00  0.00     0.037 A 
BRANCH  44  58
ATOM     58  C   UNL A   1      42.392  26.543  27.651  1.00  0.00     0.057 A 
ATOM     59  C   UNL A   1      42.046  25.197  27.491  1.00  0.00     0.134 A 
ATOM     60  C   UNL A   1      43.160  27.142  26.643  1.00  0.00     0.134 A 
ATOM     61  F   UNL A   1      41.326  24.564  28.428  1.00  0.00    -0.206 F 
ATOM     62  C   UNL A   1      42.460  24.469  26.373  1.00  0.00     0.040 A 
ATOM     63  C   UNL A   1      43.564  26.430  25.513  1.00  0.00     0.040 A 
ATOM     64  F   UNL A   1      43.522  28.430  26.738  1.00  0.00    -0.206 F 
ATOM     65  C   UNL A   1      43.215  25.088  25.377  1.00  0.00     0.006 A 
ENDBRANCH  44  58
BRANCH  45  66
ATOM     66  C   UNL A   1      38.960  32.004  35.237  1.00  0.00     0.057 A 
ATOM     67  C   UNL A   1      38.255  31.394  36.281  1.00  0.00     0.134 A 
ATOM     68  C   UNL A   1      39.170  33.385  35.317  1.00  0.00     0.134 A 
ATOM     69  F   UNL A   1      38.000  30.078  36.246  1.00  0.00    -0.206 F 
ATOM     70  C   UNL A   1      37.778  32.132  37.366  1.00  0.00     0.040 A 
ATOM     71  C   UNL A   1      38.719  34.130  36.406  1.00  0.00     0.040 A 
ATOM     72  F   UNL A   1      39.837  34.025  34.346  1.00  0.00    -0.206 F 
ATOM     73  C   UNL A   1      38.017  33.503  37.434  1.00  0.00     0.006 A 
ENDBRANCH  45  66
BRANCH  57  74
ATOM     74  C   UNL A   1      44.447  27.819  34.438  1.00  0.00     0.057 A 
ATOM     75  C   UNL A   1      44.310  26.680  35.241  1.00  0.00     0.134 A 
ATOM     76  C   UNL A   1      45.646  28.537  34.523  1.00  0.00     0.134 A 
ATOM     77  F   UNL A   1      43.178  25.960  35.212  1.00  0.00    -0.206 F 
ATOM     78  C   UNL A   1      45.324  26.278  36.110  1.00  0.00     0.040 A 
ATOM     79  C   UNL A   1      46.672  28.135  35.378  1.00  0.00     0.040 A 
ATOM     80  F   UNL A   1      45.837  29.634  33.777  1.00  0.00    -0.206 F 
ATOM     81  C   UNL A   1      46.512  27.004  36.177  1.00  0.00     0.006 A 
ENDBRANCH  57  74
ENDBRANCH  31  32
ENDBRANCH  24  26
ENDBRANCH  23  24
ENDBRANCH  22  23
ENDBRANCH   1  22
TORSDOF 14
ENDMDL
MODEL 2
REMARK VINA RESULT:     -11.3      3.736      8.902
REMARK SMILES COc1ccc([C@H](C)[N@H+]2CC[C@H](C(=O)OCCOC(=O)c3ccc(-c4c5nc(c(-c6c(F)cccc6F)c6ccc([nH]6)c(-c6c(F)cccc6F)c6nc(c(-c7c(F)cccc7F)c7ccc4[nH]7)C=C6)C=C5)cc3)[C@@H]2C)cc1
REMARK SMILES IDX 16 1 15 2 13 3 14 4 12 5 9 6 10 7 75 8 11 10 76 11 7 12 8 13
REMARK SMILES IDX 6 14 3 15 4 16 78 17 5 18 77 19 2 20 1 21 17 22 18 23 19 24
REMARK SMILES IDX 20 25 21 26 22 27 74 28 23 29 73 30 24 31 25 32 26 33 67 34
REMARK SMILES IDX 27 35 72 36 66 37 68 38 28 39 71 40 65 41 64 42 29 44 55 45
REMARK SMILES IDX 38 46 54 47 39 48 42 49 53 50 69 51 40 52 41 53 52 55 70 56
REMARK SMILES IDX 43 57 30 58 31 59 36 60 32 61 33 62 35 63 37 64 34 65 56 66
REMARK SMILES IDX 57 67 62 68 58 69 59 70 61 71 63 72 60 73 44 74 45 75 50 76
REMARK SMILES IDX 46 77 47 78 49 79 51 80 48 81
REMARK H PARENT 9 9 68 43 42 54
REMARK Flexibility Score: inf
ROOT
ATOM      1  C   UNL A   1      34.503  20.896  25.308  1.00  0.00     0.274 C 
ENDROOT
BRANCH   1   2
ATOM      2  O   UNL A   1      33.639  21.400  24.270  1.00  0.00    -0.462 OA
BRANCH   2   3
ATOM      3  C   UNL A   1      33.579  22.758  24.123  1.00  0.00     0.315 C 
ATOM      4  O   UNL A   1      33.552  23.338  23.050  1.00  0.00    -0.252 OA
BRANCH   3   5
ATOM      5  C   UNL A   1      33.709  23.410  25.490  1.00  0.00     0.162 C 
ATOM      6  N   UNL A   1      32.618  25.518  25.408  1.00  0.00    -0.326 N 
ATOM      7  C   UNL A   1      33.992  25.729  24.952  1.00  0.00     0.264 C 
ATOM      8  C   UNL A   1      32.515  24.199  26.038  1.00  0.00     0.196 C 
ATOM      9  H   UNL A   1      32.014  25.502  24.588  1.00  0.00     0.348 HD
ATOM     10  C   UNL A   1      34.771  24.497  25.394  1.00  0.00     0.083 C 
ATOM     11  C   UNL A   1      31.145  23.571  25.840  1.00  0.00     0.076 C 
BRANCH   6  12
ATOM     12  C   UNL A   1      31.962  26.647  26.083  1.00  0.00     0.212 C 
ATOM     13  C   UNL A   1      32.934  27.556  26.856  1.00  0.00     0.081 C 
BRANCH  12  14
ATOM     14  C   UNL A   1      31.064  27.391  25.092  1.00  0.00     0.009 A 
ATOM     15  C   UNL A   1      29.555  28.578  23.043  1.00  0.00     0.118 A 
ATOM     16  C   UNL A   1      29.253  27.286  23.461  1.00  0.00     0.047 A 
ATOM     17  C   UNL A   1      30.547  29.311  23.686  1.00  0.00     0.047 A 
ATOM     18  C   UNL A   1      30.014  26.690  24.470  1.00  0.00     0.013 A 
ATOM     19  C   UNL A   1      31.301  28.719  24.703  1.00  0.00     0.013 A 
BRANCH  15  20
ATOM     20  O   UNL A   1      28.828  29.089  22.001  1.00  0.00    -0.497 OA
ATOM     21  C   UNL A   1      29.175  30.452  21.749  1.00  0.00     0.278 C 
ENDBRANCH  15  20
ENDBRANCH  12  14
ENDBRANCH   6  12
ENDBRANCH   3   5
ENDBRANCH   2   3
ENDBRANCH   1   2
BRANCH   1  22
ATOM     22  C   UNL A   1      35.961  20.876  24.861  1.00  0.00     0.275 C 
BRANCH  22  23
ATOM     23  O   UNL A   1      36.780  21.531  25.842  1.00  0.00    -0.458 OA
BRANCH  23  24
ATOM     24  C   UNL A   1      38.108  21.301  25.751  1.00  0.00     0.338 C 
ATOM     25  O   UNL A   1      38.673  20.345  25.253  1.00  0.00    -0.246 OA
BRANCH  24  26
ATOM     26  C   UNL A   1      38.825  22.441  26.339  1.00  0.00     0.060 A 
ATOM     27  C   UNL A   1      38.330  23.723  26.127  1.00  0.00     0.016 A 
ATOM     28  C   UNL A   1      40.039  22.254  26.997  1.00  0.00     0.016 A 
ATOM     29  C   UNL A   1      39.080  24.835  26.493  1.00  0.00     0.010 A 
ATOM     30  C   UNL A   1      40.751  23.373  27.449  1.00  0.00     0.010 A 
ATOM     31  C   UNL A   1      40.295  24.676  27.173  1.00  0.00    -0.014 A 
BRANCH  31  32
ATOM     32  C   UNL A   1      41.102  25.866  27.557  1.00  0.00     0.031 A 
ATOM     33  C   UNL A   1      40.516  26.917  28.461  1.00  0.00     0.074 A 
ATOM     34  C   UNL A   1      42.370  26.007  27.119  1.00  0.00     0.049 A 
ATOM     35  N   UNL A   1      40.974  28.109  28.752  1.00  0.00    -0.248 NA
ATOM     36  C   UNL A   1      39.239  26.590  29.115  1.00  0.00     0.031 C 
ATOM     37  C   UNL A   1      43.091  25.049  26.280  1.00  0.00     0.029 A 
ATOM     38  N   UNL A   1      43.281  27.013  27.329  1.00  0.00    -0.354 N 
ATOM     39  C   UNL A   1      40.011  28.698  29.560  1.00  0.00     0.074 A 
ATOM     40  C   UNL A   1      38.951  27.729  29.731  1.00  0.00     0.031 C 
ATOM     41  C   UNL A   1      44.342  25.490  26.084  1.00  0.00     0.029 A 
ATOM     42  C   UNL A   1      44.488  26.800  26.709  1.00  0.00     0.049 A 
ATOM     43  H   UNL A   1      43.088  27.810  27.874  1.00  0.00     0.167 HD
ATOM     44  C   UNL A   1      40.009  29.941  30.101  1.00  0.00     0.037 A 
ATOM     45  C   UNL A   1      45.577  27.586  26.615  1.00  0.00     0.037 A 
ATOM     46  C   UNL A   1      41.097  30.877  29.995  1.00  0.00     0.049 A 
ATOM     47  C   UNL A   1      45.556  28.954  27.230  1.00  0.00     0.074 A 
ATOM     48  C   UNL A   1      41.191  32.154  30.523  1.00  0.00     0.029 A 
ATOM     49  N   UNL A   1      42.289  30.628  29.335  1.00  0.00    -0.354 N 
ATOM     50  N   UNL A   1      44.602  29.535  27.915  1.00  0.00    -0.248 NA
ATOM     51  C   UNL A   1      46.750  29.788  27.029  1.00  0.00     0.031 C 
ATOM     52  C   UNL A   1      42.435  32.685  30.166  1.00  0.00     0.029 A 
ATOM     53  C   UNL A   1      43.124  31.728  29.438  1.00  0.00     0.049 A 
ATOM     54  H   UNL A   1      42.510  29.792  28.863  1.00  0.00     0.167 HD
ATOM     55  C   UNL A   1      45.072  30.805  28.217  1.00  0.00     0.074 A 
ATOM     56  C   UNL A   1      46.410  30.900  27.668  1.00  0.00     0.031 C 
ATOM     57  C   UNL A   1      44.446  31.809  28.875  1.00  0.00     0.037 A 
BRANCH  44  58
ATOM     58  C   UNL A   1      38.773  30.375  30.827  1.00  0.00     0.057 A 
ATOM     59  C   UNL A   1      38.601  30.166  32.200  1.00  0.00     0.134 A 
ATOM     60  C   UNL A   1      37.756  31.053  30.141  1.00  0.00     0.134 A 
ATOM     61  F   UNL A   1      39.531  29.510  32.909  1.00  0.00    -0.206 F 
ATOM     62  C   UNL A   1      37.453  30.604  32.863  1.00  0.00     0.040 A 
ATOM     63  C   UNL A   1      36.613  31.512  30.796  1.00  0.00     0.040 A 
ATOM     64  F   UNL A   1      37.863  31.286  28.824  1.00  0.00    -0.206 F 
ATOM     65  C   UNL A   1      36.459  31.285  32.162  1.00  0.00     0.006 A 
ENDBRANCH  44  58
BRANCH  45  66
ATOM     66  C   UNL A   1      46.761  27.112  25.858  1.00  0.00     0.057 A 
ATOM     67  C   UNL A   1      46.947  27.462  24.516  1.00  0.00     0.134 A 
ATOM     68  C   UNL A   1      47.740  26.313  26.462  1.00  0.00     0.134 A 
ATOM     69  F   UNL A   1      46.030  28.203  23.879  1.00  0.00    -0.206 F 
ATOM     70  C   UNL A   1      48.067  27.034  23.801  1.00  0.00     0.040 A 
ATOM     71  C   UNL A   1      48.874  25.898  25.765  1.00  0.00     0.040 A 
ATOM     72  F   UNL A   1      47.615  25.943  27.744  1.00  0.00    -0.206 F 
ATOM     73  C   UNL A   1      49.038  26.257  24.429  1.00  0.00     0.006 A 
ENDBRANCH  45  66
BRANCH  57  74
ATOM     74  C   UNL A   1      45.200  33.092  29.028  1.00  0.00     0.057 A 
ATOM     75  C   UNL A   1      46.064  33.303  30.110  1.00  0.00     0.134 A 
ATOM     76  C   UNL A   1      45.081  34.115  28.080  1.00  0.00     0.134 A 
ATOM     77  F   UNL A   1      46.208  32.364  31.058  1.00  0.00    -0.206 F 
ATOM     78  C   UNL A   1      46.774  34.495  30.251  1.00  0.00     0.040 A 
ATOM     79  C   UNL A   1      45.798  35.305  28.203  1.00  0.00     0.040 A 
ATOM     80  F   UNL A   1      44.271  33.970  27.020  1.00  0.00    -0.206 F 
ATOM     81  C   UNL A   1      46.645  35.499  29.293  1.00  0.00     0.006 A 
ENDBRANCH  57  74
ENDBRANCH  31  32
ENDBRANCH  24  26
ENDBRANCH  23  24
ENDBRANCH  22  23
ENDBRANCH   1  22
TORSDOF 14
ENDMDL
MODEL 3
REMARK VINA RESULT:     -11.1      3.725      8.967
REMARK SMILES COc1ccc([C@H](C)[N@H+]2CC[C@H](C(=O)OCCOC(=O)c3ccc(-c4c5nc(c(-c6c(F)cccc6F)c6ccc([nH]6)c(-c6c(F)cccc6F)c6nc(c(-c7c(F)cccc7F)c7ccc4[nH]7)C=C6)C=C5)cc3)[C@@H]2C)cc1
REMARK SMILES IDX 16 1 15 2 13 3 14 4 12 5 9 6 10 7 75 8 11 10 76 11 7 12 8 13
REMARK SMILES IDX 6 14 3 15 4 16 78 17 5 18 77 19 2 20 1 21 17 22 18 23 19 24
REMARK SMILES IDX 20 25 21 26 22 27 74 28 23 29 73 30 24 31 25 32 26 33 67 34
REMARK SMILES IDX 27 35 72 36 66 37 68 38 28 39 71 40 65 41 64 42 29 44 55 45
REMARK SMILES IDX 38 46 54 47 39 48 42 49 53 50 69 51 40 52 41 53 52 55 70 56
REMARK SMILES IDX 43 57 30 58 31 59 36 60 32 61 33 62 35 63 37 64 34 65 56 66
REMARK SMILES IDX 57 67 62 68 58 69 59 70 61 71 63 72 60 73 44 74 45 75 50 76
REMARK SMILES IDX 46 77 47 78 49 79 51 80 48 81
REMARK H PARENT 9 9 68 43 42 54
REMARK Flexibility Score: inf
ROOT
ATOM      1  C   UNL A   1      34.731  20.756  24.922  1.00  0.00     0.274 C 
ENDROOT
BRANCH   1   2
ATOM      2  O   UNL A   1      34.153  20.950  26.229  1.00  0.00    -0.462 OA
BRANCH   2   3
ATOM      3  C   UNL A   1      33.620  22.182  26.491  1.00  0.00     0.315 C 
ATOM      4  O   UNL A   1      33.870  22.849  27.482  1.00  0.00    -0.252 OA
BRANCH   3   5
ATOM      5  C   UNL A   1      32.570  22.501  25.439  1.00  0.00     0.162 C 
ATOM      6  N   UNL A   1      31.978  24.791  25.657  1.00  0.00    -0.326 N 
ATOM      7  C   UNL A   1      31.124  24.038  26.576  1.00  0.00     0.264 C 
ATOM      8  C   UNL A   1      32.632  23.860  24.734  1.00  0.00     0.196 C 
ATOM      9  H   UNL A   1      32.716  25.231  26.205  1.00  0.00     0.348 HD
ATOM     10  C   UNL A   1      31.218  22.583  26.136  1.00  0.00     0.083 C 
ATOM     11  C   UNL A   1      34.012  24.337  24.314  1.00  0.00     0.076 C 
BRANCH   6  12
ATOM     12  C   UNL A   1      31.419  26.028  25.093  1.00  0.00     0.212 C 
ATOM     13  C   UNL A   1      29.884  26.105  25.170  1.00  0.00     0.081 C 
BRANCH  12  14
ATOM     14  C   UNL A   1      32.138  27.239  25.693  1.00  0.00     0.009 A 
ATOM     15  C   UNL A   1      33.673  29.254  26.905  1.00  0.00     0.118 A 
ATOM     16  C   UNL A   1      34.123  28.654  25.733  1.00  0.00     0.047 A 
ATOM     17  C   UNL A   1      32.432  28.915  27.435  1.00  0.00     0.047 A 
ATOM     18  C   UNL A   1      33.366  27.642  25.139  1.00  0.00     0.013 A 
ATOM     19  C   UNL A   1      31.670  27.910  26.834  1.00  0.00     0.013 A 
BRANCH  15  20
ATOM     20  O   UNL A   1      34.486  30.188  27.488  1.00  0.00    -0.497 OA
ATOM     21  C   UNL A   1      33.767  31.388  27.781  1.00  0.00     0.278 C 
ENDBRANCH  15  20
ENDBRANCH  12  14
ENDBRANCH   6  12
ENDBRANCH   3   5
ENDBRANCH   2   3
ENDBRANCH   1   2
BRANCH   1  22
ATOM     22  C   UNL A   1      36.168  20.255  25.016  1.00  0.00     0.275 C 
BRANCH  22  23
ATOM     23  O   UNL A   1      37.036  21.336  25.392  1.00  0.00    -0.458 OA
BRANCH  23  24
ATOM     24  C   UNL A   1      38.311  20.995  25.683  1.00  0.00     0.338 C 
ATOM     25  O   UNL A   1      38.870  19.934  25.479  1.00  0.00    -0.246 OA
BRANCH  24  26
ATOM     26  C   UNL A   1      38.983  22.154  26.286  1.00  0.00     0.060 A 
ATOM     27  C   UNL A   1      38.475  23.425  26.036  1.00  0.00     0.016 A 
ATOM     28  C   UNL A   1      40.171  21.998  26.996  1.00  0.00     0.016 A 
ATOM     29  C   UNL A   1      39.191  24.555  26.419  1.00  0.00     0.010 A 
ATOM     30  C   UNL A   1      40.844  23.134  27.463  1.00  0.00     0.010 A 
ATOM     31  C   UNL A   1      40.379  24.426  27.151  1.00  0.00    -0.014 A 
BRANCH  31  32
ATOM     32  C   UNL A   1      41.148  25.634  27.553  1.00  0.00     0.031 A 
ATOM     33  C   UNL A   1      40.517  26.671  28.442  1.00  0.00     0.074 A 
ATOM     34  C   UNL A   1      42.422  25.805  27.144  1.00  0.00     0.049 A 
ATOM     35  N   UNL A   1      40.940  27.873  28.743  1.00  0.00    -0.248 NA
ATOM     36  C   UNL A   1      39.233  26.315  29.067  1.00  0.00     0.031 C 
ATOM     37  C   UNL A   1      43.184  24.864  26.322  1.00  0.00     0.029 A 
ATOM     38  N   UNL A   1      43.305  26.831  27.374  1.00  0.00    -0.354 N 
ATOM     39  C   UNL A   1      39.945  28.440  29.528  1.00  0.00     0.074 A 
ATOM     40  C   UNL A   1      38.904  27.446  29.675  1.00  0.00     0.031 C 
ATOM     41  C   UNL A   1      44.429  25.334  26.155  1.00  0.00     0.029 A 
ATOM     42  C   UNL A   1      44.529  26.647  26.782  1.00  0.00     0.049 A 
ATOM     43  H   UNL A   1      43.080  27.624  27.914  1.00  0.00     0.167 HD
ATOM     44  C   UNL A   1      39.902  29.682  30.068  1.00  0.00     0.037 A 
ATOM     45  C   UNL A   1      45.602  27.458  26.713  1.00  0.00     0.037 A 
ATOM     46  C   UNL A   1      40.969  30.644  29.986  1.00  0.00     0.049 A 
ATOM     47  C   UNL A   1      45.534  28.825  27.326  1.00  0.00     0.074 A 
ATOM     48  C   UNL A   1      41.021  31.922  30.516  1.00  0.00     0.029 A 
ATOM     49  N   UNL A   1      42.182  30.423  29.354  1.00  0.00    -0.354 N 
ATOM     50  N   UNL A   1      44.552  29.385  27.989  1.00  0.00    -0.248 NA
ATOM     51  C   UNL A   1      46.713  29.687  27.153  1.00  0.00     0.031 C 
ATOM     52  C   UNL A   1      42.261  32.483  30.187  1.00  0.00     0.029 A 
ATOM     53  C   UNL A   1      42.987  31.542  29.476  1.00  0.00     0.049 A 
ATOM     54  H   UNL A   1      42.433  29.593  28.889  1.00  0.00     0.167 HD
ATOM     55  C   UNL A   1      44.985  30.665  28.300  1.00  0.00     0.074 A 
ATOM     56  C   UNL A   1      46.332  30.791  27.783  1.00  0.00     0.031 C 
ATOM     57  C   UNL A   1      44.320  31.654  28.944  1.00  0.00     0.037 A 
BRANCH  44  58
ATOM     58  C   UNL A   1      38.639  30.088  30.766  1.00  0.00     0.057 A 
ATOM     59  C   UNL A   1      38.451  29.898  32.139  1.00  0.00     0.134 A 
ATOM     60  C   UNL A   1      37.612  30.717  30.050  1.00  0.00     0.134 A 
ATOM     61  F   UNL A   1      39.390  29.286  32.875  1.00  0.00    -0.206 F 
ATOM     62  C   UNL A   1      37.277  30.309  32.775  1.00  0.00     0.040 A 
ATOM     63  C   UNL A   1      36.443  31.149  30.677  1.00  0.00     0.040 A 
ATOM     64  F   UNL A   1      37.734  30.930  28.731  1.00  0.00    -0.206 F 
ATOM     65  C   UNL A   1      36.273  30.942  32.044  1.00  0.00     0.006 A 
ENDBRANCH  44  58
BRANCH  45  66
ATOM     66  C   UNL A   1      46.814  27.012  25.984  1.00  0.00     0.057 A 
ATOM     67  C   UNL A   1      46.992  27.313  24.629  1.00  0.00     0.134 A 
ATOM     68  C   UNL A   1      47.827  26.290  26.627  1.00  0.00     0.134 A 
ATOM     69  F   UNL A   1      46.043  27.978  23.954  1.00  0.00    -0.206 F 
ATOM     70  C   UNL A   1      48.137  26.911  23.939  1.00  0.00     0.040 A 
ATOM     71  C   UNL A   1      48.986  25.903  25.955  1.00  0.00     0.040 A 
ATOM     72  F   UNL A   1      47.711  25.972  27.924  1.00  0.00    -0.206 F 
ATOM     73  C   UNL A   1      49.142  26.212  24.605  1.00  0.00     0.006 A 
ENDBRANCH  45  66
BRANCH  57  74
ATOM     74  C   UNL A   1      45.040  32.955  29.113  1.00  0.00     0.057 A 
ATOM     75  C   UNL A   1      45.867  33.189  30.219  1.00  0.00     0.134 A 
ATOM     76  C   UNL A   1      44.926  33.971  28.157  1.00  0.00     0.134 A 
ATOM     77  F   UNL A   1      46.004  32.257  31.175  1.00  0.00    -0.206 F 
ATOM     78  C   UNL A   1      46.545  34.397  30.375  1.00  0.00     0.040 A 
ATOM     79  C   UNL A   1      45.611  35.178  28.297  1.00  0.00     0.040 A 
ATOM     80  F   UNL A   1      44.151  33.804  27.076  1.00  0.00    -0.206 F 
ATOM     81  C   UNL A   1      46.422  35.394  29.410  1.00  0.00     0.006 A 
ENDBRANCH  57  74
ENDBRANCH  31  32
ENDBRANCH  24  26
ENDBRANCH  23  24
ENDBRANCH  22  23
ENDBRANCH   1  22
TORSDOF 14
ENDMDL
