MODEL 1
REMARK VINA RESULT:     -13.1      0.000      0.000
REMARK SMILES C[C@@H](C(=O)OCCOC(=O)c1ccc(-c2c3nc(c(-c4c(F)cccc4F)c4ccc([nH]4)c(-c4c(F)cccc4F)c4nc(c(-c5c(F)cccc5F)c5ccc2[nH]5)C=C4)C=C3)cc1)c1ccc(-c2cccc(OC(=O)NCCC3CCCCC3)c2)c(F)c1
REMARK SMILES IDX 3 1 4 2 2 3 1 4 65 5 66 6 89 7 67 8 87 9 68 10 88 11 69 12
REMARK SMILES IDX 70 13 86 14 71 15 73 16 72 17 74 18 75 19 76 20 77 21 78 23
REMARK SMILES IDX 79 24 80 25 81 26 85 27 82 28 84 29 83 30 5 31 6 32 7 33
REMARK SMILES IDX 8 34 9 35 10 36 11 37 12 38 64 39 13 40 63 41 14 42 15 43
REMARK SMILES IDX 16 44 57 45 17 46 62 47 56 48 58 49 18 50 61 51 55 52 54 53
REMARK SMILES IDX 19 55 45 56 28 57 44 58 29 59 32 60 43 61 59 62 30 63 31 64
REMARK SMILES IDX 42 66 60 67 33 68 20 69 21 70 26 71 22 72 23 73 25 74 27 75
REMARK SMILES IDX 24 76 46 77 47 78 52 79 48 80 49 81 51 82 53 83 50 84 34 85
REMARK SMILES IDX 35 86 40 87 36 88 37 89 39 90 41 91 38 92
REMARK H PARENT 77 22 58 54 32 65
REMARK Flexibility Score: inf
ROOT
ATOM      1  C   UNL A   1      41.942  21.039  26.016  1.00  0.00     0.313 C 
ATOM      2  O   UNL A   1      41.939  19.871  26.386  1.00  0.00    -0.252 OA
ENDROOT
BRANCH   1   3
ATOM      3  C   UNL A   1      41.006  22.132  26.604  1.00  0.00     0.126 C 
ATOM      4  C   UNL A   1      41.185  22.228  28.132  1.00  0.00     0.025 C 
BRANCH   3   5
ATOM      5  C   UNL A   1      39.523  22.064  26.143  1.00  0.00    -0.031 A 
ATOM      6  C   UNL A   1      38.953  20.917  25.558  1.00  0.00     0.005 A 
ATOM      7  C   UNL A   1      38.641  23.143  26.333  1.00  0.00     0.044 A 
ATOM      8  C   UNL A   1      37.604  20.874  25.121  1.00  0.00     0.012 A 
ATOM      9  C   UNL A   1      37.292  23.098  25.887  1.00  0.00     0.131 A 
ATOM     10  C   UNL A   1      36.742  21.976  25.244  1.00  0.00     0.018 A 
ATOM     11  F   UNL A   1      36.550  24.204  26.049  1.00  0.00    -0.206 F 
BRANCH  10  12
ATOM     12  C   UNL A   1      35.394  21.975  24.595  1.00  0.00    -0.012 A 
ATOM     13  C   UNL A   1      34.450  20.958  24.750  1.00  0.00     0.009 A 
ATOM     14  C   UNL A   1      35.040  23.010  23.703  1.00  0.00     0.056 A 
ATOM     15  C   UNL A   1      33.211  21.005  24.062  1.00  0.00     0.004 A 
ATOM     16  C   UNL A   1      33.803  23.069  23.020  1.00  0.00     0.133 A 
ATOM     17  C   UNL A   1      32.868  22.060  23.195  1.00  0.00     0.047 A 
BRANCH  16  18
ATOM     18  O   UNL A   1      33.477  24.308  21.892  1.00  0.00    -0.410 OA
BRANCH  18  19
ATOM     19  C   UNL A   1      32.757  25.462  20.938  1.00  0.00     0.412 C 
ATOM     20  O   UNL A   1      33.196  25.787  19.829  1.00  0.00    -0.224 OA
ATOM     21  N   UNL A   1      31.518  25.965  21.201  1.00  0.00    -0.321 N 
ATOM     22  H   UNL A   1      30.750  25.495  20.801  1.00  0.00     0.167 HD
BRANCH  21  23
ATOM     23  C   UNL A   1      31.229  27.120  22.011  1.00  0.00     0.119 C 
BRANCH  23  24
ATOM     24  C   UNL A   1      30.883  26.929  23.486  1.00  0.00     0.025 C 
BRANCH  24  25
ATOM     25  C   UNL A   1      31.485  25.723  24.234  1.00  0.00    -0.009 C 
ATOM     26  C   UNL A   1      32.628  26.099  25.188  1.00  0.00     0.003 C 
ATOM     27  C   UNL A   1      30.343  25.016  25.000  1.00  0.00     0.003 C 
ATOM     28  C   UNL A   1      33.092  24.913  26.032  1.00  0.00     0.000 C 
ATOM     29  C   UNL A   1      30.825  23.856  25.864  1.00  0.00     0.000 C 
ATOM     30  C   UNL A   1      31.939  24.290  26.807  1.00  0.00     0.000 C 
ENDBRANCH  24  25
ENDBRANCH  23  24
ENDBRANCH  21  23
ENDBRANCH  18  19
ENDBRANCH  16  18
ENDBRANCH  10  12
ENDBRANCH   3   5
ENDBRANCH   1   3
BRANCH   1  31
ATOM     31  O   UNL A   1      42.751  21.511  25.017  1.00  0.00    -0.462 OA
BRANCH  31  32
ATOM     32  C   UNL A   1      44.167  21.672  25.287  1.00  0.00     0.274 C 
BRANCH  32  33
ATOM     33  C   UNL A   1      44.776  22.732  24.363  1.00  0.00     0.275 C 
BRANCH  33  34
ATOM     34  O   UNL A   1      44.102  23.975  24.605  1.00  0.00    -0.458 OA
BRANCH  34  35
ATOM     35  C   UNL A   1      44.850  24.972  25.120  1.00  0.00     0.338 C 
ATOM     36  O   UNL A   1      45.929  25.396  24.736  1.00  0.00    -0.246 OA
BRANCH  35  37
ATOM     37  C   UNL A   1      44.010  25.638  26.115  1.00  0.00     0.060 A 
ATOM     38  C   UNL A   1      44.188  27.011  26.247  1.00  0.00     0.016 A 
ATOM     39  C   UNL A   1      43.097  24.958  26.916  1.00  0.00     0.016 A 
ATOM     40  C   UNL A   1      43.473  27.717  27.190  1.00  0.00     0.010 A 
ATOM     41  C   UNL A   1      42.358  25.679  27.860  1.00  0.00     0.010 A 
ATOM     42  C   UNL A   1      42.567  27.058  28.016  1.00  0.00    -0.014 A 
BRANCH  42  43
ATOM     43  C   UNL A   1      41.987  27.827  29.137  1.00  0.00     0.031 A 
ATOM     44  C   UNL A   1      43.032  27.982  30.395  1.00  0.00     0.074 A 
ATOM     45  C   UNL A   1      40.757  28.443  28.906  1.00  0.00     0.049 A 
ATOM     46  N   UNL A   1      43.003  28.818  31.402  1.00  0.00    -0.248 NA
ATOM     47  C   UNL A   1      44.262  27.172  30.514  1.00  0.00     0.031 C 
ATOM     48  C   UNL A   1      39.921  28.479  27.687  1.00  0.00     0.029 A 
ATOM     49  N   UNL A   1      40.018  29.319  29.679  1.00  0.00    -0.354 N 
ATOM     50  C   UNL A   1      43.949  28.554  32.351  1.00  0.00     0.074 A 
ATOM     51  C   UNL A   1      44.783  27.561  31.691  1.00  0.00     0.031 C 
ATOM     52  C   UNL A   1      38.895  29.369  27.838  1.00  0.00     0.029 A 
ATOM     53  C   UNL A   1      38.927  29.958  29.178  1.00  0.00     0.049 A 
ATOM     54  H   UNL A   1      40.286  29.484  30.611  1.00  0.00     0.167 HD
ATOM     55  C   UNL A   1      44.012  29.028  33.641  1.00  0.00     0.037 A 
ATOM     56  C   UNL A   1      38.155  30.905  29.800  1.00  0.00     0.037 A 
ATOM     57  C   UNL A   1      43.066  29.923  34.371  1.00  0.00     0.049 A 
ATOM     58  C   UNL A   1      38.358  31.415  31.285  1.00  0.00     0.074 A 
ATOM     59  C   UNL A   1      42.965  30.206  35.730  1.00  0.00     0.029 A 
ATOM     60  N   UNL A   1      42.043  30.691  33.828  1.00  0.00    -0.354 N 
ATOM     61  N   UNL A   1      39.397  31.349  32.079  1.00  0.00    -0.248 NA
ATOM     62  C   UNL A   1      37.249  32.115  31.963  1.00  0.00     0.031 C 
ATOM     63  C   UNL A   1      41.799  30.986  35.966  1.00  0.00     0.029 A 
ATOM     64  C   UNL A   1      41.166  31.247  34.756  1.00  0.00     0.049 A 
ATOM     65  H   UNL A   1      41.945  30.832  32.858  1.00  0.00     0.167 HD
ATOM     66  C   UNL A   1      39.129  31.935  33.309  1.00  0.00     0.074 A 
ATOM     67  C   UNL A   1      37.781  32.462  33.140  1.00  0.00     0.031 C 
ATOM     68  C   UNL A   1      39.857  31.910  34.483  1.00  0.00     0.037 A 
BRANCH  55  69
ATOM     69  C   UNL A   1      45.105  28.434  34.478  1.00  0.00     0.057 A 
ATOM     70  C   UNL A   1      44.959  27.201  35.120  1.00  0.00     0.134 A 
ATOM     71  C   UNL A   1      46.354  29.066  34.558  1.00  0.00     0.134 A 
ATOM     72  F   UNL A   1      43.787  26.548  35.083  1.00  0.00    -0.206 F 
ATOM     73  C   UNL A   1      46.021  26.614  35.811  1.00  0.00     0.040 A 
ATOM     74  C   UNL A   1      47.427  28.481  35.230  1.00  0.00     0.040 A 
ATOM     75  F   UNL A   1      46.559  30.246  33.951  1.00  0.00    -0.206 F 
ATOM     76  C   UNL A   1      47.263  27.249  35.858  1.00  0.00     0.006 A 
ENDBRANCH  55  69
BRANCH  56  77
ATOM     77  C   UNL A   1      37.012  31.516  29.062  1.00  0.00     0.057 A 
ATOM     78  C   UNL A   1      37.063  32.859  28.655  1.00  0.00     0.134 A 
ATOM     79  C   UNL A   1      35.807  30.836  28.858  1.00  0.00     0.134 A 
ATOM     80  F   UNL A   1      38.169  33.588  28.860  1.00  0.00    -0.206 F 
ATOM     81  C   UNL A   1      35.954  33.504  28.100  1.00  0.00     0.040 A 
ATOM     82  C   UNL A   1      34.702  31.459  28.275  1.00  0.00     0.040 A 
ATOM     83  F   UNL A   1      35.670  29.563  29.259  1.00  0.00    -0.206 F 
ATOM     84  C   UNL A   1      34.769  32.801  27.905  1.00  0.00     0.006 A 
ENDBRANCH  56  77
BRANCH  68  85
ATOM     85  C   UNL A   1      39.135  32.446  35.706  1.00  0.00     0.057 A 
ATOM     86  C   UNL A   1      38.333  31.625  36.520  1.00  0.00     0.134 A 
ATOM     87  C   UNL A   1      39.323  33.764  36.135  1.00  0.00     0.134 A 
ATOM     88  F   UNL A   1      38.103  30.344  36.194  1.00  0.00    -0.206 F 
ATOM     89  C   UNL A   1      37.727  32.096  37.687  1.00  0.00     0.040 A 
ATOM     90  C   UNL A   1      38.737  34.243  37.314  1.00  0.00     0.040 A 
ATOM     91  F   UNL A   1      40.097  34.604  35.433  1.00  0.00    -0.206 F 
ATOM     92  C   UNL A   1      37.932  33.410  38.089  1.00  0.00     0.006 A 
ENDBRANCH  68  85
ENDBRANCH  42  43
ENDBRANCH  35  37
ENDBRANCH  34  35
ENDBRANCH  33  34
ENDBRANCH  32  33
ENDBRANCH  31  32
ENDBRANCH   1  31
TORSDOF 18
ENDMDL
MODEL 2
REMARK VINA RESULT:     -13.0      1.006      6.134
REMARK SMILES C[C@@H](C(=O)OCCOC(=O)c1ccc(-c2c3nc(c(-c4c(F)cccc4F)c4ccc([nH]4)c(-c4c(F)cccc4F)c4nc(c(-c5c(F)cccc5F)c5ccc2[nH]5)C=C4)C=C3)cc1)c1ccc(-c2cccc(OC(=O)NCCC3CCCCC3)c2)c(F)c1
REMARK SMILES IDX 3 1 4 2 2 3 1 4 65 5 66 6 89 7 67 8 87 9 68 10 88 11 69 12
REMARK SMILES IDX 70 13 86 14 71 15 73 16 72 17 74 18 75 19 76 20 77 21 78 23
REMARK SMILES IDX 79 24 80 25 81 26 85 27 82 28 84 29 83 30 5 31 6 32 7 33
REMARK SMILES IDX 8 34 9 35 10 36 11 37 12 38 64 39 13 40 63 41 14 42 15 43
REMARK SMILES IDX 16 44 57 45 17 46 62 47 56 48 58 49 18 50 61 51 55 52 54 53
REMARK SMILES IDX 19 55 45 56 28 57 44 58 29 59 32 60 43 61 59 62 30 63 31 64
REMARK SMILES IDX 42 66 60 67 33 68 20 69 21 70 26 71 22 72 23 73 25 74 27 75
REMARK SMILES IDX 24 76 46 77 47 78 52 79 48 80 49 81 51 82 53 83 50 84 34 85
REMARK SMILES IDX 35 86 40 87 36 88 37 89 39 90 41 91 38 92
REMARK H PARENT 77 22 58 54 32 65
REMARK Flexibility Score: inf
ROOT
ATOM      1  C   UNL A   1      41.995  20.464  26.213  1.00  0.00     0.313 C 
ATOM      2  O   UNL A   1      41.832  19.366  26.730  1.00  0.00    -0.252 OA
ENDROOT
BRANCH   1   3
ATOM      3  C   UNL A   1      41.202  21.737  26.624  1.00  0.00     0.126 C 
ATOM      4  C   UNL A   1      41.409  22.038  28.121  1.00  0.00     0.025 C 
BRANCH   3   5
ATOM      5  C   UNL A   1      39.717  21.780  26.167  1.00  0.00    -0.031 A 
ATOM      6  C   UNL A   1      39.089  20.711  25.498  1.00  0.00     0.005 A 
ATOM      7  C   UNL A   1      38.890  22.883  26.446  1.00  0.00     0.044 A 
ATOM      8  C   UNL A   1      37.739  20.769  25.067  1.00  0.00     0.012 A 
ATOM      9  C   UNL A   1      37.540  22.940  26.006  1.00  0.00     0.131 A 
ATOM     10  C   UNL A   1      36.933  21.900  25.281  1.00  0.00     0.018 A 
ATOM     11  F   UNL A   1      36.855  24.065  26.258  1.00  0.00    -0.206 F 
BRANCH  10  12
ATOM     12  C   UNL A   1      35.585  22.017  24.641  1.00  0.00    -0.012 A 
ATOM     13  C   UNL A   1      34.630  20.999  24.634  1.00  0.00     0.009 A 
ATOM     14  C   UNL A   1      35.243  23.184  23.926  1.00  0.00     0.056 A 
ATOM     15  C   UNL A   1      33.393  21.167  23.963  1.00  0.00     0.004 A 
ATOM     16  C   UNL A   1      34.008  23.364  23.262  1.00  0.00     0.133 A 
ATOM     17  C   UNL A   1      33.061  22.351  23.276  1.00  0.00     0.047 A 
BRANCH  16  18
ATOM     18  O   UNL A   1      33.696  24.770  22.346  1.00  0.00    -0.410 OA
BRANCH  18  19
ATOM     19  C   UNL A   1      33.252  26.287  21.833  1.00  0.00     0.412 C 
ATOM     20  O   UNL A   1      34.073  27.172  21.564  1.00  0.00    -0.224 OA
ATOM     21  N   UNL A   1      31.979  26.593  21.456  1.00  0.00    -0.321 N 
ATOM     22  H   UNL A   1      31.750  26.465  20.507  1.00  0.00     0.167 HD
BRANCH  21  23
ATOM     23  C   UNL A   1      30.938  27.088  22.320  1.00  0.00     0.119 C 
BRANCH  23  24
ATOM     24  C   UNL A   1      30.834  26.550  23.745  1.00  0.00     0.025 C 
BRANCH  24  25
ATOM     25  C   UNL A   1      31.533  27.327  24.879  1.00  0.00    -0.009 C 
ATOM     26  C   UNL A   1      32.776  26.617  25.434  1.00  0.00     0.003 C 
ATOM     27  C   UNL A   1      31.897  28.731  24.344  1.00  0.00     0.003 C 
ATOM     28  C   UNL A   1      33.537  27.482  26.438  1.00  0.00     0.000 C 
ATOM     29  C   UNL A   1      32.685  29.571  25.344  1.00  0.00     0.000 C 
ATOM     30  C   UNL A   1      33.919  28.829  25.842  1.00  0.00     0.000 C 
ENDBRANCH  24  25
ENDBRANCH  23  24
ENDBRANCH  21  23
ENDBRANCH  18  19
ENDBRANCH  16  18
ENDBRANCH  10  12
ENDBRANCH   3   5
ENDBRANCH   1   3
BRANCH   1  31
ATOM     31  O   UNL A   1      42.873  20.692  25.187  1.00  0.00    -0.462 OA
BRANCH  31  32
ATOM     32  C   UNL A   1      44.002  21.573  25.422  1.00  0.00     0.274 C 
BRANCH  32  33
ATOM     33  C   UNL A   1      44.150  22.578  24.274  1.00  0.00     0.275 C 
BRANCH  33  34
ATOM     34  O   UNL A   1      43.550  23.815  24.684  1.00  0.00    -0.458 OA
BRANCH  34  35
ATOM     35  C   UNL A   1      44.394  24.779  25.104  1.00  0.00     0.338 C 
ATOM     36  O   UNL A   1      45.451  25.141  24.608  1.00  0.00    -0.246 OA
BRANCH  35  37
ATOM     37  C   UNL A   1      43.689  25.504  26.161  1.00  0.00     0.060 A 
ATOM     38  C   UNL A   1      44.153  26.784  26.440  1.00  0.00     0.016 A 
ATOM     39  C   UNL A   1      42.631  24.957  26.880  1.00  0.00     0.016 A 
ATOM     40  C   UNL A   1      43.581  27.526  27.451  1.00  0.00     0.010 A 
ATOM     41  C   UNL A   1      42.038  25.718  27.893  1.00  0.00     0.010 A 
ATOM     42  C   UNL A   1      42.533  26.996  28.198  1.00  0.00    -0.014 A 
BRANCH  42  43
ATOM     43  C   UNL A   1      42.100  27.751  29.393  1.00  0.00     0.031 A 
ATOM     44  C   UNL A   1      40.646  28.483  29.176  1.00  0.00     0.074 A 
ATOM     45  C   UNL A   1      42.866  27.591  30.548  1.00  0.00     0.049 A 
ATOM     46  N   UNL A   1      39.819  28.968  30.067  1.00  0.00    -0.248 NA
ATOM     47  C   UNL A   1      40.020  28.635  27.845  1.00  0.00     0.031 C 
ATOM     48  C   UNL A   1      44.058  26.751  30.794  1.00  0.00     0.029 A 
ATOM     49  N   UNL A   1      42.670  28.042  31.839  1.00  0.00    -0.354 N 
ATOM     50  C   UNL A   1      38.773  29.654  29.516  1.00  0.00     0.074 A 
ATOM     51  C   UNL A   1      38.897  29.328  28.104  1.00  0.00     0.031 C 
ATOM     52  C   UNL A   1      44.365  26.740  32.125  1.00  0.00     0.029 A 
ATOM     53  C   UNL A   1      43.447  27.606  32.867  1.00  0.00     0.049 A 
ATOM     54  H   UNL A   1      41.954  28.693  32.019  1.00  0.00     0.167 HD
ATOM     55  C   UNL A   1      37.906  30.521  30.139  1.00  0.00     0.037 A 
ATOM     56  C   UNL A   1      43.315  27.904  34.198  1.00  0.00     0.037 A 
ATOM     57  C   UNL A   1      37.878  30.980  31.560  1.00  0.00     0.049 A 
ATOM     58  C   UNL A   1      42.233  28.886  34.810  1.00  0.00     0.074 A 
ATOM     59  C   UNL A   1      37.190  32.037  32.149  1.00  0.00     0.029 A 
ATOM     60  N   UNL A   1      38.565  30.432  32.636  1.00  0.00    -0.354 N 
ATOM     61  N   UNL A   1      41.101  29.324  34.321  1.00  0.00    -0.248 NA
ATOM     62  C   UNL A   1      42.442  29.431  36.166  1.00  0.00     0.031 C 
ATOM     63  C   UNL A   1      37.614  32.183  33.499  1.00  0.00     0.029 A 
ATOM     64  C   UNL A   1      38.546  31.197  33.800  1.00  0.00     0.049 A 
ATOM     65  H   UNL A   1      39.032  29.566  32.580  1.00  0.00     0.167 HD
ATOM     66  C   UNL A   1      40.463  30.176  35.214  1.00  0.00     0.074 A 
ATOM     67  C   UNL A   1      41.329  30.139  36.385  1.00  0.00     0.031 C 
ATOM     68  C   UNL A   1      39.370  31.000  35.029  1.00  0.00     0.037 A 
BRANCH  55  69
ATOM     69  C   UNL A   1      36.950  31.223  29.222  1.00  0.00     0.057 A 
ATOM     70  C   UNL A   1      35.758  30.629  28.799  1.00  0.00     0.134 A 
ATOM     71  C   UNL A   1      37.188  32.551  28.838  1.00  0.00     0.134 A 
ATOM     72  F   UNL A   1      35.474  29.360  29.130  1.00  0.00    -0.206 F 
ATOM     73  C   UNL A   1      34.830  31.334  28.029  1.00  0.00     0.040 A 
ATOM     74  C   UNL A   1      36.262  33.271  28.085  1.00  0.00     0.040 A 
ATOM     75  F   UNL A   1      38.310  33.180  29.224  1.00  0.00    -0.206 F 
ATOM     76  C   UNL A   1      35.076  32.663  27.679  1.00  0.00     0.006 A 
ENDBRANCH  55  69
BRANCH  56  77
ATOM     77  C   UNL A   1      44.255  27.292  35.181  1.00  0.00     0.057 A 
ATOM     78  C   UNL A   1      45.514  27.866  35.417  1.00  0.00     0.134 A 
ATOM     79  C   UNL A   1      43.987  26.069  35.805  1.00  0.00     0.134 A 
ATOM     80  F   UNL A   1      45.860  29.014  34.816  1.00  0.00    -0.206 F 
ATOM     81  C   UNL A   1      46.475  27.236  36.213  1.00  0.00     0.040 A 
ATOM     82  C   UNL A   1      44.926  25.445  36.629  1.00  0.00     0.040 A 
ATOM     83  F   UNL A   1      42.821  25.440  35.594  1.00  0.00    -0.206 F 
ATOM     84  C   UNL A   1      46.179  26.022  36.825  1.00  0.00     0.006 A 
ENDBRANCH  56  77
BRANCH  68  85
ATOM     85  C   UNL A   1      39.103  31.985  36.153  1.00  0.00     0.057 A 
ATOM     86  C   UNL A   1      39.689  33.264  36.181  1.00  0.00     0.134 A 
ATOM     87  C   UNL A   1      38.173  31.697  37.159  1.00  0.00     0.134 A 
ATOM     88  F   UNL A   1      40.584  33.633  35.252  1.00  0.00    -0.206 F 
ATOM     89  C   UNL A   1      39.388  34.200  37.173  1.00  0.00     0.040 A 
ATOM     90  C   UNL A   1      37.849  32.635  38.148  1.00  0.00     0.040 A 
ATOM     91  F   UNL A   1      37.547  30.513  37.187  1.00  0.00    -0.206 F 
ATOM     92  C   UNL A   1      38.461  33.887  38.159  1.00  0.00     0.006 A 
ENDBRANCH  68  85
ENDBRANCH  42  43
ENDBRANCH  35  37
ENDBRANCH  34  35
ENDBRANCH  33  34
ENDBRANCH  32  33
ENDBRANCH  31  32
ENDBRANCH   1  31
TORSDOF 18
ENDMDL
MODEL 3
REMARK VINA RESULT:     -12.8      4.885     10.377
REMARK SMILES C[C@@H](C(=O)OCCOC(=O)c1ccc(-c2c3nc(c(-c4c(F)cccc4F)c4ccc([nH]4)c(-c4c(F)cccc4F)c4nc(c(-c5c(F)cccc5F)c5ccc2[nH]5)C=C4)C=C3)cc1)c1ccc(-c2cccc(OC(=O)NCCC3CCCCC3)c2)c(F)c1
REMARK SMILES IDX 3 1 4 2 2 3 1 4 65 5 66 6 89 7 67 8 87 9 68 10 88 11 69 12
REMARK SMILES IDX 70 13 86 14 71 15 73 16 72 17 74 18 75 19 76 20 77 21 78 23
REMARK SMILES IDX 79 24 80 25 81 26 85 27 82 28 84 29 83 30 5 31 6 32 7 33
REMARK SMILES IDX 8 34 9 35 10 36 11 37 12 38 64 39 13 40 63 41 14 42 15 43
REMARK SMILES IDX 16 44 57 45 17 46 62 47 56 48 58 49 18 50 61 51 55 52 54 53
REMARK SMILES IDX 19 55 45 56 28 57 44 58 29 59 32 60 43 61 59 62 30 63 31 64
REMARK SMILES IDX 42 66 60 67 33 68 20 69 21 70 26 71 22 72 23 73 25 74 27 75
REMARK SMILES IDX 24 76 46 77 47 78 52 79 48 80 49 81 51 82 53 83 50 84 34 85
REMARK SMILES IDX 35 86 40 87 36 88 37 89 39 90 41 91 38 92
REMARK H PARENT 77 22 58 54 32 65
REMARK Flexibility Score: inf
ROOT
ATOM      1  C   UNL A   1      34.757  33.420  30.413  1.00  0.00     0.313 C 
ATOM      2  O   UNL A   1      34.073  32.596  31.008  1.00  0.00    -0.252 OA
ENDROOT
BRANCH   1   3
ATOM      3  C   UNL A   1      35.012  33.382  28.880  1.00  0.00     0.126 C 
ATOM      4  C   UNL A   1      34.404  34.626  28.204  1.00  0.00     0.025 C 
BRANCH   3   5
ATOM      5  C   UNL A   1      34.663  32.042  28.174  1.00  0.00    -0.031 A 
ATOM      6  C   UNL A   1      35.566  30.966  28.080  1.00  0.00     0.005 A 
ATOM      7  C   UNL A   1      33.390  31.807  27.625  1.00  0.00     0.044 A 
ATOM      8  C   UNL A   1      35.244  29.755  27.415  1.00  0.00     0.012 A 
ATOM      9  C   UNL A   1      33.073  30.596  26.952  1.00  0.00     0.131 A 
ATOM     10  C   UNL A   1      33.997  29.547  26.803  1.00  0.00     0.018 A 
ATOM     11  F   UNL A   1      31.855  30.495  26.400  1.00  0.00    -0.206 F 
BRANCH  10  12
ATOM     12  C   UNL A   1      33.755  28.351  25.936  1.00  0.00    -0.012 A 
ATOM     13  C   UNL A   1      33.969  28.327  24.557  1.00  0.00     0.009 A 
ATOM     14  C   UNL A   1      33.206  27.176  26.493  1.00  0.00     0.056 A 
ATOM     15  C   UNL A   1      33.668  27.170  23.795  1.00  0.00     0.004 A 
ATOM     16  C   UNL A   1      32.913  26.014  25.742  1.00  0.00     0.133 A 
ATOM     17  C   UNL A   1      33.145  25.998  24.375  1.00  0.00     0.047 A 
BRANCH  16  18
ATOM     18  O   UNL A   1      32.172  24.659  26.468  1.00  0.00    -0.410 OA
BRANCH  18  19
ATOM     19  C   UNL A   1      31.529  23.161  26.790  1.00  0.00     0.412 C 
ATOM     20  O   UNL A   1      30.637  22.978  27.626  1.00  0.00    -0.224 OA
ATOM     21  N   UNL A   1      31.771  22.073  26.006  1.00  0.00    -0.321 N 
ATOM     22  H   UNL A   1      31.152  21.915  25.256  1.00  0.00     0.167 HD
BRANCH  21  23
ATOM     23  C   UNL A   1      32.849  21.133  26.174  1.00  0.00     0.119 C 
BRANCH  23  24
ATOM     24  C   UNL A   1      34.001  21.481  27.113  1.00  0.00     0.025 C 
BRANCH  24  25
ATOM     25  C   UNL A   1      35.363  21.861  26.499  1.00  0.00    -0.009 C 
ATOM     26  C   UNL A   1      35.760  20.994  25.296  1.00  0.00     0.003 C 
ATOM     27  C   UNL A   1      35.310  23.355  26.103  1.00  0.00     0.003 C 
ATOM     28  C   UNL A   1      37.030  21.497  24.612  1.00  0.00     0.000 C 
ATOM     29  C   UNL A   1      36.570  23.835  25.391  1.00  0.00     0.000 C 
ATOM     30  C   UNL A   1      36.902  22.955  24.193  1.00  0.00     0.000 C 
ENDBRANCH  24  25
ENDBRANCH  23  24
ENDBRANCH  21  23
ENDBRANCH  18  19
ENDBRANCH  16  18
ENDBRANCH  10  12
ENDBRANCH   3   5
ENDBRANCH   1   3
BRANCH   1  31
ATOM     31  O   UNL A   1      35.403  34.454  31.035  1.00  0.00    -0.462 OA
BRANCH  31  32
ATOM     32  C   UNL A   1      34.893  34.926  32.309  1.00  0.00     0.274 C 
BRANCH  32  33
ATOM     33  C   UNL A   1      35.894  34.634  33.432  1.00  0.00     0.275 C 
BRANCH  33  34
ATOM     34  O   UNL A   1      36.971  33.863  32.882  1.00  0.00    -0.458 OA
BRANCH  34  35
ATOM     35  C   UNL A   1      37.003  32.557  33.214  1.00  0.00     0.338 C 
ATOM     36  O   UNL A   1      36.259  31.938  33.960  1.00  0.00    -0.246 OA
BRANCH  35  37
ATOM     37  C   UNL A   1      37.975  31.933  32.317  1.00  0.00     0.060 A 
ATOM     38  C   UNL A   1      39.056  31.306  32.925  1.00  0.00     0.016 A 
ATOM     39  C   UNL A   1      37.862  31.973  30.930  1.00  0.00     0.016 A 
ATOM     40  C   UNL A   1      40.047  30.729  32.159  1.00  0.00     0.010 A 
ATOM     41  C   UNL A   1      38.858  31.371  30.154  1.00  0.00     0.010 A 
ATOM     42  C   UNL A   1      39.968  30.771  30.770  1.00  0.00    -0.014 A 
BRANCH  42  43
ATOM     43  C   UNL A   1      41.152  30.321  30.009  1.00  0.00     0.031 A 
ATOM     44  C   UNL A   1      40.935  28.839  29.335  1.00  0.00     0.074 A 
ATOM     45  C   UNL A   1      42.172  31.255  29.824  1.00  0.00     0.049 A 
ATOM     46  N   UNL A   1      41.606  28.256  28.374  1.00  0.00    -0.248 NA
ATOM     47  C   UNL A   1      39.827  27.941  29.723  1.00  0.00     0.031 C 
ATOM     48  C   UNL A   1      42.262  32.668  30.252  1.00  0.00     0.029 A 
ATOM     49  N   UNL A   1      43.330  31.201  29.071  1.00  0.00    -0.354 N 
ATOM     50  C   UNL A   1      41.249  26.952  28.179  1.00  0.00     0.074 A 
ATOM     51  C   UNL A   1      40.050  26.833  28.994  1.00  0.00     0.031 C 
ATOM     52  C   UNL A   1      43.348  33.269  29.681  1.00  0.00     0.029 A 
ATOM     53  C   UNL A   1      44.099  32.306  28.874  1.00  0.00     0.049 A 
ATOM     54  H   UNL A   1      43.605  30.346  28.670  1.00  0.00     0.167 HD
ATOM     55  C   UNL A   1      41.928  25.982  27.481  1.00  0.00     0.037 A 
ATOM     56  C   UNL A   1      45.219  32.415  28.092  1.00  0.00     0.037 A 
ATOM     57  C   UNL A   1      43.243  26.063  26.776  1.00  0.00     0.049 A 
ATOM     58  C   UNL A   1      45.885  31.228  27.283  1.00  0.00     0.074 A 
ATOM     59  C   UNL A   1      44.067  25.051  26.293  1.00  0.00     0.029 A 
ATOM     60  N   UNL A   1      43.953  27.211  26.446  1.00  0.00    -0.354 N 
ATOM     61  N   UNL A   1      45.402  30.072  26.903  1.00  0.00    -0.248 NA
ATOM     62  C   UNL A   1      47.280  31.368  26.819  1.00  0.00     0.031 C 
ATOM     63  C   UNL A   1      45.297  25.613  25.851  1.00  0.00     0.029 A 
ATOM     64  C   UNL A   1      45.256  26.994  26.006  1.00  0.00     0.049 A 
ATOM     65  H   UNL A   1      43.563  28.113  26.518  1.00  0.00     0.167 HD
ATOM     66  C   UNL A   1      46.349  29.335  26.205  1.00  0.00     0.074 A 
ATOM     67  C   UNL A   1      47.486  30.243  26.126  1.00  0.00     0.031 C 
ATOM     68  C   UNL A   1      46.329  28.012  25.807  1.00  0.00     0.037 A 
BRANCH  55  69
ATOM     69  C   UNL A   1      41.338  24.607  27.574  1.00  0.00     0.057 A 
ATOM     70  C   UNL A   1      40.269  24.204  26.769  1.00  0.00     0.134 A 
ATOM     71  C   UNL A   1      41.916  23.648  28.418  1.00  0.00     0.134 A 
ATOM     72  F   UNL A   1      39.672  25.077  25.943  1.00  0.00    -0.206 F 
ATOM     73  C   UNL A   1      39.798  22.890  26.795  1.00  0.00     0.040 A 
ATOM     74  C   UNL A   1      41.465  22.329  28.440  1.00  0.00     0.040 A 
ATOM     75  F   UNL A   1      42.953  23.972  29.207  1.00  0.00    -0.206 F 
ATOM     76  C   UNL A   1      40.403  21.945  27.625  1.00  0.00     0.006 A 
ENDBRANCH  55  69
BRANCH  56  77
ATOM     77  C   UNL A   1      45.905  33.734  27.978  1.00  0.00     0.057 A 
ATOM     78  C   UNL A   1      46.795  34.164  28.976  1.00  0.00     0.134 A 
ATOM     79  C   UNL A   1      45.604  34.646  26.961  1.00  0.00     0.134 A 
ATOM     80  F   UNL A   1      47.095  33.361  30.008  1.00  0.00    -0.206 F 
ATOM     81  C   UNL A   1      47.335  35.453  28.978  1.00  0.00     0.040 A 
ATOM     82  C   UNL A   1      46.161  35.926  26.933  1.00  0.00     0.040 A 
ATOM     83  F   UNL A   1      44.730  34.322  25.996  1.00  0.00    -0.206 F 
ATOM     84  C   UNL A   1      47.020  36.337  27.951  1.00  0.00     0.006 A 
ENDBRANCH  56  77
BRANCH  68  85
ATOM     85  C   UNL A   1      47.648  27.471  25.287  1.00  0.00     0.057 A 
ATOM     86  C   UNL A   1      47.976  27.489  23.919  1.00  0.00     0.134 A 
ATOM     87  C   UNL A   1      48.642  27.025  26.166  1.00  0.00     0.134 A 
ATOM     88  F   UNL A   1      47.091  27.910  23.003  1.00  0.00    -0.206 F 
ATOM     89  C   UNL A   1      49.218  27.060  23.444  1.00  0.00     0.040 A 
ATOM     90  C   UNL A   1      49.898  26.611  25.704  1.00  0.00     0.040 A 
ATOM     91  F   UNL A   1      48.421  27.004  27.488  1.00  0.00    -0.206 F 
ATOM     92  C   UNL A   1      50.186  26.623  24.340  1.00  0.00     0.006 A 
ENDBRANCH  68  85
ENDBRANCH  42  43
ENDBRANCH  35  37
ENDBRANCH  34  35
ENDBRANCH  33  34
ENDBRANCH  32  33
ENDBRANCH  31  32
ENDBRANCH   1  31
TORSDOF 18
ENDMDL
