MODEL 1
REMARK VINA RESULT:     -12.3      0.000      0.000
REMARK SMILES CC(C)c1ccc(-c2cnc([C@@H]3[NH2+][C@H](C(=O)OCCOC(=O)c4ccc(-c5c6nc(c(-c7c(F)cccc7F)c7ccc([nH]7)c(-c7c(F)cccc7F)c7nc(c(-c8c(F)cccc8F)c8ccc5[nH]8)C=C7)C=C6)cc4)C(C)(C)S3)s2)cc1
REMARK SMILES IDX 18 1 17 2 15 3 16 4 14 5 12 6 13 7 80 8 77 11 78 12 79 13
REMARK SMILES IDX 11 14 8 15 9 16 81 17 10 18 7 19 4 20 5 21 83 22 6 23 82 24
REMARK SMILES IDX 2 25 1 26 3 27 19 28 20 29 21 30 22 31 23 32 24 33 76 34
REMARK SMILES IDX 25 35 75 36 26 37 27 38 28 39 69 40 29 41 74 42 68 43 70 44
REMARK SMILES IDX 30 45 73 46 67 47 66 48 31 50 57 51 40 52 56 53 41 54 44 55
REMARK SMILES IDX 55 56 71 57 42 58 43 59 54 61 72 62 45 63 32 64 33 65 38 66
REMARK SMILES IDX 34 67 35 68 37 69 39 70 36 71 58 72 59 73 64 74 60 75 61 76
REMARK SMILES IDX 63 77 65 78 62 79 46 80 47 81 52 82 48 83 49 84 51 85 53 86
REMARK SMILES IDX 50 87
REMARK H PARENT 13 9 13 10 70 49 44 60
REMARK Flexibility Score: inf
ROOT
ATOM      1  C   UNL A   1      31.763  28.208  27.680  1.00  0.00     0.274 C 
ENDROOT
BRANCH   1   2
ATOM      2  O   UNL A   1      32.322  27.264  26.746  1.00  0.00    -0.458 OA
BRANCH   2   3
ATOM      3  C   UNL A   1      31.431  26.795  25.834  1.00  0.00     0.366 C 
ATOM      4  O   UNL A   1      30.884  25.698  25.932  1.00  0.00    -0.245 OA
BRANCH   3   5
ATOM      5  C   UNL A   1      31.179  27.731  24.621  1.00  0.00     0.310 C 
ATOM      6  C   UNL A   1      32.776  27.070  22.937  1.00  0.00     0.304 C 
ATOM      7  N   UNL A   1      32.495  28.081  23.971  1.00  0.00    -0.317 N 
ATOM      8  S   UNL A   1      31.169  26.787  22.117  1.00  0.00    -0.079 SA
ATOM      9  H   UNL A   1      32.436  29.005  23.545  1.00  0.00     0.348 HD
ATOM     10  H   UNL A   1      33.241  28.092  24.667  1.00  0.00     0.348 HD
ATOM     11  C   UNL A   1      30.149  27.427  23.502  1.00  0.00     0.079 C 
ATOM     12  C   UNL A   1      29.516  28.733  22.963  1.00  0.00     0.030 C 
ATOM     13  C   UNL A   1      28.979  26.502  23.858  1.00  0.00     0.030 C 
BRANCH   6  14
ATOM     14  C   UNL A   1      33.435  25.784  23.443  1.00  0.00     0.162 A 
ATOM     15  C   UNL A   1      33.996  23.430  23.938  1.00  0.00     0.055 A 
ATOM     16  C   UNL A   1      34.583  24.391  24.735  1.00  0.00     0.132 A 
ATOM     17  S   UNL A   1      33.162  24.254  22.665  1.00  0.00    -0.112 S 
ATOM     18  N   UNL A   1      34.239  25.702  24.483  1.00  0.00    -0.242 NA
BRANCH  15  19
ATOM     19  C   UNL A   1      34.006  21.965  24.140  1.00  0.00    -0.007 A 
ATOM     20  C   UNL A   1      33.887  19.124  24.542  1.00  0.00    -0.045 A 
ATOM     21  C   UNL A   1      35.036  19.869  24.854  1.00  0.00     0.004 A 
ATOM     22  C   UNL A   1      32.818  19.821  23.966  1.00  0.00     0.004 A 
ATOM     23  C   UNL A   1      35.095  21.264  24.658  1.00  0.00     0.010 A 
ATOM     24  C   UNL A   1      32.873  21.211  23.779  1.00  0.00     0.010 A 
BRANCH  20  25
ATOM     25  C   UNL A   1      33.774  17.615  24.765  1.00  0.00     0.013 C 
ATOM     26  C   UNL A   1      32.466  17.152  25.422  1.00  0.00     0.012 C 
ATOM     27  C   UNL A   1      33.955  16.822  23.459  1.00  0.00     0.012 C 
ENDBRANCH  20  25
ENDBRANCH  15  19
ENDBRANCH   6  14
ENDBRANCH   3   5
ENDBRANCH   2   3
ENDBRANCH   1   2
BRANCH   1  28
ATOM     28  C   UNL A   1      31.758  29.623  27.089  1.00  0.00     0.275 C 
BRANCH  28  29
ATOM     29  O   UNL A   1      33.098  30.028  26.738  1.00  0.00    -0.458 OA
BRANCH  29  30
ATOM     30  C   UNL A   1      33.529  31.224  27.201  1.00  0.00     0.338 C 
ATOM     31  O   UNL A   1      32.916  32.281  27.217  1.00  0.00    -0.246 OA
BRANCH  30  32
ATOM     32  C   UNL A   1      34.832  31.029  27.867  1.00  0.00     0.060 A 
ATOM     33  C   UNL A   1      35.078  29.767  28.397  1.00  0.00     0.016 A 
ATOM     34  C   UNL A   1      35.787  32.030  28.019  1.00  0.00     0.016 A 
ATOM     35  C   UNL A   1      36.281  29.461  29.028  1.00  0.00     0.010 A 
ATOM     36  C   UNL A   1      36.998  31.734  28.676  1.00  0.00     0.010 A 
ATOM     37  C   UNL A   1      37.258  30.442  29.175  1.00  0.00    -0.014 A 
BRANCH  37  38
ATOM     38  C   UNL A   1      38.501  30.122  29.923  1.00  0.00     0.031 A 
ATOM     39  C   UNL A   1      39.540  29.259  29.292  1.00  0.00     0.074 A 
ATOM     40  C   UNL A   1      38.783  30.686  31.112  1.00  0.00     0.049 A 
ATOM     41  N   UNL A   1      40.597  28.716  29.831  1.00  0.00    -0.248 NA
ATOM     42  C   UNL A   1      39.388  29.012  27.852  1.00  0.00     0.031 C 
ATOM     43  C   UNL A   1      37.992  31.736  31.722  1.00  0.00     0.029 A 
ATOM     44  N   UNL A   1      39.800  30.480  32.011  1.00  0.00    -0.354 N 
ATOM     45  C   UNL A   1      41.232  28.040  28.803  1.00  0.00     0.074 A 
ATOM     46  C   UNL A   1      40.446  28.254  27.605  1.00  0.00     0.031 C 
ATOM     47  C   UNL A   1      38.519  32.075  32.908  1.00  0.00     0.029 A 
ATOM     48  C   UNL A   1      39.647  31.195  33.177  1.00  0.00     0.049 A 
ATOM     49  H   UNL A   1      40.562  29.880  31.838  1.00  0.00     0.167 HD
ATOM     50  C   UNL A   1      42.359  27.295  28.869  1.00  0.00     0.037 A 
ATOM     51  C   UNL A   1      40.298  31.099  34.353  1.00  0.00     0.037 A 
ATOM     52  C   UNL A   1      43.113  27.077  30.076  1.00  0.00     0.049 A 
ATOM     53  C   UNL A   1      41.390  30.077  34.481  1.00  0.00     0.074 A 
ATOM     54  C   UNL A   1      44.213  26.262  30.274  1.00  0.00     0.029 A 
ATOM     55  N   UNL A   1      42.839  27.679  31.297  1.00  0.00    -0.354 N 
ATOM     56  N   UNL A   1      41.913  29.314  33.552  1.00  0.00    -0.248 NA
ATOM     57  C   UNL A   1      41.963  29.875  35.819  1.00  0.00     0.031 C 
ATOM     58  C   UNL A   1      44.567  26.327  31.627  1.00  0.00     0.029 A 
ATOM     59  C   UNL A   1      43.723  27.225  32.262  1.00  0.00     0.049 A 
ATOM     60  H   UNL A   1      42.120  28.334  31.455  1.00  0.00     0.167 HD
ATOM     61  C   UNL A   1      42.894  28.563  34.181  1.00  0.00     0.074 A 
ATOM     62  C   UNL A   1      42.896  28.964  35.575  1.00  0.00     0.031 C 
ATOM     63  C   UNL A   1      43.718  27.629  33.647  1.00  0.00     0.037 A 
BRANCH  50  64
ATOM     64  C   UNL A   1      42.755  26.581  27.614  1.00  0.00     0.057 A 
ATOM     65  C   UNL A   1      43.592  27.160  26.653  1.00  0.00     0.134 A 
ATOM     66  C   UNL A   1      42.234  25.310  27.340  1.00  0.00     0.134 A 
ATOM     67  F   UNL A   1      44.098  28.388  26.842  1.00  0.00    -0.206 F 
ATOM     68  C   UNL A   1      43.869  26.514  25.446  1.00  0.00     0.040 A 
ATOM     69  C   UNL A   1      42.524  24.644  26.151  1.00  0.00     0.040 A 
ATOM     70  F   UNL A   1      41.420  24.704  28.219  1.00  0.00    -0.206 F 
ATOM     71  C   UNL A   1      43.334  25.251  25.194  1.00  0.00     0.006 A 
ENDBRANCH  50  64
BRANCH  51  72
ATOM     72  C   UNL A   1      39.880  31.921  35.520  1.00  0.00     0.057 A 
ATOM     73  C   UNL A   1      38.808  31.538  36.334  1.00  0.00     0.134 A 
ATOM     74  C   UNL A   1      40.523  33.127  35.832  1.00  0.00     0.134 A 
ATOM     75  F   UNL A   1      38.127  30.414  36.068  1.00  0.00    -0.206 F 
ATOM     76  C   UNL A   1      38.391  32.322  37.412  1.00  0.00     0.040 A 
ATOM     77  C   UNL A   1      40.134  33.908  36.923  1.00  0.00     0.040 A 
ATOM     78  F   UNL A   1      41.544  33.568  35.081  1.00  0.00    -0.206 F 
ATOM     79  C   UNL A   1      39.060  33.507  37.714  1.00  0.00     0.006 A 
ENDBRANCH  51  72
BRANCH  63  80
ATOM     80  C   UNL A   1      44.721  26.999  34.565  1.00  0.00     0.057 A 
ATOM     81  C   UNL A   1      44.465  25.791  35.226  1.00  0.00     0.134 A 
ATOM     82  C   UNL A   1      45.977  27.589  34.757  1.00  0.00     0.134 A 
ATOM     83  F   UNL A   1      43.274  25.186  35.100  1.00  0.00    -0.206 F 
ATOM     84  C   UNL A   1      45.419  25.199  36.055  1.00  0.00     0.040 A 
ATOM     85  C   UNL A   1      46.947  26.993  35.563  1.00  0.00     0.040 A 
ATOM     86  F   UNL A   1      46.286  28.746  34.151  1.00  0.00    -0.206 F 
ATOM     87  C   UNL A   1      46.668  25.796  36.218  1.00  0.00     0.006 A 
ENDBRANCH  63  80
ENDBRANCH  37  38
ENDBRANCH  30  32
ENDBRANCH  29  30
ENDBRANCH  28  29
ENDBRANCH   1  28
TORSDOF 14
ENDMDL
MODEL 2
REMARK VINA RESULT:     -12.3      4.016      9.310
REMARK SMILES CC(C)c1ccc(-c2cnc([C@@H]3[NH2+][C@H](C(=O)OCCOC(=O)c4ccc(-c5c6nc(c(-c7c(F)cccc7F)c7ccc([nH]7)c(-c7c(F)cccc7F)c7nc(c(-c8c(F)cccc8F)c8ccc5[nH]8)C=C7)C=C6)cc4)C(C)(C)S3)s2)cc1
REMARK SMILES IDX 18 1 17 2 15 3 16 4 14 5 12 6 13 7 80 8 77 11 78 12 79 13
REMARK SMILES IDX 11 14 8 15 9 16 81 17 10 18 7 19 4 20 5 21 83 22 6 23 82 24
REMARK SMILES IDX 2 25 1 26 3 27 19 28 20 29 21 30 22 31 23 32 24 33 76 34
REMARK SMILES IDX 25 35 75 36 26 37 27 38 28 39 69 40 29 41 74 42 68 43 70 44
REMARK SMILES IDX 30 45 73 46 67 47 66 48 31 50 57 51 40 52 56 53 41 54 44 55
REMARK SMILES IDX 55 56 71 57 42 58 43 59 54 61 72 62 45 63 32 64 33 65 38 66
REMARK SMILES IDX 34 67 35 68 37 69 39 70 36 71 58 72 59 73 64 74 60 75 61 76
REMARK SMILES IDX 63 77 65 78 62 79 46 80 47 81 52 82 48 83 49 84 51 85 53 86
REMARK SMILES IDX 50 87
REMARK H PARENT 13 9 13 10 70 49 44 60
REMARK Flexibility Score: inf
ROOT
ATOM      1  C   UNL A   1      36.725  22.742  23.474  1.00  0.00     0.274 C 
ENDROOT
BRANCH   1   2
ATOM      2  O   UNL A   1      35.656  23.486  24.092  1.00  0.00    -0.458 OA
BRANCH   2   3
ATOM      3  C   UNL A   1      34.414  23.042  23.767  1.00  0.00     0.366 C 
ATOM      4  O   UNL A   1      33.702  23.592  22.929  1.00  0.00    -0.245 OA
BRANCH   3   5
ATOM      5  C   UNL A   1      33.930  21.803  24.568  1.00  0.00     0.310 C 
ATOM      6  C   UNL A   1      32.560  22.670  26.356  1.00  0.00     0.304 C 
ATOM      7  N   UNL A   1      33.896  22.135  26.040  1.00  0.00    -0.317 N 
ATOM      8  S   UNL A   1      31.403  21.605  25.427  1.00  0.00    -0.079 SA
ATOM      9  H   UNL A   1      34.071  21.294  26.589  1.00  0.00     0.348 HD
ATOM     10  H   UNL A   1      34.615  22.823  26.264  1.00  0.00     0.348 HD
ATOM     11  C   UNL A   1      32.648  21.003  24.220  1.00  0.00     0.079 C 
ATOM     12  C   UNL A   1      32.828  19.501  24.545  1.00  0.00     0.030 C 
ATOM     13  C   UNL A   1      32.153  21.069  22.769  1.00  0.00     0.030 C 
BRANCH   6  14
ATOM     14  C   UNL A   1      32.372  24.163  26.075  1.00  0.00     0.162 A 
ATOM     15  C   UNL A   1      31.543  26.352  25.288  1.00  0.00     0.055 A 
ATOM     16  C   UNL A   1      32.850  26.301  25.724  1.00  0.00     0.132 A 
ATOM     17  S   UNL A   1      30.823  24.817  25.634  1.00  0.00    -0.112 S 
ATOM     18  N   UNL A   1      33.324  25.071  26.127  1.00  0.00    -0.242 NA
BRANCH  15  19
ATOM     19  C   UNL A   1      30.869  27.471  24.594  1.00  0.00    -0.007 A 
ATOM     20  C   UNL A   1      29.592  29.723  23.352  1.00  0.00    -0.045 A 
ATOM     21  C   UNL A   1      29.228  28.402  23.043  1.00  0.00     0.004 A 
ATOM     22  C   UNL A   1      30.652  29.894  24.251  1.00  0.00     0.004 A 
ATOM     23  C   UNL A   1      29.853  27.296  23.653  1.00  0.00     0.010 A 
ATOM     24  C   UNL A   1      31.269  28.793  24.864  1.00  0.00     0.010 A 
BRANCH  20  25
ATOM     25  C   UNL A   1      28.919  30.950  22.733  1.00  0.00     0.013 C 
ATOM     26  C   UNL A   1      28.542  30.808  21.252  1.00  0.00     0.012 C 
ATOM     27  C   UNL A   1      27.655  31.367  23.506  1.00  0.00     0.012 C 
ENDBRANCH  20  25
ENDBRANCH  15  19
ENDBRANCH   6  14
ENDBRANCH   3   5
ENDBRANCH   2   3
ENDBRANCH   1   2
BRANCH   1  28
ATOM     28  C   UNL A   1      37.049  21.479  24.282  1.00  0.00     0.275 C 
BRANCH  28  29
ATOM     29  O   UNL A   1      37.476  21.830  25.616  1.00  0.00    -0.458 OA
BRANCH  29  30
ATOM     30  C   UNL A   1      38.689  21.389  26.016  1.00  0.00     0.338 C 
ATOM     31  O   UNL A   1      39.159  20.269  25.877  1.00  0.00    -0.246 OA
BRANCH  30  32
ATOM     32  C   UNL A   1      39.469  22.541  26.514  1.00  0.00     0.060 A 
ATOM     33  C   UNL A   1      39.111  23.792  26.022  1.00  0.00     0.016 A 
ATOM     34  C   UNL A   1      40.537  22.436  27.400  1.00  0.00     0.016 A 
ATOM     35  C   UNL A   1      39.760  24.952  26.437  1.00  0.00     0.010 A 
ATOM     36  C   UNL A   1      41.212  23.603  27.807  1.00  0.00     0.010 A 
ATOM     37  C   UNL A   1      40.820  24.872  27.337  1.00  0.00    -0.014 A 
BRANCH  37  38
ATOM     38  C   UNL A   1      41.555  26.110  27.705  1.00  0.00     0.031 A 
ATOM     39  C   UNL A   1      40.893  27.131  28.567  1.00  0.00     0.074 A 
ATOM     40  C   UNL A   1      42.850  26.291  27.389  1.00  0.00     0.049 A 
ATOM     41  N   UNL A   1      41.281  28.345  28.850  1.00  0.00    -0.248 NA
ATOM     42  C   UNL A   1      39.651  26.712  29.229  1.00  0.00     0.031 C 
ATOM     43  C   UNL A   1      43.689  25.277  26.784  1.00  0.00     0.029 A 
ATOM     44  N   UNL A   1      43.692  27.365  27.538  1.00  0.00    -0.354 N 
ATOM     45  C   UNL A   1      40.320  28.850  29.710  1.00  0.00     0.074 A 
ATOM     46  C   UNL A   1      39.338  27.804  29.910  1.00  0.00     0.031 C 
ATOM     47  C   UNL A   1      44.921  25.766  26.577  1.00  0.00     0.029 A 
ATOM     48  C   UNL A   1      44.928  27.169  26.964  1.00  0.00     0.049 A 
ATOM     49  H   UNL A   1      43.438  28.192  28.008  1.00  0.00     0.167 HD
ATOM     50  C   UNL A   1      40.263  30.084  30.260  1.00  0.00     0.037 A 
ATOM     51  C   UNL A   1      45.924  28.041  26.714  1.00  0.00     0.037 A 
ATOM     52  C   UNL A   1      41.238  31.117  30.029  1.00  0.00     0.049 A 
ATOM     53  C   UNL A   1      45.731  29.476  27.113  1.00  0.00     0.074 A 
ATOM     54  C   UNL A   1      41.225  32.432  30.458  1.00  0.00     0.029 A 
ATOM     55  N   UNL A   1      42.406  30.948  29.296  1.00  0.00    -0.354 N 
ATOM     56  N   UNL A   1      44.754  30.011  27.803  1.00  0.00    -0.248 NA
ATOM     57  C   UNL A   1      46.754  30.435  26.676  1.00  0.00     0.031 C 
ATOM     58  C   UNL A   1      42.356  33.073  29.936  1.00  0.00     0.029 A 
ATOM     59  C   UNL A   1      43.103  32.145  29.228  1.00  0.00     0.049 A 
ATOM     60  H   UNL A   1      42.697  30.103  28.884  1.00  0.00     0.167 HD
ATOM     61  C   UNL A   1      45.054  31.360  27.909  1.00  0.00     0.074 A 
ATOM     62  C   UNL A   1      46.310  31.564  27.213  1.00  0.00     0.031 C 
ATOM     63  C   UNL A   1      44.352  32.338  28.532  1.00  0.00     0.037 A 
BRANCH  50  64
ATOM     64  C   UNL A   1      39.040  30.394  31.066  1.00  0.00     0.057 A 
ATOM     65  C   UNL A   1      38.967  30.152  32.443  1.00  0.00     0.134 A 
ATOM     66  C   UNL A   1      37.893  30.887  30.432  1.00  0.00     0.134 A 
ATOM     67  F   UNL A   1      40.022  29.650  33.103  1.00  0.00    -0.206 F 
ATOM     68  C   UNL A   1      37.784  30.357  33.156  1.00  0.00     0.040 A 
ATOM     69  C   UNL A   1      36.713  31.121  31.137  1.00  0.00     0.040 A 
ATOM     70  F   UNL A   1      37.896  31.132  29.112  1.00  0.00    -0.206 F 
ATOM     71  C   UNL A   1      36.653  30.845  32.501  1.00  0.00     0.006 A 
ENDBRANCH  50  64
BRANCH  51  72
ATOM     72  C   UNL A   1      47.143  27.610  25.980  1.00  0.00     0.057 A 
ATOM     73  C   UNL A   1      47.160  27.528  24.583  1.00  0.00     0.134 A 
ATOM     74  C   UNL A   1      48.313  27.240  26.658  1.00  0.00     0.134 A 
ATOM     75  F   UNL A   1      46.062  27.833  23.876  1.00  0.00    -0.206 F 
ATOM     76  C   UNL A   1      48.292  27.093  23.889  1.00  0.00     0.040 A 
ATOM     77  C   UNL A   1      49.460  26.829  25.976  1.00  0.00     0.040 A 
ATOM     78  F   UNL A   1      48.361  27.272  27.998  1.00  0.00    -0.206 F 
ATOM     79  C   UNL A   1      49.449  26.750  24.586  1.00  0.00     0.006 A 
ENDBRANCH  51  72
BRANCH  63  80
ATOM     80  C   UNL A   1      44.944  33.715  28.523  1.00  0.00     0.057 A 
ATOM     81  C   UNL A   1      44.604  34.660  27.547  1.00  0.00     0.134 A 
ATOM     82  C   UNL A   1      45.833  34.113  29.528  1.00  0.00     0.134 A 
ATOM     83  F   UNL A   1      43.773  34.336  26.544  1.00  0.00    -0.206 F 
ATOM     84  C   UNL A   1      45.139  35.950  27.566  1.00  0.00     0.040 A 
ATOM     85  C   UNL A   1      46.354  35.406  29.572  1.00  0.00     0.040 A 
ATOM     86  F   UNL A   1      46.197  33.255  30.494  1.00  0.00    -0.206 F 
ATOM     87  C   UNL A   1      46.010  36.328  28.586  1.00  0.00     0.006 A 
ENDBRANCH  63  80
ENDBRANCH  37  38
ENDBRANCH  30  32
ENDBRANCH  29  30
ENDBRANCH  28  29
ENDBRANCH   1  28
TORSDOF 14
ENDMDL
MODEL 3
REMARK VINA RESULT:     -12.2      3.546      6.840
REMARK SMILES CC(C)c1ccc(-c2cnc([C@@H]3[NH2+][C@H](C(=O)OCCOC(=O)c4ccc(-c5c6nc(c(-c7c(F)cccc7F)c7ccc([nH]7)c(-c7c(F)cccc7F)c7nc(c(-c8c(F)cccc8F)c8ccc5[nH]8)C=C7)C=C6)cc4)C(C)(C)S3)s2)cc1
REMARK SMILES IDX 18 1 17 2 15 3 16 4 14 5 12 6 13 7 80 8 77 11 78 12 79 13
REMARK SMILES IDX 11 14 8 15 9 16 81 17 10 18 7 19 4 20 5 21 83 22 6 23 82 24
REMARK SMILES IDX 2 25 1 26 3 27 19 28 20 29 21 30 22 31 23 32 24 33 76 34
REMARK SMILES IDX 25 35 75 36 26 37 27 38 28 39 69 40 29 41 74 42 68 43 70 44
REMARK SMILES IDX 30 45 73 46 67 47 66 48 31 50 57 51 40 52 56 53 41 54 44 55
REMARK SMILES IDX 55 56 71 57 42 58 43 59 54 61 72 62 45 63 32 64 33 65 38 66
REMARK SMILES IDX 34 67 35 68 37 69 39 70 36 71 58 72 59 73 64 74 60 75 61 76
REMARK SMILES IDX 63 77 65 78 62 79 46 80 47 81 52 82 48 83 49 84 51 85 53 86
REMARK SMILES IDX 50 87
REMARK H PARENT 13 9 13 10 70 49 44 60
REMARK Flexibility Score: inf
ROOT
ATOM      1  C   UNL A   1      31.921  28.593  27.387  1.00  0.00     0.274 C 
ENDROOT
BRANCH   1   2
ATOM      2  O   UNL A   1      32.302  27.382  26.705  1.00  0.00    -0.458 OA
BRANCH   2   3
ATOM      3  C   UNL A   1      31.391  26.953  25.792  1.00  0.00     0.366 C 
ATOM      4  O   UNL A   1      30.821  25.866  25.872  1.00  0.00    -0.245 OA
BRANCH   3   5
ATOM      5  C   UNL A   1      31.148  27.921  24.603  1.00  0.00     0.310 C 
ATOM      6  C   UNL A   1      32.675  27.228  22.868  1.00  0.00     0.304 C 
ATOM      7  N   UNL A   1      32.461  28.230  23.927  1.00  0.00    -0.317 N 
ATOM      8  S   UNL A   1      31.039  27.026  22.083  1.00  0.00    -0.079 SA
ATOM      9  H   UNL A   1      32.429  29.164  23.519  1.00  0.00     0.348 HD
ATOM     10  H   UNL A   1      33.223  28.198  24.604  1.00  0.00     0.348 HD
ATOM     11  C   UNL A   1      30.080  27.680  23.505  1.00  0.00     0.079 C 
ATOM     12  C   UNL A   1      29.488  29.020  23.006  1.00  0.00     0.030 C 
ATOM     13  C   UNL A   1      28.882  26.796  23.874  1.00  0.00     0.030 C 
BRANCH   6  14
ATOM     14  C   UNL A   1      33.294  25.908  23.335  1.00  0.00     0.162 A 
ATOM     15  C   UNL A   1      33.751  23.527  23.805  1.00  0.00     0.055 A 
ATOM     16  C   UNL A   1      34.450  24.454  24.549  1.00  0.00     0.132 A 
ATOM     17  S   UNL A   1      32.875  24.394  22.591  1.00  0.00    -0.112 S 
ATOM     18  N   UNL A   1      34.167  25.782  24.313  1.00  0.00    -0.242 NA
BRANCH  15  19
ATOM     19  C   UNL A   1      33.690  22.064  24.017  1.00  0.00    -0.007 A 
ATOM     20  C   UNL A   1      33.708  19.224  24.438  1.00  0.00    -0.045 A 
ATOM     21  C   UNL A   1      32.651  19.867  23.774  1.00  0.00     0.004 A 
ATOM     22  C   UNL A   1      34.728  20.039  24.943  1.00  0.00     0.004 A 
ATOM     23  C   UNL A   1      32.642  21.261  23.566  1.00  0.00     0.010 A 
ATOM     24  C   UNL A   1      34.724  21.425  24.729  1.00  0.00     0.010 A 
BRANCH  20  25
ATOM     25  C   UNL A   1      33.769  17.711  24.659  1.00  0.00     0.013 C 
ATOM     26  C   UNL A   1      32.616  17.128  25.490  1.00  0.00     0.012 C 
ATOM     27  C   UNL A   1      33.836  16.935  23.331  1.00  0.00     0.012 C 
ENDBRANCH  20  25
ENDBRANCH  15  19
ENDBRANCH   6  14
ENDBRANCH   3   5
ENDBRANCH   2   3
ENDBRANCH   1   2
BRANCH   1  28
ATOM     28  C   UNL A   1      32.901  29.729  27.071  1.00  0.00     0.275 C 
BRANCH  28  29
ATOM     29  O   UNL A   1      34.206  29.437  27.614  1.00  0.00    -0.458 OA
BRANCH  29  30
ATOM     30  C   UNL A   1      34.891  30.460  28.173  1.00  0.00     0.338 C 
ATOM     31  O   UNL A   1      34.450  31.540  28.539  1.00  0.00    -0.246 OA
BRANCH  30  32
ATOM     32  C   UNL A   1      36.270  30.010  28.447  1.00  0.00     0.060 A 
ATOM     33  C   UNL A   1      37.173  30.097  27.392  1.00  0.00     0.016 A 
ATOM     34  C   UNL A   1      36.692  29.485  29.665  1.00  0.00     0.016 A 
ATOM     35  C   UNL A   1      38.506  29.723  27.540  1.00  0.00     0.010 A 
ATOM     36  C   UNL A   1      38.035  29.084  29.815  1.00  0.00     0.010 A 
ATOM     37  C   UNL A   1      38.954  29.211  28.756  1.00  0.00    -0.014 A 
BRANCH  37  38
ATOM     38  C   UNL A   1      40.359  28.740  28.872  1.00  0.00     0.031 A 
ATOM     39  C   UNL A   1      41.409  29.670  29.377  1.00  0.00     0.074 A 
ATOM     40  C   UNL A   1      40.700  27.457  28.652  1.00  0.00     0.049 A 
ATOM     41  N   UNL A   1      42.706  29.521  29.381  1.00  0.00    -0.248 NA
ATOM     42  C   UNL A   1      40.930  30.912  29.995  1.00  0.00     0.031 C 
ATOM     43  C   UNL A   1      39.749  26.392  28.409  1.00  0.00     0.029 A 
ATOM     44  N   UNL A   1      41.918  26.823  28.608  1.00  0.00    -0.354 N 
ATOM     45  C   UNL A   1      43.208  30.662  29.985  1.00  0.00     0.074 A 
ATOM     46  C   UNL A   1      42.072  31.486  30.344  1.00  0.00     0.031 C 
ATOM     47  C   UNL A   1      40.398  25.235  28.211  1.00  0.00     0.029 A 
ATOM     48  C   UNL A   1      41.829  25.503  28.230  1.00  0.00     0.049 A 
ATOM     49  H   UNL A   1      42.769  27.269  28.826  1.00  0.00     0.167 HD
ATOM     50  C   UNL A   1      44.502  30.989  30.198  1.00  0.00     0.037 A 
ATOM     51  C   UNL A   1      42.790  24.630  27.869  1.00  0.00     0.037 A 
ATOM     52  C   UNL A   1      45.618  30.164  29.812  1.00  0.00     0.049 A 
ATOM     53  C   UNL A   1      44.216  25.101  27.871  1.00  0.00     0.074 A 
ATOM     54  C   UNL A   1      46.970  30.444  29.892  1.00  0.00     0.029 A 
ATOM     55  N   UNL A   1      45.506  28.892  29.267  1.00  0.00    -0.354 N 
ATOM     56  N   UNL A   1      44.704  26.238  28.302  1.00  0.00    -0.248 NA
ATOM     57  C   UNL A   1      45.222  24.188  27.311  1.00  0.00     0.031 C 
ATOM     58  C   UNL A   1      47.673  29.365  29.341  1.00  0.00     0.029 A 
ATOM     59  C   UNL A   1      46.762  28.388  28.969  1.00  0.00     0.049 A 
ATOM     60  H   UNL A   1      44.657  28.416  29.113  1.00  0.00     0.167 HD
ATOM     61  C   UNL A   1      46.073  26.170  28.094  1.00  0.00     0.074 A 
ATOM     62  C   UNL A   1      46.340  24.875  27.499  1.00  0.00     0.031 C 
ATOM     63  C   UNL A   1      47.019  27.099  28.376  1.00  0.00     0.037 A 
BRANCH  50  64
ATOM     64  C   UNL A   1      44.756  32.348  30.772  1.00  0.00     0.057 A 
ATOM     65  C   UNL A   1      44.921  33.483  29.970  1.00  0.00     0.134 A 
ATOM     66  C   UNL A   1      44.900  32.505  32.157  1.00  0.00     0.134 A 
ATOM     67  F   UNL A   1      44.827  33.394  28.635  1.00  0.00    -0.206 F 
ATOM     68  C   UNL A   1      45.254  34.722  30.523  1.00  0.00     0.040 A 
ATOM     69  C   UNL A   1      45.206  33.741  32.723  1.00  0.00     0.040 A 
ATOM     70  F   UNL A   1      44.761  31.453  32.979  1.00  0.00    -0.206 F 
ATOM     71  C   UNL A   1      45.396  34.852  31.905  1.00  0.00     0.006 A 
ENDBRANCH  50  64
BRANCH  51  72
ATOM     72  C   UNL A   1      42.436  23.266  27.393  1.00  0.00     0.057 A 
ATOM     73  C   UNL A   1      42.172  22.228  28.293  1.00  0.00     0.134 A 
ATOM     74  C   UNL A   1      42.383  22.959  26.026  1.00  0.00     0.134 A 
ATOM     75  F   UNL A   1      42.241  22.445  29.614  1.00  0.00    -0.206 F 
ATOM     76  C   UNL A   1      41.870  20.937  27.852  1.00  0.00     0.040 A 
ATOM     77  C   UNL A   1      42.057  21.680  25.571  1.00  0.00     0.040 A 
ATOM     78  F   UNL A   1      42.647  23.901  25.108  1.00  0.00    -0.206 F 
ATOM     79  C   UNL A   1      41.804  20.663  26.487  1.00  0.00     0.006 A 
ENDBRANCH  51  72
BRANCH  63  80
ATOM     80  C   UNL A   1      48.442  26.734  28.079  1.00  0.00     0.057 A 
ATOM     81  C   UNL A   1      49.231  26.025  28.993  1.00  0.00     0.134 A 
ATOM     82  C   UNL A   1      49.016  27.060  26.844  1.00  0.00     0.134 A 
ATOM     83  F   UNL A   1      48.747  25.701  30.202  1.00  0.00    -0.206 F 
ATOM     84  C   UNL A   1      50.546  25.665  28.693  1.00  0.00     0.040 A 
ATOM     85  C   UNL A   1      50.320  26.683  26.523  1.00  0.00     0.040 A 
ATOM     86  F   UNL A   1      48.313  27.737  25.923  1.00  0.00    -0.206 F 
ATOM     87  C   UNL A   1      51.091  25.986  27.451  1.00  0.00     0.006 A 
ENDBRANCH  63  80
ENDBRANCH  37  38
ENDBRANCH  30  32
ENDBRANCH  29  30
ENDBRANCH  28  29
ENDBRANCH   1  28
TORSDOF 14
ENDMDL
