MODEL 1
REMARK VINA RESULT:     -13.4      0.000      0.000
REMARK SMILES CC(=O)Nc1cnc(N2CC=C(c3ccccc3C)CC2)c(C(=O)OCCOC(=O)c2ccc(-c3c4nc(c(-c5c(F)cccc5F)c5ccc([nH]5)c(-c5c(F)cccc5F)c5nc(c(-c6c(F)cccc6F)c6ccc3[nH]6)C=C5)C=C4)cc2)c1
REMARK SMILES IDX 26 1 25 2 23 3 24 4 22 5 5 6 6 7 85 8 7 9 8 10 4 11 1 12
REMARK SMILES IDX 2 13 3 14 9 16 10 17 21 18 11 19 20 20 12 21 13 22 14 23
REMARK SMILES IDX 18 24 15 25 17 26 19 27 16 28 27 29 28 30 29 31 30 32 31 33
REMARK SMILES IDX 32 34 84 35 33 36 83 37 34 38 35 39 36 40 77 41 37 42 82 43
REMARK SMILES IDX 76 44 78 45 38 46 81 47 75 48 74 49 39 51 65 52 48 53 64 54
REMARK SMILES IDX 49 55 52 56 63 57 79 58 50 59 51 60 62 62 80 63 53 64 40 65
REMARK SMILES IDX 41 66 46 67 42 68 43 69 45 70 47 71 44 72 66 73 67 74 72 75
REMARK SMILES IDX 68 76 69 77 71 78 73 79 70 80 54 81 55 82 60 83 56 84 57 85
REMARK SMILES IDX 59 86 61 87 58 88
REMARK H PARENT 4 15 78 50 52 61
REMARK Flexibility Score: inf
ROOT
ATOM      1  C   UNL A   1      37.221  22.850  24.913  1.00  0.00     0.275 C 
ENDROOT
BRANCH   1   2
ATOM      2  O   UNL A   1      36.756  21.636  25.553  1.00  0.00    -0.458 OA
BRANCH   2   3
ATOM      3  C   UNL A   1      35.457  21.734  25.954  1.00  0.00     0.342 C 
ATOM      4  O   UNL A   1      35.108  21.945  27.115  1.00  0.00    -0.246 OA
BRANCH   3   5
ATOM      5  C   UNL A   1      34.435  21.183  25.051  1.00  0.00     0.104 A 
ATOM      6  C   UNL A   1      33.495  18.947  24.865  1.00  0.00     0.060 A 
ATOM      7  C   UNL A   1      32.355  19.546  24.386  1.00  0.00     0.139 A 
ATOM      8  C   UNL A   1      34.571  19.776  25.092  1.00  0.00     0.047 A 
ATOM      9  N   UNL A   1      32.215  20.890  24.262  1.00  0.00    -0.236 NA
ATOM     10  C   UNL A   1      33.210  21.743  24.646  1.00  0.00     0.143 A 
BRANCH   6  11
ATOM     11  N   UNL A   1      33.544  17.575  25.142  1.00  0.00    -0.325 N 
ATOM     12  C   UNL A   1      34.110  16.813  22.835  1.00  0.00     0.114 C 
ATOM     13  C   UNL A   1      33.631  16.537  24.246  1.00  0.00     0.221 C 
ATOM     14  O   UNL A   1      33.410  15.388  24.628  1.00  0.00    -0.275 OA
ATOM     15  H   UNL A   1      33.513  17.324  26.094  1.00  0.00     0.169 HD
ENDBRANCH   6  11
BRANCH  10  16
ATOM     16  N   UNL A   1      32.838  23.084  24.627  1.00  0.00    -0.352 N 
ATOM     17  C   UNL A   1      33.817  24.000  24.006  1.00  0.00     0.146 C 
ATOM     18  C   UNL A   1      31.813  23.614  25.534  1.00  0.00     0.123 C 
ATOM     19  C   UNL A   1      33.583  25.459  24.296  1.00  0.00    -0.002 C 
ATOM     20  C   UNL A   1      32.221  24.908  26.253  1.00  0.00     0.057 C 
ATOM     21  C   UNL A   1      32.865  25.914  25.334  1.00  0.00    -0.041 C 
BRANCH  21  22
ATOM     22  C   UNL A   1      32.767  27.364  25.650  1.00  0.00    -0.020 A 
ATOM     23  C   UNL A   1      33.739  27.982  26.459  1.00  0.00     0.008 A 
ATOM     24  C   UNL A   1      31.714  28.163  25.157  1.00  0.00    -0.044 A 
ATOM     25  C   UNL A   1      33.713  29.359  26.715  1.00  0.00     0.001 A 
ATOM     26  C   UNL A   1      31.705  29.549  25.413  1.00  0.00     0.004 A 
ATOM     27  C   UNL A   1      30.585  27.587  24.350  1.00  0.00     0.045 C 
ATOM     28  C   UNL A   1      32.702  30.144  26.181  1.00  0.00     0.000 A 
ENDBRANCH  21  22
ENDBRANCH  10  16
ENDBRANCH   3   5
ENDBRANCH   2   3
ENDBRANCH   1   2
BRANCH   1  29
ATOM     29  C   UNL A   1      37.868  23.883  25.846  1.00  0.00     0.275 C 
BRANCH  29  30
ATOM     30  O   UNL A   1      38.881  23.443  26.787  1.00  0.00    -0.458 OA
BRANCH  30  31
ATOM     31  C   UNL A   1      40.082  24.022  27.006  1.00  0.00     0.338 C 
ATOM     32  O   UNL A   1      41.141  23.448  26.781  1.00  0.00    -0.246 OA
BRANCH  31  33
ATOM     33  C   UNL A   1      40.062  25.384  27.547  1.00  0.00     0.060 A 
ATOM     34  C   UNL A   1      40.321  26.465  26.692  1.00  0.00     0.016 A 
ATOM     35  C   UNL A   1      39.696  25.583  28.874  1.00  0.00     0.016 A 
ATOM     36  C   UNL A   1      40.142  27.762  27.106  1.00  0.00     0.010 A 
ATOM     37  C   UNL A   1      39.442  26.863  29.284  1.00  0.00     0.010 A 
ATOM     38  C   UNL A   1      39.723  27.927  28.409  1.00  0.00    -0.014 A 
BRANCH  38  39
ATOM     39  C   UNL A   1      39.920  29.186  29.072  1.00  0.00     0.031 A 
ATOM     40  C   UNL A   1      38.838  30.171  29.047  1.00  0.00     0.074 A 
ATOM     41  C   UNL A   1      41.085  29.142  29.752  1.00  0.00     0.049 A 
ATOM     42  N   UNL A   1      38.995  31.432  29.236  1.00  0.00    -0.248 NA
ATOM     43  C   UNL A   1      37.461  29.837  28.664  1.00  0.00     0.031 C 
ATOM     44  C   UNL A   1      41.571  29.859  30.907  1.00  0.00     0.029 A 
ATOM     45  N   UNL A   1      42.182  28.357  29.388  1.00  0.00    -0.354 N 
ATOM     46  C   UNL A   1      37.736  31.924  29.513  1.00  0.00     0.074 A 
ATOM     47  C   UNL A   1      36.837  31.002  28.875  1.00  0.00     0.031 C 
ATOM     48  C   UNL A   1      42.910  29.694  30.987  1.00  0.00     0.029 A 
ATOM     49  C   UNL A   1      43.352  28.973  29.796  1.00  0.00     0.049 A 
ATOM     50  H   UNL A   1      42.130  27.497  28.911  1.00  0.00     0.167 HD
ATOM     51  C   UNL A   1      37.626  32.852  30.510  1.00  0.00     0.037 A 
ATOM     52  C   UNL A   1      44.155  29.494  28.817  1.00  0.00     0.037 A 
ATOM     53  C   UNL A   1      38.979  33.200  30.973  1.00  0.00     0.049 A 
ATOM     54  C   UNL A   1      43.999  30.999  28.777  1.00  0.00     0.074 A 
ATOM     55  C   UNL A   1      39.721  32.740  32.050  1.00  0.00     0.029 A 
ATOM     56  N   UNL A   1      39.891  33.758  30.078  1.00  0.00    -0.354 N 
ATOM     57  N   UNL A   1      42.911  31.644  29.113  1.00  0.00    -0.248 NA
ATOM     58  C   UNL A   1      45.115  31.884  28.469  1.00  0.00     0.031 C 
ATOM     59  C   UNL A   1      41.097  32.923  31.735  1.00  0.00     0.029 A 
ATOM     60  C   UNL A   1      41.190  33.477  30.468  1.00  0.00     0.049 A 
ATOM     61  H   UNL A   1      39.645  34.279  29.281  1.00  0.00     0.167 HD
ATOM     62  C   UNL A   1      43.191  32.981  29.192  1.00  0.00     0.074 A 
ATOM     63  C   UNL A   1      44.577  33.081  28.753  1.00  0.00     0.031 C 
ATOM     64  C   UNL A   1      42.316  33.922  29.658  1.00  0.00     0.037 A 
BRANCH  51  65
ATOM     65  C   UNL A   1      36.372  33.163  31.320  1.00  0.00     0.057 A 
ATOM     66  C   UNL A   1      35.396  34.036  30.788  1.00  0.00     0.134 A 
ATOM     67  C   UNL A   1      36.073  32.714  32.621  1.00  0.00     0.134 A 
ATOM     68  F   UNL A   1      35.486  34.510  29.538  1.00  0.00    -0.206 F 
ATOM     69  C   UNL A   1      34.271  34.470  31.507  1.00  0.00     0.040 A 
ATOM     70  C   UNL A   1      34.952  33.144  33.353  1.00  0.00     0.040 A 
ATOM     71  F   UNL A   1      36.823  31.818  33.264  1.00  0.00    -0.206 F 
ATOM     72  C   UNL A   1      34.050  34.035  32.801  1.00  0.00     0.006 A 
ENDBRANCH  51  65
BRANCH  52  73
ATOM     73  C   UNL A   1      44.263  28.596  27.622  1.00  0.00     0.057 A 
ATOM     74  C   UNL A   1      44.880  27.337  27.791  1.00  0.00     0.134 A 
ATOM     75  C   UNL A   1      43.455  28.748  26.498  1.00  0.00     0.134 A 
ATOM     76  F   UNL A   1      45.706  27.128  28.828  1.00  0.00    -0.206 F 
ATOM     77  C   UNL A   1      44.564  26.233  26.991  1.00  0.00     0.040 A 
ATOM     78  C   UNL A   1      43.147  27.652  25.685  1.00  0.00     0.040 A 
ATOM     79  F   UNL A   1      42.843  29.910  26.231  1.00  0.00    -0.206 F 
ATOM     80  C   UNL A   1      43.649  26.381  25.962  1.00  0.00     0.006 A 
ENDBRANCH  52  73
BRANCH  64  81
ATOM     81  C   UNL A   1      42.515  35.402  29.483  1.00  0.00     0.057 A 
ATOM     82  C   UNL A   1      43.404  36.157  30.259  1.00  0.00     0.134 A 
ATOM     83  C   UNL A   1      41.920  36.087  28.401  1.00  0.00     0.134 A 
ATOM     84  F   UNL A   1      44.148  35.597  31.223  1.00  0.00    -0.206 F 
ATOM     85  C   UNL A   1      43.607  37.521  30.042  1.00  0.00     0.040 A 
ATOM     86  C   UNL A   1      42.179  37.428  28.127  1.00  0.00     0.040 A 
ATOM     87  F   UNL A   1      41.085  35.478  27.546  1.00  0.00    -0.206 F 
ATOM     88  C   UNL A   1      43.003  38.159  28.966  1.00  0.00     0.006 A 
ENDBRANCH  64  81
ENDBRANCH  38  39
ENDBRANCH  31  33
ENDBRANCH  30  31
ENDBRANCH  29  30
ENDBRANCH   1  29
TORSDOF 14
ENDMDL
MODEL 2
REMARK VINA RESULT:     -13.2      3.575      9.081
REMARK SMILES CC(=O)Nc1cnc(N2CC=C(c3ccccc3C)CC2)c(C(=O)OCCOC(=O)c2ccc(-c3c4nc(c(-c5c(F)cccc5F)c5ccc([nH]5)c(-c5c(F)cccc5F)c5nc(c(-c6c(F)cccc6F)c6ccc3[nH]6)C=C5)C=C4)cc2)c1
REMARK SMILES IDX 26 1 25 2 23 3 24 4 22 5 5 6 6 7 85 8 7 9 8 10 4 11 1 12
REMARK SMILES IDX 2 13 3 14 9 16 10 17 21 18 11 19 20 20 12 21 13 22 14 23
REMARK SMILES IDX 18 24 15 25 17 26 19 27 16 28 27 29 28 30 29 31 30 32 31 33
REMARK SMILES IDX 32 34 84 35 33 36 83 37 34 38 35 39 36 40 77 41 37 42 82 43
REMARK SMILES IDX 76 44 78 45 38 46 81 47 75 48 74 49 39 51 65 52 48 53 64 54
REMARK SMILES IDX 49 55 52 56 63 57 79 58 50 59 51 60 62 62 80 63 53 64 40 65
REMARK SMILES IDX 41 66 46 67 42 68 43 69 45 70 47 71 44 72 66 73 67 74 72 75
REMARK SMILES IDX 68 76 69 77 71 78 73 79 70 80 54 81 55 82 60 83 56 84 57 85
REMARK SMILES IDX 59 86 61 87 58 88
REMARK H PARENT 4 15 78 50 52 61
REMARK Flexibility Score: inf
ROOT
ATOM      1  C   UNL A   1      33.915  28.563  26.058  1.00  0.00     0.275 C 
ENDROOT
BRANCH   1   2
ATOM      2  O   UNL A   1      33.319  27.263  26.296  1.00  0.00    -0.458 OA
BRANCH   2   3
ATOM      3  C   UNL A   1      31.958  27.311  26.262  1.00  0.00     0.342 C 
ATOM      4  O   UNL A   1      31.240  27.207  27.256  1.00  0.00    -0.246 OA
BRANCH   3   5
ATOM      5  C   UNL A   1      31.313  27.083  24.959  1.00  0.00     0.104 A 
ATOM      6  C   UNL A   1      30.618  28.635  23.220  1.00  0.00     0.060 A 
ATOM      7  C   UNL A   1      30.816  27.608  22.328  1.00  0.00     0.139 A 
ATOM      8  C   UNL A   1      30.768  28.323  24.553  1.00  0.00     0.047 A 
ATOM      9  N   UNL A   1      31.267  26.382  22.692  1.00  0.00    -0.236 NA
ATOM     10  C   UNL A   1      31.589  26.102  23.989  1.00  0.00     0.143 A 
BRANCH   6  11
ATOM     11  N   UNL A   1      30.318  29.934  22.791  1.00  0.00    -0.325 N 
ATOM     12  C   UNL A   1      27.838  29.677  22.732  1.00  0.00     0.114 C 
ATOM     13  C   UNL A   1      29.106  30.424  22.371  1.00  0.00     0.221 C 
ATOM     14  O   UNL A   1      29.059  31.508  21.790  1.00  0.00    -0.275 OA
ATOM     15  H   UNL A   1      31.067  30.574  22.792  1.00  0.00     0.169 HD
ENDBRANCH   6  11
BRANCH  10  16
ATOM     16  N   UNL A   1      32.207  24.868  24.161  1.00  0.00    -0.352 N 
ATOM     17  C   UNL A   1      32.854  24.314  22.952  1.00  0.00     0.146 C 
ATOM     18  C   UNL A   1      31.865  23.981  25.278  1.00  0.00     0.123 C 
ATOM     19  C   UNL A   1      33.207  22.854  23.043  1.00  0.00    -0.002 C 
ATOM     20  C   UNL A   1      31.609  22.524  24.867  1.00  0.00     0.057 C 
ATOM     21  C   UNL A   1      32.641  21.994  23.904  1.00  0.00    -0.041 C 
BRANCH  21  22
ATOM     22  C   UNL A   1      32.933  20.537  23.870  1.00  0.00    -0.020 A 
ATOM     23  C   UNL A   1      32.169  19.678  23.056  1.00  0.00     0.008 A 
ATOM     24  C   UNL A   1      33.970  19.968  24.637  1.00  0.00    -0.044 A 
ATOM     25  C   UNL A   1      32.466  18.313  22.948  1.00  0.00     0.001 A 
ATOM     26  C   UNL A   1      34.265  18.596  24.512  1.00  0.00     0.004 A 
ATOM     27  C   UNL A   1      34.793  20.782  25.596  1.00  0.00     0.045 C 
ATOM     28  C   UNL A   1      33.523  17.775  23.668  1.00  0.00     0.000 A 
ENDBRANCH  21  22
ENDBRANCH  10  16
ENDBRANCH   3   5
ENDBRANCH   2   3
ENDBRANCH   1   2
BRANCH   1  29
ATOM     29  C   UNL A   1      33.526  29.660  27.060  1.00  0.00     0.275 C 
BRANCH  29  30
ATOM     30  O   UNL A   1      34.435  30.771  27.273  1.00  0.00    -0.458 OA
BRANCH  30  31
ATOM     31  C   UNL A   1      35.120  31.045  28.405  1.00  0.00     0.338 C 
ATOM     32  O   UNL A   1      34.715  31.843  29.243  1.00  0.00    -0.246 OA
BRANCH  31  33
ATOM     33  C   UNL A   1      36.395  30.346  28.584  1.00  0.00     0.060 A 
ATOM     34  C   UNL A   1      36.650  29.685  29.795  1.00  0.00     0.016 A 
ATOM     35  C   UNL A   1      37.285  30.271  27.519  1.00  0.00     0.016 A 
ATOM     36  C   UNL A   1      37.745  28.871  29.947  1.00  0.00     0.010 A 
ATOM     37  C   UNL A   1      38.343  29.411  27.625  1.00  0.00     0.010 A 
ATOM     38  C   UNL A   1      38.580  28.772  28.854  1.00  0.00    -0.014 A 
BRANCH  38  39
ATOM     39  C   UNL A   1      39.936  28.329  29.025  1.00  0.00     0.031 A 
ATOM     40  C   UNL A   1      40.262  26.933  28.729  1.00  0.00     0.074 A 
ATOM     41  C   UNL A   1      40.712  29.398  29.301  1.00  0.00     0.049 A 
ATOM     42  N   UNL A   1      41.287  26.310  29.190  1.00  0.00    -0.248 NA
ATOM     43  C   UNL A   1      39.370  26.046  27.974  1.00  0.00     0.031 C 
ATOM     44  C   UNL A   1      42.121  29.658  29.120  1.00  0.00     0.029 A 
ATOM     45  N   UNL A   1      40.261  30.555  29.942  1.00  0.00    -0.354 N 
ATOM     46  C   UNL A   1      41.432  25.195  28.390  1.00  0.00     0.074 A 
ATOM     47  C   UNL A   1      40.112  24.937  27.884  1.00  0.00     0.031 C 
ATOM     48  C   UNL A   1      42.461  30.736  29.860  1.00  0.00     0.029 A 
ATOM     49  C   UNL A   1      41.300  31.126  30.657  1.00  0.00     0.049 A 
ATOM     50  H   UNL A   1      39.344  30.909  29.895  1.00  0.00     0.167 HD
ATOM     51  C   UNL A   1      42.700  24.849  28.014  1.00  0.00     0.037 A 
ATOM     52  C   UNL A   1      41.228  31.057  32.022  1.00  0.00     0.037 A 
ATOM     53  C   UNL A   1      43.649  25.736  28.705  1.00  0.00     0.049 A 
ATOM     54  C   UNL A   1      42.170  29.986  32.529  1.00  0.00     0.074 A 
ATOM     55  C   UNL A   1      44.287  26.893  28.287  1.00  0.00     0.029 A 
ATOM     56  N   UNL A   1      43.691  25.747  30.099  1.00  0.00    -0.354 N 
ATOM     57  N   UNL A   1      42.509  28.914  31.859  1.00  0.00    -0.248 NA
ATOM     58  C   UNL A   1      42.889  30.121  33.789  1.00  0.00     0.031 C 
ATOM     59  C   UNL A   1      44.606  27.654  29.447  1.00  0.00     0.029 A 
ATOM     60  C   UNL A   1      44.151  26.969  30.563  1.00  0.00     0.049 A 
ATOM     61  H   UNL A   1      43.430  24.991  30.673  1.00  0.00     0.167 HD
ATOM     62  C   UNL A   1      43.547  28.296  32.500  1.00  0.00     0.074 A 
ATOM     63  C   UNL A   1      43.728  29.076  33.717  1.00  0.00     0.031 C 
ATOM     64  C   UNL A   1      44.236  27.230  31.993  1.00  0.00     0.037 A 
BRANCH  51  65
ATOM     65  C   UNL A   1      43.085  24.021  26.793  1.00  0.00     0.057 A 
ATOM     66  C   UNL A   1      42.970  22.613  26.840  1.00  0.00     0.134 A 
ATOM     67  C   UNL A   1      43.622  24.499  25.582  1.00  0.00     0.134 A 
ATOM     68  F   UNL A   1      42.421  21.988  27.891  1.00  0.00    -0.206 F 
ATOM     69  C   UNL A   1      43.410  21.765  25.811  1.00  0.00     0.040 A 
ATOM     70  C   UNL A   1      44.069  23.661  24.546  1.00  0.00     0.040 A 
ATOM     71  F   UNL A   1      43.731  25.799  25.306  1.00  0.00    -0.206 F 
ATOM     72  C   UNL A   1      43.974  22.286  24.661  1.00  0.00     0.006 A 
ENDBRANCH  51  65
BRANCH  52  73
ATOM     73  C   UNL A   1      39.847  31.321  32.540  1.00  0.00     0.057 A 
ATOM     74  C   UNL A   1      39.126  30.240  33.094  1.00  0.00     0.134 A 
ATOM     75  C   UNL A   1      39.407  32.600  32.875  1.00  0.00     0.134 A 
ATOM     76  F   UNL A   1      39.465  28.979  32.784  1.00  0.00    -0.206 F 
ATOM     77  C   UNL A   1      38.142  30.418  34.073  1.00  0.00     0.040 A 
ATOM     78  C   UNL A   1      38.412  32.783  33.841  1.00  0.00     0.040 A 
ATOM     79  F   UNL A   1      40.005  33.694  32.383  1.00  0.00    -0.206 F 
ATOM     80  C   UNL A   1      37.820  31.699  34.487  1.00  0.00     0.006 A 
ENDBRANCH  52  73
BRANCH  64  81
ATOM     81  C   UNL A   1      45.175  26.384  32.808  1.00  0.00     0.057 A 
ATOM     82  C   UNL A   1      46.569  26.515  32.760  1.00  0.00     0.134 A 
ATOM     83  C   UNL A   1      44.681  25.505  33.797  1.00  0.00     0.134 A 
ATOM     84  F   UNL A   1      47.165  27.421  31.973  1.00  0.00    -0.206 F 
ATOM     85  C   UNL A   1      47.416  25.750  33.565  1.00  0.00     0.040 A 
ATOM     86  C   UNL A   1      45.515  24.799  34.659  1.00  0.00     0.040 A 
ATOM     87  F   UNL A   1      43.366  25.317  33.989  1.00  0.00    -0.206 F 
ATOM     88  C   UNL A   1      46.890  24.897  34.526  1.00  0.00     0.006 A 
ENDBRANCH  64  81
ENDBRANCH  38  39
ENDBRANCH  31  33
ENDBRANCH  30  31
ENDBRANCH  29  30
ENDBRANCH   1  29
TORSDOF 14
ENDMDL
MODEL 3
REMARK VINA RESULT:     -13.1      4.176      9.609
REMARK SMILES CC(=O)Nc1cnc(N2CC=C(c3ccccc3C)CC2)c(C(=O)OCCOC(=O)c2ccc(-c3c4nc(c(-c5c(F)cccc5F)c5ccc([nH]5)c(-c5c(F)cccc5F)c5nc(c(-c6c(F)cccc6F)c6ccc3[nH]6)C=C5)C=C4)cc2)c1
REMARK SMILES IDX 26 1 25 2 23 3 24 4 22 5 5 6 6 7 85 8 7 9 8 10 4 11 1 12
REMARK SMILES IDX 2 13 3 14 9 16 10 17 21 18 11 19 20 20 12 21 13 22 14 23
REMARK SMILES IDX 18 24 15 25 17 26 19 27 16 28 27 29 28 30 29 31 30 32 31 33
REMARK SMILES IDX 32 34 84 35 33 36 83 37 34 38 35 39 36 40 77 41 37 42 82 43
REMARK SMILES IDX 76 44 78 45 38 46 81 47 75 48 74 49 39 51 65 52 48 53 64 54
REMARK SMILES IDX 49 55 52 56 63 57 79 58 50 59 51 60 62 62 80 63 53 64 40 65
REMARK SMILES IDX 41 66 46 67 42 68 43 69 45 70 47 71 44 72 66 73 67 74 72 75
REMARK SMILES IDX 68 76 69 77 71 78 73 79 70 80 54 81 55 82 60 83 56 84 57 85
REMARK SMILES IDX 59 86 61 87 58 88
REMARK H PARENT 4 15 78 50 52 61
REMARK Flexibility Score: inf
ROOT
ATOM      1  C   UNL A   1      33.150  29.691  27.302  1.00  0.00     0.275 C 
ENDROOT
BRANCH   1   2
ATOM      2  O   UNL A   1      32.053  29.716  26.353  1.00  0.00    -0.458 OA
BRANCH   2   3
ATOM      3  C   UNL A   1      32.346  29.024  25.216  1.00  0.00     0.342 C 
ATOM      4  O   UNL A   1      33.472  28.948  24.726  1.00  0.00    -0.246 OA
BRANCH   3   5
ATOM      5  C   UNL A   1      31.220  28.686  24.331  1.00  0.00     0.104 A 
ATOM      6  C   UNL A   1      29.896  30.061  22.824  1.00  0.00     0.060 A 
ATOM      7  C   UNL A   1      29.696  28.923  22.080  1.00  0.00     0.139 A 
ATOM      8  C   UNL A   1      30.575  29.903  24.011  1.00  0.00     0.047 A 
ATOM      9  N   UNL A   1      30.239  27.721  22.397  1.00  0.00    -0.236 NA
ATOM     10  C   UNL A   1      31.060  27.578  23.479  1.00  0.00     0.143 A 
BRANCH   6  11
ATOM     11  N   UNL A   1      29.466  31.317  22.377  1.00  0.00    -0.325 N 
ATOM     12  C   UNL A   1      27.371  31.426  23.727  1.00  0.00     0.114 C 
ATOM     13  C   UNL A   1      28.249  31.918  22.594  1.00  0.00     0.221 C 
ATOM     14  O   UNL A   1      27.933  32.903  21.928  1.00  0.00    -0.275 OA
ATOM     15  H   UNL A   1      30.113  31.832  21.842  1.00  0.00     0.169 HD
ENDBRANCH   6  11
BRANCH  10  16
ATOM     16  N   UNL A   1      31.677  26.334  23.555  1.00  0.00    -0.352 N 
ATOM     17  C   UNL A   1      31.549  25.647  24.858  1.00  0.00     0.146 C 
ATOM     18  C   UNL A   1      32.737  25.938  22.621  1.00  0.00     0.123 C 
ATOM     19  C   UNL A   1      32.493  24.490  25.052  1.00  0.00    -0.002 C 
ATOM     20  C   UNL A   1      33.975  25.332  23.297  1.00  0.00     0.057 C 
ATOM     21  C   UNL A   1      33.630  24.322  24.361  1.00  0.00    -0.041 C 
BRANCH  21  22
ATOM     22  C   UNL A   1      34.591  23.231  24.676  1.00  0.00    -0.020 A 
ATOM     23  C   UNL A   1      35.856  23.533  25.215  1.00  0.00     0.008 A 
ATOM     24  C   UNL A   1      34.275  21.875  24.453  1.00  0.00    -0.044 A 
ATOM     25  C   UNL A   1      36.754  22.525  25.589  1.00  0.00     0.001 A 
ATOM     26  C   UNL A   1      35.183  20.870  24.843  1.00  0.00     0.004 A 
ATOM     27  C   UNL A   1      32.984  21.450  23.812  1.00  0.00     0.045 C 
ATOM     28  C   UNL A   1      36.411  21.192  25.414  1.00  0.00     0.000 A 
ENDBRANCH  21  22
ENDBRANCH  10  16
ENDBRANCH   3   5
ENDBRANCH   2   3
ENDBRANCH   1   2
BRANCH   1  29
ATOM     29  C   UNL A   1      34.003  30.966  27.359  1.00  0.00     0.275 C 
BRANCH  29  30
ATOM     30  O   UNL A   1      35.430  30.847  27.589  1.00  0.00    -0.458 OA
BRANCH  30  31
ATOM     31  C   UNL A   1      36.056  30.856  28.786  1.00  0.00     0.338 C 
ATOM     32  O   UNL A   1      35.660  31.529  29.732  1.00  0.00    -0.246 OA
BRANCH  31  33
ATOM     33  C   UNL A   1      37.256  30.024  28.904  1.00  0.00     0.060 A 
ATOM     34  C   UNL A   1      37.250  28.931  29.784  1.00  0.00     0.016 A 
ATOM     35  C   UNL A   1      38.342  30.276  28.073  1.00  0.00     0.016 A 
ATOM     36  C   UNL A   1      38.278  28.021  29.800  1.00  0.00     0.010 A 
ATOM     37  C   UNL A   1      39.342  29.344  28.022  1.00  0.00     0.010 A 
ATOM     38  C   UNL A   1      39.315  28.266  28.924  1.00  0.00    -0.014 A 
BRANCH  38  39
ATOM     39  C   UNL A   1      40.600  27.665  29.149  1.00  0.00     0.031 A 
ATOM     40  C   UNL A   1      40.841  26.312  28.647  1.00  0.00     0.074 A 
ATOM     41  C   UNL A   1      41.426  28.589  29.683  1.00  0.00     0.049 A 
ATOM     42  N   UNL A   1      41.750  25.520  29.092  1.00  0.00    -0.248 NA
ATOM     43  C   UNL A   1      39.970  25.657  27.664  1.00  0.00     0.031 C 
ATOM     44  C   UNL A   1      42.862  28.730  29.692  1.00  0.00     0.029 A 
ATOM     45  N   UNL A   1      41.002  29.664  30.469  1.00  0.00    -0.354 N 
ATOM     46  C   UNL A   1      41.893  24.543  28.127  1.00  0.00     0.074 A 
ATOM     47  C   UNL A   1      40.623  24.507  27.455  1.00  0.00     0.031 C 
ATOM     48  C   UNL A   1      43.204  29.632  30.639  1.00  0.00     0.029 A 
ATOM     49  C   UNL A   1      41.996  30.002  31.372  1.00  0.00     0.049 A 
ATOM     50  H   UNL A   1      40.129  30.113  30.394  1.00  0.00     0.167 HD
ATOM     51  C   UNL A   1      43.162  24.136  27.824  1.00  0.00     0.037 A 
ATOM     52  C   UNL A   1      41.761  29.715  32.691  1.00  0.00     0.037 A 
ATOM     53  C   UNL A   1      44.096  24.796  28.751  1.00  0.00     0.049 A 
ATOM     54  C   UNL A   1      42.545  28.485  33.094  1.00  0.00     0.074 A 
ATOM     55  C   UNL A   1      44.872  25.935  28.608  1.00  0.00     0.029 A 
ATOM     56  N   UNL A   1      43.977  24.573  30.123  1.00  0.00    -0.354 N 
ATOM     57  N   UNL A   1      42.869  27.510  32.283  1.00  0.00    -0.248 NA
ATOM     58  C   UNL A   1      43.123  28.337  34.423  1.00  0.00     0.031 C 
ATOM     59  C   UNL A   1      45.118  26.458  29.909  1.00  0.00     0.029 A 
ATOM     60  C   UNL A   1      44.481  25.648  30.837  1.00  0.00     0.049 A 
ATOM     61  H   UNL A   1      43.590  23.763  30.527  1.00  0.00     0.167 HD
ATOM     62  C   UNL A   1      43.771  26.692  32.906  1.00  0.00     0.074 A 
ATOM     63  C   UNL A   1      43.875  27.238  34.253  1.00  0.00     0.031 C 
ATOM     64  C   UNL A   1      44.423  25.660  32.292  1.00  0.00     0.037 A 
BRANCH  51  65
ATOM     65  C   UNL A   1      43.615  23.486  26.522  1.00  0.00     0.057 A 
ATOM     66  C   UNL A   1      43.486  22.088  26.358  1.00  0.00     0.134 A 
ATOM     67  C   UNL A   1      44.230  24.124  25.427  1.00  0.00     0.134 A 
ATOM     68  F   UNL A   1      42.868  21.328  27.273  1.00  0.00    -0.206 F 
ATOM     69  C   UNL A   1      43.981  21.389  25.245  1.00  0.00     0.040 A 
ATOM     70  C   UNL A   1      44.733  23.436  24.309  1.00  0.00     0.040 A 
ATOM     71  F   UNL A   1      44.366  25.449  25.349  1.00  0.00    -0.206 F 
ATOM     72  C   UNL A   1      44.620  22.061  24.219  1.00  0.00     0.006 A 
ENDBRANCH  51  65
BRANCH  52  73
ATOM     73  C   UNL A   1      40.356  30.030  33.107  1.00  0.00     0.057 A 
ATOM     74  C   UNL A   1      39.976  31.387  33.194  1.00  0.00     0.134 A 
ATOM     75  C   UNL A   1      39.323  29.099  33.012  1.00  0.00     0.134 A 
ATOM     76  F   UNL A   1      40.913  32.338  33.329  1.00  0.00    -0.206 F 
ATOM     77  C   UNL A   1      38.655  31.810  33.010  1.00  0.00     0.040 A 
ATOM     78  C   UNL A   1      37.998  29.516  32.844  1.00  0.00     0.040 A 
ATOM     79  F   UNL A   1      39.573  27.784  32.950  1.00  0.00    -0.206 F 
ATOM     80  C   UNL A   1      37.667  30.868  32.781  1.00  0.00     0.006 A 
ENDBRANCH  52  73
BRANCH  64  81
ATOM     81  C   UNL A   1      45.188  24.600  33.035  1.00  0.00     0.057 A 
ATOM     82  C   UNL A   1      46.476  24.796  33.549  1.00  0.00     0.134 A 
ATOM     83  C   UNL A   1      44.569  23.382  33.394  1.00  0.00     0.134 A 
ATOM     84  F   UNL A   1      47.119  25.963  33.410  1.00  0.00    -0.206 F 
ATOM     85  C   UNL A   1      47.143  23.811  34.279  1.00  0.00     0.040 A 
ATOM     86  C   UNL A   1      45.196  22.426  34.189  1.00  0.00     0.040 A 
ATOM     87  F   UNL A   1      43.319  23.079  33.012  1.00  0.00    -0.206 F 
ATOM     88  C   UNL A   1      46.500  22.626  34.612  1.00  0.00     0.006 A 
ENDBRANCH  64  81
ENDBRANCH  38  39
ENDBRANCH  31  33
ENDBRANCH  30  31
ENDBRANCH  29  30
ENDBRANCH   1  29
TORSDOF 14
ENDMDL
