MODEL 1
REMARK VINA RESULT:     -11.4      0.000      0.000
REMARK SMILES Cc1cc2nc(NC3=[NH+][C@H](CC(=O)OCCOC(=O)c4ccc(-c5c6nc(c(-c7c(F)cccc7F)c7ccc([nH]7)c(-c7c(F)cccc7F)c7nc(c(-c8c(F)cccc8F)c8ccc5[nH]8)C=C7)C=C6)cc4)C(=O)N3)nc(C)c2cc1C
REMARK SMILES IDX 15 1 14 2 12 3 13 4 11 5 10 6 7 7 8 8 9 10 76 11 74 13 75 15
REMARK SMILES IDX 6 16 1 17 2 18 3 19 82 20 4 21 81 22 83 23 5 24 80 25 78 26
REMARK SMILES IDX 77 27 79 28 16 29 17 30 18 31 19 32 20 33 21 34 73 35 22 36
REMARK SMILES IDX 72 37 23 38 24 39 25 40 66 41 26 42 71 43 65 44 67 45 27 46
REMARK SMILES IDX 70 47 64 48 63 49 28 51 54 52 37 53 53 54 38 55 41 56 52 57
REMARK SMILES IDX 68 58 39 59 40 60 51 62 69 63 42 64 29 65 30 66 35 67 31 68
REMARK SMILES IDX 32 69 34 70 36 71 33 72 55 73 56 74 61 75 57 76 58 77 60 78
REMARK SMILES IDX 62 79 59 80 43 81 44 82 49 83 45 84 46 85 48 86 50 87 47 88
REMARK H PARENT 7 9 9 12 76 14 67 50 41 61
REMARK Flexibility Score: inf
ROOT
ATOM      1  C   UNL A   1      33.924  33.975  28.015  1.00  0.00     0.274 C 
ENDROOT
BRANCH   1   2
ATOM      2  O   UNL A   1      33.018  34.928  28.593  1.00  0.00    -0.462 OA
BRANCH   2   3
ATOM      3  C   UNL A   1      33.483  36.173  28.860  1.00  0.00     0.310 C 
ATOM      4  O   UNL A   1      34.226  36.812  28.122  1.00  0.00    -0.252 OA
BRANCH   3   5
ATOM      5  C   UNL A   1      33.053  36.678  30.214  1.00  0.00     0.175 C 
BRANCH   5   6
ATOM      6  C   UNL A   1      32.727  35.569  31.204  1.00  0.00     0.262 C 
ATOM      7  N   UNL A   1      35.501  34.404  33.079  1.00  0.00    -0.212 N 
ATOM      8  C   UNL A   1      34.340  34.888  32.585  1.00  0.00     0.358 C 
ATOM      9  H   UNL A   1      35.531  34.103  34.017  1.00  0.00     0.270 HD
ATOM     10  N   UNL A   1      33.920  34.719  31.373  1.00  0.00    -0.263 N 
ATOM     11  N   UNL A   1      33.517  35.620  33.360  1.00  0.00    -0.211 N 
ATOM     12  H   UNL A   1      34.322  34.133  30.692  1.00  0.00     0.261 HD
ATOM     13  C   UNL A   1      32.509  36.117  32.596  1.00  0.00     0.320 C 
ATOM     14  H   UNL A   1      33.628  35.771  34.326  1.00  0.00     0.270 HD
ATOM     15  O   UNL A   1      31.646  36.897  32.962  1.00  0.00    -0.252 OA
BRANCH   7  16
ATOM     16  C   UNL A   1      36.656  34.314  32.309  1.00  0.00     0.291 A 
ATOM     17  C   UNL A   1      42.667  34.905  32.827  1.00  0.00     0.044 C 
ATOM     18  C   UNL A   1      41.396  34.582  32.092  1.00  0.00    -0.046 A 
ATOM     19  C   UNL A   1      40.171  34.679  32.771  1.00  0.00     0.033 A 
ATOM     20  C   UNL A   1      41.390  34.212  30.739  1.00  0.00    -0.047 A 
ATOM     21  C   UNL A   1      38.955  34.417  32.155  1.00  0.00     0.078 A 
ATOM     22  C   UNL A   1      40.161  33.950  30.111  1.00  0.00     0.016 A 
ATOM     23  C   UNL A   1      42.667  34.102  29.952  1.00  0.00     0.044 C 
ATOM     24  N   UNL A   1      37.848  34.530  32.881  1.00  0.00    -0.198 NA
ATOM     25  C   UNL A   1      38.934  34.051  30.814  1.00  0.00     0.022 A 
ATOM     26  C   UNL A   1      37.650  33.816  30.297  1.00  0.00     0.052 A 
ATOM     27  N   UNL A   1      36.518  33.922  31.038  1.00  0.00    -0.203 NA
ATOM     28  C   UNL A   1      37.443  33.427  28.861  1.00  0.00     0.067 C 
ENDBRANCH   7  16
ENDBRANCH   5   6
ENDBRANCH   3   5
ENDBRANCH   2   3
ENDBRANCH   1   2
BRANCH   1  29
ATOM     29  C   UNL A   1      33.267  32.601  27.882  1.00  0.00     0.275 C 
BRANCH  29  30
ATOM     30  O   UNL A   1      34.047  31.595  28.553  1.00  0.00    -0.458 OA
BRANCH  30  31
ATOM     31  C   UNL A   1      34.492  30.583  27.773  1.00  0.00     0.338 C 
ATOM     32  O   UNL A   1      33.972  30.129  26.770  1.00  0.00    -0.246 OA
BRANCH  31  33
ATOM     33  C   UNL A   1      35.816  30.158  28.252  1.00  0.00     0.060 A 
ATOM     34  C   UNL A   1      35.982  29.717  29.565  1.00  0.00     0.016 A 
ATOM     35  C   UNL A   1      36.895  30.178  27.360  1.00  0.00     0.016 A 
ATOM     36  C   UNL A   1      37.245  29.310  29.990  1.00  0.00     0.010 A 
ATOM     37  C   UNL A   1      38.157  29.765  27.787  1.00  0.00     0.010 A 
ATOM     38  C   UNL A   1      38.340  29.336  29.107  1.00  0.00    -0.014 A 
BRANCH  38  39
ATOM     39  C   UNL A   1      39.660  28.867  29.583  1.00  0.00     0.031 A 
ATOM     40  C   UNL A   1      40.275  29.440  30.822  1.00  0.00     0.074 A 
ATOM     41  C   UNL A   1      40.275  27.874  28.917  1.00  0.00     0.049 A 
ATOM     42  N   UNL A   1      41.300  28.999  31.507  1.00  0.00    -0.248 NA
ATOM     43  C   UNL A   1      39.668  30.665  31.361  1.00  0.00     0.031 C 
ATOM     44  C   UNL A   1      39.790  27.277  27.672  1.00  0.00     0.029 A 
ATOM     45  N   UNL A   1      41.414  27.171  29.210  1.00  0.00    -0.354 N 
ATOM     46  C   UNL A   1      41.439  29.871  32.577  1.00  0.00     0.074 A 
ATOM     47  C   UNL A   1      40.440  30.906  32.412  1.00  0.00     0.031 C 
ATOM     48  C   UNL A   1      40.595  26.256  27.339  1.00  0.00     0.029 A 
ATOM     49  C   UNL A   1      41.652  26.135  28.340  1.00  0.00     0.049 A 
ATOM     50  H   UNL A   1      42.004  27.388  29.967  1.00  0.00     0.167 HD
ATOM     51  C   UNL A   1      42.300  29.792  33.619  1.00  0.00     0.037 A 
ATOM     52  C   UNL A   1      42.594  25.174  28.369  1.00  0.00     0.037 A 
ATOM     53  C   UNL A   1      43.303  28.769  33.762  1.00  0.00     0.049 A 
ATOM     54  C   UNL A   1      43.572  25.134  29.507  1.00  0.00     0.074 A 
ATOM     55  C   UNL A   1      44.189  28.570  34.806  1.00  0.00     0.029 A 
ATOM     56  N   UNL A   1      43.565  27.784  32.821  1.00  0.00    -0.354 N 
ATOM     57  N   UNL A   1      43.628  25.896  30.573  1.00  0.00    -0.248 NA
ATOM     58  C   UNL A   1      44.615  24.102  29.449  1.00  0.00     0.031 C 
ATOM     59  C   UNL A   1      45.021  27.495  34.473  1.00  0.00     0.029 A 
ATOM     60  C   UNL A   1      44.626  26.999  33.240  1.00  0.00     0.049 A 
ATOM     61  H   UNL A   1      43.070  27.662  31.979  1.00  0.00     0.167 HD
ATOM     62  C   UNL A   1      44.704  25.433  31.317  1.00  0.00     0.074 A 
ATOM     63  C   UNL A   1      45.264  24.312  30.588  1.00  0.00     0.031 C 
ATOM     64  C   UNL A   1      45.184  25.898  32.495  1.00  0.00     0.037 A 
BRANCH  51  65
ATOM     65  C   UNL A   1      42.180  30.833  34.691  1.00  0.00     0.057 A 
ATOM     66  C   UNL A   1      41.207  30.734  35.697  1.00  0.00     0.134 A 
ATOM     67  C   UNL A   1      43.055  31.923  34.744  1.00  0.00     0.134 A 
ATOM     68  F   UNL A   1      40.334  29.715  35.701  1.00  0.00    -0.206 F 
ATOM     69  C   UNL A   1      41.093  31.699  36.699  1.00  0.00     0.040 A 
ATOM     70  C   UNL A   1      42.966  32.881  35.757  1.00  0.00     0.040 A 
ATOM     71  F   UNL A   1      44.016  32.073  33.819  1.00  0.00    -0.206 F 
ATOM     72  C   UNL A   1      41.978  32.774  36.734  1.00  0.00     0.006 A 
ENDBRANCH  51  65
BRANCH  52  73
ATOM     73  C   UNL A   1      42.595  24.132  27.315  1.00  0.00     0.057 A 
ATOM     74  C   UNL A   1      43.281  24.331  26.112  1.00  0.00     0.134 A 
ATOM     75  C   UNL A   1      41.970  22.895  27.508  1.00  0.00     0.134 A 
ATOM     76  F   UNL A   1      43.890  25.500  25.867  1.00  0.00    -0.206 F 
ATOM     77  C   UNL A   1      43.350  23.333  25.139  1.00  0.00     0.040 A 
ATOM     78  C   UNL A   1      42.045  21.882  26.551  1.00  0.00     0.040 A 
ATOM     79  F   UNL A   1      41.303  22.643  28.645  1.00  0.00    -0.206 F 
ATOM     80  C   UNL A   1      42.738  22.101  25.362  1.00  0.00     0.006 A 
ENDBRANCH  52  73
BRANCH  64  81
ATOM     81  C   UNL A   1      46.391  25.218  33.070  1.00  0.00     0.057 A 
ATOM     82  C   UNL A   1      47.684  25.682  32.799  1.00  0.00     0.134 A 
ATOM     83  C   UNL A   1      46.257  24.155  33.972  1.00  0.00     0.134 A 
ATOM     84  F   UNL A   1      47.878  26.689  31.935  1.00  0.00    -0.206 F 
ATOM     85  C   UNL A   1      48.804  25.112  33.407  1.00  0.00     0.040 A 
ATOM     86  C   UNL A   1      47.368  23.591  34.601  1.00  0.00     0.040 A 
ATOM     87  F   UNL A   1      45.045  23.669  34.279  1.00  0.00    -0.206 F 
ATOM     88  C   UNL A   1      48.645  24.071  34.320  1.00  0.00     0.006 A 
ENDBRANCH  64  81
ENDBRANCH  38  39
ENDBRANCH  31  33
ENDBRANCH  30  31
ENDBRANCH  29  30
ENDBRANCH   1  29
TORSDOF 13
ENDMDL
MODEL 2
REMARK VINA RESULT:     -11.4      3.511      7.631
REMARK SMILES Cc1cc2nc(NC3=[NH+][C@H](CC(=O)OCCOC(=O)c4ccc(-c5c6nc(c(-c7c(F)cccc7F)c7ccc([nH]7)c(-c7c(F)cccc7F)c7nc(c(-c8c(F)cccc8F)c8ccc5[nH]8)C=C7)C=C6)cc4)C(=O)N3)nc(C)c2cc1C
REMARK SMILES IDX 15 1 14 2 12 3 13 4 11 5 10 6 7 7 8 8 9 10 76 11 74 13 75 15
REMARK SMILES IDX 6 16 1 17 2 18 3 19 82 20 4 21 81 22 83 23 5 24 80 25 78 26
REMARK SMILES IDX 77 27 79 28 16 29 17 30 18 31 19 32 20 33 21 34 73 35 22 36
REMARK SMILES IDX 72 37 23 38 24 39 25 40 66 41 26 42 71 43 65 44 67 45 27 46
REMARK SMILES IDX 70 47 64 48 63 49 28 51 54 52 37 53 53 54 38 55 41 56 52 57
REMARK SMILES IDX 68 58 39 59 40 60 51 62 69 63 42 64 29 65 30 66 35 67 31 68
REMARK SMILES IDX 32 69 34 70 36 71 33 72 55 73 56 74 61 75 57 76 58 77 60 78
REMARK SMILES IDX 62 79 59 80 43 81 44 82 49 83 45 84 46 85 48 86 50 87 47 88
REMARK H PARENT 7 9 9 12 76 14 67 50 41 61
REMARK Flexibility Score: inf
ROOT
ATOM      1  C   UNL A   1      37.245  34.379  33.370  1.00  0.00     0.274 C 
ENDROOT
BRANCH   1   2
ATOM      2  O   UNL A   1      36.000  35.082  33.516  1.00  0.00    -0.462 OA
BRANCH   2   3
ATOM      3  C   UNL A   1      34.871  34.353  33.684  1.00  0.00     0.310 C 
ATOM      4  O   UNL A   1      34.739  33.451  34.505  1.00  0.00    -0.252 OA
BRANCH   3   5
ATOM      5  C   UNL A   1      33.793  34.710  32.691  1.00  0.00     0.175 C 
BRANCH   5   6
ATOM      6  C   UNL A   1      34.181  35.839  31.748  1.00  0.00     0.262 C 
ATOM      7  N   UNL A   1      32.934  35.495  28.446  1.00  0.00    -0.212 N 
ATOM      8  C   UNL A   1      33.297  35.846  29.701  1.00  0.00     0.358 C 
ATOM      9  H   UNL A   1      32.622  36.196  27.828  1.00  0.00     0.270 HD
ATOM     10  N   UNL A   1      34.258  35.304  30.376  1.00  0.00    -0.263 N 
ATOM     11  N   UNL A   1      32.639  36.820  30.358  1.00  0.00    -0.211 N 
ATOM     12  H   UNL A   1      34.916  34.655  30.037  1.00  0.00     0.261 HD
ATOM     13  C   UNL A   1      33.084  36.873  31.641  1.00  0.00     0.320 C 
ATOM     14  H   UNL A   1      31.946  37.402  29.971  1.00  0.00     0.270 HD
ATOM     15  O   UNL A   1      32.635  37.576  32.530  1.00  0.00    -0.252 OA
BRANCH   7  16
ATOM     16  C   UNL A   1      32.989  34.180  27.998  1.00  0.00     0.291 A 
ATOM     17  C   UNL A   1      36.602  29.317  28.245  1.00  0.00     0.044 C 
ATOM     18  C   UNL A   1      35.344  30.054  27.872  1.00  0.00    -0.046 A 
ATOM     19  C   UNL A   1      35.206  31.400  28.245  1.00  0.00     0.033 A 
ATOM     20  C   UNL A   1      34.313  29.447  27.140  1.00  0.00    -0.047 A 
ATOM     21  C   UNL A   1      34.086  32.152  27.921  1.00  0.00     0.078 A 
ATOM     22  C   UNL A   1      33.179  30.206  26.806  1.00  0.00     0.016 A 
ATOM     23  C   UNL A   1      34.405  28.012  26.700  1.00  0.00     0.044 C 
ATOM     24  N   UNL A   1      34.043  33.418  28.322  1.00  0.00    -0.198 NA
ATOM     25  C   UNL A   1      33.057  31.565  27.193  1.00  0.00     0.022 A 
ATOM     26  C   UNL A   1      31.978  32.420  26.919  1.00  0.00     0.052 A 
ATOM     27  N   UNL A   1      31.927  33.710  27.335  1.00  0.00    -0.203 NA
ATOM     28  C   UNL A   1      30.789  31.952  26.130  1.00  0.00     0.067 C 
ENDBRANCH   7  16
ENDBRANCH   5   6
ENDBRANCH   3   5
ENDBRANCH   2   3
ENDBRANCH   1   2
BRANCH   1  29
ATOM     29  C   UNL A   1      37.729  34.412  31.920  1.00  0.00     0.275 C 
BRANCH  29  30
ATOM     30  O   UNL A   1      36.805  33.722  31.060  1.00  0.00    -0.458 OA
BRANCH  30  31
ATOM     31  C   UNL A   1      36.645  32.401  31.312  1.00  0.00     0.338 C 
ATOM     32  O   UNL A   1      35.633  31.827  31.670  1.00  0.00    -0.246 OA
BRANCH  31  33
ATOM     33  C   UNL A   1      37.887  31.695  30.962  1.00  0.00     0.060 A 
ATOM     34  C   UNL A   1      38.476  31.883  29.712  1.00  0.00     0.016 A 
ATOM     35  C   UNL A   1      38.480  30.859  31.916  1.00  0.00     0.016 A 
ATOM     36  C   UNL A   1      39.658  31.211  29.410  1.00  0.00     0.010 A 
ATOM     37  C   UNL A   1      39.666  30.191  31.613  1.00  0.00     0.010 A 
ATOM     38  C   UNL A   1      40.258  30.358  30.356  1.00  0.00    -0.014 A 
BRANCH  38  39
ATOM     39  C   UNL A   1      41.530  29.685  30.013  1.00  0.00     0.031 A 
ATOM     40  C   UNL A   1      41.537  28.287  29.476  1.00  0.00     0.074 A 
ATOM     41  C   UNL A   1      42.680  30.370  30.136  1.00  0.00     0.049 A 
ATOM     42  N   UNL A   1      42.520  27.630  28.915  1.00  0.00    -0.248 NA
ATOM     43  C   UNL A   1      40.284  27.526  29.586  1.00  0.00     0.031 C 
ATOM     44  C   UNL A   1      42.795  31.719  30.693  1.00  0.00     0.029 A 
ATOM     45  N   UNL A   1      43.960  30.044  29.769  1.00  0.00    -0.354 N 
ATOM     46  C   UNL A   1      41.997  26.392  28.572  1.00  0.00     0.074 A 
ATOM     47  C   UNL A   1      40.631  26.363  29.051  1.00  0.00     0.031 C 
ATOM     48  C   UNL A   1      44.067  32.129  30.577  1.00  0.00     0.029 A 
ATOM     49  C   UNL A   1      44.854  31.072  29.946  1.00  0.00     0.049 A 
ATOM     50  H   UNL A   1      44.213  29.162  29.416  1.00  0.00     0.167 HD
ATOM     51  C   UNL A   1      42.593  25.387  27.889  1.00  0.00     0.037 A 
ATOM     52  C   UNL A   1      46.152  31.163  29.605  1.00  0.00     0.037 A 
ATOM     53  C   UNL A   1      43.959  25.419  27.434  1.00  0.00     0.049 A 
ATOM     54  C   UNL A   1      46.810  30.017  28.891  1.00  0.00     0.074 A 
ATOM     55  C   UNL A   1      44.642  24.475  26.688  1.00  0.00     0.029 A 
ATOM     56  N   UNL A   1      44.856  26.444  27.702  1.00  0.00    -0.354 N 
ATOM     57  N   UNL A   1      46.279  28.894  28.472  1.00  0.00    -0.248 NA
ATOM     58  C   UNL A   1      48.244  30.151  28.602  1.00  0.00     0.031 C 
ATOM     59  C   UNL A   1      45.966  24.906  26.547  1.00  0.00     0.029 A 
ATOM     60  C   UNL A   1      46.097  26.137  27.171  1.00  0.00     0.049 A 
ATOM     61  H   UNL A   1      44.641  27.267  28.197  1.00  0.00     0.167 HD
ATOM     62  C   UNL A   1      47.308  28.190  27.863  1.00  0.00     0.074 A 
ATOM     63  C   UNL A   1      48.492  29.020  27.952  1.00  0.00     0.031 C 
ATOM     64  C   UNL A   1      47.272  26.965  27.285  1.00  0.00     0.037 A 
BRANCH  51  65
ATOM     65  C   UNL A   1      41.763  24.178  27.579  1.00  0.00     0.057 A 
ATOM     66  C   UNL A   1      41.884  22.999  28.328  1.00  0.00     0.134 A 
ATOM     67  C   UNL A   1      40.813  24.195  26.552  1.00  0.00     0.134 A 
ATOM     68  F   UNL A   1      42.779  22.915  29.325  1.00  0.00    -0.206 F 
ATOM     69  C   UNL A   1      41.111  21.871  28.046  1.00  0.00     0.040 A 
ATOM     70  C   UNL A   1      40.017  23.082  26.276  1.00  0.00     0.040 A 
ATOM     71  F   UNL A   1      40.638  25.295  25.803  1.00  0.00    -0.206 F 
ATOM     72  C   UNL A   1      40.170  21.913  27.020  1.00  0.00     0.006 A 
ENDBRANCH  51  65
BRANCH  52  73
ATOM     73  C   UNL A   1      46.882  32.425  29.872  1.00  0.00     0.057 A 
ATOM     74  C   UNL A   1      47.594  32.601  31.063  1.00  0.00     0.134 A 
ATOM     75  C   UNL A   1      46.941  33.453  28.923  1.00  0.00     0.134 A 
ATOM     76  F   UNL A   1      47.567  31.655  32.013  1.00  0.00    -0.206 F 
ATOM     77  C   UNL A   1      48.344  33.754  31.300  1.00  0.00     0.040 A 
ATOM     78  C   UNL A   1      47.700  34.603  29.141  1.00  0.00     0.040 A 
ATOM     79  F   UNL A   1      46.285  33.337  27.759  1.00  0.00    -0.206 F 
ATOM     80  C   UNL A   1      48.405  34.755  30.333  1.00  0.00     0.006 A 
ENDBRANCH  52  73
BRANCH  64  81
ATOM     81  C   UNL A   1      48.553  26.426  26.721  1.00  0.00     0.057 A 
ATOM     82  C   UNL A   1      48.993  26.789  25.443  1.00  0.00     0.134 A 
ATOM     83  C   UNL A   1      49.396  25.618  27.494  1.00  0.00     0.134 A 
ATOM     84  F   UNL A   1      48.225  27.551  24.649  1.00  0.00    -0.206 F 
ATOM     85  C   UNL A   1      50.230  26.366  24.951  1.00  0.00     0.040 A 
ATOM     86  C   UNL A   1      50.643  25.207  27.021  1.00  0.00     0.040 A 
ATOM     87  F   UNL A   1      49.035  25.241  28.729  1.00  0.00    -0.206 F 
ATOM     88  C   UNL A   1      51.063  25.583  25.747  1.00  0.00     0.006 A 
ENDBRANCH  64  81
ENDBRANCH  38  39
ENDBRANCH  31  33
ENDBRANCH  30  31
ENDBRANCH  29  30
ENDBRANCH   1  29
TORSDOF 13
ENDMDL
MODEL 3
REMARK VINA RESULT:     -11.4      4.454     11.833
REMARK SMILES Cc1cc2nc(NC3=[NH+][C@H](CC(=O)OCCOC(=O)c4ccc(-c5c6nc(c(-c7c(F)cccc7F)c7ccc([nH]7)c(-c7c(F)cccc7F)c7nc(c(-c8c(F)cccc8F)c8ccc5[nH]8)C=C7)C=C6)cc4)C(=O)N3)nc(C)c2cc1C
REMARK SMILES IDX 15 1 14 2 12 3 13 4 11 5 10 6 7 7 8 8 9 10 76 11 74 13 75 15
REMARK SMILES IDX 6 16 1 17 2 18 3 19 82 20 4 21 81 22 83 23 5 24 80 25 78 26
REMARK SMILES IDX 77 27 79 28 16 29 17 30 18 31 19 32 20 33 21 34 73 35 22 36
REMARK SMILES IDX 72 37 23 38 24 39 25 40 66 41 26 42 71 43 65 44 67 45 27 46
REMARK SMILES IDX 70 47 64 48 63 49 28 51 54 52 37 53 53 54 38 55 41 56 52 57
REMARK SMILES IDX 68 58 39 59 40 60 51 62 69 63 42 64 29 65 30 66 35 67 31 68
REMARK SMILES IDX 32 69 34 70 36 71 33 72 55 73 56 74 61 75 57 76 58 77 60 78
REMARK SMILES IDX 62 79 59 80 43 81 44 82 49 83 45 84 46 85 48 86 50 87 47 88
REMARK H PARENT 7 9 9 12 76 14 67 50 41 61
REMARK Flexibility Score: inf
ROOT
ATOM      1  C   UNL A   1      41.109  21.577  26.292  1.00  0.00     0.274 C 
ENDROOT
BRANCH   1   2
ATOM      2  O   UNL A   1      41.583  20.385  26.939  1.00  0.00    -0.462 OA
BRANCH   2   3
ATOM      3  C   UNL A   1      42.308  19.505  26.208  1.00  0.00     0.310 C 
ATOM      4  O   UNL A   1      41.866  18.467  25.726  1.00  0.00    -0.252 OA
BRANCH   3   5
ATOM      5  C   UNL A   1      43.762  19.892  26.104  1.00  0.00     0.175 C 
BRANCH   5   6
ATOM      6  C   UNL A   1      44.278  19.955  24.674  1.00  0.00     0.262 C 
ATOM      7  N   UNL A   1      46.608  22.556  24.060  1.00  0.00    -0.212 N 
ATOM      8  C   UNL A   1      45.896  21.416  24.205  1.00  0.00     0.358 C 
ATOM      9  H   UNL A   1      47.395  22.552  23.468  1.00  0.00     0.270 HD
ATOM     10  N   UNL A   1      44.613  21.355  24.352  1.00  0.00    -0.263 N 
ATOM     11  N   UNL A   1      46.513  20.219  24.218  1.00  0.00    -0.211 N 
ATOM     12  H   UNL A   1      43.978  22.103  24.266  1.00  0.00     0.261 HD
ATOM     13  C   UNL A   1      45.610  19.254  24.534  1.00  0.00     0.320 C 
ATOM     14  H   UNL A   1      47.467  20.067  24.029  1.00  0.00     0.270 HD
ATOM     15  O   UNL A   1      45.852  18.075  24.724  1.00  0.00    -0.252 OA
BRANCH   7  16
ATOM     16  C   UNL A   1      46.266  23.734  24.716  1.00  0.00     0.291 A 
ATOM     17  C   UNL A   1      43.082  25.646  29.508  1.00  0.00     0.044 C 
ATOM     18  C   UNL A   1      43.996  25.829  28.327  1.00  0.00    -0.046 A 
ATOM     19  C   UNL A   1      44.371  24.706  27.573  1.00  0.00     0.033 A 
ATOM     20  C   UNL A   1      44.466  27.092  27.936  1.00  0.00    -0.047 A 
ATOM     21  C   UNL A   1      45.194  24.796  26.459  1.00  0.00     0.078 A 
ATOM     22  C   UNL A   1      45.296  27.188  26.807  1.00  0.00     0.016 A 
ATOM     23  C   UNL A   1      44.090  28.336  28.693  1.00  0.00     0.044 C 
ATOM     24  N   UNL A   1      45.499  23.677  25.814  1.00  0.00    -0.198 NA
ATOM     25  C   UNL A   1      45.666  26.041  26.059  1.00  0.00     0.022 A 
ATOM     26  C   UNL A   1      46.484  26.013  24.919  1.00  0.00     0.052 A 
ATOM     27  N   UNL A   1      46.805  24.870  24.262  1.00  0.00    -0.203 NA
ATOM     28  C   UNL A   1      47.066  27.271  24.341  1.00  0.00     0.067 C 
ENDBRANCH   7  16
ENDBRANCH   5   6
ENDBRANCH   3   5
ENDBRANCH   2   3
ENDBRANCH   1   2
BRANCH   1  29
ATOM     29  C   UNL A   1      41.173  22.778  27.236  1.00  0.00     0.275 C 
BRANCH  29  30
ATOM     30  O   UNL A   1      40.975  24.006  26.511  1.00  0.00    -0.458 OA
BRANCH  30  31
ATOM     31  C   UNL A   1      39.736  24.543  26.597  1.00  0.00     0.338 C 
ATOM     32  O   UNL A   1      38.710  24.139  26.081  1.00  0.00    -0.246 OA
BRANCH  31  33
ATOM     33  C   UNL A   1      39.769  25.670  27.543  1.00  0.00     0.060 A 
ATOM     34  C   UNL A   1      39.128  25.572  28.777  1.00  0.00     0.016 A 
ATOM     35  C   UNL A   1      40.480  26.824  27.193  1.00  0.00     0.016 A 
ATOM     36  C   UNL A   1      39.184  26.649  29.659  1.00  0.00     0.010 A 
ATOM     37  C   UNL A   1      40.539  27.899  28.079  1.00  0.00     0.010 A 
ATOM     38  C   UNL A   1      39.885  27.819  29.315  1.00  0.00    -0.014 A 
BRANCH  38  39
ATOM     39  C   UNL A   1      39.950  28.931  30.288  1.00  0.00     0.031 A 
ATOM     40  C   UNL A   1      38.988  30.075  30.211  1.00  0.00     0.074 A 
ATOM     41  C   UNL A   1      40.854  28.871  31.282  1.00  0.00     0.049 A 
ATOM     42  N   UNL A   1      38.750  31.008  31.099  1.00  0.00    -0.248 NA
ATOM     43  C   UNL A   1      38.192  30.193  28.981  1.00  0.00     0.031 C 
ATOM     44  C   UNL A   1      41.871  27.829  31.426  1.00  0.00     0.029 A 
ATOM     45  N   UNL A   1      41.038  29.678  32.375  1.00  0.00    -0.354 N 
ATOM     46  C   UNL A   1      37.754  31.803  30.551  1.00  0.00     0.074 A 
ATOM     47  C   UNL A   1      37.481  31.286  29.227  1.00  0.00     0.031 C 
ATOM     48  C   UNL A   1      42.535  28.027  32.575  1.00  0.00     0.029 A 
ATOM     49  C   UNL A   1      41.996  29.210  33.240  1.00  0.00     0.049 A 
ATOM     50  H   UNL A   1      40.536  30.511  32.523  1.00  0.00     0.167 HD
ATOM     51  C   UNL A   1      37.103  32.845  31.119  1.00  0.00     0.037 A 
ATOM     52  C   UNL A   1      42.370  29.663  34.451  1.00  0.00     0.037 A 
ATOM     53  C   UNL A   1      37.397  33.364  32.429  1.00  0.00     0.049 A 
ATOM     54  C   UNL A   1      41.670  30.853  35.042  1.00  0.00     0.074 A 
ATOM     55  C   UNL A   1      36.761  34.382  33.117  1.00  0.00     0.029 A 
ATOM     56  N   UNL A   1      38.427  32.914  33.243  1.00  0.00    -0.354 N 
ATOM     57  N   UNL A   1      40.654  31.531  34.567  1.00  0.00    -0.248 NA
ATOM     58  C   UNL A   1      42.167  31.339  36.336  1.00  0.00     0.031 C 
ATOM     59  C   UNL A   1      37.438  34.582  34.325  1.00  0.00     0.029 A 
ATOM     60  C   UNL A   1      38.471  33.661  34.408  1.00  0.00     0.049 A 
ATOM     61  H   UNL A   1      39.037  32.173  33.024  1.00  0.00     0.167 HD
ATOM     62  C   UNL A   1      40.382  32.518  35.504  1.00  0.00     0.074 A 
ATOM     63  C   UNL A   1      41.331  32.340  36.585  1.00  0.00     0.031 C 
ATOM     64  C   UNL A   1      39.433  33.484  35.467  1.00  0.00     0.037 A 
BRANCH  51  65
ATOM     65  C   UNL A   1      36.000  33.481  30.327  1.00  0.00     0.057 A 
ATOM     66  C   UNL A   1      36.274  34.309  29.229  1.00  0.00     0.134 A 
ATOM     67  C   UNL A   1      34.657  33.242  30.637  1.00  0.00     0.134 A 
ATOM     68  F   UNL A   1      37.541  34.581  28.882  1.00  0.00    -0.206 F 
ATOM     69  C   UNL A   1      35.250  34.900  28.487  1.00  0.00     0.040 A 
ATOM     70  C   UNL A   1      33.624  33.809  29.887  1.00  0.00     0.040 A 
ATOM     71  F   UNL A   1      34.324  32.451  31.668  1.00  0.00    -0.206 F 
ATOM     72  C   UNL A   1      33.920  34.646  28.813  1.00  0.00     0.006 A 
ENDBRANCH  51  65
BRANCH  52  73
ATOM     73  C   UNL A   1      43.414  28.930  35.206  1.00  0.00     0.057 A 
ATOM     74  C   UNL A   1      44.768  29.230  35.031  1.00  0.00     0.134 A 
ATOM     75  C   UNL A   1      43.082  27.962  36.162  1.00  0.00     0.134 A 
ATOM     76  F   UNL A   1      45.147  30.141  34.122  1.00  0.00    -0.206 F 
ATOM     77  C   UNL A   1      45.758  28.598  35.785  1.00  0.00     0.040 A 
ATOM     78  C   UNL A   1      44.060  27.335  36.934  1.00  0.00     0.040 A 
ATOM     79  F   UNL A   1      41.799  27.638  36.380  1.00  0.00    -0.206 F 
ATOM     80  C   UNL A   1      45.404  27.654  36.746  1.00  0.00     0.006 A 
ENDBRANCH  52  73
BRANCH  64  81
ATOM     81  C   UNL A   1      39.379  34.447  36.616  1.00  0.00     0.057 A 
ATOM     82  C   UNL A   1      38.717  34.123  37.805  1.00  0.00     0.134 A 
ATOM     83  C   UNL A   1      40.071  35.664  36.568  1.00  0.00     0.134 A 
ATOM     84  F   UNL A   1      38.026  32.977  37.909  1.00  0.00    -0.206 F 
ATOM     85  C   UNL A   1      38.745  34.975  38.911  1.00  0.00     0.040 A 
ATOM     86  C   UNL A   1      40.124  36.514  37.674  1.00  0.00     0.040 A 
ATOM     87  F   UNL A   1      40.732  36.029  35.460  1.00  0.00    -0.206 F 
ATOM     88  C   UNL A   1      39.461  36.169  38.849  1.00  0.00     0.006 A 
ENDBRANCH  64  81
ENDBRANCH  38  39
ENDBRANCH  31  33
ENDBRANCH  30  31
ENDBRANCH  29  30
ENDBRANCH   1  29
TORSDOF 13
ENDMDL
