MODEL 1
REMARK VINA RESULT:     -12.7      0.000      0.000
REMARK SMILES C[C@@H](C(=O)OCCOC(=O)c1ccc(-c2c3nc(c(-c4c(F)cccc4F)c4ccc([nH]4)c(-c4c(F)cccc4F)c4nc(c(-c5c(F)cccc5F)c5ccc2[nH]5)C=C4)C=C3)cc1)c1ccc2c3cc(Cl)ccc3n(C(=O)c3cocn3)c2c1
REMARK SMILES IDX 6 1 5 2 3 3 4 4 2 5 1 6 65 7 66 8 85 9 67 10 84 11 68 12
REMARK SMILES IDX 76 13 69 14 75 15 70 16 74 17 71 18 73 19 72 20 77 21 78 22
REMARK SMILES IDX 79 23 80 24 83 25 81 26 82 27 7 28 8 29 9 30 10 31 11 32
REMARK SMILES IDX 12 33 64 34 13 35 63 36 14 37 15 38 16 39 57 40 17 41 62 42
REMARK SMILES IDX 56 43 58 44 18 45 61 46 55 47 54 48 19 50 45 51 28 52 44 53
REMARK SMILES IDX 29 54 32 55 43 56 59 57 30 58 31 59 42 61 60 62 33 63 20 64
REMARK SMILES IDX 21 65 26 66 22 67 23 68 25 69 27 70 24 71 46 72 47 73 52 74
REMARK SMILES IDX 48 75 49 76 51 77 53 78 50 79 34 80 35 81 40 82 36 83 37 84
REMARK SMILES IDX 39 85 41 86 38 87
REMARK H PARENT 58 49 32 60
REMARK Flexibility Score: inf
ROOT
ATOM      1  C   UNL A   1      31.287  28.979  23.864  1.00  0.00     0.274 C 
ENDROOT
BRANCH   1   2
ATOM      2  O   UNL A   1      30.341  27.890  23.901  1.00  0.00    -0.462 OA
BRANCH   2   3
ATOM      3  C   UNL A   1      30.791  26.696  23.420  1.00  0.00     0.313 C 
ATOM      4  O   UNL A   1      31.151  26.563  22.258  1.00  0.00    -0.252 OA
BRANCH   3   5
ATOM      5  C   UNL A   1      30.671  25.540  24.453  1.00  0.00     0.126 C 
ATOM      6  C   UNL A   1      29.754  25.952  25.615  1.00  0.00     0.025 C 
BRANCH   5   7
ATOM      7  C   UNL A   1      32.030  24.972  24.922  1.00  0.00    -0.032 A 
ATOM      8  C   UNL A   1      33.158  25.773  25.152  1.00  0.00     0.005 A 
ATOM      9  C   UNL A   1      32.174  23.585  25.102  1.00  0.00     0.032 A 
ATOM     10  C   UNL A   1      34.402  25.221  25.500  1.00  0.00     0.011 A 
ATOM     11  C   UNL A   1      33.466  23.032  25.201  1.00  0.00     0.058 A 
ATOM     12  C   UNL A   1      34.565  23.823  25.481  1.00  0.00     0.008 A 
ATOM     13  N   UNL A   1      33.915  21.731  24.900  1.00  0.00    -0.274 N 
ATOM     14  C   UNL A   1      35.680  22.957  25.626  1.00  0.00     0.009 A 
ATOM     15  C   UNL A   1      35.288  21.674  25.199  1.00  0.00     0.057 A 
ATOM     16  C   UNL A   1      37.025  23.214  25.967  1.00  0.00     0.031 A 
ATOM     17  C   UNL A   1      36.270  20.687  24.993  1.00  0.00     0.029 A 
ATOM     18  C   UNL A   1      37.982  22.224  25.775  1.00  0.00     0.041 A 
ATOM     19  C   UNL A   1      37.616  20.989  25.264  1.00  0.00     0.023 A 
ATOM     20  Cl  UNL A   1      39.631  22.567  26.126  1.00  0.00    -0.084 Cl
BRANCH  13  21
ATOM     21  C   UNL A   1      33.110  20.825  24.144  1.00  0.00     0.284 C 
ATOM     22  O   UNL A   1      32.628  21.304  23.120  1.00  0.00    -0.266 OA
BRANCH  21  23
ATOM     23  C   UNL A   1      32.788  19.434  24.428  1.00  0.00     0.167 A 
ATOM     24  C   UNL A   1      32.659  18.339  23.609  1.00  0.00     0.231 A 
ATOM     25  N   UNL A   1      32.692  18.998  25.752  1.00  0.00    -0.211 NA
ATOM     26  O   UNL A   1      32.479  17.229  24.394  1.00  0.00    -0.451 OA
ATOM     27  C   UNL A   1      32.530  17.705  25.667  1.00  0.00     0.308 A 
ENDBRANCH  21  23
ENDBRANCH  13  21
ENDBRANCH   5   7
ENDBRANCH   3   5
ENDBRANCH   2   3
ENDBRANCH   1   2
BRANCH   1  28
ATOM     28  C   UNL A   1      31.434  29.646  25.234  1.00  0.00     0.275 C 
BRANCH  28  29
ATOM     29  O   UNL A   1      32.797  30.020  25.523  1.00  0.00    -0.458 OA
BRANCH  29  30
ATOM     30  C   UNL A   1      32.954  30.913  26.526  1.00  0.00     0.338 C 
ATOM     31  O   UNL A   1      32.149  31.765  26.884  1.00  0.00    -0.246 OA
BRANCH  30  32
ATOM     32  C   UNL A   1      34.211  30.667  27.251  1.00  0.00     0.060 A 
ATOM     33  C   UNL A   1      34.528  29.342  27.528  1.00  0.00     0.016 A 
ATOM     34  C   UNL A   1      35.009  31.695  27.765  1.00  0.00     0.016 A 
ATOM     35  C   UNL A   1      35.642  29.032  28.301  1.00  0.00     0.010 A 
ATOM     36  C   UNL A   1      36.141  31.378  28.541  1.00  0.00     0.010 A 
ATOM     37  C   UNL A   1      36.468  30.040  28.810  1.00  0.00    -0.014 A 
BRANCH  37  38
ATOM     38  C   UNL A   1      37.595  29.618  29.683  1.00  0.00     0.031 A 
ATOM     39  C   UNL A   1      38.804  28.987  29.066  1.00  0.00     0.074 A 
ATOM     40  C   UNL A   1      37.618  29.956  30.986  1.00  0.00     0.049 A 
ATOM     41  N   UNL A   1      39.935  28.646  29.630  1.00  0.00    -0.248 NA
ATOM     42  C   UNL A   1      38.730  28.699  27.627  1.00  0.00     0.031 C 
ATOM     43  C   UNL A   1      36.539  30.647  31.680  1.00  0.00     0.029 A 
ATOM     44  N   UNL A   1      38.608  29.839  31.939  1.00  0.00    -0.354 N 
ATOM     45  C   UNL A   1      40.677  28.028  28.633  1.00  0.00     0.074 A 
ATOM     46  C   UNL A   1      39.895  28.102  27.416  1.00  0.00     0.031 C 
ATOM     47  C   UNL A   1      36.965  30.986  32.906  1.00  0.00     0.029 A 
ATOM     48  C   UNL A   1      38.336  30.534  33.098  1.00  0.00     0.049 A 
ATOM     49  H   UNL A   1      39.429  29.313  31.805  1.00  0.00     0.167 HD
ATOM     50  C   UNL A   1      41.874  27.407  28.743  1.00  0.00     0.037 A 
ATOM     51  C   UNL A   1      39.120  30.822  34.159  1.00  0.00     0.037 A 
ATOM     52  C   UNL A   1      42.654  27.351  29.954  1.00  0.00     0.049 A 
ATOM     53  C   UNL A   1      40.483  30.184  34.236  1.00  0.00     0.074 A 
ATOM     54  C   UNL A   1      43.832  26.665  30.190  1.00  0.00     0.029 A 
ATOM     55  N   UNL A   1      42.341  28.022  31.126  1.00  0.00    -0.354 N 
ATOM     56  N   UNL A   1      41.145  29.532  33.314  1.00  0.00    -0.248 NA
ATOM     57  C   UNL A   1      41.184  30.281  35.526  1.00  0.00     0.031 C 
ATOM     58  C   UNL A   1      44.202  26.876  31.523  1.00  0.00     0.029 A 
ATOM     59  C   UNL A   1      43.288  27.743  32.098  1.00  0.00     0.049 A 
ATOM     60  H   UNL A   1      41.559  28.608  31.250  1.00  0.00     0.167 HD
ATOM     61  C   UNL A   1      42.319  29.106  33.921  1.00  0.00     0.074 A 
ATOM     62  C   UNL A   1      42.321  29.654  35.262  1.00  0.00     0.031 C 
ATOM     63  C   UNL A   1      43.283  28.289  33.431  1.00  0.00     0.037 A 
BRANCH  50  64
ATOM     64  C   UNL A   1      42.340  26.618  27.558  1.00  0.00     0.057 A 
ATOM     65  C   UNL A   1      42.034  25.266  27.374  1.00  0.00     0.134 A 
ATOM     66  C   UNL A   1      43.127  27.244  26.579  1.00  0.00     0.134 A 
ATOM     67  F   UNL A   1      41.310  24.602  28.287  1.00  0.00    -0.206 F 
ATOM     68  C   UNL A   1      42.512  24.558  26.269  1.00  0.00     0.040 A 
ATOM     69  C   UNL A   1      43.585  26.555  25.458  1.00  0.00     0.040 A 
ATOM     70  F   UNL A   1      43.459  28.539  26.699  1.00  0.00    -0.206 F 
ATOM     71  C   UNL A   1      43.283  25.205  25.303  1.00  0.00     0.006 A 
ENDBRANCH  50  64
BRANCH  51  72
ATOM     72  C   UNL A   1      38.699  31.790  35.218  1.00  0.00     0.057 A 
ATOM     73  C   UNL A   1      38.913  33.167  35.040  1.00  0.00     0.134 A 
ATOM     74  C   UNL A   1      38.129  31.396  36.433  1.00  0.00     0.134 A 
ATOM     75  F   UNL A   1      39.468  33.623  33.906  1.00  0.00    -0.206 F 
ATOM     76  C   UNL A   1      38.604  34.103  36.031  1.00  0.00     0.040 A 
ATOM     77  C   UNL A   1      37.771  32.325  37.415  1.00  0.00     0.040 A 
ATOM     78  F   UNL A   1      37.906  30.101  36.691  1.00  0.00    -0.206 F 
ATOM     79  C   UNL A   1      38.021  33.682  37.222  1.00  0.00     0.006 A 
ENDBRANCH  51  72
BRANCH  63  80
ATOM     80  C   UNL A   1      44.401  27.907  34.357  1.00  0.00     0.057 A 
ATOM     81  C   UNL A   1      44.319  26.770  35.174  1.00  0.00     0.134 A 
ATOM     82  C   UNL A   1      45.591  28.643  34.398  1.00  0.00     0.134 A 
ATOM     83  F   UNL A   1      43.205  26.022  35.189  1.00  0.00    -0.206 F 
ATOM     84  C   UNL A   1      45.368  26.395  36.016  1.00  0.00     0.040 A 
ATOM     85  C   UNL A   1      46.657  28.263  35.215  1.00  0.00     0.040 A 
ATOM     86  F   UNL A   1      45.743  29.736  33.634  1.00  0.00    -0.206 F 
ATOM     87  C   UNL A   1      46.545  27.139  36.032  1.00  0.00     0.006 A 
ENDBRANCH  63  80
ENDBRANCH  37  38
ENDBRANCH  30  32
ENDBRANCH  29  30
ENDBRANCH  28  29
ENDBRANCH   1  28
TORSDOF 14
ENDMDL
MODEL 2
REMARK VINA RESULT:     -12.6      3.707      7.076
REMARK SMILES C[C@@H](C(=O)OCCOC(=O)c1ccc(-c2c3nc(c(-c4c(F)cccc4F)c4ccc([nH]4)c(-c4c(F)cccc4F)c4nc(c(-c5c(F)cccc5F)c5ccc2[nH]5)C=C4)C=C3)cc1)c1ccc2c3cc(Cl)ccc3n(C(=O)c3cocn3)c2c1
REMARK SMILES IDX 6 1 5 2 3 3 4 4 2 5 1 6 65 7 66 8 85 9 67 10 84 11 68 12
REMARK SMILES IDX 76 13 69 14 75 15 70 16 74 17 71 18 73 19 72 20 77 21 78 22
REMARK SMILES IDX 79 23 80 24 83 25 81 26 82 27 7 28 8 29 9 30 10 31 11 32
REMARK SMILES IDX 12 33 64 34 13 35 63 36 14 37 15 38 16 39 57 40 17 41 62 42
REMARK SMILES IDX 56 43 58 44 18 45 61 46 55 47 54 48 19 50 45 51 28 52 44 53
REMARK SMILES IDX 29 54 32 55 43 56 59 57 30 58 31 59 42 61 60 62 33 63 20 64
REMARK SMILES IDX 21 65 26 66 22 67 23 68 25 69 27 70 24 71 46 72 47 73 52 74
REMARK SMILES IDX 48 75 49 76 51 77 53 78 50 79 34 80 35 81 40 82 36 83 37 84
REMARK SMILES IDX 39 85 41 86 38 87
REMARK H PARENT 58 49 32 60
REMARK Flexibility Score: inf
ROOT
ATOM      1  C   UNL A   1      34.889  20.624  25.027  1.00  0.00     0.274 C 
ENDROOT
BRANCH   1   2
ATOM      2  O   UNL A   1      34.140  21.327  24.014  1.00  0.00    -0.462 OA
BRANCH   2   3
ATOM      3  C   UNL A   1      32.962  21.878  24.421  1.00  0.00     0.313 C 
ATOM      4  O   UNL A   1      32.321  21.415  25.356  1.00  0.00    -0.252 OA
BRANCH   3   5
ATOM      5  C   UNL A   1      32.485  23.041  23.505  1.00  0.00     0.126 C 
ATOM      6  C   UNL A   1      32.948  22.808  22.058  1.00  0.00     0.025 C 
BRANCH   5   7
ATOM      7  C   UNL A   1      32.841  24.448  24.038  1.00  0.00    -0.032 A 
ATOM      8  C   UNL A   1      33.769  24.667  25.066  1.00  0.00     0.005 A 
ATOM      9  C   UNL A   1      32.190  25.574  23.504  1.00  0.00     0.032 A 
ATOM     10  C   UNL A   1      34.012  25.949  25.586  1.00  0.00     0.011 A 
ATOM     11  C   UNL A   1      32.254  26.801  24.193  1.00  0.00     0.058 A 
ATOM     12  C   UNL A   1      33.207  27.026  25.169  1.00  0.00     0.008 A 
ATOM     13  N   UNL A   1      31.360  27.889  24.180  1.00  0.00    -0.274 N 
ATOM     14  C   UNL A   1      33.077  28.378  25.580  1.00  0.00     0.009 A 
ATOM     15  C   UNL A   1      31.892  28.888  25.016  1.00  0.00     0.057 A 
ATOM     16  C   UNL A   1      33.821  29.152  26.495  1.00  0.00     0.031 A 
ATOM     17  C   UNL A   1      31.388  30.121  25.471  1.00  0.00     0.029 A 
ATOM     18  C   UNL A   1      33.321  30.377  26.922  1.00  0.00     0.041 A 
ATOM     19  C   UNL A   1      32.105  30.840  26.443  1.00  0.00     0.023 A 
ATOM     20  Cl  UNL A   1      34.197  31.285  28.092  1.00  0.00    -0.084 Cl
BRANCH  13  21
ATOM     21  C   UNL A   1      30.046  27.764  23.636  1.00  0.00     0.284 C 
ATOM     22  O   UNL A   1      29.486  26.701  23.896  1.00  0.00    -0.266 OA
BRANCH  21  23
ATOM     23  C   UNL A   1      29.299  28.713  22.823  1.00  0.00     0.167 A 
ATOM     24  C   UNL A   1      27.989  29.123  22.866  1.00  0.00     0.231 A 
ATOM     25  N   UNL A   1      29.966  29.495  21.877  1.00  0.00    -0.211 NA
ATOM     26  O   UNL A   1      27.822  30.141  21.962  1.00  0.00    -0.451 OA
ATOM     27  C   UNL A   1      29.058  30.318  21.424  1.00  0.00     0.308 A 
ENDBRANCH  21  23
ENDBRANCH  13  21
ENDBRANCH   5   7
ENDBRANCH   3   5
ENDBRANCH   2   3
ENDBRANCH   1   2
BRANCH   1  28
ATOM     28  C   UNL A   1      35.812  21.566  25.804  1.00  0.00     0.275 C 
BRANCH  28  29
ATOM     29  O   UNL A   1      36.989  21.931  25.053  1.00  0.00    -0.458 OA
BRANCH  29  30
ATOM     30  C   UNL A   1      38.155  21.441  25.529  1.00  0.00     0.338 C 
ATOM     31  O   UNL A   1      38.620  20.325  25.329  1.00  0.00    -0.246 OA
BRANCH  30  32
ATOM     32  C   UNL A   1      38.899  22.483  26.256  1.00  0.00     0.060 A 
ATOM     33  C   UNL A   1      38.516  23.800  26.033  1.00  0.00     0.016 A 
ATOM     34  C   UNL A   1      40.024  22.209  27.041  1.00  0.00     0.016 A 
ATOM     35  C   UNL A   1      39.236  24.847  26.599  1.00  0.00     0.010 A 
ATOM     36  C   UNL A   1      40.748  23.270  27.618  1.00  0.00     0.010 A 
ATOM     37  C   UNL A   1      40.353  24.600  27.404  1.00  0.00    -0.014 A 
BRANCH  37  38
ATOM     38  C   UNL A   1      41.102  25.782  27.908  1.00  0.00     0.031 A 
ATOM     39  C   UNL A   1      42.425  26.128  27.297  1.00  0.00     0.074 A 
ATOM     40  C   UNL A   1      40.529  26.639  28.775  1.00  0.00     0.049 A 
ATOM     41  N   UNL A   1      43.186  27.170  27.514  1.00  0.00    -0.248 NA
ATOM     42  C   UNL A   1      42.961  25.175  26.316  1.00  0.00     0.031 C 
ATOM     43  C   UNL A   1      39.213  26.454  29.372  1.00  0.00     0.029 A 
ATOM     44  N   UNL A   1      40.940  27.869  29.243  1.00  0.00    -0.354 N 
ATOM     45  C   UNL A   1      44.331  26.958  26.759  1.00  0.00     0.074 A 
ATOM     46  C   UNL A   1      44.133  25.724  26.028  1.00  0.00     0.031 C 
ATOM     47  C   UNL A   1      38.882  27.574  30.034  1.00  0.00     0.029 A 
ATOM     48  C   UNL A   1      39.955  28.551  29.924  1.00  0.00     0.049 A 
ATOM     49  H   UNL A   1      41.847  28.227  29.102  1.00  0.00     0.167 HD
ATOM     50  C   UNL A   1      45.462  27.700  26.728  1.00  0.00     0.037 A 
ATOM     51  C   UNL A   1      39.903  29.831  30.353  1.00  0.00     0.037 A 
ATOM     52  C   UNL A   1      45.645  28.937  27.445  1.00  0.00     0.049 A 
ATOM     53  C   UNL A   1      41.148  30.673  30.244  1.00  0.00     0.074 A 
ATOM     54  C   UNL A   1      46.787  29.711  27.553  1.00  0.00     0.029 A 
ATOM     55  N   UNL A   1      44.653  29.586  28.164  1.00  0.00    -0.354 N 
ATOM     56  N   UNL A   1      42.257  30.431  29.594  1.00  0.00    -0.248 NA
ATOM     57  C   UNL A   1      41.146  31.948  30.979  1.00  0.00     0.031 C 
ATOM     58  C   UNL A   1      46.501  30.800  28.382  1.00  0.00     0.029 A 
ATOM     59  C   UNL A   1      45.164  30.738  28.741  1.00  0.00     0.049 A 
ATOM     60  H   UNL A   1      43.723  29.275  28.252  1.00  0.00     0.167 HD
ATOM     61  C   UNL A   1      43.100  31.500  29.872  1.00  0.00     0.074 A 
ATOM     62  C   UNL A   1      42.340  32.436  30.673  1.00  0.00     0.031 C 
ATOM     63  C   UNL A   1      44.403  31.664  29.539  1.00  0.00     0.037 A 
BRANCH  50  64
ATOM     64  C   UNL A   1      46.636  27.116  26.003  1.00  0.00     0.057 A 
ATOM     65  C   UNL A   1      46.925  27.402  24.665  1.00  0.00     0.134 A 
ATOM     66  C   UNL A   1      47.494  26.235  26.678  1.00  0.00     0.134 A 
ATOM     67  F   UNL A   1      46.128  28.214  23.955  1.00  0.00    -0.206 F 
ATOM     68  C   UNL A   1      48.014  26.815  24.017  1.00  0.00     0.040 A 
ATOM     69  C   UNL A   1      48.600  25.666  26.051  1.00  0.00     0.040 A 
ATOM     70  F   UNL A   1      47.270  25.917  27.963  1.00  0.00    -0.206 F 
ATOM     71  C   UNL A   1      48.859  25.950  24.713  1.00  0.00     0.006 A 
ENDBRANCH  50  64
BRANCH  51  72
ATOM     72  C   UNL A   1      38.642  30.443  30.874  1.00  0.00     0.057 A 
ATOM     73  C   UNL A   1      38.259  30.239  32.210  1.00  0.00     0.134 A 
ATOM     74  C   UNL A   1      37.768  31.191  30.078  1.00  0.00     0.134 A 
ATOM     75  F   UNL A   1      39.038  29.519  33.033  1.00  0.00    -0.206 F 
ATOM     76  C   UNL A   1      37.054  30.727  32.722  1.00  0.00     0.040 A 
ATOM     77  C   UNL A   1      36.583  31.727  30.589  1.00  0.00     0.040 A 
ATOM     78  F   UNL A   1      38.050  31.420  28.789  1.00  0.00    -0.206 F 
ATOM     79  C   UNL A   1      36.215  31.484  31.911  1.00  0.00     0.006 A 
ENDBRANCH  51  72
BRANCH  63  80
ATOM     80  C   UNL A   1      45.103  32.882  30.070  1.00  0.00     0.057 A 
ATOM     81  C   UNL A   1      45.118  34.088  29.355  1.00  0.00     0.134 A 
ATOM     82  C   UNL A   1      45.721  32.872  31.327  1.00  0.00     0.134 A 
ATOM     83  F   UNL A   1      44.552  34.166  28.141  1.00  0.00    -0.206 F 
ATOM     84  C   UNL A   1      45.744  35.231  29.858  1.00  0.00     0.040 A 
ATOM     85  C   UNL A   1      46.325  34.015  31.853  1.00  0.00     0.040 A 
ATOM     86  F   UNL A   1      45.734  31.756  32.071  1.00  0.00    -0.206 F 
ATOM     87  C   UNL A   1      46.343  35.198  31.115  1.00  0.00     0.006 A 
ENDBRANCH  63  80
ENDBRANCH  37  38
ENDBRANCH  30  32
ENDBRANCH  29  30
ENDBRANCH  28  29
ENDBRANCH   1  28
TORSDOF 14
ENDMDL
MODEL 3
REMARK VINA RESULT:     -12.5      3.750      9.033
REMARK SMILES C[C@@H](C(=O)OCCOC(=O)c1ccc(-c2c3nc(c(-c4c(F)cccc4F)c4ccc([nH]4)c(-c4c(F)cccc4F)c4nc(c(-c5c(F)cccc5F)c5ccc2[nH]5)C=C4)C=C3)cc1)c1ccc2c3cc(Cl)ccc3n(C(=O)c3cocn3)c2c1
REMARK SMILES IDX 6 1 5 2 3 3 4 4 2 5 1 6 65 7 66 8 85 9 67 10 84 11 68 12
REMARK SMILES IDX 76 13 69 14 75 15 70 16 74 17 71 18 73 19 72 20 77 21 78 22
REMARK SMILES IDX 79 23 80 24 83 25 81 26 82 27 7 28 8 29 9 30 10 31 11 32
REMARK SMILES IDX 12 33 64 34 13 35 63 36 14 37 15 38 16 39 57 40 17 41 62 42
REMARK SMILES IDX 56 43 58 44 18 45 61 46 55 47 54 48 19 50 45 51 28 52 44 53
REMARK SMILES IDX 29 54 32 55 43 56 59 57 30 58 31 59 42 61 60 62 33 63 20 64
REMARK SMILES IDX 21 65 26 66 22 67 23 68 25 69 27 70 24 71 46 72 47 73 52 74
REMARK SMILES IDX 48 75 49 76 51 77 53 78 50 79 34 80 35 81 40 82 36 83 37 84
REMARK SMILES IDX 39 85 41 86 38 87
REMARK H PARENT 58 49 32 60
REMARK Flexibility Score: inf
ROOT
ATOM      1  C   UNL A   1      34.486  20.429  25.027  1.00  0.00     0.274 C 
ENDROOT
BRANCH   1   2
ATOM      2  O   UNL A   1      33.963  21.283  23.988  1.00  0.00    -0.462 OA
BRANCH   2   3
ATOM      3  C   UNL A   1      32.858  22.010  24.316  1.00  0.00     0.313 C 
ATOM      4  O   UNL A   1      32.096  21.659  25.207  1.00  0.00    -0.252 OA
BRANCH   3   5
ATOM      5  C   UNL A   1      32.624  23.222  23.371  1.00  0.00     0.126 C 
ATOM      6  C   UNL A   1      33.266  22.963  21.998  1.00  0.00     0.025 C 
BRANCH   5   7
ATOM      7  C   UNL A   1      33.025  24.583  23.982  1.00  0.00    -0.032 A 
ATOM      8  C   UNL A   1      33.968  24.714  25.011  1.00  0.00     0.005 A 
ATOM      9  C   UNL A   1      32.402  25.757  23.523  1.00  0.00     0.032 A 
ATOM     10  C   UNL A   1      34.253  25.956  25.603  1.00  0.00     0.011 A 
ATOM     11  C   UNL A   1      32.508  26.939  24.283  1.00  0.00     0.058 A 
ATOM     12  C   UNL A   1      33.476  27.078  25.260  1.00  0.00     0.008 A 
ATOM     13  N   UNL A   1      31.646  28.051  24.345  1.00  0.00    -0.274 N 
ATOM     14  C   UNL A   1      33.389  28.407  25.752  1.00  0.00     0.009 A 
ATOM     15  C   UNL A   1      32.214  28.982  25.233  1.00  0.00     0.057 A 
ATOM     16  C   UNL A   1      34.163  29.104  26.704  1.00  0.00     0.031 A 
ATOM     17  C   UNL A   1      31.750  30.200  25.765  1.00  0.00     0.029 A 
ATOM     18  C   UNL A   1      33.702  30.314  27.208  1.00  0.00     0.041 A 
ATOM     19  C   UNL A   1      32.496  30.839  26.770  1.00  0.00     0.023 A 
ATOM     20  Cl  UNL A   1      34.615  31.125  28.420  1.00  0.00    -0.084 Cl
BRANCH  13  21
ATOM     21  C   UNL A   1      30.323  27.995  23.808  1.00  0.00     0.284 C 
ATOM     22  O   UNL A   1      29.669  27.018  24.165  1.00  0.00    -0.266 OA
BRANCH  21  23
ATOM     23  C   UNL A   1      29.664  28.928  22.905  1.00  0.00     0.167 A 
ATOM     24  C   UNL A   1      30.147  29.711  21.885  1.00  0.00     0.231 A 
ATOM     25  N   UNL A   1      28.271  29.031  22.907  1.00  0.00    -0.211 NA
ATOM     26  O   UNL A   1      29.085  30.307  21.255  1.00  0.00    -0.451 OA
ATOM     27  C   UNL A   1      27.994  29.833  21.914  1.00  0.00     0.308 A 
ENDBRANCH  21  23
ENDBRANCH  13  21
ENDBRANCH   5   7
ENDBRANCH   3   5
ENDBRANCH   2   3
ENDBRANCH   1   2
BRANCH   1  28
ATOM     28  C   UNL A   1      35.523  21.156  25.887  1.00  0.00     0.275 C 
BRANCH  28  29
ATOM     29  O   UNL A   1      36.629  21.662  25.111  1.00  0.00    -0.458 OA
BRANCH  29  30
ATOM     30  C   UNL A   1      37.854  21.266  25.520  1.00  0.00     0.338 C 
ATOM     31  O   UNL A   1      38.335  20.143  25.420  1.00  0.00    -0.246 OA
BRANCH  30  32
ATOM     32  C   UNL A   1      38.632  22.411  26.021  1.00  0.00     0.060 A 
ATOM     33  C   UNL A   1      38.130  23.679  25.750  1.00  0.00     0.016 A 
ATOM     34  C   UNL A   1      39.883  22.274  26.632  1.00  0.00     0.016 A 
ATOM     35  C   UNL A   1      38.858  24.812  26.095  1.00  0.00     0.010 A 
ATOM     36  C   UNL A   1      40.616  23.424  26.988  1.00  0.00     0.010 A 
ATOM     37  C   UNL A   1      40.103  24.704  26.725  1.00  0.00    -0.014 A 
BRANCH  37  38
ATOM     38  C   UNL A   1      40.840  25.967  26.994  1.00  0.00     0.031 A 
ATOM     39  C   UNL A   1      40.364  26.877  28.084  1.00  0.00     0.074 A 
ATOM     40  C   UNL A   1      42.022  26.212  26.396  1.00  0.00     0.049 A 
ATOM     41  N   UNL A   1      40.920  27.966  28.550  1.00  0.00    -0.248 NA
ATOM     42  C   UNL A   1      39.096  26.514  28.731  1.00  0.00     0.031 C 
ATOM     43  C   UNL A   1      42.629  25.359  25.383  1.00  0.00     0.029 A 
ATOM     44  N   UNL A   1      42.959  27.202  26.606  1.00  0.00    -0.354 N 
ATOM     45  C   UNL A   1      40.029  28.465  29.489  1.00  0.00     0.074 A 
ATOM     46  C   UNL A   1      38.931  27.525  29.573  1.00  0.00     0.031 C 
ATOM     47  C   UNL A   1      43.874  25.798  25.142  1.00  0.00     0.029 A 
ATOM     48  C   UNL A   1      44.156  26.965  25.967  1.00  0.00     0.049 A 
ATOM     49  H   UNL A   1      42.790  27.998  27.161  1.00  0.00     0.167 HD
ATOM     50  C   UNL A   1      40.099  29.632  30.172  1.00  0.00     0.037 A 
ATOM     51  C   UNL A   1      45.354  27.579  26.080  1.00  0.00     0.037 A 
ATOM     52  C   UNL A   1      41.202  30.555  30.096  1.00  0.00     0.049 A 
ATOM     53  C   UNL A   1      45.438  28.837  26.905  1.00  0.00     0.074 A 
ATOM     54  C   UNL A   1      41.323  31.806  30.674  1.00  0.00     0.029 A 
ATOM     55  N   UNL A   1      42.383  30.319  29.409  1.00  0.00    -0.354 N 
ATOM     56  N   UNL A   1      44.559  29.346  27.731  1.00  0.00    -0.248 NA
ATOM     57  C   UNL A   1      46.669  29.633  26.770  1.00  0.00     0.031 C 
ATOM     58  C   UNL A   1      42.554  32.349  30.293  1.00  0.00     0.029 A 
ATOM     59  C   UNL A   1      43.227  31.412  29.527  1.00  0.00     0.049 A 
ATOM     60  H   UNL A   1      42.591  29.495  28.910  1.00  0.00     0.167 HD
ATOM     61  C   UNL A   1      45.110  30.539  28.181  1.00  0.00     0.074 A 
ATOM     62  C   UNL A   1      46.437  30.630  27.610  1.00  0.00     0.031 C 
ATOM     63  C   UNL A   1      44.545  31.498  28.954  1.00  0.00     0.037 A 
BRANCH  50  64
ATOM     64  C   UNL A   1      38.883  30.037  30.949  1.00  0.00     0.057 A 
ATOM     65  C   UNL A   1      37.874  30.846  30.418  1.00  0.00     0.134 A 
ATOM     66  C   UNL A   1      38.735  29.600  32.275  1.00  0.00     0.134 A 
ATOM     67  F   UNL A   1      37.969  31.320  29.167  1.00  0.00    -0.206 F 
ATOM     68  C   UNL A   1      36.769  31.224  31.185  1.00  0.00     0.040 A 
ATOM     69  C   UNL A   1      37.624  29.947  33.039  1.00  0.00     0.040 A 
ATOM     70  F   UNL A   1      39.671  28.825  32.844  1.00  0.00    -0.206 F 
ATOM     71  C   UNL A   1      36.639  30.768  32.497  1.00  0.00     0.006 A 
ENDBRANCH  50  64
BRANCH  51  72
ATOM     72  C   UNL A   1      46.595  27.019  25.461  1.00  0.00     0.057 A 
ATOM     73  C   UNL A   1      47.366  26.074  26.160  1.00  0.00     0.134 A 
ATOM     74  C   UNL A   1      47.077  27.421  24.212  1.00  0.00     0.134 A 
ATOM     75  F   UNL A   1      46.976  25.648  27.372  1.00  0.00    -0.206 F 
ATOM     76  C   UNL A   1      48.571  25.578  25.655  1.00  0.00     0.040 A 
ATOM     77  C   UNL A   1      48.256  26.898  23.673  1.00  0.00     0.040 A 
ATOM     78  F   UNL A   1      46.411  28.330  23.487  1.00  0.00    -0.206 F 
ATOM     79  C   UNL A   1      49.015  25.984  24.401  1.00  0.00     0.006 A 
ENDBRANCH  51  72
BRANCH  63  80
ATOM     80  C   UNL A   1      45.343  32.747  29.198  1.00  0.00     0.057 A 
ATOM     81  C   UNL A   1      45.236  33.861  28.354  1.00  0.00     0.134 A 
ATOM     82  C   UNL A   1      46.184  32.862  30.311  1.00  0.00     0.134 A 
ATOM     83  F   UNL A   1      44.453  33.817  27.265  1.00  0.00    -0.206 F 
ATOM     84  C   UNL A   1      45.955  35.034  28.593  1.00  0.00     0.040 A 
ATOM     85  C   UNL A   1      46.887  34.038  30.577  1.00  0.00     0.040 A 
ATOM     86  F   UNL A   1      46.326  31.839  31.168  1.00  0.00    -0.206 F 
ATOM     87  C   UNL A   1      46.778  35.127  29.713  1.00  0.00     0.006 A 
ENDBRANCH  63  80
ENDBRANCH  37  38
ENDBRANCH  30  32
ENDBRANCH  29  30
ENDBRANCH  28  29
ENDBRANCH   1  28
TORSDOF 14
ENDMDL
