MODEL 1
REMARK VINA RESULT:     -11.8      0.000      0.000
REMARK SMILES Cc1cc(C(=O)N2C[C@@H](C(=O)OCCOC(=O)c3ccc(-c4c5nc(c(-c6c(F)cccc6F)c6ccc([nH]6)c(-c6c(F)cccc6F)c6nc(c(-c7c(F)cccc7F)c7ccc4[nH]7)C=C6)C=C5)cc3)[C@H](C3CC3)C2)sc1C
REMARK SMILES IDX 13 1 12 2 10 3 11 4 9 5 7 6 8 7 76 8 72 9 5 10 6 11 4 12
REMARK SMILES IDX 1 13 2 14 3 15 78 16 77 17 79 18 73 19 74 20 75 21 14 22
REMARK SMILES IDX 15 23 16 24 17 25 18 26 19 27 71 28 20 29 70 30 21 31 22 32
REMARK SMILES IDX 23 33 64 34 24 35 69 36 63 37 65 38 25 39 68 40 62 41 61 42
REMARK SMILES IDX 26 44 52 45 35 46 51 47 36 48 39 49 50 50 66 51 37 52 38 53
REMARK SMILES IDX 49 55 67 56 40 57 27 58 28 59 33 60 29 61 30 62 32 63 34 64
REMARK SMILES IDX 31 65 53 66 54 67 59 68 55 69 56 70 58 71 60 72 57 73 41 74
REMARK SMILES IDX 42 75 47 76 43 77 44 78 46 79 48 80 45 81
REMARK H PARENT 65 43 39 54
REMARK Flexibility Score: inf
ROOT
ATOM      1  C   UNL A   1      35.264  20.679  25.378  1.00  0.00     0.274 C 
ENDROOT
BRANCH   1   2
ATOM      2  O   UNL A   1      34.218  20.042  24.615  1.00  0.00    -0.462 OA
BRANCH   2   3
ATOM      3  C   UNL A   1      32.942  20.318  24.997  1.00  0.00     0.311 C 
ATOM      4  O   UNL A   1      32.104  19.476  25.294  1.00  0.00    -0.252 OA
BRANCH   3   5
ATOM      5  C   UNL A   1      32.675  21.803  24.983  1.00  0.00     0.124 C 
ATOM      6  N   UNL A   1      31.088  23.427  25.484  1.00  0.00    -0.337 N 
ATOM      7  C   UNL A   1      31.660  22.216  26.034  1.00  0.00     0.135 C 
ATOM      8  C   UNL A   1      31.008  23.322  24.045  1.00  0.00     0.124 C 
ATOM      9  C   UNL A   1      32.025  22.235  23.648  1.00  0.00     0.028 C 
BRANCH   6  10
ATOM     10  C   UNL A   1      30.412  24.442  26.144  1.00  0.00     0.263 C 
ATOM     11  O   UNL A   1      29.718  24.161  27.125  1.00  0.00    -0.268 OA
BRANCH  10  12
ATOM     12  C   UNL A   1      30.451  25.803  25.621  1.00  0.00     0.093 A 
ATOM     13  C   UNL A   1      29.408  28.299  22.996  1.00  0.00     0.045 C 
ATOM     14  C   UNL A   1      30.067  27.597  24.137  1.00  0.00    -0.037 A 
ATOM     15  C   UNL A   1      29.644  26.313  24.620  1.00  0.00     0.029 A 
ATOM     16  C   UNL A   1      31.171  28.046  24.844  1.00  0.00     0.005 A 
ATOM     17  S   UNL A   1      31.708  26.899  25.989  1.00  0.00    -0.135 S 
ATOM     18  C   UNL A   1      31.933  29.319  24.676  1.00  0.00     0.056 C 
ENDBRANCH  10  12
ENDBRANCH   6  10
BRANCH   9  19
ATOM     19  C   UNL A   1      32.965  22.716  22.568  1.00  0.00    -0.005 C 
ATOM     20  C   UNL A   1      33.261  24.163  22.242  1.00  0.00     0.004 C 
ATOM     21  C   UNL A   1      34.295  23.325  22.942  1.00  0.00     0.004 C 
ENDBRANCH   9  19
ENDBRANCH   3   5
ENDBRANCH   2   3
ENDBRANCH   1   2
BRANCH   1  22
ATOM     22  C   UNL A   1      36.647  20.241  24.908  1.00  0.00     0.275 C 
BRANCH  22  23
ATOM     23  O   UNL A   1      37.588  21.318  25.064  1.00  0.00    -0.458 OA
BRANCH  23  24
ATOM     24  C   UNL A   1      38.730  21.001  25.707  1.00  0.00     0.338 C 
ATOM     25  O   UNL A   1      39.315  19.928  25.710  1.00  0.00    -0.246 OA
BRANCH  24  26
ATOM     26  C   UNL A   1      39.263  22.185  26.391  1.00  0.00     0.060 A 
ATOM     27  C   UNL A   1      38.745  23.434  26.062  1.00  0.00     0.016 A 
ATOM     28  C   UNL A   1      40.385  22.083  27.210  1.00  0.00     0.016 A 
ATOM     29  C   UNL A   1      39.414  24.591  26.442  1.00  0.00     0.010 A 
ATOM     30  C   UNL A   1      40.993  23.251  27.686  1.00  0.00     0.010 A 
ATOM     31  C   UNL A   1      40.544  24.518  27.266  1.00  0.00    -0.014 A 
BRANCH  31  32
ATOM     32  C   UNL A   1      41.292  25.754  27.626  1.00  0.00     0.031 A 
ATOM     33  C   UNL A   1      40.647  26.795  28.503  1.00  0.00     0.074 A 
ATOM     34  C   UNL A   1      42.559  25.939  27.207  1.00  0.00     0.049 A 
ATOM     35  N   UNL A   1      41.038  28.016  28.763  1.00  0.00    -0.248 NA
ATOM     36  C   UNL A   1      39.385  26.418  29.160  1.00  0.00     0.031 C 
ATOM     37  C   UNL A   1      43.339  24.994  26.406  1.00  0.00     0.029 A 
ATOM     38  N   UNL A   1      43.423  26.986  27.414  1.00  0.00    -0.354 N 
ATOM     39  C   UNL A   1      40.036  28.577  29.545  1.00  0.00     0.074 A 
ATOM     40  C   UNL A   1      39.026  27.557  29.733  1.00  0.00     0.031 C 
ATOM     41  C   UNL A   1      44.579  25.479  26.234  1.00  0.00     0.029 A 
ATOM     42  C   UNL A   1      44.654  26.807  26.832  1.00  0.00     0.049 A 
ATOM     43  H   UNL A   1      43.183  27.790  27.929  1.00  0.00     0.167 HD
ATOM     44  C   UNL A   1      39.964  29.831  30.052  1.00  0.00     0.037 A 
ATOM     45  C   UNL A   1      45.715  27.632  26.751  1.00  0.00     0.037 A 
ATOM     46  C   UNL A   1      41.006  30.816  29.934  1.00  0.00     0.049 A 
ATOM     47  C   UNL A   1      45.620  29.011  27.336  1.00  0.00     0.074 A 
ATOM     48  C   UNL A   1      41.025  32.116  30.409  1.00  0.00     0.029 A 
ATOM     49  N   UNL A   1      42.230  30.595  29.324  1.00  0.00    -0.354 N 
ATOM     50  N   UNL A   1      44.622  29.568  27.977  1.00  0.00    -0.248 NA
ATOM     51  C   UNL A   1      46.787  29.886  27.158  1.00  0.00     0.031 C 
ATOM     52  C   UNL A   1      42.258  32.688  30.073  1.00  0.00     0.029 A 
ATOM     53  C   UNL A   1      43.015  31.733  29.412  1.00  0.00     0.049 A 
ATOM     54  H   UNL A   1      42.502  29.755  28.890  1.00  0.00     0.167 HD
ATOM     55  C   UNL A   1      45.037  30.857  28.277  1.00  0.00     0.074 A 
ATOM     56  C   UNL A   1      46.388  30.993  27.770  1.00  0.00     0.031 C 
ATOM     57  C   UNL A   1      44.356  31.847  28.903  1.00  0.00     0.037 A 
BRANCH  44  58
ATOM     58  C   UNL A   1      38.694  30.220  30.748  1.00  0.00     0.057 A 
ATOM     59  C   UNL A   1      37.617  30.801  30.071  1.00  0.00     0.134 A 
ATOM     60  C   UNL A   1      38.544  29.979  32.121  1.00  0.00     0.134 A 
ATOM     61  F   UNL A   1      37.704  31.073  28.761  1.00  0.00    -0.206 F 
ATOM     62  C   UNL A   1      36.440  31.148  30.738  1.00  0.00     0.040 A 
ATOM     63  C   UNL A   1      37.366  30.302  32.794  1.00  0.00     0.040 A 
ATOM     64  F   UNL A   1      39.539  29.422  32.828  1.00  0.00    -0.206 F 
ATOM     65  C   UNL A   1      36.310  30.892  32.103  1.00  0.00     0.006 A 
ENDBRANCH  44  58
BRANCH  45  66
ATOM     66  C   UNL A   1      46.944  27.186  26.050  1.00  0.00     0.057 A 
ATOM     67  C   UNL A   1      47.117  27.417  24.681  1.00  0.00     0.134 A 
ATOM     68  C   UNL A   1      47.977  26.532  26.733  1.00  0.00     0.134 A 
ATOM     69  F   UNL A   1      46.151  28.016  23.971  1.00  0.00    -0.206 F 
ATOM     70  C   UNL A   1      48.274  27.012  24.014  1.00  0.00     0.040 A 
ATOM     71  C   UNL A   1      49.149  26.143  26.084  1.00  0.00     0.040 A 
ATOM     72  F   UNL A   1      47.869  26.283  28.046  1.00  0.00    -0.206 F 
ATOM     73  C   UNL A   1      49.298  26.380  24.719  1.00  0.00     0.006 A 
ENDBRANCH  45  66
BRANCH  57  74
ATOM     74  C   UNL A   1      45.068  33.150  29.084  1.00  0.00     0.057 A 
ATOM     75  C   UNL A   1      45.871  33.395  30.203  1.00  0.00     0.134 A 
ATOM     76  C   UNL A   1      44.968  34.159  28.120  1.00  0.00     0.134 A 
ATOM     77  F   UNL A   1      45.994  32.470  31.167  1.00  0.00    -0.206 F 
ATOM     78  C   UNL A   1      46.539  34.609  30.368  1.00  0.00     0.040 A 
ATOM     79  C   UNL A   1      45.644  35.371  28.264  1.00  0.00     0.040 A 
ATOM     80  F   UNL A   1      44.216  33.981  27.024  1.00  0.00    -0.206 F 
ATOM     81  C   UNL A   1      46.429  35.600  29.393  1.00  0.00     0.006 A 
ENDBRANCH  57  74
ENDBRANCH  31  32
ENDBRANCH  24  26
ENDBRANCH  23  24
ENDBRANCH  22  23
ENDBRANCH   1  22
TORSDOF 14
ENDMDL
MODEL 2
REMARK VINA RESULT:     -11.7      2.770      7.391
REMARK SMILES Cc1cc(C(=O)N2C[C@@H](C(=O)OCCOC(=O)c3ccc(-c4c5nc(c(-c6c(F)cccc6F)c6ccc([nH]6)c(-c6c(F)cccc6F)c6nc(c(-c7c(F)cccc7F)c7ccc4[nH]7)C=C6)C=C5)cc3)[C@H](C3CC3)C2)sc1C
REMARK SMILES IDX 13 1 12 2 10 3 11 4 9 5 7 6 8 7 76 8 72 9 5 10 6 11 4 12
REMARK SMILES IDX 1 13 2 14 3 15 78 16 77 17 79 18 73 19 74 20 75 21 14 22
REMARK SMILES IDX 15 23 16 24 17 25 18 26 19 27 71 28 20 29 70 30 21 31 22 32
REMARK SMILES IDX 23 33 64 34 24 35 69 36 63 37 65 38 25 39 68 40 62 41 61 42
REMARK SMILES IDX 26 44 52 45 35 46 51 47 36 48 39 49 50 50 66 51 37 52 38 53
REMARK SMILES IDX 49 55 67 56 40 57 27 58 28 59 33 60 29 61 30 62 32 63 34 64
REMARK SMILES IDX 31 65 53 66 54 67 59 68 55 69 56 70 58 71 60 72 57 73 41 74
REMARK SMILES IDX 42 75 47 76 43 77 44 78 46 79 48 80 45 81
REMARK H PARENT 65 43 39 54
REMARK Flexibility Score: inf
ROOT
ATOM      1  C   UNL A   1      33.433  29.394  27.187  1.00  0.00     0.274 C 
ENDROOT
BRANCH   1   2
ATOM      2  O   UNL A   1      32.225  29.246  26.411  1.00  0.00    -0.462 OA
BRANCH   2   3
ATOM      3  C   UNL A   1      31.564  28.064  26.547  1.00  0.00     0.311 C 
ATOM      4  O   UNL A   1      31.122  27.629  27.602  1.00  0.00    -0.252 OA
BRANCH   3   5
ATOM      5  C   UNL A   1      31.466  27.337  25.228  1.00  0.00     0.124 C 
ATOM      6  N   UNL A   1      32.719  26.419  23.497  1.00  0.00    -0.337 N 
ATOM      7  C   UNL A   1      32.697  26.495  24.943  1.00  0.00     0.135 C 
ATOM      8  C   UNL A   1      32.239  27.661  22.934  1.00  0.00     0.124 C 
ATOM      9  C   UNL A   1      31.418  28.336  24.049  1.00  0.00     0.028 C 
BRANCH   6  10
ATOM     10  C   UNL A   1      33.358  25.492  22.688  1.00  0.00     0.263 C 
ATOM     11  O   UNL A   1      33.655  25.809  21.533  1.00  0.00    -0.268 OA
BRANCH  10  12
ATOM     12  C   UNL A   1      33.582  24.134  23.173  1.00  0.00     0.093 A 
ATOM     13  C   UNL A   1      32.194  20.917  24.564  1.00  0.00     0.045 C 
ATOM     14  C   UNL A   1      33.084  22.029  24.115  1.00  0.00    -0.037 A 
ATOM     15  C   UNL A   1      32.605  23.183  23.409  1.00  0.00     0.029 A 
ATOM     16  C   UNL A   1      34.447  22.125  24.342  1.00  0.00     0.005 A 
ATOM     17  S   UNL A   1      35.086  23.609  23.787  1.00  0.00    -0.135 S 
ATOM     18  C   UNL A   1      35.349  21.159  25.038  1.00  0.00     0.056 C 
ENDBRANCH  10  12
ENDBRANCH   6  10
BRANCH   9  19
ATOM     19  C   UNL A   1      30.044  28.738  23.566  1.00  0.00    -0.005 C 
ATOM     20  C   UNL A   1      29.514  30.152  23.502  1.00  0.00     0.004 C 
ATOM     21  C   UNL A   1      29.886  29.433  22.235  1.00  0.00     0.004 C 
ENDBRANCH   9  19
ENDBRANCH   3   5
ENDBRANCH   2   3
ENDBRANCH   1   2
BRANCH   1  22
ATOM     22  C   UNL A   1      33.707  30.856  27.523  1.00  0.00     0.275 C 
BRANCH  22  23
ATOM     23  O   UNL A   1      35.124  31.100  27.557  1.00  0.00    -0.458 OA
BRANCH  23  24
ATOM     24  C   UNL A   1      35.717  30.903  28.753  1.00  0.00     0.338 C 
ATOM     25  O   UNL A   1      35.322  31.262  29.853  1.00  0.00    -0.246 OA
BRANCH  24  26
ATOM     26  C   UNL A   1      36.931  30.097  28.581  1.00  0.00     0.060 A 
ATOM     27  C   UNL A   1      37.593  29.638  29.716  1.00  0.00     0.016 A 
ATOM     28  C   UNL A   1      37.511  29.952  27.323  1.00  0.00     0.016 A 
ATOM     29  C   UNL A   1      38.889  29.146  29.619  1.00  0.00     0.010 A 
ATOM     30  C   UNL A   1      38.772  29.353  27.215  1.00  0.00     0.010 A 
ATOM     31  C   UNL A   1      39.496  28.990  28.367  1.00  0.00    -0.014 A 
BRANCH  31  32
ATOM     32  C   UNL A   1      40.904  28.516  28.269  1.00  0.00     0.031 A 
ATOM     33  C   UNL A   1      42.039  29.469  28.540  1.00  0.00     0.074 A 
ATOM     34  C   UNL A   1      41.180  27.230  27.974  1.00  0.00     0.049 A 
ATOM     35  N   UNL A   1      43.318  29.319  28.312  1.00  0.00    -0.248 NA
ATOM     36  C   UNL A   1      41.684  30.771  29.129  1.00  0.00     0.031 C 
ATOM     37  C   UNL A   1      40.189  26.177  27.748  1.00  0.00     0.029 A 
ATOM     38  N   UNL A   1      42.384  26.586  27.832  1.00  0.00    -0.354 N 
ATOM     39  C   UNL A   1      43.910  30.529  28.655  1.00  0.00     0.074 A 
ATOM     40  C   UNL A   1      42.851  31.399  29.122  1.00  0.00     0.031 C 
ATOM     41  C   UNL A   1      40.823  25.011  27.548  1.00  0.00     0.029 A 
ATOM     42  C   UNL A   1      42.262  25.250  27.540  1.00  0.00     0.049 A 
ATOM     43  H   UNL A   1      43.252  27.039  27.929  1.00  0.00     0.167 HD
ATOM     44  C   UNL A   1      45.214  30.882  28.577  1.00  0.00     0.037 A 
ATOM     45  C   UNL A   1      43.198  24.325  27.257  1.00  0.00     0.037 A 
ATOM     46  C   UNL A   1      46.275  29.990  28.191  1.00  0.00     0.049 A 
ATOM     47  C   UNL A   1      44.640  24.734  27.194  1.00  0.00     0.074 A 
ATOM     48  C   UNL A   1      47.630  30.255  28.077  1.00  0.00     0.029 A 
ATOM     49  N   UNL A   1      46.104  28.649  27.890  1.00  0.00    -0.354 N 
ATOM     50  N   UNL A   1      45.174  25.911  27.412  1.00  0.00    -0.248 NA
ATOM     51  C   UNL A   1      45.607  23.693  26.816  1.00  0.00     0.031 C 
ATOM     52  C   UNL A   1      48.276  29.075  27.693  1.00  0.00     0.029 A 
ATOM     53  C   UNL A   1      47.327  28.071  27.594  1.00  0.00     0.049 A 
ATOM     54  H   UNL A   1      45.241  28.176  27.886  1.00  0.00     0.167 HD
ATOM     55  C   UNL A   1      46.535  25.756  27.195  1.00  0.00     0.074 A 
ATOM     56  C   UNL A   1      46.751  24.363  26.854  1.00  0.00     0.031 C 
ATOM     57  C   UNL A   1      47.519  26.685  27.258  1.00  0.00     0.037 A 
BRANCH  44  58
ATOM     58  C   UNL A   1      45.560  32.309  28.880  1.00  0.00     0.057 A 
ATOM     59  C   UNL A   1      45.809  32.760  30.181  1.00  0.00     0.134 A 
ATOM     60  C   UNL A   1      45.673  33.240  27.838  1.00  0.00     0.134 A 
ATOM     61  F   UNL A   1      45.700  31.923  31.223  1.00  0.00    -0.206 F 
ATOM     62  C   UNL A   1      46.137  34.093  30.439  1.00  0.00     0.040 A 
ATOM     63  C   UNL A   1      46.021  34.569  28.081  1.00  0.00     0.040 A 
ATOM     64  F   UNL A   1      45.451  32.871  26.568  1.00  0.00    -0.206 F 
ATOM     65  C   UNL A   1      46.251  35.000  29.386  1.00  0.00     0.006 A 
ENDBRANCH  44  58
BRANCH  45  66
ATOM     66  C   UNL A   1      42.790  22.928  26.969  1.00  0.00     0.057 A 
ATOM     67  C   UNL A   1      42.744  22.447  25.656  1.00  0.00     0.134 A 
ATOM     68  C   UNL A   1      42.450  22.040  27.997  1.00  0.00     0.134 A 
ATOM     69  F   UNL A   1      43.035  23.258  24.630  1.00  0.00    -0.206 F 
ATOM     70  C   UNL A   1      42.374  21.131  25.375  1.00  0.00     0.040 A 
ATOM     71  C   UNL A   1      42.101  20.716  27.732  1.00  0.00     0.040 A 
ATOM     72  F   UNL A   1      42.476  22.443  29.276  1.00  0.00    -0.206 F 
ATOM     73  C   UNL A   1      42.059  20.260  26.417  1.00  0.00     0.006 A 
ENDBRANCH  45  66
BRANCH  57  74
ATOM     74  C   UNL A   1      48.910  26.219  26.966  1.00  0.00     0.057 A 
ATOM     75  C   UNL A   1      49.485  26.380  25.700  1.00  0.00     0.134 A 
ATOM     76  C   UNL A   1      49.690  25.623  27.964  1.00  0.00     0.134 A 
ATOM     77  F   UNL A   1      48.782  26.932  24.700  1.00  0.00    -0.206 F 
ATOM     78  C   UNL A   1      50.784  25.949  25.431  1.00  0.00     0.040 A 
ATOM     79  C   UNL A   1      50.996  25.203  27.712  1.00  0.00     0.040 A 
ATOM     80  F   UNL A   1      49.195  25.444  29.198  1.00  0.00    -0.206 F 
ATOM     81  C   UNL A   1      51.545  25.362  26.441  1.00  0.00     0.006 A 
ENDBRANCH  57  74
ENDBRANCH  31  32
ENDBRANCH  24  26
ENDBRANCH  23  24
ENDBRANCH  22  23
ENDBRANCH   1  22
TORSDOF 14
ENDMDL
MODEL 3
REMARK VINA RESULT:     -11.7      1.518      2.605
REMARK SMILES Cc1cc(C(=O)N2C[C@@H](C(=O)OCCOC(=O)c3ccc(-c4c5nc(c(-c6c(F)cccc6F)c6ccc([nH]6)c(-c6c(F)cccc6F)c6nc(c(-c7c(F)cccc7F)c7ccc4[nH]7)C=C6)C=C5)cc3)[C@H](C3CC3)C2)sc1C
REMARK SMILES IDX 13 1 12 2 10 3 11 4 9 5 7 6 8 7 76 8 72 9 5 10 6 11 4 12
REMARK SMILES IDX 1 13 2 14 3 15 78 16 77 17 79 18 73 19 74 20 75 21 14 22
REMARK SMILES IDX 15 23 16 24 17 25 18 26 19 27 71 28 20 29 70 30 21 31 22 32
REMARK SMILES IDX 23 33 64 34 24 35 69 36 63 37 65 38 25 39 68 40 62 41 61 42
REMARK SMILES IDX 26 44 52 45 35 46 51 47 36 48 39 49 50 50 66 51 37 52 38 53
REMARK SMILES IDX 49 55 67 56 40 57 27 58 28 59 33 60 29 61 30 62 32 63 34 64
REMARK SMILES IDX 31 65 53 66 54 67 59 68 55 69 56 70 58 71 60 72 57 73 41 74
REMARK SMILES IDX 42 75 47 76 43 77 44 78 46 79 48 80 45 81
REMARK H PARENT 65 43 39 54
REMARK Flexibility Score: inf
ROOT
ATOM      1  C   UNL A   1      34.841  21.504  24.794  1.00  0.00     0.274 C 
ENDROOT
BRANCH   1   2
ATOM      2  O   UNL A   1      34.165  22.779  24.743  1.00  0.00    -0.462 OA
BRANCH   2   3
ATOM      3  C   UNL A   1      34.546  23.621  23.745  1.00  0.00     0.311 C 
ATOM      4  O   UNL A   1      35.202  23.292  22.766  1.00  0.00    -0.252 OA
BRANCH   3   5
ATOM      5  C   UNL A   1      34.078  25.031  24.010  1.00  0.00     0.124 C 
ATOM      6  N   UNL A   1      32.762  26.335  25.415  1.00  0.00    -0.337 N 
ATOM      7  C   UNL A   1      33.724  25.255  25.470  1.00  0.00     0.135 C 
ATOM      8  C   UNL A   1      31.949  26.208  24.227  1.00  0.00     0.124 C 
ATOM      9  C   UNL A   1      32.759  25.325  23.258  1.00  0.00     0.028 C 
BRANCH   6  10
ATOM     10  C   UNL A   1      32.386  27.212  26.422  1.00  0.00     0.263 C 
ATOM     11  O   UNL A   1      31.334  27.006  27.034  1.00  0.00    -0.268 OA
BRANCH  10  12
ATOM     12  C   UNL A   1      33.180  28.408  26.679  1.00  0.00     0.093 A 
ATOM     13  C   UNL A   1      36.492  29.973  27.570  1.00  0.00     0.045 C 
ATOM     14  C   UNL A   1      35.049  29.715  27.284  1.00  0.00    -0.037 A 
ATOM     15  C   UNL A   1      34.559  28.463  26.782  1.00  0.00     0.029 A 
ATOM     16  C   UNL A   1      34.005  30.601  27.494  1.00  0.00     0.005 A 
ATOM     17  S   UNL A   1      32.486  29.890  27.169  1.00  0.00    -0.135 S 
ATOM     18  C   UNL A   1      34.057  32.002  28.007  1.00  0.00     0.056 C 
ENDBRANCH  10  12
ENDBRANCH   6  10
BRANCH   9  19
ATOM     19  C   UNL A   1      32.891  25.965  21.897  1.00  0.00    -0.005 C 
ATOM     20  C   UNL A   1      32.728  25.255  20.572  1.00  0.00     0.004 C 
ATOM     21  C   UNL A   1      31.663  26.201  21.051  1.00  0.00     0.004 C 
ENDBRANCH   9  19
ENDBRANCH   3   5
ENDBRANCH   2   3
ENDBRANCH   1   2
BRANCH   1  22
ATOM     22  C   UNL A   1      36.019  21.533  25.762  1.00  0.00     0.275 C 
BRANCH  22  23
ATOM     23  O   UNL A   1      37.228  21.877  25.061  1.00  0.00    -0.458 OA
BRANCH  23  24
ATOM     24  C   UNL A   1      38.373  21.474  25.650  1.00  0.00     0.338 C 
ATOM     25  O   UNL A   1      38.903  20.375  25.582  1.00  0.00    -0.246 OA
BRANCH  24  26
ATOM     26  C   UNL A   1      38.986  22.597  26.369  1.00  0.00     0.060 A 
ATOM     27  C   UNL A   1      38.543  23.886  26.092  1.00  0.00     0.016 A 
ATOM     28  C   UNL A   1      40.108  22.395  27.170  1.00  0.00     0.016 A 
ATOM     29  C   UNL A   1      39.287  24.986  26.506  1.00  0.00     0.010 A 
ATOM     30  C   UNL A   1      40.793  23.505  27.679  1.00  0.00     0.010 A 
ATOM     31  C   UNL A   1      40.419  24.812  27.312  1.00  0.00    -0.014 A 
BRANCH  31  32
ATOM     32  C   UNL A   1      41.246  25.985  27.707  1.00  0.00     0.031 A 
ATOM     33  C   UNL A   1      40.679  27.028  28.633  1.00  0.00     0.074 A 
ATOM     34  C   UNL A   1      42.517  26.109  27.274  1.00  0.00     0.049 A 
ATOM     35  N   UNL A   1      41.148  28.212  28.933  1.00  0.00    -0.248 NA
ATOM     36  C   UNL A   1      39.405  26.703  29.296  1.00  0.00     0.031 C 
ATOM     37  C   UNL A   1      43.226  25.150  26.425  1.00  0.00     0.029 A 
ATOM     38  N   UNL A   1      43.446  27.093  27.507  1.00  0.00    -0.354 N 
ATOM     39  C   UNL A   1      40.193  28.802  29.753  1.00  0.00     0.074 A 
ATOM     40  C   UNL A   1      39.125  27.839  29.918  1.00  0.00     0.031 C 
ATOM     41  C   UNL A   1      44.490  25.565  26.252  1.00  0.00     0.029 A 
ATOM     42  C   UNL A   1      44.656  26.862  26.899  1.00  0.00     0.049 A 
ATOM     43  H   UNL A   1      43.263  27.889  28.056  1.00  0.00     0.167 HD
ATOM     44  C   UNL A   1      40.205  30.037  30.308  1.00  0.00     0.037 A 
ATOM     45  C   UNL A   1      45.764  27.624  26.833  1.00  0.00     0.037 A 
ATOM     46  C   UNL A   1      41.303  30.960  30.211  1.00  0.00     0.049 A 
ATOM     47  C   UNL A   1      45.761  28.981  27.471  1.00  0.00     0.074 A 
ATOM     48  C   UNL A   1      41.409  32.238  30.735  1.00  0.00     0.029 A 
ATOM     49  N   UNL A   1      42.503  30.690  29.573  1.00  0.00    -0.354 N 
ATOM     50  N   UNL A   1      44.809  29.572  28.150  1.00  0.00    -0.248 NA
ATOM     51  C   UNL A   1      46.978  29.790  27.308  1.00  0.00     0.031 C 
ATOM     52  C   UNL A   1      42.670  32.746  30.401  1.00  0.00     0.029 A 
ATOM     53  C   UNL A   1      43.357  31.773  29.692  1.00  0.00     0.049 A 
ATOM     54  H   UNL A   1      42.717  29.852  29.103  1.00  0.00     0.167 HD
ATOM     55  C   UNL A   1      45.306  30.821  28.491  1.00  0.00     0.074 A 
ATOM     56  C   UNL A   1      46.656  30.895  27.969  1.00  0.00     0.031 C 
ATOM     57  C   UNL A   1      44.695  31.825  29.166  1.00  0.00     0.037 A 
BRANCH  44  58
ATOM     58  C   UNL A   1      38.971  30.475  31.039  1.00  0.00     0.057 A 
ATOM     59  C   UNL A   1      38.036  31.349  30.474  1.00  0.00     0.134 A 
ATOM     60  C   UNL A   1      38.706  29.985  32.326  1.00  0.00     0.134 A 
ATOM     61  F   UNL A   1      38.241  31.867  29.254  1.00  0.00    -0.206 F 
ATOM     62  C   UNL A   1      36.890  31.737  31.170  1.00  0.00     0.040 A 
ATOM     63  C   UNL A   1      37.553  30.349  33.022  1.00  0.00     0.040 A 
ATOM     64  F   UNL A   1      39.560  29.140  32.922  1.00  0.00    -0.206 F 
ATOM     65  C   UNL A   1      36.643  31.231  32.446  1.00  0.00     0.006 A 
ENDBRANCH  44  58
BRANCH  45  66
ATOM     66  C   UNL A   1      46.953  27.131  26.096  1.00  0.00     0.057 A 
ATOM     67  C   UNL A   1      47.946  26.389  26.744  1.00  0.00     0.134 A 
ATOM     68  C   UNL A   1      47.118  27.378  24.727  1.00  0.00     0.134 A 
ATOM     69  F   UNL A   1      47.855  26.143  28.059  1.00  0.00    -0.206 F 
ATOM     70  C   UNL A   1      49.064  25.910  26.058  1.00  0.00     0.040 A 
ATOM     71  C   UNL A   1      48.217  26.885  24.024  1.00  0.00     0.040 A 
ATOM     72  F   UNL A   1      46.199  28.083  24.051  1.00  0.00    -0.206 F 
ATOM     73  C   UNL A   1      49.196  26.152  24.691  1.00  0.00     0.006 A 
ENDBRANCH  45  66
BRANCH  57  74
ATOM     74  C   UNL A   1      45.489  33.074  29.385  1.00  0.00     0.057 A 
ATOM     75  C   UNL A   1      45.436  34.142  28.481  1.00  0.00     0.134 A 
ATOM     76  C   UNL A   1      46.296  33.220  30.519  1.00  0.00     0.134 A 
ATOM     77  F   UNL A   1      44.691  34.054  27.369  1.00  0.00    -0.206 F 
ATOM     78  C   UNL A   1      46.174  35.308  28.689  1.00  0.00     0.040 A 
ATOM     79  C   UNL A   1      47.025  34.388  30.747  1.00  0.00     0.040 A 
ATOM     80  F   UNL A   1      46.384  32.233  31.422  1.00  0.00    -0.206 F 
ATOM     81  C   UNL A   1      46.968  35.434  29.827  1.00  0.00     0.006 A 
ENDBRANCH  57  74
ENDBRANCH  31  32
ENDBRANCH  24  26
ENDBRANCH  23  24
ENDBRANCH  22  23
ENDBRANCH   1  22
TORSDOF 14
ENDMDL
