MODEL 1
REMARK VINA RESULT:     -11.6      0.000      0.000
REMARK SMILES O=C(CN1C(=O)/C(=C/c2cccs2)SC1=S)Nc1ccc(O)cc1C(=O)OCCOC(=O)c1ccc(-c2c3nc(c(-c4c(F)cccc4F)c4ccc([nH]4)c(-c4c(F)cccc4F)c4nc(c(-c5c(F)cccc5F)c5ccc2[nH]5)C=C4)C=C3)cc1
REMARK SMILES IDX 28 1 27 2 25 3 26 4 24 5 18 6 19 7 20 8 23 9 21 10 17 11
REMARK SMILES IDX 1 12 2 13 3 15 4 16 5 17 15 18 6 19 7 20 14 21 16 22 8 23
REMARK SMILES IDX 9 24 10 25 13 26 11 27 12 28 22 29 29 31 30 32 31 33 32 34
REMARK SMILES IDX 33 35 34 36 86 37 35 38 85 39 36 40 37 41 38 42 79 43 39 44
REMARK SMILES IDX 84 45 78 46 80 47 40 48 83 49 77 50 76 51 41 53 67 54 50 55
REMARK SMILES IDX 66 56 51 57 54 58 65 59 81 60 52 61 53 62 64 64 82 65 55 66
REMARK SMILES IDX 42 67 43 68 48 69 44 70 45 71 47 72 49 73 46 74 68 75 69 76
REMARK SMILES IDX 74 77 70 78 71 79 73 80 75 81 72 82 56 83 57 84 62 85 58 86
REMARK SMILES IDX 59 87 61 88 63 89 60 90
REMARK H PARENT 17 14 22 30 80 52 54 63
REMARK Flexibility Score: inf
ROOT
ATOM      1  C   UNL A   1      32.087  29.465  26.207  1.00  0.00     0.275 C 
ENDROOT
BRANCH   1   2
ATOM      2  O   UNL A   1      31.634  30.187  25.040  1.00  0.00    -0.458 OA
BRANCH   2   3
ATOM      3  C   UNL A   1      31.404  29.409  23.947  1.00  0.00     0.340 C 
ATOM      4  O   UNL A   1      32.257  28.787  23.332  1.00  0.00    -0.246 OA
BRANCH   3   5
ATOM      5  C   UNL A   1      29.953  29.298  23.622  1.00  0.00     0.087 A 
ATOM      6  C   UNL A   1      29.265  28.105  23.312  1.00  0.00     0.056 A 
ATOM      7  C   UNL A   1      27.894  28.203  23.005  1.00  0.00     0.031 A 
ATOM      8  C   UNL A   1      27.226  29.433  22.976  1.00  0.00     0.048 A 
ATOM      9  C   UNL A   1      29.258  30.527  23.627  1.00  0.00     0.064 A 
ATOM     10  C   UNL A   1      27.919  30.588  23.276  1.00  0.00     0.116 A 
BRANCH   6  11
ATOM     11  N   UNL A   1      29.944  26.855  23.286  1.00  0.00    -0.324 N 
ATOM     12  O   UNL A   1      29.965  26.283  25.535  1.00  0.00    -0.273 OA
ATOM     13  C   UNL A   1      30.161  26.002  24.352  1.00  0.00     0.244 C 
ATOM     14  H   UNL A   1      30.296  26.565  22.413  1.00  0.00     0.170 HD
BRANCH  13  15
ATOM     15  C   UNL A   1      30.819  24.656  24.031  1.00  0.00     0.227 C 
BRANCH  15  16
ATOM     16  N   UNL A   1      32.062  24.292  24.709  1.00  0.00    -0.283 N 
ATOM     17  C   UNL A   1      33.253  24.540  24.047  1.00  0.00     0.266 C 
ATOM     18  C   UNL A   1      32.136  23.494  25.831  1.00  0.00     0.148 C 
ATOM     19  O   UNL A   1      33.365  25.185  23.015  1.00  0.00    -0.268 OA
ATOM     20  C   UNL A   1      34.386  23.889  24.750  1.00  0.00     0.081 C 
ATOM     21  S   UNL A   1      33.807  23.028  26.120  1.00  0.00    -0.054 SA
ATOM     22  S   UNL A   1      30.898  22.972  26.816  1.00  0.00    -0.052 S 
ATOM     23  C   UNL A   1      35.648  24.008  24.315  1.00  0.00     0.040 C 
BRANCH  23  24
ATOM     24  C   UNL A   1      36.739  23.326  24.919  1.00  0.00     0.028 A 
ATOM     25  C   UNL A   1      37.630  23.789  25.871  1.00  0.00     0.020 A 
ATOM     26  S   UNL A   1      37.073  21.690  24.518  1.00  0.00    -0.144 S 
ATOM     27  C   UNL A   1      38.599  22.815  26.244  1.00  0.00     0.012 A 
ATOM     28  C   UNL A   1      38.419  21.629  25.570  1.00  0.00     0.065 A 
ENDBRANCH  23  24
ENDBRANCH  15  16
ENDBRANCH  13  15
ENDBRANCH   6  11
BRANCH  10  29
ATOM     29  O   UNL A   1      27.333  31.815  23.217  1.00  0.00    -0.508 OA
ATOM     30  H   UNL A   1      26.557  31.987  23.714  1.00  0.00     0.293 HD
ENDBRANCH  10  29
ENDBRANCH   3   5
ENDBRANCH   2   3
ENDBRANCH   1   2
BRANCH   1  31
ATOM     31  C   UNL A   1      32.750  30.422  27.195  1.00  0.00     0.275 C 
BRANCH  31  32
ATOM     32  O   UNL A   1      34.033  29.906  27.588  1.00  0.00    -0.458 OA
BRANCH  32  33
ATOM     33  C   UNL A   1      34.760  30.697  28.407  1.00  0.00     0.338 C 
ATOM     34  O   UNL A   1      34.391  31.713  28.984  1.00  0.00    -0.246 OA
BRANCH  33  35
ATOM     35  C   UNL A   1      36.123  30.156  28.512  1.00  0.00     0.060 A 
ATOM     36  C   UNL A   1      36.565  29.634  29.727  1.00  0.00     0.016 A 
ATOM     37  C   UNL A   1      36.991  30.231  27.423  1.00  0.00     0.016 A 
ATOM     38  C   UNL A   1      37.886  29.213  29.870  1.00  0.00     0.010 A 
ATOM     39  C   UNL A   1      38.300  29.753  27.549  1.00  0.00     0.010 A 
ATOM     40  C   UNL A   1      38.769  29.261  28.780  1.00  0.00    -0.014 A 
BRANCH  40  41
ATOM     41  C   UNL A   1      40.188  28.839  28.951  1.00  0.00     0.031 A 
ATOM     42  C   UNL A   1      41.176  29.757  29.622  1.00  0.00     0.074 A 
ATOM     43  C   UNL A   1      40.589  27.620  28.539  1.00  0.00     0.049 A 
ATOM     44  N   UNL A   1      42.466  29.603  29.792  1.00  0.00    -0.248 NA
ATOM     45  C   UNL A   1      40.647  31.017  30.165  1.00  0.00     0.031 C 
ATOM     46  C   UNL A   1      39.735  26.619  27.898  1.00  0.00     0.029 A 
ATOM     47  N   UNL A   1      41.817  27.008  28.613  1.00  0.00    -0.354 N 
ATOM     48  C   UNL A   1      42.906  30.760  30.425  1.00  0.00     0.074 A 
ATOM     49  C   UNL A   1      41.750  31.612  30.596  1.00  0.00     0.031 C 
ATOM     50  C   UNL A   1      40.451  25.505  27.681  1.00  0.00     0.029 A 
ATOM     51  C   UNL A   1      41.827  25.730  28.109  1.00  0.00     0.049 A 
ATOM     52  H   UNL A   1      42.614  27.445  28.994  1.00  0.00     0.167 HD
ATOM     53  C   UNL A   1      44.159  31.081  30.831  1.00  0.00     0.037 A 
ATOM     54  C   UNL A   1      42.835  24.844  27.988  1.00  0.00     0.037 A 
ATOM     55  C   UNL A   1      45.305  30.218  30.705  1.00  0.00     0.049 A 
ATOM     56  C   UNL A   1      44.215  25.228  28.443  1.00  0.00     0.074 A 
ATOM     57  C   UNL A   1      46.613  30.459  31.090  1.00  0.00     0.029 A 
ATOM     58  N   UNL A   1      45.276  28.941  30.167  1.00  0.00    -0.354 N 
ATOM     59  N   UNL A   1      44.622  26.341  29.002  1.00  0.00    -0.248 NA
ATOM     60  C   UNL A   1      45.279  24.234  28.237  1.00  0.00     0.031 C 
ATOM     61  C   UNL A   1      47.381  29.334  30.764  1.00  0.00     0.029 A 
ATOM     62  C   UNL A   1      46.543  28.382  30.209  1.00  0.00     0.049 A 
ATOM     63  H   UNL A   1      44.474  28.497  29.810  1.00  0.00     0.167 HD
ATOM     64  C   UNL A   1      45.983  26.180  29.222  1.00  0.00     0.074 A 
ATOM     65  C   UNL A   1      46.328  24.851  28.761  1.00  0.00     0.031 C 
ATOM     66  C   UNL A   1      46.871  27.058  29.749  1.00  0.00     0.037 A 
BRANCH  53  67
ATOM     67  C   UNL A   1      44.362  32.438  31.439  1.00  0.00     0.057 A 
ATOM     68  C   UNL A   1      44.660  33.563  30.659  1.00  0.00     0.134 A 
ATOM     69  C   UNL A   1      44.218  32.627  32.819  1.00  0.00     0.134 A 
ATOM     70  F   UNL A   1      44.825  33.446  29.334  1.00  0.00    -0.206 F 
ATOM     71  C   UNL A   1      44.826  34.825  31.234  1.00  0.00     0.040 A 
ATOM     72  C   UNL A   1      44.358  33.886  33.403  1.00  0.00     0.040 A 
ATOM     73  F   UNL A   1      43.926  31.592  33.622  1.00  0.00    -0.206 F 
ATOM     74  C   UNL A   1      44.668  34.989  32.609  1.00  0.00     0.006 A 
ENDBRANCH  53  67
BRANCH  54  75
ATOM     75  C   UNL A   1      42.582  23.506  27.398  1.00  0.00     0.057 A 
ATOM     76  C   UNL A   1      42.724  23.283  26.023  1.00  0.00     0.134 A 
ATOM     77  C   UNL A   1      42.177  22.424  28.189  1.00  0.00     0.134 A 
ATOM     78  F   UNL A   1      43.082  24.288  25.210  1.00  0.00    -0.206 F 
ATOM     79  C   UNL A   1      42.460  22.037  25.453  1.00  0.00     0.040 A 
ATOM     80  C   UNL A   1      41.936  21.165  27.637  1.00  0.00     0.040 A 
ATOM     81  F   UNL A   1      42.021  22.573  29.512  1.00  0.00    -0.206 F 
ATOM     82  C   UNL A   1      42.071  20.971  26.264  1.00  0.00     0.006 A 
ENDBRANCH  54  75
BRANCH  66  83
ATOM     83  C   UNL A   1      48.291  26.597  29.872  1.00  0.00     0.057 A 
ATOM     84  C   UNL A   1      48.741  25.892  30.996  1.00  0.00     0.134 A 
ATOM     85  C   UNL A   1      49.216  26.849  28.852  1.00  0.00     0.134 A 
ATOM     86  F   UNL A   1      47.906  25.632  32.013  1.00  0.00    -0.206 F 
ATOM     87  C   UNL A   1      50.068  25.477  31.112  1.00  0.00     0.040 A 
ATOM     88  C   UNL A   1      50.541  26.420  28.947  1.00  0.00     0.040 A 
ATOM     89  F   UNL A   1      48.848  27.514  27.746  1.00  0.00    -0.206 F 
ATOM     90  C   UNL A   1      50.972  25.738  30.083  1.00  0.00     0.006 A 
ENDBRANCH  66  83
ENDBRANCH  40  41
ENDBRANCH  33  35
ENDBRANCH  32  33
ENDBRANCH  31  32
ENDBRANCH   1  31
TORSDOF 16
ENDMDL
MODEL 2
REMARK VINA RESULT:     -11.6      3.530      8.713
REMARK SMILES O=C(CN1C(=O)/C(=C/c2cccs2)SC1=S)Nc1ccc(O)cc1C(=O)OCCOC(=O)c1ccc(-c2c3nc(c(-c4c(F)cccc4F)c4ccc([nH]4)c(-c4c(F)cccc4F)c4nc(c(-c5c(F)cccc5F)c5ccc2[nH]5)C=C4)C=C3)cc1
REMARK SMILES IDX 28 1 27 2 25 3 26 4 24 5 18 6 19 7 20 8 23 9 21 10 17 11
REMARK SMILES IDX 1 12 2 13 3 15 4 16 5 17 15 18 6 19 7 20 14 21 16 22 8 23
REMARK SMILES IDX 9 24 10 25 13 26 11 27 12 28 22 29 29 31 30 32 31 33 32 34
REMARK SMILES IDX 33 35 34 36 86 37 35 38 85 39 36 40 37 41 38 42 79 43 39 44
REMARK SMILES IDX 84 45 78 46 80 47 40 48 83 49 77 50 76 51 41 53 67 54 50 55
REMARK SMILES IDX 66 56 51 57 54 58 65 59 81 60 52 61 53 62 64 64 82 65 55 66
REMARK SMILES IDX 42 67 43 68 48 69 44 70 45 71 47 72 49 73 46 74 68 75 69 76
REMARK SMILES IDX 74 77 70 78 71 79 73 80 75 81 72 82 56 83 57 84 62 85 58 86
REMARK SMILES IDX 59 87 61 88 63 89 60 90
REMARK H PARENT 17 14 22 30 80 52 54 63
REMARK Flexibility Score: inf
ROOT
ATOM      1  C   UNL A   1      36.174  22.038  24.669  1.00  0.00     0.275 C 
ENDROOT
BRANCH   1   2
ATOM      2  O   UNL A   1      35.877  20.771  25.300  1.00  0.00    -0.458 OA
BRANCH   2   3
ATOM      3  C   UNL A   1      34.565  20.588  25.611  1.00  0.00     0.340 C 
ATOM      4  O   UNL A   1      33.977  21.129  26.534  1.00  0.00    -0.246 OA
BRANCH   3   5
ATOM      5  C   UNL A   1      33.862  19.717  24.626  1.00  0.00     0.087 A 
ATOM      6  C   UNL A   1      32.731  20.079  23.863  1.00  0.00     0.056 A 
ATOM      7  C   UNL A   1      32.187  19.109  23.000  1.00  0.00     0.031 A 
ATOM      8  C   UNL A   1      32.719  17.817  22.907  1.00  0.00     0.048 A 
ATOM      9  C   UNL A   1      34.411  18.424  24.493  1.00  0.00     0.064 A 
ATOM     10  C   UNL A   1      33.822  17.481  23.667  1.00  0.00     0.116 A 
BRANCH   6  11
ATOM     11  N   UNL A   1      32.148  21.372  23.986  1.00  0.00    -0.324 N 
ATOM     12  O   UNL A   1      33.306  22.568  22.370  1.00  0.00    -0.273 OA
ATOM     13  C   UNL A   1      32.395  22.476  23.194  1.00  0.00     0.244 C 
ATOM     14  H   UNL A   1      31.497  21.492  24.716  1.00  0.00     0.170 HD
BRANCH  13  15
ATOM     15  C   UNL A   1      31.544  23.721  23.467  1.00  0.00     0.227 C 
BRANCH  15  16
ATOM     16  N   UNL A   1      32.205  24.958  23.881  1.00  0.00    -0.283 N 
ATOM     17  C   UNL A   1      32.245  25.243  25.236  1.00  0.00     0.266 C 
ATOM     18  C   UNL A   1      32.560  25.979  23.026  1.00  0.00     0.148 C 
ATOM     19  O   UNL A   1      31.921  24.474  26.129  1.00  0.00    -0.268 OA
ATOM     20  C   UNL A   1      32.715  26.632  25.463  1.00  0.00     0.081 C 
ATOM     21  S   UNL A   1      33.008  27.403  23.955  1.00  0.00    -0.054 SA
ATOM     22  S   UNL A   1      32.575  25.980  21.361  1.00  0.00    -0.052 S 
ATOM     23  C   UNL A   1      32.864  27.134  26.697  1.00  0.00     0.040 C 
BRANCH  23  24
ATOM     24  C   UNL A   1      33.229  28.486  26.941  1.00  0.00     0.028 A 
ATOM     25  C   UNL A   1      34.484  29.013  27.190  1.00  0.00     0.020 A 
ATOM     26  S   UNL A   1      32.043  29.728  26.911  1.00  0.00    -0.144 S 
ATOM     27  C   UNL A   1      34.465  30.422  27.387  1.00  0.00     0.012 A 
ATOM     28  C   UNL A   1      33.194  30.938  27.276  1.00  0.00     0.065 A 
ENDBRANCH  23  24
ENDBRANCH  15  16
ENDBRANCH  13  15
ENDBRANCH   6  11
BRANCH  10  29
ATOM     29  O   UNL A   1      34.351  16.228  23.652  1.00  0.00    -0.508 OA
ATOM     30  H   UNL A   1      33.787  15.480  23.690  1.00  0.00     0.293 HD
ENDBRANCH  10  29
ENDBRANCH   3   5
ENDBRANCH   2   3
ENDBRANCH   1   2
BRANCH   1  31
ATOM     31  C   UNL A   1      36.606  23.061  25.717  1.00  0.00     0.275 C 
BRANCH  31  32
ATOM     32  O   UNL A   1      37.852  23.661  25.329  1.00  0.00    -0.458 OA
BRANCH  32  33
ATOM     33  C   UNL A   1      38.933  23.295  26.052  1.00  0.00     0.338 C 
ATOM     34  O   UNL A   1      39.474  22.195  26.081  1.00  0.00    -0.246 OA
BRANCH  33  35
ATOM     35  C   UNL A   1      39.390  24.443  26.849  1.00  0.00     0.060 A 
ATOM     36  C   UNL A   1      39.078  24.507  28.206  1.00  0.00     0.016 A 
ATOM     37  C   UNL A   1      40.070  25.495  26.235  1.00  0.00     0.016 A 
ATOM     38  C   UNL A   1      39.415  25.636  28.951  1.00  0.00     0.010 A 
ATOM     39  C   UNL A   1      40.462  26.601  26.996  1.00  0.00     0.010 A 
ATOM     40  C   UNL A   1      40.118  26.695  28.356  1.00  0.00    -0.014 A 
BRANCH  40  41
ATOM     41  C   UNL A   1      40.445  27.911  29.152  1.00  0.00     0.031 A 
ATOM     42  C   UNL A   1      41.811  28.071  29.766  1.00  0.00     0.074 A 
ATOM     43  C   UNL A   1      39.534  28.894  29.298  1.00  0.00     0.049 A 
ATOM     44  N   UNL A   1      42.260  29.015  30.555  1.00  0.00    -0.248 NA
ATOM     45  C   UNL A   1      42.801  27.026  29.461  1.00  0.00     0.031 C 
ATOM     46  C   UNL A   1      38.182  28.886  28.736  1.00  0.00     0.029 A 
ATOM     47  N   UNL A   1      39.614  30.100  29.951  1.00  0.00    -0.354 N 
ATOM     48  C   UNL A   1      43.566  28.659  30.870  1.00  0.00     0.074 A 
ATOM     49  C   UNL A   1      43.834  27.406  30.200  1.00  0.00     0.031 C 
ATOM     50  C   UNL A   1      37.579  30.048  29.029  1.00  0.00     0.029 A 
ATOM     51  C   UNL A   1      38.473  30.859  29.848  1.00  0.00     0.049 A 
ATOM     52  H   UNL A   1      40.415  30.393  30.445  1.00  0.00     0.167 HD
ATOM     53  C   UNL A   1      44.464  29.318  31.644  1.00  0.00     0.037 A 
ATOM     54  C   UNL A   1      38.173  32.064  30.369  1.00  0.00     0.037 A 
ATOM     55  C   UNL A   1      44.219  30.588  32.276  1.00  0.00     0.049 A 
ATOM     56  C   UNL A   1      39.185  32.772  31.227  1.00  0.00     0.074 A 
ATOM     57  C   UNL A   1      45.069  31.333  33.077  1.00  0.00     0.029 A 
ATOM     58  N   UNL A   1      43.041  31.312  32.165  1.00  0.00    -0.354 N 
ATOM     59  N   UNL A   1      40.400  32.402  31.548  1.00  0.00    -0.248 NA
ATOM     60  C   UNL A   1      38.775  34.060  31.805  1.00  0.00     0.031 C 
ATOM     61  C   UNL A   1      44.397  32.496  33.469  1.00  0.00     0.029 A 
ATOM     62  C   UNL A   1      43.142  32.492  32.884  1.00  0.00     0.049 A 
ATOM     63  H   UNL A   1      42.251  31.029  31.651  1.00  0.00     0.167 HD
ATOM     64  C   UNL A   1      40.903  33.412  32.356  1.00  0.00     0.074 A 
ATOM     65  C   UNL A   1      39.871  34.423  32.455  1.00  0.00     0.031 C 
ATOM     66  C   UNL A   1      42.109  33.490  32.971  1.00  0.00     0.037 A 
BRANCH  53  67
ATOM     67  C   UNL A   1      45.796  28.666  31.865  1.00  0.00     0.057 A 
ATOM     68  C   UNL A   1      46.018  27.770  32.919  1.00  0.00     0.134 A 
ATOM     69  C   UNL A   1      46.861  28.909  30.988  1.00  0.00     0.134 A 
ATOM     70  F   UNL A   1      45.044  27.506  33.802  1.00  0.00    -0.206 F 
ATOM     71  C   UNL A   1      47.257  27.153  33.103  1.00  0.00     0.040 A 
ATOM     72  C   UNL A   1      48.097  28.281  31.147  1.00  0.00     0.040 A 
ATOM     73  F   UNL A   1      46.713  29.751  29.953  1.00  0.00    -0.206 F 
ATOM     74  C   UNL A   1      48.298  27.403  32.210  1.00  0.00     0.006 A 
ENDBRANCH  53  67
BRANCH  54  75
ATOM     75  C   UNL A   1      36.848  32.680  30.106  1.00  0.00     0.057 A 
ATOM     76  C   UNL A   1      35.748  32.407  30.930  1.00  0.00     0.134 A 
ATOM     77  C   UNL A   1      36.644  33.539  29.020  1.00  0.00     0.134 A 
ATOM     78  F   UNL A   1      35.875  31.569  31.970  1.00  0.00    -0.206 F 
ATOM     79  C   UNL A   1      34.491  32.956  30.675  1.00  0.00     0.040 A 
ATOM     80  C   UNL A   1      35.398  34.115  28.769  1.00  0.00     0.040 A 
ATOM     81  F   UNL A   1      37.656  33.837  28.194  1.00  0.00    -0.206 F 
ATOM     82  C   UNL A   1      34.316  33.819  29.594  1.00  0.00     0.006 A 
ENDBRANCH  54  75
BRANCH  66  83
ATOM     83  C   UNL A   1      42.378  34.720  33.784  1.00  0.00     0.057 A 
ATOM     84  C   UNL A   1      42.912  35.880  33.208  1.00  0.00     0.134 A 
ATOM     85  C   UNL A   1      42.091  34.749  35.154  1.00  0.00     0.134 A 
ATOM     86  F   UNL A   1      43.221  35.910  31.903  1.00  0.00    -0.206 F 
ATOM     87  C   UNL A   1      43.173  37.018  33.972  1.00  0.00     0.040 A 
ATOM     88  C   UNL A   1      42.329  35.888  35.924  1.00  0.00     0.040 A 
ATOM     89  F   UNL A   1      41.573  33.672  35.765  1.00  0.00    -0.206 F 
ATOM     90  C   UNL A   1      42.878  37.025  35.334  1.00  0.00     0.006 A 
ENDBRANCH  66  83
ENDBRANCH  40  41
ENDBRANCH  33  35
ENDBRANCH  32  33
ENDBRANCH  31  32
ENDBRANCH   1  31
TORSDOF 16
ENDMDL
MODEL 3
REMARK VINA RESULT:     -11.5      3.404      8.440
REMARK SMILES O=C(CN1C(=O)/C(=C/c2cccs2)SC1=S)Nc1ccc(O)cc1C(=O)OCCOC(=O)c1ccc(-c2c3nc(c(-c4c(F)cccc4F)c4ccc([nH]4)c(-c4c(F)cccc4F)c4nc(c(-c5c(F)cccc5F)c5ccc2[nH]5)C=C4)C=C3)cc1
REMARK SMILES IDX 28 1 27 2 25 3 26 4 24 5 18 6 19 7 20 8 23 9 21 10 17 11
REMARK SMILES IDX 1 12 2 13 3 15 4 16 5 17 15 18 6 19 7 20 14 21 16 22 8 23
REMARK SMILES IDX 9 24 10 25 13 26 11 27 12 28 22 29 29 31 30 32 31 33 32 34
REMARK SMILES IDX 33 35 34 36 86 37 35 38 85 39 36 40 37 41 38 42 79 43 39 44
REMARK SMILES IDX 84 45 78 46 80 47 40 48 83 49 77 50 76 51 41 53 67 54 50 55
REMARK SMILES IDX 66 56 51 57 54 58 65 59 81 60 52 61 53 62 64 64 82 65 55 66
REMARK SMILES IDX 42 67 43 68 48 69 44 70 45 71 47 72 49 73 46 74 68 75 69 76
REMARK SMILES IDX 74 77 70 78 71 79 73 80 75 81 72 82 56 83 57 84 62 85 58 86
REMARK SMILES IDX 59 87 61 88 63 89 60 90
REMARK H PARENT 17 14 22 30 80 52 54 63
REMARK Flexibility Score: inf
ROOT
ATOM      1  C   UNL A   1      36.186  21.877  24.253  1.00  0.00     0.275 C 
ENDROOT
BRANCH   1   2
ATOM      2  O   UNL A   1      35.953  20.925  25.315  1.00  0.00    -0.458 OA
BRANCH   2   3
ATOM      3  C   UNL A   1      34.644  20.760  25.651  1.00  0.00     0.340 C 
ATOM      4  O   UNL A   1      34.075  21.333  26.567  1.00  0.00    -0.246 OA
BRANCH   3   5
ATOM      5  C   UNL A   1      33.920  19.866  24.702  1.00  0.00     0.087 A 
ATOM      6  C   UNL A   1      32.773  20.211  23.955  1.00  0.00     0.056 A 
ATOM      7  C   UNL A   1      32.211  19.221  23.127  1.00  0.00     0.031 A 
ATOM      8  C   UNL A   1      32.740  17.926  23.055  1.00  0.00     0.048 A 
ATOM      9  C   UNL A   1      34.466  18.570  24.590  1.00  0.00     0.064 A 
ATOM     10  C   UNL A   1      33.858  17.608  23.800  1.00  0.00     0.116 A 
BRANCH   6  11
ATOM     11  N   UNL A   1      32.195  21.507  24.059  1.00  0.00    -0.324 N 
ATOM     12  O   UNL A   1      32.941  22.516  22.107  1.00  0.00    -0.273 OA
ATOM     13  C   UNL A   1      32.233  22.515  23.115  1.00  0.00     0.244 C 
ATOM     14  H   UNL A   1      31.713  21.707  24.895  1.00  0.00     0.170 HD
BRANCH  13  15
ATOM     15  C   UNL A   1      31.426  23.780  23.428  1.00  0.00     0.227 C 
BRANCH  15  16
ATOM     16  N   UNL A   1      32.131  24.985  23.860  1.00  0.00    -0.283 N 
ATOM     17  C   UNL A   1      32.152  25.267  25.216  1.00  0.00     0.266 C 
ATOM     18  C   UNL A   1      32.552  25.991  23.015  1.00  0.00     0.148 C 
ATOM     19  O   UNL A   1      31.772  24.513  26.100  1.00  0.00    -0.268 OA
ATOM     20  C   UNL A   1      32.677  26.634  25.457  1.00  0.00     0.081 C 
ATOM     21  S   UNL A   1      33.041  27.393  23.957  1.00  0.00    -0.054 SA
ATOM     22  S   UNL A   1      32.606  25.992  21.351  1.00  0.00    -0.052 S 
ATOM     23  C   UNL A   1      32.820  27.127  26.694  1.00  0.00     0.040 C 
BRANCH  23  24
ATOM     24  C   UNL A   1      33.239  28.461  26.949  1.00  0.00     0.028 A 
ATOM     25  C   UNL A   1      34.512  28.933  27.218  1.00  0.00     0.020 A 
ATOM     26  S   UNL A   1      32.108  29.753  26.909  1.00  0.00    -0.144 S 
ATOM     27  C   UNL A   1      34.550  30.341  27.421  1.00  0.00     0.012 A 
ATOM     28  C   UNL A   1      33.305  30.911  27.295  1.00  0.00     0.065 A 
ENDBRANCH  23  24
ENDBRANCH  15  16
ENDBRANCH  13  15
ENDBRANCH   6  11
BRANCH  10  29
ATOM     29  O   UNL A   1      34.386  16.354  23.804  1.00  0.00    -0.508 OA
ATOM     30  H   UNL A   1      35.315  16.236  23.798  1.00  0.00     0.293 HD
ENDBRANCH  10  29
ENDBRANCH   3   5
ENDBRANCH   2   3
ENDBRANCH   1   2
BRANCH   1  31
ATOM     31  C   UNL A   1      36.844  23.138  24.810  1.00  0.00     0.275 C 
BRANCH  31  32
ATOM     32  O   UNL A   1      37.385  22.870  26.113  1.00  0.00    -0.458 OA
BRANCH  32  33
ATOM     33  C   UNL A   1      38.728  22.743  26.179  1.00  0.00     0.338 C 
ATOM     34  O   UNL A   1      39.401  21.765  25.874  1.00  0.00    -0.246 OA
BRANCH  33  35
ATOM     35  C   UNL A   1      39.305  23.991  26.702  1.00  0.00     0.060 A 
ATOM     36  C   UNL A   1      39.161  24.302  28.054  1.00  0.00     0.016 A 
ATOM     37  C   UNL A   1      39.931  24.889  25.838  1.00  0.00     0.016 A 
ATOM     38  C   UNL A   1      39.611  25.526  28.544  1.00  0.00     0.010 A 
ATOM     39  C   UNL A   1      40.437  26.092  26.342  1.00  0.00     0.010 A 
ATOM     40  C   UNL A   1      40.262  26.435  27.695  1.00  0.00    -0.014 A 
BRANCH  40  41
ATOM     41  C   UNL A   1      40.712  27.754  28.220  1.00  0.00     0.031 A 
ATOM     42  C   UNL A   1      42.176  28.107  28.230  1.00  0.00     0.074 A 
ATOM     43  C   UNL A   1      39.809  28.656  28.657  1.00  0.00     0.049 A 
ATOM     44  N   UNL A   1      42.769  29.169  28.717  1.00  0.00    -0.248 NA
ATOM     45  C   UNL A   1      43.097  27.135  27.621  1.00  0.00     0.031 C 
ATOM     46  C   UNL A   1      38.359  28.459  28.680  1.00  0.00     0.029 A 
ATOM     47  N   UNL A   1      39.979  29.926  29.150  1.00  0.00    -0.354 N 
ATOM     48  C   UNL A   1      44.129  28.975  28.508  1.00  0.00     0.074 A 
ATOM     49  C   UNL A   1      44.277  27.688  27.863  1.00  0.00     0.031 C 
ATOM     50  C   UNL A   1      37.771  29.583  29.117  1.00  0.00     0.029 A 
ATOM     51  C   UNL A   1      38.799  30.558  29.464  1.00  0.00     0.049 A 
ATOM     52  H   UNL A   1      40.863  30.345  29.267  1.00  0.00     0.167 HD
ATOM     53  C   UNL A   1      45.162  29.795  28.820  1.00  0.00     0.037 A 
ATOM     54  C   UNL A   1      38.571  31.777  29.987  1.00  0.00     0.037 A 
ATOM     55  C   UNL A   1      45.019  31.096  29.420  1.00  0.00     0.049 A 
ATOM     56  C   UNL A   1      39.735  32.665  30.328  1.00  0.00     0.074 A 
ATOM     57  C   UNL A   1      46.009  31.999  29.771  1.00  0.00     0.029 A 
ATOM     58  N   UNL A   1      43.808  31.688  29.743  1.00  0.00    -0.354 N 
ATOM     59  N   UNL A   1      41.017  32.449  30.161  1.00  0.00    -0.248 NA
ATOM     60  C   UNL A   1      39.419  33.963  30.943  1.00  0.00     0.031 C 
ATOM     61  C   UNL A   1      45.397  33.129  30.327  1.00  0.00     0.029 A 
ATOM     62  C   UNL A   1      44.025  32.942  30.290  1.00  0.00     0.049 A 
ATOM     63  H   UNL A   1      42.924  31.278  29.604  1.00  0.00     0.167 HD
ATOM     64  C   UNL A   1      41.658  33.583  30.641  1.00  0.00     0.074 A 
ATOM     65  C   UNL A   1      40.624  34.496  31.081  1.00  0.00     0.031 C 
ATOM     66  C   UNL A   1      42.986  33.840  30.720  1.00  0.00     0.037 A 
BRANCH  53  67
ATOM     67  C   UNL A   1      46.549  29.300  28.533  1.00  0.00     0.057 A 
ATOM     68  C   UNL A   1      47.192  29.561  27.316  1.00  0.00     0.134 A 
ATOM     69  C   UNL A   1      47.264  28.585  29.502  1.00  0.00     0.134 A 
ATOM     70  F   UNL A   1      46.557  30.227  26.341  1.00  0.00    -0.206 F 
ATOM     71  C   UNL A   1      48.491  29.112  27.067  1.00  0.00     0.040 A 
ATOM     72  C   UNL A   1      48.570  28.151  29.275  1.00  0.00     0.040 A 
ATOM     73  F   UNL A   1      46.708  28.308  30.692  1.00  0.00    -0.206 F 
ATOM     74  C   UNL A   1      49.185  28.411  28.052  1.00  0.00     0.006 A 
ENDBRANCH  53  67
BRANCH  54  75
ATOM     75  C   UNL A   1      37.180  32.232  30.237  1.00  0.00     0.057 A 
ATOM     76  C   UNL A   1      36.520  31.920  31.431  1.00  0.00     0.134 A 
ATOM     77  C   UNL A   1      36.472  32.973  29.283  1.00  0.00     0.134 A 
ATOM     78  F   UNL A   1      37.137  31.188  32.372  1.00  0.00    -0.206 F 
ATOM     79  C   UNL A   1      35.203  32.315  31.664  1.00  0.00     0.040 A 
ATOM     80  C   UNL A   1      35.163  33.398  29.513  1.00  0.00     0.040 A 
ATOM     81  F   UNL A   1      37.047  33.302  28.118  1.00  0.00    -0.206 F 
ATOM     82  C   UNL A   1      34.522  33.064  30.704  1.00  0.00     0.006 A 
ENDBRANCH  54  75
BRANCH  66  83
ATOM     83  C   UNL A   1      43.388  35.170  31.283  1.00  0.00     0.057 A 
ATOM     84  C   UNL A   1      43.532  35.372  32.662  1.00  0.00     0.134 A 
ATOM     85  C   UNL A   1      43.645  36.257  30.438  1.00  0.00     0.134 A 
ATOM     86  F   UNL A   1      43.287  34.375  33.524  1.00  0.00    -0.206 F 
ATOM     87  C   UNL A   1      43.893  36.616  33.181  1.00  0.00     0.040 A 
ATOM     88  C   UNL A   1      44.026  37.500  30.945  1.00  0.00     0.040 A 
ATOM     89  F   UNL A   1      43.530  36.127  29.107  1.00  0.00    -0.206 F 
ATOM     90  C   UNL A   1      44.145  37.684  32.321  1.00  0.00     0.006 A 
ENDBRANCH  66  83
ENDBRANCH  40  41
ENDBRANCH  33  35
ENDBRANCH  32  33
ENDBRANCH  31  32
ENDBRANCH   1  31
TORSDOF 16
ENDMDL
