MODEL 1
REMARK VINA RESULT:     -11.5      0.000      0.000
REMARK SMILES C[C@@H](Oc1ccc(/C=N/NC(=O)c2ccc(I)c(O)c2)cc1)C(=O)OCCOC(=O)c1ccc(-c2c3nc(c(-c4c(F)cccc4F)c4ccc([nH]4)c(-c4c(F)cccc4F)c4nc(c(-c5c(F)cccc5F)c5ccc2[nH]5)C=C4)C=C3)cc1
REMARK SMILES IDX 23 1 24 2 2 3 1 4 3 5 4 6 5 7 22 8 6 9 21 10 7 11 8 12 9 13
REMARK SMILES IDX 10 14 11 15 12 17 13 18 14 19 20 20 15 21 18 22 16 23 17 24
REMARK SMILES IDX 19 25 25 27 26 28 27 29 28 30 29 31 30 32 31 33 32 34 84 35
REMARK SMILES IDX 33 36 83 37 34 38 35 39 36 40 77 41 37 42 82 43 76 44 78 45
REMARK SMILES IDX 38 46 81 47 75 48 74 49 39 51 65 52 48 53 64 54 49 55 52 56
REMARK SMILES IDX 63 57 79 58 50 59 51 60 62 62 80 63 53 64 40 65 41 66 46 67
REMARK SMILES IDX 42 68 43 69 45 70 47 71 44 72 66 73 67 74 72 75 68 76 69 77
REMARK SMILES IDX 71 78 73 79 70 80 54 81 55 82 60 83 56 84 57 85 59 86 61 87
REMARK SMILES IDX 58 88
REMARK H PARENT 10 16 19 26 78 50 52 61
REMARK Flexibility Score: inf
ROOT
ATOM      1  C   UNL A   1      33.926  34.234  29.567  1.00  0.00     0.347 C 
ATOM      2  O   UNL A   1      32.819  34.747  29.453  1.00  0.00    -0.248 OA
ENDROOT
BRANCH   1   3
ATOM      3  C   UNL A   1      34.513  33.276  28.529  1.00  0.00     0.279 C 
ATOM      4  C   UNL A   1      35.849  33.797  27.998  1.00  0.00     0.066 C 
BRANCH   3   5
ATOM      5  O   UNL A   1      34.643  31.978  29.120  1.00  0.00    -0.479 OA
BRANCH   5   6
ATOM      6  C   UNL A   1      34.423  30.980  28.209  1.00  0.00     0.120 A 
ATOM      7  C   UNL A   1      35.402  29.999  28.038  1.00  0.00     0.047 A 
ATOM      8  C   UNL A   1      33.279  30.982  27.412  1.00  0.00     0.047 A 
ATOM      9  C   UNL A   1      35.225  29.001  27.073  1.00  0.00     0.013 A 
ATOM     10  C   UNL A   1      33.069  29.958  26.497  1.00  0.00     0.013 A 
ATOM     11  C   UNL A   1      34.051  28.983  26.319  1.00  0.00    -0.005 A 
BRANCH  11  12
ATOM     12  C   UNL A   1      33.838  28.024  25.228  1.00  0.00     0.141 C 
ATOM     13  N   UNL A   1      33.246  26.892  25.442  1.00  0.00    -0.180 NA
BRANCH  13  14
ATOM     14  N   UNL A   1      33.292  25.972  24.432  1.00  0.00    -0.243 N 
ATOM     15  C   UNL A   1      32.439  25.821  23.348  1.00  0.00     0.271 C 
ATOM     16  H   UNL A   1      34.034  25.327  24.479  1.00  0.00     0.194 HD
ATOM     17  O   UNL A   1      32.579  24.884  22.564  1.00  0.00    -0.267 OA
BRANCH  15  18
ATOM     18  C   UNL A   1      31.339  26.786  23.104  1.00  0.00     0.045 A 
ATOM     19  C   UNL A   1      30.077  26.500  23.638  1.00  0.00     0.015 A 
ATOM     20  C   UNL A   1      31.541  27.965  22.374  1.00  0.00     0.061 A 
ATOM     21  C   UNL A   1      29.034  27.419  23.502  1.00  0.00     0.019 A 
ATOM     22  C   UNL A   1      30.500  28.887  22.253  1.00  0.00     0.129 A 
ATOM     23  C   UNL A   1      29.249  28.621  22.821  1.00  0.00     0.055 A 
ATOM     24  I   UNL A   1      27.677  29.996  22.724  1.00  0.00    -0.040 I 
BRANCH  22  25
ATOM     25  O   UNL A   1      30.726  30.075  21.614  1.00  0.00    -0.507 OA
ATOM     26  H   UNL A   1      31.597  30.416  21.553  1.00  0.00     0.293 HD
ENDBRANCH  22  25
ENDBRANCH  15  18
ENDBRANCH  13  14
ENDBRANCH  11  12
ENDBRANCH   5   6
ENDBRANCH   3   5
ENDBRANCH   1   3
BRANCH   1  27
ATOM     27  O   UNL A   1      34.789  34.462  30.596  1.00  0.00    -0.459 OA
BRANCH  27  28
ATOM     28  C   UNL A   1      34.208  34.586  31.907  1.00  0.00     0.274 C 
BRANCH  28  29
ATOM     29  C   UNL A   1      34.136  33.215  32.578  1.00  0.00     0.275 C 
BRANCH  29  30
ATOM     30  O   UNL A   1      35.197  32.367  32.093  1.00  0.00    -0.458 OA
BRANCH  30  31
ATOM     31  C   UNL A   1      36.230  32.161  32.941  1.00  0.00     0.338 C 
ATOM     32  O   UNL A   1      36.278  32.385  34.137  1.00  0.00    -0.246 OA
BRANCH  31  33
ATOM     33  C   UNL A   1      37.337  31.545  32.199  1.00  0.00     0.060 A 
ATOM     34  C   UNL A   1      38.336  30.865  32.900  1.00  0.00     0.016 A 
ATOM     35  C   UNL A   1      37.429  31.721  30.817  1.00  0.00     0.016 A 
ATOM     36  C   UNL A   1      39.443  30.361  32.218  1.00  0.00     0.010 A 
ATOM     37  C   UNL A   1      38.529  31.196  30.134  1.00  0.00     0.010 A 
ATOM     38  C   UNL A   1      39.549  30.524  30.831  1.00  0.00    -0.014 A 
BRANCH  38  39
ATOM     39  C   UNL A   1      40.741  30.019  30.106  1.00  0.00     0.031 A 
ATOM     40  C   UNL A   1      41.915  30.923  29.865  1.00  0.00     0.074 A 
ATOM     41  C   UNL A   1      40.765  28.749  29.661  1.00  0.00     0.049 A 
ATOM     42  N   UNL A   1      43.002  30.699  29.172  1.00  0.00    -0.248 NA
ATOM     43  C   UNL A   1      41.858  32.256  30.484  1.00  0.00     0.031 C 
ATOM     44  C   UNL A   1      39.702  27.764  29.855  1.00  0.00     0.029 A 
ATOM     45  N   UNL A   1      41.722  28.075  28.943  1.00  0.00    -0.354 N 
ATOM     46  C   UNL A   1      43.750  31.866  29.254  1.00  0.00     0.074 A 
ATOM     47  C   UNL A   1      42.987  32.802  30.054  1.00  0.00     0.031 C 
ATOM     48  C   UNL A   1      40.063  26.611  29.268  1.00  0.00     0.029 A 
ATOM     49  C   UNL A   1      41.361  26.789  28.625  1.00  0.00     0.049 A 
ATOM     50  H   UNL A   1      42.582  28.474  28.683  1.00  0.00     0.167 HD
ATOM     51  C   UNL A   1      44.963  32.132  28.714  1.00  0.00     0.037 A 
ATOM     52  C   UNL A   1      41.994  25.868  27.874  1.00  0.00     0.037 A 
ATOM     53  C   UNL A   1      45.730  31.200  27.930  1.00  0.00     0.049 A 
ATOM     54  C   UNL A   1      43.319  26.203  27.250  1.00  0.00     0.074 A 
ATOM     55  C   UNL A   1      46.976  31.376  27.353  1.00  0.00     0.029 A 
ATOM     56  N   UNL A   1      45.323  29.913  27.615  1.00  0.00    -0.354 N 
ATOM     57  N   UNL A   1      44.012  27.312  27.330  1.00  0.00    -0.248 NA
ATOM     58  C   UNL A   1      43.944  25.161  26.423  1.00  0.00     0.031 C 
ATOM     59  C   UNL A   1      47.310  30.205  26.664  1.00  0.00     0.029 A 
ATOM     60  C   UNL A   1      46.286  29.289  26.840  1.00  0.00     0.049 A 
ATOM     61  H   UNL A   1      44.474  29.503  27.900  1.00  0.00     0.167 HD
ATOM     62  C   UNL A   1      45.160  27.097  26.579  1.00  0.00     0.074 A 
ATOM     63  C   UNL A   1      45.077  25.747  26.062  1.00  0.00     0.031 C 
ATOM     64  C   UNL A   1      46.188  27.945  26.336  1.00  0.00     0.037 A 
BRANCH  51  65
ATOM     65  C   UNL A   1      45.533  33.500  28.939  1.00  0.00     0.057 A 
ATOM     66  C   UNL A   1      45.296  34.551  28.046  1.00  0.00     0.134 A 
ATOM     67  C   UNL A   1      46.294  33.776  30.082  1.00  0.00     0.134 A 
ATOM     68  F   UNL A   1      44.586  34.346  26.926  1.00  0.00    -0.206 F 
ATOM     69  C   UNL A   1      45.807  35.830  28.275  1.00  0.00     0.040 A 
ATOM     70  C   UNL A   1      46.796  35.055  30.331  1.00  0.00     0.040 A 
ATOM     71  F   UNL A   1      46.554  32.811  30.977  1.00  0.00    -0.206 F 
ATOM     72  C   UNL A   1      46.555  36.086  29.424  1.00  0.00     0.006 A 
ENDBRANCH  51  65
BRANCH  52  73
ATOM     73  C   UNL A   1      41.372  24.540  27.653  1.00  0.00     0.057 A 
ATOM     74  C   UNL A   1      40.338  24.372  26.726  1.00  0.00     0.134 A 
ATOM     75  C   UNL A   1      41.788  23.414  28.371  1.00  0.00     0.134 A 
ATOM     76  F   UNL A   1      39.882  25.421  26.026  1.00  0.00    -0.206 F 
ATOM     77  C   UNL A   1      39.731  23.132  26.528  1.00  0.00     0.040 A 
ATOM     78  C   UNL A   1      41.205  22.162  28.168  1.00  0.00     0.040 A 
ATOM     79  F   UNL A   1      42.775  23.513  29.275  1.00  0.00    -0.206 F 
ATOM     80  C   UNL A   1      40.169  22.020  27.248  1.00  0.00     0.006 A 
ENDBRANCH  52  73
BRANCH  64  81
ATOM     81  C   UNL A   1      47.313  27.425  25.492  1.00  0.00     0.057 A 
ATOM     82  C   UNL A   1      47.328  27.596  24.103  1.00  0.00     0.134 A 
ATOM     83  C   UNL A   1      48.403  26.769  26.078  1.00  0.00     0.134 A 
ATOM     84  F   UNL A   1      46.304  28.203  23.482  1.00  0.00    -0.206 F 
ATOM     85  C   UNL A   1      48.380  27.115  23.322  1.00  0.00     0.040 A 
ATOM     86  C   UNL A   1      49.470  26.302  25.310  1.00  0.00     0.040 A 
ATOM     87  F   UNL A   1      48.449  26.579  27.405  1.00  0.00    -0.206 F 
ATOM     88  C   UNL A   1      49.457  26.470  23.926  1.00  0.00     0.006 A 
ENDBRANCH  64  81
ENDBRANCH  38  39
ENDBRANCH  31  33
ENDBRANCH  30  31
ENDBRANCH  29  30
ENDBRANCH  28  29
ENDBRANCH  27  28
ENDBRANCH   1  27
TORSDOF 17
ENDMDL
MODEL 2
REMARK VINA RESULT:     -11.5      5.635     10.656
REMARK SMILES C[C@@H](Oc1ccc(/C=N/NC(=O)c2ccc(I)c(O)c2)cc1)C(=O)OCCOC(=O)c1ccc(-c2c3nc(c(-c4c(F)cccc4F)c4ccc([nH]4)c(-c4c(F)cccc4F)c4nc(c(-c5c(F)cccc5F)c5ccc2[nH]5)C=C4)C=C3)cc1
REMARK SMILES IDX 23 1 24 2 2 3 1 4 3 5 4 6 5 7 22 8 6 9 21 10 7 11 8 12 9 13
REMARK SMILES IDX 10 14 11 15 12 17 13 18 14 19 20 20 15 21 18 22 16 23 17 24
REMARK SMILES IDX 19 25 25 27 26 28 27 29 28 30 29 31 30 32 31 33 32 34 84 35
REMARK SMILES IDX 33 36 83 37 34 38 35 39 36 40 77 41 37 42 82 43 76 44 78 45
REMARK SMILES IDX 38 46 81 47 75 48 74 49 39 51 65 52 48 53 64 54 49 55 52 56
REMARK SMILES IDX 63 57 79 58 50 59 51 60 62 62 80 63 53 64 40 65 41 66 46 67
REMARK SMILES IDX 42 68 43 69 45 70 47 71 44 72 66 73 67 74 72 75 68 76 69 77
REMARK SMILES IDX 71 78 73 79 70 80 54 81 55 82 60 83 56 84 57 85 59 86 61 87
REMARK SMILES IDX 58 88
REMARK H PARENT 10 16 19 26 78 50 52 61
REMARK Flexibility Score: inf
ROOT
ATOM      1  C   UNL A   1      41.915  20.227  26.745  1.00  0.00     0.347 C 
ATOM      2  O   UNL A   1      42.223  19.217  27.368  1.00  0.00    -0.248 OA
ENDROOT
BRANCH   1   3
ATOM      3  C   UNL A   1      40.874  21.231  27.244  1.00  0.00     0.279 C 
ATOM      4  C   UNL A   1      41.371  21.962  28.491  1.00  0.00     0.066 C 
BRANCH   3   5
ATOM      5  O   UNL A   1      40.562  22.139  26.180  1.00  0.00    -0.479 OA
BRANCH   5   6
ATOM      6  C   UNL A   1      39.218  22.178  25.922  1.00  0.00     0.120 A 
ATOM      7  C   UNL A   1      38.604  21.047  25.381  1.00  0.00     0.047 A 
ATOM      8  C   UNL A   1      38.488  23.349  26.125  1.00  0.00     0.047 A 
ATOM      9  C   UNL A   1      37.244  21.082  25.057  1.00  0.00     0.013 A 
ATOM     10  C   UNL A   1      37.124  23.369  25.864  1.00  0.00     0.013 A 
ATOM     11  C   UNL A   1      36.512  22.242  25.314  1.00  0.00    -0.005 A 
BRANCH  11  12
ATOM     12  C   UNL A   1      35.106  22.384  24.916  1.00  0.00     0.141 C 
ATOM     13  N   UNL A   1      34.781  22.578  23.678  1.00  0.00    -0.180 NA
BRANCH  13  14
ATOM     14  N   UNL A   1      33.482  22.925  23.428  1.00  0.00    -0.243 N 
ATOM     15  C   UNL A   1      32.345  22.129  23.452  1.00  0.00     0.271 C 
ATOM     16  H   UNL A   1      33.332  23.871  23.200  1.00  0.00     0.194 HD
ATOM     17  O   UNL A   1      31.251  22.586  23.125  1.00  0.00    -0.267 OA
BRANCH  15  18
ATOM     18  C   UNL A   1      32.418  20.709  23.876  1.00  0.00     0.045 A 
ATOM     19  C   UNL A   1      32.380  19.720  22.886  1.00  0.00     0.015 A 
ATOM     20  C   UNL A   1      32.538  20.348  25.224  1.00  0.00     0.061 A 
ATOM     21  C   UNL A   1      32.526  18.375  23.233  1.00  0.00     0.019 A 
ATOM     22  C   UNL A   1      32.700  19.004  25.566  1.00  0.00     0.129 A 
ATOM     23  C   UNL A   1      32.702  18.017  24.573  1.00  0.00     0.055 A 
ATOM     24  I   UNL A   1      33.003  15.998  25.023  1.00  0.00    -0.040 I 
BRANCH  22  25
ATOM     25  O   UNL A   1      32.903  18.663  26.874  1.00  0.00    -0.507 OA
ATOM     26  H   UNL A   1      33.443  19.199  27.420  1.00  0.00     0.293 HD
ENDBRANCH  22  25
ENDBRANCH  15  18
ENDBRANCH  13  14
ENDBRANCH  11  12
ENDBRANCH   5   6
ENDBRANCH   3   5
ENDBRANCH   1   3
BRANCH   1  27
ATOM     27  O   UNL A   1      42.467  20.612  25.561  1.00  0.00    -0.459 OA
BRANCH  27  28
ATOM     28  C   UNL A   1      43.820  21.101  25.612  1.00  0.00     0.274 C 
BRANCH  28  29
ATOM     29  C   UNL A   1      44.006  22.229  24.598  1.00  0.00     0.275 C 
BRANCH  29  30
ATOM     30  O   UNL A   1      43.299  23.409  25.031  1.00  0.00    -0.458 OA
BRANCH  30  31
ATOM     31  C   UNL A   1      44.030  24.542  25.124  1.00  0.00     0.338 C 
ATOM     32  O   UNL A   1      45.000  24.868  24.465  1.00  0.00    -0.246 OA
BRANCH  31  33
ATOM     33  C   UNL A   1      43.434  25.408  26.151  1.00  0.00     0.060 A 
ATOM     34  C   UNL A   1      43.911  26.711  26.305  1.00  0.00     0.016 A 
ATOM     35  C   UNL A   1      42.467  24.895  27.016  1.00  0.00     0.016 A 
ATOM     36  C   UNL A   1      43.424  27.511  27.339  1.00  0.00     0.010 A 
ATOM     37  C   UNL A   1      41.965  25.705  28.037  1.00  0.00     0.010 A 
ATOM     38  C   UNL A   1      42.449  27.013  28.214  1.00  0.00    -0.014 A 
BRANCH  38  39
ATOM     39  C   UNL A   1      41.952  27.848  29.335  1.00  0.00     0.031 A 
ATOM     40  C   UNL A   1      42.644  27.809  30.667  1.00  0.00     0.074 A 
ATOM     41  C   UNL A   1      40.877  28.638  29.157  1.00  0.00     0.049 A 
ATOM     42  N   UNL A   1      42.306  28.387  31.791  1.00  0.00    -0.248 NA
ATOM     43  C   UNL A   1      43.878  27.012  30.745  1.00  0.00     0.031 C 
ATOM     44  C   UNL A   1      40.135  28.787  27.906  1.00  0.00     0.029 A 
ATOM     45  N   UNL A   1      40.219  29.458  30.039  1.00  0.00    -0.354 N 
ATOM     46  C   UNL A   1      43.272  28.010  32.716  1.00  0.00     0.074 A 
ATOM     47  C   UNL A   1      44.203  27.143  32.024  1.00  0.00     0.031 C 
ATOM     48  C   UNL A   1      39.120  29.644  28.100  1.00  0.00     0.029 A 
ATOM     49  C   UNL A   1      39.117  30.073  29.495  1.00  0.00     0.049 A 
ATOM     50  H   UNL A   1      40.507  29.592  30.969  1.00  0.00     0.167 HD
ATOM     51  C   UNL A   1      43.374  28.359  34.020  1.00  0.00     0.037 A 
ATOM     52  C   UNL A   1      38.194  30.868  30.067  1.00  0.00     0.037 A 
ATOM     53  C   UNL A   1      42.458  29.231  34.707  1.00  0.00     0.049 A 
ATOM     54  C   UNL A   1      38.306  31.204  31.527  1.00  0.00     0.074 A 
ATOM     55  C   UNL A   1      42.489  29.651  36.026  1.00  0.00     0.029 A 
ATOM     56  N   UNL A   1      41.346  29.819  34.126  1.00  0.00    -0.354 N 
ATOM     57  N   UNL A   1      39.220  30.837  32.391  1.00  0.00    -0.248 NA
ATOM     58  C   UNL A   1      37.252  32.058  32.093  1.00  0.00     0.031 C 
ATOM     59  C   UNL A   1      41.378  30.472  36.251  1.00  0.00     0.029 A 
ATOM     60  C   UNL A   1      40.674  30.588  35.063  1.00  0.00     0.049 A 
ATOM     61  H   UNL A   1      41.072  29.707  33.187  1.00  0.00     0.167 HD
ATOM     62  C   UNL A   1      38.861  31.425  33.596  1.00  0.00     0.074 A 
ATOM     63  C   UNL A   1      37.654  32.185  33.350  1.00  0.00     0.031 C 
ATOM     64  C   UNL A   1      39.475  31.339  34.801  1.00  0.00     0.037 A 
BRANCH  51  65
ATOM     65  C   UNL A   1      44.513  27.778  34.801  1.00  0.00     0.057 A 
ATOM     66  C   UNL A   1      44.401  26.550  35.464  1.00  0.00     0.134 A 
ATOM     67  C   UNL A   1      45.748  28.437  34.858  1.00  0.00     0.134 A 
ATOM     68  F   UNL A   1      43.240  25.878  35.458  1.00  0.00    -0.206 F 
ATOM     69  C   UNL A   1      45.475  26.001  36.167  1.00  0.00     0.040 A 
ATOM     70  C   UNL A   1      46.835  27.890  35.543  1.00  0.00     0.040 A 
ATOM     71  F   UNL A   1      45.920  29.616  34.241  1.00  0.00    -0.206 F 
ATOM     72  C   UNL A   1      46.698  26.669  36.204  1.00  0.00     0.006 A 
ENDBRANCH  51  65
BRANCH  52  73
ATOM     73  C   UNL A   1      37.065  31.390  29.258  1.00  0.00     0.057 A 
ATOM     74  C   UNL A   1      35.959  30.587  28.959  1.00  0.00     0.134 A 
ATOM     75  C   UNL A   1      37.073  32.697  28.759  1.00  0.00     0.134 A 
ATOM     76  F   UNL A   1      35.909  29.319  29.392  1.00  0.00    -0.206 F 
ATOM     77  C   UNL A   1      34.904  31.062  28.180  1.00  0.00     0.040 A 
ATOM     78  C   UNL A   1      36.015  33.192  27.996  1.00  0.00     0.040 A 
ATOM     79  F   UNL A   1      38.107  33.513  29.012  1.00  0.00    -0.206 F 
ATOM     80  C   UNL A   1      34.928  32.371  27.700  1.00  0.00     0.006 A 
ENDBRANCH  52  73
BRANCH  64  81
ATOM     81  C   UNL A   1      38.861  32.104  35.934  1.00  0.00     0.057 A 
ATOM     82  C   UNL A   1      38.055  31.477  36.892  1.00  0.00     0.134 A 
ATOM     83  C   UNL A   1      39.098  33.476  36.082  1.00  0.00     0.134 A 
ATOM     84  F   UNL A   1      37.779  30.166  36.795  1.00  0.00    -0.206 F 
ATOM     85  C   UNL A   1      37.489  32.192  37.948  1.00  0.00     0.040 A 
ATOM     86  C   UNL A   1      38.554  34.198  37.144  1.00  0.00     0.040 A 
ATOM     87  F   UNL A   1      39.865  34.133  35.199  1.00  0.00    -0.206 F 
ATOM     88  C   UNL A   1      37.742  33.556  38.079  1.00  0.00     0.006 A 
ENDBRANCH  64  81
ENDBRANCH  38  39
ENDBRANCH  31  33
ENDBRANCH  30  31
ENDBRANCH  29  30
ENDBRANCH  28  29
ENDBRANCH  27  28
ENDBRANCH   1  27
TORSDOF 17
ENDMDL
MODEL 3
REMARK VINA RESULT:     -11.4      4.592      7.043
REMARK SMILES C[C@@H](Oc1ccc(/C=N/NC(=O)c2ccc(I)c(O)c2)cc1)C(=O)OCCOC(=O)c1ccc(-c2c3nc(c(-c4c(F)cccc4F)c4ccc([nH]4)c(-c4c(F)cccc4F)c4nc(c(-c5c(F)cccc5F)c5ccc2[nH]5)C=C4)C=C3)cc1
REMARK SMILES IDX 23 1 24 2 2 3 1 4 3 5 4 6 5 7 22 8 6 9 21 10 7 11 8 12 9 13
REMARK SMILES IDX 10 14 11 15 12 17 13 18 14 19 20 20 15 21 18 22 16 23 17 24
REMARK SMILES IDX 19 25 25 27 26 28 27 29 28 30 29 31 30 32 31 33 32 34 84 35
REMARK SMILES IDX 33 36 83 37 34 38 35 39 36 40 77 41 37 42 82 43 76 44 78 45
REMARK SMILES IDX 38 46 81 47 75 48 74 49 39 51 65 52 48 53 64 54 49 55 52 56
REMARK SMILES IDX 63 57 79 58 50 59 51 60 62 62 80 63 53 64 40 65 41 66 46 67
REMARK SMILES IDX 42 68 43 69 45 70 47 71 44 72 66 73 67 74 72 75 68 76 69 77
REMARK SMILES IDX 71 78 73 79 70 80 54 81 55 82 60 83 56 84 57 85 59 86 61 87
REMARK SMILES IDX 58 88
REMARK H PARENT 10 16 19 26 78 50 52 61
REMARK Flexibility Score: inf
ROOT
ATOM      1  C   UNL A   1      33.539  33.813  28.196  1.00  0.00     0.347 C 
ATOM      2  O   UNL A   1      32.434  33.845  27.665  1.00  0.00    -0.248 OA
ENDROOT
BRANCH   1   3
ATOM      3  C   UNL A   1      34.573  32.725  27.904  1.00  0.00     0.279 C 
ATOM      4  C   UNL A   1      35.989  33.220  28.205  1.00  0.00     0.066 C 
BRANCH   3   5
ATOM      5  O   UNL A   1      34.243  31.558  28.667  1.00  0.00    -0.479 OA
BRANCH   5   6
ATOM      6  C   UNL A   1      33.986  30.480  27.862  1.00  0.00     0.120 A 
ATOM      7  C   UNL A   1      32.673  30.247  27.450  1.00  0.00     0.047 A 
ATOM      8  C   UNL A   1      35.002  29.588  27.521  1.00  0.00     0.047 A 
ATOM      9  C   UNL A   1      32.378  29.121  26.673  1.00  0.00     0.013 A 
ATOM     10  C   UNL A   1      34.726  28.504  26.699  1.00  0.00     0.013 A 
ATOM     11  C   UNL A   1      33.412  28.265  26.293  1.00  0.00    -0.005 A 
BRANCH  11  12
ATOM     12  C   UNL A   1      33.166  27.017  25.560  1.00  0.00     0.141 C 
ATOM     13  N   UNL A   1      33.742  26.788  24.423  1.00  0.00    -0.180 NA
BRANCH  13  14
ATOM     14  N   UNL A   1      33.285  25.717  23.706  1.00  0.00    -0.243 N 
ATOM     15  C   UNL A   1      32.086  25.570  23.023  1.00  0.00     0.271 C 
ATOM     16  H   UNL A   1      33.891  24.942  23.668  1.00  0.00     0.194 HD
ATOM     17  O   UNL A   1      31.795  24.502  22.486  1.00  0.00    -0.267 OA
BRANCH  15  18
ATOM     18  C   UNL A   1      31.126  26.697  22.917  1.00  0.00     0.045 A 
ATOM     19  C   UNL A   1      29.881  26.566  23.544  1.00  0.00     0.015 A 
ATOM     20  C   UNL A   1      31.444  27.874  22.226  1.00  0.00     0.061 A 
ATOM     21  C   UNL A   1      28.979  27.632  23.538  1.00  0.00     0.019 A 
ATOM     22  C   UNL A   1      30.546  28.942  22.237  1.00  0.00     0.129 A 
ATOM     23  C   UNL A   1      29.317  28.828  22.897  1.00  0.00     0.055 A 
ATOM     24  I   UNL A   1      27.964  30.418  22.997  1.00  0.00    -0.040 I 
BRANCH  22  25
ATOM     25  O   UNL A   1      30.896  30.119  21.635  1.00  0.00    -0.507 OA
ATOM     26  H   UNL A   1      30.771  30.230  20.713  1.00  0.00     0.293 HD
ENDBRANCH  22  25
ENDBRANCH  15  18
ENDBRANCH  13  14
ENDBRANCH  11  12
ENDBRANCH   5   6
ENDBRANCH   3   5
ENDBRANCH   1   3
BRANCH   1  27
ATOM     27  O   UNL A   1      34.007  34.739  29.078  1.00  0.00    -0.459 OA
BRANCH  27  28
ATOM     28  C   UNL A   1      33.638  36.107  28.830  1.00  0.00     0.274 C 
BRANCH  28  29
ATOM     29  C   UNL A   1      32.720  36.611  29.942  1.00  0.00     0.275 C 
BRANCH  29  30
ATOM     30  O   UNL A   1      32.471  35.559  30.896  1.00  0.00    -0.458 OA
BRANCH  30  31
ATOM     31  C   UNL A   1      32.705  35.861  32.193  1.00  0.00     0.338 C 
ATOM     32  O   UNL A   1      32.055  36.582  32.926  1.00  0.00    -0.246 OA
BRANCH  31  33
ATOM     33  C   UNL A   1      33.891  35.122  32.645  1.00  0.00     0.060 A 
ATOM     34  C   UNL A   1      35.158  35.672  32.442  1.00  0.00     0.016 A 
ATOM     35  C   UNL A   1      33.747  33.845  33.190  1.00  0.00     0.016 A 
ATOM     36  C   UNL A   1      36.296  34.939  32.777  1.00  0.00     0.010 A 
ATOM     37  C   UNL A   1      34.888  33.121  33.544  1.00  0.00     0.010 A 
ATOM     38  C   UNL A   1      36.170  33.657  33.329  1.00  0.00    -0.014 A 
BRANCH  38  39
ATOM     39  C   UNL A   1      37.378  32.861  33.656  1.00  0.00     0.031 A 
ATOM     40  C   UNL A   1      38.124  33.115  34.934  1.00  0.00     0.074 A 
ATOM     41  C   UNL A   1      37.806  31.912  32.803  1.00  0.00     0.049 A 
ATOM     42  N   UNL A   1      39.250  32.595  35.351  1.00  0.00    -0.248 NA
ATOM     43  C   UNL A   1      37.526  34.084  35.864  1.00  0.00     0.031 C 
ATOM     44  C   UNL A   1      37.155  31.550  31.545  1.00  0.00     0.029 A 
ATOM     45  N   UNL A   1      38.901  31.087  32.865  1.00  0.00    -0.354 N 
ATOM     46  C   UNL A   1      39.506  33.186  36.582  1.00  0.00     0.074 A 
ATOM     47  C   UNL A   1      38.425  34.114  36.838  1.00  0.00     0.031 C 
ATOM     48  C   UNL A   1      37.864  30.576  30.951  1.00  0.00     0.029 A 
ATOM     49  C   UNL A   1      39.037  30.275  31.766  1.00  0.00     0.049 A 
ATOM     50  H   UNL A   1      39.526  31.077  33.624  1.00  0.00     0.167 HD
ATOM     51  C   UNL A   1      40.547  32.971  37.422  1.00  0.00     0.037 A 
ATOM     52  C   UNL A   1      40.013  29.408  31.440  1.00  0.00     0.037 A 
ATOM     53  C   UNL A   1      41.616  32.039  37.176  1.00  0.00     0.049 A 
ATOM     54  C   UNL A   1      41.180  29.221  32.369  1.00  0.00     0.074 A 
ATOM     55  C   UNL A   1      42.706  31.744  37.976  1.00  0.00     0.029 A 
ATOM     56  N   UNL A   1      41.727  31.249  36.043  1.00  0.00    -0.354 N 
ATOM     57  N   UNL A   1      41.413  29.789  33.525  1.00  0.00    -0.248 NA
ATOM     58  C   UNL A   1      42.222  28.276  31.940  1.00  0.00     0.031 C 
ATOM     59  C   UNL A   1      43.493  30.795  37.314  1.00  0.00     0.029 A 
ATOM     60  C   UNL A   1      42.875  30.476  36.116  1.00  0.00     0.049 A 
ATOM     61  H   UNL A   1      41.085  31.238  35.296  1.00  0.00     0.167 HD
ATOM     62  C   UNL A   1      42.618  29.263  33.970  1.00  0.00     0.074 A 
ATOM     63  C   UNL A   1      43.061  28.318  32.966  1.00  0.00     0.031 C 
ATOM     64  C   UNL A   1      43.300  29.541  35.108  1.00  0.00     0.037 A 
BRANCH  51  65
ATOM     65  C   UNL A   1      40.590  33.775  38.685  1.00  0.00     0.057 A 
ATOM     66  C   UNL A   1      41.324  34.963  38.777  1.00  0.00     0.134 A 
ATOM     67  C   UNL A   1      39.857  33.376  39.810  1.00  0.00     0.134 A 
ATOM     68  F   UNL A   1      42.058  35.390  37.738  1.00  0.00    -0.206 F 
ATOM     69  C   UNL A   1      41.338  35.722  39.948  1.00  0.00     0.040 A 
ATOM     70  C   UNL A   1      39.848  34.135  40.981  1.00  0.00     0.040 A 
ATOM     71  F   UNL A   1      39.130  32.248  39.784  1.00  0.00    -0.206 F 
ATOM     72  C   UNL A   1      40.594  35.311  41.054  1.00  0.00     0.006 A 
ENDBRANCH  51  65
BRANCH  52  73
ATOM     73  C   UNL A   1      39.942  28.661  30.160  1.00  0.00     0.057 A 
ATOM     74  C   UNL A   1      40.543  29.158  28.999  1.00  0.00     0.134 A 
ATOM     75  C   UNL A   1      39.262  27.441  30.068  1.00  0.00     0.134 A 
ATOM     76  F   UNL A   1      41.187  30.334  29.023  1.00  0.00    -0.206 F 
ATOM     77  C   UNL A   1      40.461  28.474  27.786  1.00  0.00     0.040 A 
ATOM     78  C   UNL A   1      39.190  26.735  28.867  1.00  0.00     0.040 A 
ATOM     79  F   UNL A   1      38.666  26.915  31.148  1.00  0.00    -0.206 F 
ATOM     80  C   UNL A   1      39.787  27.255  27.720  1.00  0.00     0.006 A 
ENDBRANCH  52  73
BRANCH  64  81
ATOM     81  C   UNL A   1      44.582  28.798  35.333  1.00  0.00     0.057 A 
ATOM     82  C   UNL A   1      45.811  29.305  34.895  1.00  0.00     0.134 A 
ATOM     83  C   UNL A   1      44.589  27.574  36.015  1.00  0.00     0.134 A 
ATOM     84  F   UNL A   1      45.866  30.465  34.221  1.00  0.00    -0.206 F 
ATOM     85  C   UNL A   1      47.002  28.611  35.110  1.00  0.00     0.040 A 
ATOM     86  C   UNL A   1      45.776  26.882  36.254  1.00  0.00     0.040 A 
ATOM     87  F   UNL A   1      43.444  27.039  36.463  1.00  0.00    -0.206 F 
ATOM     88  C   UNL A   1      46.987  27.398  35.796  1.00  0.00     0.006 A 
ENDBRANCH  64  81
ENDBRANCH  38  39
ENDBRANCH  31  33
ENDBRANCH  30  31
ENDBRANCH  29  30
ENDBRANCH  28  29
ENDBRANCH  27  28
ENDBRANCH   1  27
TORSDOF 17
ENDMDL
