MODEL 1
REMARK VINA RESULT:     -10.6      0.000      0.000
REMARK SMILES O=C(OCCOC(=O)c1cc(-c2ccoc2)n[nH]1)c1ccc(-c2c3nc(c(-c4c(F)cccc4F)c4ccc([nH]4)c(-c4c(F)cccc4F)c4nc(c(-c5c(F)cccc5F)c5ccc2[nH]5)C=C4)C=C3)cc1
REMARK SMILES IDX 4 1 3 2 2 3 1 4 19 5 20 6 72 7 21 8 71 9 22 10 23 11 24 12
REMARK SMILES IDX 65 13 25 14 70 15 64 16 66 17 26 18 69 19 63 20 62 21 27 23
REMARK SMILES IDX 53 24 36 25 52 26 37 27 40 28 51 29 67 30 38 31 39 32 50 34
REMARK SMILES IDX 68 35 41 36 28 37 29 38 34 39 30 40 31 41 33 42 35 43 32 44
REMARK SMILES IDX 54 45 55 46 60 47 56 48 57 49 59 50 61 51 58 52 42 53 43 54
REMARK SMILES IDX 48 55 44 56 45 57 47 58 49 59 46 60 5 61 6 62 7 63 8 64 9 65
REMARK SMILES IDX 10 66 18 67 11 68 17 69 12 71 13 72 16 73 14 74 15 75
REMARK H PARENT 66 22 40 33 18 70
REMARK Flexibility Score: inf
ROOT
ATOM      1  C   UNL A   1      43.285  18.342  26.165  1.00  0.00     0.275 C 
ENDROOT
BRANCH   1   2
ATOM      2  O   UNL A   1      41.921  18.529  25.746  1.00  0.00    -0.458 OA
BRANCH   2   3
ATOM      3  C   UNL A   1      41.008  19.477  26.058  1.00  0.00     0.338 C 
ATOM      4  O   UNL A   1      39.845  19.309  25.694  1.00  0.00    -0.246 OA
BRANCH   3   5
ATOM      5  C   UNL A   1      41.341  20.789  26.697  1.00  0.00     0.060 A 
ATOM      6  C   UNL A   1      41.292  21.079  28.062  1.00  0.00     0.016 A 
ATOM      7  C   UNL A   1      41.727  21.824  25.822  1.00  0.00     0.016 A 
ATOM      8  C   UNL A   1      41.679  22.332  28.548  1.00  0.00     0.010 A 
ATOM      9  C   UNL A   1      42.116  23.078  26.300  1.00  0.00     0.010 A 
ATOM     10  C   UNL A   1      42.097  23.336  27.672  1.00  0.00    -0.014 A 
BRANCH  10  11
ATOM     11  C   UNL A   1      42.397  24.686  28.195  1.00  0.00     0.031 A 
ATOM     12  C   UNL A   1      43.801  25.004  28.613  1.00  0.00     0.074 A 
ATOM     13  C   UNL A   1      41.436  25.626  28.247  1.00  0.00     0.049 A 
ATOM     14  N   UNL A   1      44.301  26.135  29.034  1.00  0.00    -0.248 NA
ATOM     15  C   UNL A   1      44.779  23.908  28.517  1.00  0.00     0.031 C 
ATOM     16  C   UNL A   1      40.050  25.440  27.824  1.00  0.00     0.029 A 
ATOM     17  N   UNL A   1      41.475  26.922  28.689  1.00  0.00    -0.354 N 
ATOM     18  C   UNL A   1      45.658  25.903  29.202  1.00  0.00     0.074 A 
ATOM     19  C   UNL A   1      45.893  24.506  28.912  1.00  0.00     0.031 C 
ATOM     20  C   UNL A   1      39.355  26.563  28.074  1.00  0.00     0.029 A 
ATOM     21  C   UNL A   1      40.254  27.551  28.660  1.00  0.00     0.049 A 
ATOM     22  H   UNL A   1      42.301  27.361  28.997  1.00  0.00     0.167 HD
ATOM     23  C   UNL A   1      46.628  26.787  29.530  1.00  0.00     0.037 A 
ATOM     24  C   UNL A   1      39.909  28.784  29.070  1.00  0.00     0.037 A 
ATOM     25  C   UNL A   1      46.380  28.161  29.869  1.00  0.00     0.049 A 
ATOM     26  C   UNL A   1      40.978  29.701  29.589  1.00  0.00     0.074 A 
ATOM     27  C   UNL A   1      47.282  29.140  30.242  1.00  0.00     0.029 A 
ATOM     28  N   UNL A   1      45.120  28.745  29.894  1.00  0.00    -0.354 N 
ATOM     29  N   UNL A   1      42.267  29.485  29.701  1.00  0.00    -0.248 NA
ATOM     30  C   UNL A   1      40.550  31.040  30.018  1.00  0.00     0.031 C 
ATOM     31  C   UNL A   1      46.564  30.309  30.523  1.00  0.00     0.029 A 
ATOM     32  C   UNL A   1      45.219  30.066  30.292  1.00  0.00     0.049 A 
ATOM     33  H   UNL A   1      44.281  28.286  29.662  1.00  0.00     0.167 HD
ATOM     34  C   UNL A   1      42.811  30.671  30.172  1.00  0.00     0.074 A 
ATOM     35  C   UNL A   1      41.710  31.601  30.332  1.00  0.00     0.031 C 
ATOM     36  C   UNL A   1      44.106  30.971  30.434  1.00  0.00     0.037 A 
BRANCH  23  37
ATOM     37  C   UNL A   1      48.035  26.272  29.525  1.00  0.00     0.057 A 
ATOM     38  C   UNL A   1      48.595  25.690  30.671  1.00  0.00     0.134 A 
ATOM     39  C   UNL A   1      48.845  26.381  28.391  1.00  0.00     0.134 A 
ATOM     40  F   UNL A   1      47.876  25.577  31.798  1.00  0.00    -0.206 F 
ATOM     41  C   UNL A   1      49.922  25.259  30.696  1.00  0.00     0.040 A 
ATOM     42  C   UNL A   1      50.168  25.937  28.398  1.00  0.00     0.040 A 
ATOM     43  F   UNL A   1      48.369  26.933  27.265  1.00  0.00    -0.206 F 
ATOM     44  C   UNL A   1      50.712  25.381  29.555  1.00  0.00     0.006 A 
ENDBRANCH  23  37
BRANCH  24  45
ATOM     45  C   UNL A   1      38.496  29.231  29.009  1.00  0.00     0.057 A 
ATOM     46  C   UNL A   1      37.651  29.148  30.119  1.00  0.00     0.134 A 
ATOM     47  C   UNL A   1      37.948  29.717  27.817  1.00  0.00     0.134 A 
ATOM     48  F   UNL A   1      38.109  28.660  31.281  1.00  0.00    -0.206 F 
ATOM     49  C   UNL A   1      36.308  29.526  30.044  1.00  0.00     0.040 A 
ATOM     50  C   UNL A   1      36.615  30.119  27.732  1.00  0.00     0.040 A 
ATOM     51  F   UNL A   1      38.698  29.785  26.709  1.00  0.00    -0.206 F 
ATOM     52  C   UNL A   1      35.788  30.019  28.848  1.00  0.00     0.006 A 
ENDBRANCH  24  45
BRANCH  36  53
ATOM     53  C   UNL A   1      44.400  32.374  30.867  1.00  0.00     0.057 A 
ATOM     54  C   UNL A   1      44.686  33.387  29.946  1.00  0.00     0.134 A 
ATOM     55  C   UNL A   1      44.370  32.714  32.225  1.00  0.00     0.134 A 
ATOM     56  F   UNL A   1      44.747  33.115  28.633  1.00  0.00    -0.206 F 
ATOM     57  C   UNL A   1      44.950  34.692  30.363  1.00  0.00     0.040 A 
ATOM     58  C   UNL A   1      44.611  34.019  32.652  1.00  0.00     0.040 A 
ATOM     59  F   UNL A   1      44.099  31.786  33.155  1.00  0.00    -0.206 F 
ATOM     60  C   UNL A   1      44.907  35.012  31.720  1.00  0.00     0.006 A 
ENDBRANCH  36  53
ENDBRANCH  10  11
ENDBRANCH   3   5
ENDBRANCH   2   3
ENDBRANCH   1   2
BRANCH   1  61
ATOM     61  C   UNL A   1      44.343  18.808  25.158  1.00  0.00     0.275 C 
BRANCH  61  62
ATOM     62  O   UNL A   1      45.462  19.475  25.758  1.00  0.00    -0.457 OA
BRANCH  62  63
ATOM     63  C   UNL A   1      46.269  20.128  24.872  1.00  0.00     0.356 C 
ATOM     64  O   UNL A   1      47.175  19.615  24.231  1.00  0.00    -0.244 OA
BRANCH  63  65
ATOM     65  C   UNL A   1      45.807  21.467  24.676  1.00  0.00     0.144 A 
ATOM     66  C   UNL A   1      45.990  22.647  25.371  1.00  0.00     0.066 A 
ATOM     67  N   UNL A   1      44.989  21.789  23.627  1.00  0.00    -0.271 N 
ATOM     68  C   UNL A   1      45.183  23.591  24.697  1.00  0.00     0.096 A 
ATOM     69  N   UNL A   1      44.539  23.052  23.659  1.00  0.00    -0.175 NA
ATOM     70  H   UNL A   1      44.752  21.151  22.916  1.00  0.00     0.190 HD
BRANCH  68  71
ATOM     71  C   UNL A   1      45.034  24.988  25.062  1.00  0.00     0.040 A 
ATOM     72  C   UNL A   1      46.085  25.864  25.428  1.00  0.00     0.052 A 
ATOM     73  C   UNL A   1      43.881  25.738  25.063  1.00  0.00     0.205 A 
ATOM     74  C   UNL A   1      45.499  27.097  25.606  1.00  0.00     0.195 A 
ATOM     75  O   UNL A   1      44.158  27.025  25.401  1.00  0.00    -0.472 OA
ENDBRANCH  68  71
ENDBRANCH  63  65
ENDBRANCH  62  63
ENDBRANCH  61  62
ENDBRANCH   1  61
TORSDOF 12
ENDMDL
MODEL 2
REMARK VINA RESULT:     -10.4      5.656     11.766
REMARK SMILES O=C(OCCOC(=O)c1cc(-c2ccoc2)n[nH]1)c1ccc(-c2c3nc(c(-c4c(F)cccc4F)c4ccc([nH]4)c(-c4c(F)cccc4F)c4nc(c(-c5c(F)cccc5F)c5ccc2[nH]5)C=C4)C=C3)cc1
REMARK SMILES IDX 4 1 3 2 2 3 1 4 19 5 20 6 72 7 21 8 71 9 22 10 23 11 24 12
REMARK SMILES IDX 65 13 25 14 70 15 64 16 66 17 26 18 69 19 63 20 62 21 27 23
REMARK SMILES IDX 53 24 36 25 52 26 37 27 40 28 51 29 67 30 38 31 39 32 50 34
REMARK SMILES IDX 68 35 41 36 28 37 29 38 34 39 30 40 31 41 33 42 35 43 32 44
REMARK SMILES IDX 54 45 55 46 60 47 56 48 57 49 59 50 61 51 58 52 42 53 43 54
REMARK SMILES IDX 48 55 44 56 45 57 47 58 49 59 46 60 5 61 6 62 7 63 8 64 9 65
REMARK SMILES IDX 10 66 18 67 11 68 17 69 12 71 13 72 16 73 14 74 15 75
REMARK H PARENT 66 22 40 33 18 70
REMARK Flexibility Score: inf
ROOT
ATOM      1  C   UNL A   1      33.174  36.611  29.580  1.00  0.00     0.275 C 
ENDROOT
BRANCH   1   2
ATOM      2  O   UNL A   1      32.538  35.489  28.939  1.00  0.00    -0.458 OA
BRANCH   2   3
ATOM      3  C   UNL A   1      33.048  34.369  28.377  1.00  0.00     0.338 C 
ATOM      4  O   UNL A   1      32.320  33.700  27.645  1.00  0.00    -0.246 OA
BRANCH   3   5
ATOM      5  C   UNL A   1      34.399  33.808  28.695  1.00  0.00     0.060 A 
ATOM      6  C   UNL A   1      35.554  33.946  27.922  1.00  0.00     0.016 A 
ATOM      7  C   UNL A   1      34.494  33.059  29.885  1.00  0.00     0.016 A 
ATOM      8  C   UNL A   1      36.776  33.418  28.351  1.00  0.00     0.010 A 
ATOM      9  C   UNL A   1      35.712  32.531  30.320  1.00  0.00     0.010 A 
ATOM     10  C   UNL A   1      36.863  32.712  29.552  1.00  0.00    -0.014 A 
BRANCH  10  11
ATOM     11  C   UNL A   1      38.140  32.070  29.934  1.00  0.00     0.031 A 
ATOM     12  C   UNL A   1      39.070  32.800  30.854  1.00  0.00     0.074 A 
ATOM     13  C   UNL A   1      38.435  30.831  29.500  1.00  0.00     0.049 A 
ATOM     14  N   UNL A   1      40.203  32.403  31.368  1.00  0.00    -0.248 NA
ATOM     15  C   UNL A   1      38.656  34.150  31.272  1.00  0.00     0.031 C 
ATOM     16  C   UNL A   1      37.583  30.013  28.640  1.00  0.00     0.029 A 
ATOM     17  N   UNL A   1      39.539  30.049  29.714  1.00  0.00    -0.354 N 
ATOM     18  C   UNL A   1      40.610  33.426  32.211  1.00  0.00     0.074 A 
ATOM     19  C   UNL A   1      39.644  34.496  32.083  1.00  0.00     0.031 C 
ATOM     20  C   UNL A   1      38.216  28.862  28.355  1.00  0.00     0.029 A 
ATOM     21  C   UNL A   1      39.512  28.859  29.026  1.00  0.00     0.049 A 
ATOM     22  H   UNL A   1      40.281  30.313  30.304  1.00  0.00     0.167 HD
ATOM     23  C   UNL A   1      41.672  33.455  33.048  1.00  0.00     0.037 A 
ATOM     24  C   UNL A   1      40.436  27.886  28.949  1.00  0.00     0.037 A 
ATOM     25  C   UNL A   1      42.655  32.411  33.132  1.00  0.00     0.049 A 
ATOM     26  C   UNL A   1      41.691  28.013  29.763  1.00  0.00     0.074 A 
ATOM     27  C   UNL A   1      43.786  32.345  33.925  1.00  0.00     0.029 A 
ATOM     28  N   UNL A   1      42.630  31.250  32.370  1.00  0.00    -0.354 N 
ATOM     29  N   UNL A   1      42.044  28.965  30.592  1.00  0.00    -0.248 NA
ATOM     30  C   UNL A   1      42.667  26.920  29.648  1.00  0.00     0.031 C 
ATOM     31  C   UNL A   1      44.463  31.157  33.619  1.00  0.00     0.029 A 
ATOM     32  C   UNL A   1      43.734  30.469  32.661  1.00  0.00     0.049 A 
ATOM     33  H   UNL A   1      41.929  31.018  31.719  1.00  0.00     0.167 HD
ATOM     34  C   UNL A   1      43.261  28.570  31.130  1.00  0.00     0.074 A 
ATOM     35  C   UNL A   1      43.587  27.293  30.526  1.00  0.00     0.031 C 
ATOM     36  C   UNL A   1      44.029  29.197  32.051  1.00  0.00     0.037 A 
BRANCH  23  37
ATOM     37  C   UNL A   1      41.798  34.658  33.932  1.00  0.00     0.057 A 
ATOM     38  C   UNL A   1      42.443  35.820  33.484  1.00  0.00     0.134 A 
ATOM     39  C   UNL A   1      41.305  34.654  35.240  1.00  0.00     0.134 A 
ATOM     40  F   UNL A   1      42.956  35.878  32.245  1.00  0.00    -0.206 F 
ATOM     41  C   UNL A   1      42.616  36.926  34.316  1.00  0.00     0.040 A 
ATOM     42  C   UNL A   1      41.456  35.761  36.077  1.00  0.00     0.040 A 
ATOM     43  F   UNL A   1      40.682  33.572  35.730  1.00  0.00    -0.206 F 
ATOM     44  C   UNL A   1      42.120  36.898  35.618  1.00  0.00     0.006 A 
ENDBRANCH  23  37
BRANCH  24  45
ATOM     45  C   UNL A   1      40.219  26.707  28.076  1.00  0.00     0.057 A 
ATOM     46  C   UNL A   1      40.753  26.640  26.786  1.00  0.00     0.134 A 
ATOM     47  C   UNL A   1      39.433  25.632  28.504  1.00  0.00     0.134 A 
ATOM     48  F   UNL A   1      41.488  27.654  26.306  1.00  0.00    -0.206 F 
ATOM     49  C   UNL A   1      40.506  25.549  25.949  1.00  0.00     0.040 A 
ATOM     50  C   UNL A   1      39.196  24.525  27.689  1.00  0.00     0.040 A 
ATOM     51  F   UNL A   1      38.863  25.654  29.716  1.00  0.00    -0.206 F 
ATOM     52  C   UNL A   1      39.730  24.484  26.403  1.00  0.00     0.006 A 
ENDBRANCH  24  45
BRANCH  36  53
ATOM     53  C   UNL A   1      45.268  28.483  32.496  1.00  0.00     0.057 A 
ATOM     54  C   UNL A   1      45.251  27.562  33.550  1.00  0.00     0.134 A 
ATOM     55  C   UNL A   1      46.485  28.704  31.841  1.00  0.00     0.134 A 
ATOM     56  F   UNL A   1      44.117  27.324  34.227  1.00  0.00    -0.206 F 
ATOM     57  C   UNL A   1      46.410  26.897  33.949  1.00  0.00     0.040 A 
ATOM     58  C   UNL A   1      47.645  28.029  32.217  1.00  0.00     0.040 A 
ATOM     59  F   UNL A   1      46.563  29.573  30.821  1.00  0.00    -0.206 F 
ATOM     60  C   UNL A   1      47.611  27.126  33.278  1.00  0.00     0.006 A 
ENDBRANCH  36  53
ENDBRANCH  10  11
ENDBRANCH   3   5
ENDBRANCH   2   3
ENDBRANCH   1   2
BRANCH   1  61
ATOM     61  C   UNL A   1      32.969  36.693  31.096  1.00  0.00     0.275 C 
BRANCH  61  62
ATOM     62  O   UNL A   1      34.177  36.929  31.834  1.00  0.00    -0.457 OA
BRANCH  62  63
ATOM     63  C   UNL A   1      34.087  36.647  33.166  1.00  0.00     0.356 C 
ATOM     64  O   UNL A   1      33.530  37.345  34.000  1.00  0.00    -0.244 OA
BRANCH  63  65
ATOM     65  C   UNL A   1      34.598  35.338  33.429  1.00  0.00     0.144 A 
ATOM     66  C   UNL A   1      35.872  34.834  33.615  1.00  0.00     0.066 A 
ATOM     67  N   UNL A   1      33.765  34.256  33.527  1.00  0.00    -0.271 N 
ATOM     68  C   UNL A   1      35.693  33.439  33.742  1.00  0.00     0.096 A 
ATOM     69  N   UNL A   1      34.409  33.085  33.644  1.00  0.00    -0.175 NA
ATOM     70  H   UNL A   1      32.784  34.332  33.511  1.00  0.00     0.190 HD
BRANCH  68  71
ATOM     71  C   UNL A   1      36.751  32.466  33.946  1.00  0.00     0.040 A 
ATOM     72  C   UNL A   1      36.887  31.235  33.261  1.00  0.00     0.052 A 
ATOM     73  C   UNL A   1      37.839  32.572  34.781  1.00  0.00     0.205 A 
ATOM     74  C   UNL A   1      38.066  30.685  33.711  1.00  0.00     0.195 A 
ATOM     75  O   UNL A   1      38.642  31.484  34.646  1.00  0.00    -0.472 OA
ENDBRANCH  68  71
ENDBRANCH  63  65
ENDBRANCH  62  63
ENDBRANCH  61  62
ENDBRANCH   1  61
TORSDOF 12
ENDMDL
MODEL 3
REMARK VINA RESULT:     -10.4      0.564      6.675
REMARK SMILES O=C(OCCOC(=O)c1cc(-c2ccoc2)n[nH]1)c1ccc(-c2c3nc(c(-c4c(F)cccc4F)c4ccc([nH]4)c(-c4c(F)cccc4F)c4nc(c(-c5c(F)cccc5F)c5ccc2[nH]5)C=C4)C=C3)cc1
REMARK SMILES IDX 4 1 3 2 2 3 1 4 19 5 20 6 72 7 21 8 71 9 22 10 23 11 24 12
REMARK SMILES IDX 65 13 25 14 70 15 64 16 66 17 26 18 69 19 63 20 62 21 27 23
REMARK SMILES IDX 53 24 36 25 52 26 37 27 40 28 51 29 67 30 38 31 39 32 50 34
REMARK SMILES IDX 68 35 41 36 28 37 29 38 34 39 30 40 31 41 33 42 35 43 32 44
REMARK SMILES IDX 54 45 55 46 60 47 56 48 57 49 59 50 61 51 58 52 42 53 43 54
REMARK SMILES IDX 48 55 44 56 45 57 47 58 49 59 46 60 5 61 6 62 7 63 8 64 9 65
REMARK SMILES IDX 10 66 18 67 11 68 17 69 12 71 13 72 16 73 14 74 15 75
REMARK H PARENT 66 22 40 33 18 70
REMARK Flexibility Score: inf
ROOT
ATOM      1  C   UNL A   1      43.036  18.122  26.669  1.00  0.00     0.275 C 
ENDROOT
BRANCH   1   2
ATOM      2  O   UNL A   1      41.881  18.539  25.917  1.00  0.00    -0.458 OA
BRANCH   2   3
ATOM      3  C   UNL A   1      41.032  19.580  26.080  1.00  0.00     0.338 C 
ATOM      4  O   UNL A   1      39.858  19.433  25.740  1.00  0.00    -0.246 OA
BRANCH   3   5
ATOM      5  C   UNL A   1      41.451  20.948  26.517  1.00  0.00     0.060 A 
ATOM      6  C   UNL A   1      42.020  21.935  25.710  1.00  0.00     0.016 A 
ATOM      7  C   UNL A   1      41.259  21.249  27.881  1.00  0.00     0.016 A 
ATOM      8  C   UNL A   1      42.324  23.200  26.223  1.00  0.00     0.010 A 
ATOM      9  C   UNL A   1      41.558  22.511  28.399  1.00  0.00     0.010 A 
ATOM     10  C   UNL A   1      42.092  23.497  27.567  1.00  0.00    -0.014 A 
BRANCH  10  11
ATOM     11  C   UNL A   1      42.520  24.803  28.113  1.00  0.00     0.031 A 
ATOM     12  C   UNL A   1      41.515  25.910  28.212  1.00  0.00     0.074 A 
ATOM     13  C   UNL A   1      43.777  24.975  28.559  1.00  0.00     0.049 A 
ATOM     14  N   UNL A   1      41.652  27.107  28.717  1.00  0.00    -0.248 NA
ATOM     15  C   UNL A   1      40.165  25.621  27.698  1.00  0.00     0.031 C 
ATOM     16  C   UNL A   1      44.823  23.954  28.552  1.00  0.00     0.029 A 
ATOM     17  N   UNL A   1      44.394  26.076  29.093  1.00  0.00    -0.354 N 
ATOM     18  C   UNL A   1      40.398  27.694  28.632  1.00  0.00     0.074 A 
ATOM     19  C   UNL A   1      39.530  26.753  27.958  1.00  0.00     0.031 C 
ATOM     20  C   UNL A   1      45.967  24.489  29.011  1.00  0.00     0.029 A 
ATOM     21  C   UNL A   1      45.729  25.886  29.356  1.00  0.00     0.049 A 
ATOM     22  H   UNL A   1      43.924  26.923  29.271  1.00  0.00     0.167 HD
ATOM     23  C   UNL A   1      39.997  28.894  29.110  1.00  0.00     0.037 A 
ATOM     24  C   UNL A   1      46.649  26.751  29.818  1.00  0.00     0.037 A 
ATOM     25  C   UNL A   1      40.876  29.845  29.731  1.00  0.00     0.049 A 
ATOM     26  C   UNL A   1      46.215  28.139  30.190  1.00  0.00     0.074 A 
ATOM     27  C   UNL A   1      40.585  31.102  30.228  1.00  0.00     0.029 A 
ATOM     28  N   UNL A   1      42.238  29.643  29.919  1.00  0.00    -0.354 N 
ATOM     29  N   UNL A   1      45.017  28.669  30.147  1.00  0.00    -0.248 NA
ATOM     30  C   UNL A   1      47.258  29.043  30.696  1.00  0.00     0.031 C 
ATOM     31  C   UNL A   1      41.777  31.674  30.690  1.00  0.00     0.029 A 
ATOM     32  C   UNL A   1      42.804  30.759  30.510  1.00  0.00     0.049 A 
ATOM     33  H   UNL A   1      42.727  28.827  29.669  1.00  0.00     0.167 HD
ATOM     34  C   UNL A   1      45.150  29.952  30.658  1.00  0.00     0.074 A 
ATOM     35  C   UNL A   1      46.549  30.122  30.997  1.00  0.00     0.031 C 
ATOM     36  C   UNL A   1      44.198  30.898  30.845  1.00  0.00     0.037 A 
BRANCH  23  37
ATOM     37  C   UNL A   1      38.541  29.218  28.973  1.00  0.00     0.057 A 
ATOM     38  C   UNL A   1      38.010  29.655  27.751  1.00  0.00     0.134 A 
ATOM     39  C   UNL A   1      37.669  29.125  30.062  1.00  0.00     0.134 A 
ATOM     40  F   UNL A   1      38.799  29.786  26.674  1.00  0.00    -0.206 F 
ATOM     41  C   UNL A   1      36.667  30.015  27.625  1.00  0.00     0.040 A 
ATOM     42  C   UNL A   1      36.321  29.464  29.945  1.00  0.00     0.040 A 
ATOM     43  F   UNL A   1      38.116  28.718  31.259  1.00  0.00    -0.206 F 
ATOM     44  C   UNL A   1      35.818  29.918  28.726  1.00  0.00     0.006 A 
ENDBRANCH  23  37
BRANCH  24  45
ATOM     45  C   UNL A   1      48.067  26.340  29.958  1.00  0.00     0.057 A 
ATOM     46  C   UNL A   1      48.985  26.499  28.916  1.00  0.00     0.134 A 
ATOM     47  C   UNL A   1      48.526  25.738  31.134  1.00  0.00     0.134 A 
ATOM     48  F   UNL A   1      48.596  27.039  27.751  1.00  0.00    -0.206 F 
ATOM     49  C   UNL A   1      50.307  26.066  29.035  1.00  0.00     0.040 A 
ATOM     50  C   UNL A   1      49.850  25.321  31.278  1.00  0.00     0.040 A 
ATOM     51  F   UNL A   1      47.686  25.525  32.155  1.00  0.00    -0.206 F 
ATOM     52  C   UNL A   1      50.745  25.481  30.222  1.00  0.00     0.006 A 
ENDBRANCH  24  45
BRANCH  36  53
ATOM     53  C   UNL A   1      44.636  32.176  31.491  1.00  0.00     0.057 A 
ATOM     54  C   UNL A   1      45.079  33.270  30.739  1.00  0.00     0.134 A 
ATOM     55  C   UNL A   1      44.587  32.315  32.883  1.00  0.00     0.134 A 
ATOM     56  F   UNL A   1      45.165  33.186  29.403  1.00  0.00    -0.206 F 
ATOM     57  C   UNL A   1      45.476  34.457  31.354  1.00  0.00     0.040 A 
ATOM     58  C   UNL A   1      44.960  33.505  33.507  1.00  0.00     0.040 A 
ATOM     59  F   UNL A   1      44.168  31.303  33.657  1.00  0.00    -0.206 F 
ATOM     60  C   UNL A   1      45.412  34.579  32.742  1.00  0.00     0.006 A 
ENDBRANCH  36  53
ENDBRANCH  10  11
ENDBRANCH   3   5
ENDBRANCH   2   3
ENDBRANCH   1   2
BRANCH   1  61
ATOM     61  C   UNL A   1      44.351  18.105  25.883  1.00  0.00     0.275 C 
BRANCH  61  62
ATOM     62  O   UNL A   1      44.489  19.194  24.958  1.00  0.00    -0.457 OA
BRANCH  62  63
ATOM     63  C   UNL A   1      45.720  19.783  24.962  1.00  0.00     0.356 C 
ATOM     64  O   UNL A   1      46.787  19.190  25.020  1.00  0.00    -0.244 OA
BRANCH  63  65
ATOM     65  C   UNL A   1      45.596  21.188  24.730  1.00  0.00     0.144 A 
ATOM     66  C   UNL A   1      45.943  22.308  25.462  1.00  0.00     0.066 A 
ATOM     67  N   UNL A   1      45.014  21.671  23.588  1.00  0.00    -0.271 N 
ATOM     68  C   UNL A   1      45.460  23.398  24.705  1.00  0.00     0.096 A 
ATOM     69  N   UNL A   1      44.855  23.003  23.582  1.00  0.00    -0.175 NA
ATOM     70  H   UNL A   1      44.738  21.092  22.841  1.00  0.00     0.190 HD
BRANCH  68  71
ATOM     71  C   UNL A   1      45.578  24.799  25.070  1.00  0.00     0.040 A 
ATOM     72  C   UNL A   1      44.516  25.734  25.114  1.00  0.00     0.052 A 
ATOM     73  C   UNL A   1      46.704  25.464  25.495  1.00  0.00     0.205 A 
ATOM     74  C   UNL A   1      45.068  26.903  25.587  1.00  0.00     0.195 A 
ATOM     75  O   UNL A   1      46.400  26.751  25.805  1.00  0.00    -0.472 OA
ENDBRANCH  68  71
ENDBRANCH  63  65
ENDBRANCH  62  63
ENDBRANCH  61  62
ENDBRANCH   1  61
TORSDOF 12
ENDMDL
