MODEL 1
REMARK VINA RESULT:     -13.9      0.000      0.000
REMARK SMILES Cc1cccc(-n2c(C)cc(/C=N\c3ccc(O)c(C(=O)OCCOC(=O)c4ccc(-c5c6nc(c(-c7c(F)cccc7F)c7ccc([nH]7)c(-c7c(F)cccc7F)c7nc(c(-c8c(F)cccc8F)c8ccc5[nH]8)C=C7)C=C6)cc4)c3)c2C)c1
REMARK SMILES IDX 23 1 22 2 20 3 21 4 19 5 14 6 15 7 82 8 16 9 17 10 13 11
REMARK SMILES IDX 12 12 11 13 7 14 8 15 83 16 9 17 10 18 84 19 6 20 1 21 2 22
REMARK SMILES IDX 3 23 85 24 4 25 5 26 18 27 24 29 25 30 26 31 27 32 28 33
REMARK SMILES IDX 29 34 81 35 30 36 80 37 31 38 32 39 33 40 74 41 34 42 79 43
REMARK SMILES IDX 73 44 75 45 35 46 78 47 72 48 71 49 36 51 62 52 45 53 61 54
REMARK SMILES IDX 46 55 49 56 60 57 76 58 47 59 48 60 59 62 77 63 50 64 37 65
REMARK SMILES IDX 38 66 43 67 39 68 40 69 42 70 44 71 41 72 63 73 64 74 69 75
REMARK SMILES IDX 65 76 66 77 68 78 70 79 67 80 51 81 52 82 57 83 53 84 54 85
REMARK SMILES IDX 56 86 58 87 55 88
REMARK H PARENT 18 28 75 50 49 61
REMARK Flexibility Score: inf
ROOT
ATOM      1  C   UNL A   1      40.576  20.532  26.553  1.00  0.00     0.275 C 
ENDROOT
BRANCH   1   2
ATOM      2  O   UNL A   1      39.394  21.322  26.320  1.00  0.00    -0.458 OA
BRANCH   2   3
ATOM      3  C   UNL A   1      38.368  20.762  25.377  1.00  0.00     0.342 C 
ATOM      4  O   UNL A   1      38.860  19.605  25.217  1.00  0.00    -0.246 OA
BRANCH   3   5
ATOM      5  C   UNL A   1      36.586  21.725  24.638  1.00  0.00     0.103 A 
ATOM      6  C   UNL A   1      33.876  22.217  24.838  1.00  0.00     0.064 A 
ATOM      7  C   UNL A   1      33.910  23.309  24.018  1.00  0.00     0.032 A 
ATOM      8  C   UNL A   1      35.111  21.570  25.155  1.00  0.00     0.048 A 
ATOM      9  C   UNL A   1      35.088  23.547  23.337  1.00  0.00     0.049 A 
ATOM     10  C   UNL A   1      36.280  22.759  23.536  1.00  0.00     0.130 A 
BRANCH   6  11
ATOM     11  N   UNL A   1      32.704  21.769  25.451  1.00  0.00    -0.256 NA
ATOM     12  C   UNL A   1      31.653  22.491  25.723  1.00  0.00     0.121 C 
BRANCH  12  13
ATOM     13  C   UNL A   1      31.320  23.906  25.530  1.00  0.00     0.014 A 
ATOM     14  N   UNL A   1      30.786  25.967  24.756  1.00  0.00    -0.318 N 
ATOM     15  C   UNL A   1      31.180  26.134  26.068  1.00  0.00     0.021 A 
ATOM     16  C   UNL A   1      30.762  24.604  24.461  1.00  0.00     0.029 A 
ATOM     17  C   UNL A   1      31.190  27.458  26.754  1.00  0.00     0.065 C 
ATOM     18  C   UNL A   1      31.487  24.883  26.566  1.00  0.00     0.033 A 
ATOM     19  C   UNL A   1      30.291  24.120  23.140  1.00  0.00     0.065 C 
BRANCH  14  20
ATOM     20  C   UNL A   1      30.600  26.994  23.796  1.00  0.00     0.046 A 
ATOM     21  C   UNL A   1      27.785  29.327  22.755  1.00  0.00     0.044 C 
ATOM     22  C   UNL A   1      29.146  28.723  22.935  1.00  0.00    -0.049 A 
ATOM     23  C   UNL A   1      30.276  29.413  22.471  1.00  0.00     0.003 A 
ATOM     24  C   UNL A   1      29.311  27.502  23.601  1.00  0.00     0.030 A 
ATOM     25  C   UNL A   1      31.551  28.867  22.612  1.00  0.00     0.002 A 
ATOM     26  C   UNL A   1      31.713  27.643  23.254  1.00  0.00     0.026 A 
ENDBRANCH  14  20
ENDBRANCH  12  13
ENDBRANCH   6  11
BRANCH  10  27
ATOM     27  O   UNL A   1      37.036  22.986  22.371  1.00  0.00    -0.507 OA
ATOM     28  H   UNL A   1      37.900  23.343  22.435  1.00  0.00     0.293 HD
ENDBRANCH  10  27
ENDBRANCH   3   5
ENDBRANCH   2   3
ENDBRANCH   1   2
BRANCH   1  29
ATOM     29  C   UNL A   1      41.723  21.481  26.925  1.00  0.00     0.275 C 
BRANCH  29  30
ATOM     30  O   UNL A   1      41.742  22.739  26.191  1.00  0.00    -0.458 OA
BRANCH  30  31
ATOM     31  C   UNL A   1      42.050  23.903  26.836  1.00  0.00     0.338 C 
ATOM     32  O   UNL A   1      42.931  24.035  27.664  1.00  0.00    -0.246 OA
BRANCH  31  33
ATOM     33  C   UNL A   1      41.010  24.934  26.622  1.00  0.00     0.060 A 
ATOM     34  C   UNL A   1      41.573  26.427  25.766  1.00  0.00     0.016 A 
ATOM     35  C   UNL A   1      39.814  25.053  27.963  1.00  0.00     0.016 A 
ATOM     36  C   UNL A   1      40.971  28.088  26.329  1.00  0.00     0.010 A 
ATOM     37  C   UNL A   1      39.239  26.709  28.529  1.00  0.00     0.010 A 
ATOM     38  C   UNL A   1      39.833  28.209  27.723  1.00  0.00    -0.014 A 
BRANCH  38  39
ATOM     39  C   UNL A   1      39.929  29.330  28.662  1.00  0.00     0.031 A 
ATOM     40  C   UNL A   1      38.824  30.297  28.753  1.00  0.00     0.074 A 
ATOM     41  C   UNL A   1      40.947  29.346  29.558  1.00  0.00     0.049 A 
ATOM     42  N   UNL A   1      38.960  31.461  29.277  1.00  0.00    -0.248 NA
ATOM     43  C   UNL A   1      37.483  30.069  28.230  1.00  0.00     0.031 C 
ATOM     44  C   UNL A   1      41.095  30.129  30.783  1.00  0.00     0.029 A 
ATOM     45  N   UNL A   1      42.157  28.683  29.499  1.00  0.00    -0.354 N 
ATOM     46  C   UNL A   1      37.715  32.027  29.405  1.00  0.00     0.074 A 
ATOM     47  C   UNL A   1      36.830  31.143  28.688  1.00  0.00     0.031 C 
ATOM     48  C   UNL A   1      42.382  30.090  31.181  1.00  0.00     0.029 A 
ATOM     49  C   UNL A   1      43.149  29.375  30.174  1.00  0.00     0.049 A 
ATOM     50  H   UNL A   1      42.297  27.826  29.035  1.00  0.00     0.167 HD
ATOM     51  C   UNL A   1      37.587  33.128  30.197  1.00  0.00     0.037 A 
ATOM     52  C   UNL A   1      44.206  29.872  29.463  1.00  0.00     0.037 A 
ATOM     53  C   UNL A   1      38.895  33.515  30.736  1.00  0.00     0.049 A 
ATOM     54  C   UNL A   1      44.060  31.372  29.224  1.00  0.00     0.074 A 
ATOM     55  C   UNL A   1      39.571  33.249  31.916  1.00  0.00     0.029 A 
ATOM     56  N   UNL A   1      39.859  33.944  29.846  1.00  0.00    -0.354 N 
ATOM     57  N   UNL A   1      43.090  32.101  29.710  1.00  0.00    -0.248 NA
ATOM     58  C   UNL A   1      44.953  32.161  28.376  1.00  0.00     0.031 C 
ATOM     59  C   UNL A   1      40.962  33.500  31.694  1.00  0.00     0.029 A 
ATOM     60  C   UNL A   1      41.125  33.954  30.396  1.00  0.00     0.049 A 
ATOM     61  H   UNL A   1      39.665  34.213  28.920  1.00  0.00     0.167 HD
ATOM     62  C   UNL A   1      43.166  33.380  29.232  1.00  0.00     0.074 A 
ATOM     63  C   UNL A   1      44.347  33.362  28.384  1.00  0.00     0.031 C 
ATOM     64  C   UNL A   1      42.245  34.345  29.546  1.00  0.00     0.037 A 
BRANCH  51  65
ATOM     65  C   UNL A   1      36.279  33.726  30.651  1.00  0.00     0.057 A 
ATOM     66  C   UNL A   1      35.383  34.265  29.708  1.00  0.00     0.134 A 
ATOM     67  C   UNL A   1      35.844  33.825  31.986  1.00  0.00     0.134 A 
ATOM     68  F   UNL A   1      35.608  34.171  28.391  1.00  0.00    -0.206 F 
ATOM     69  C   UNL A   1      34.206  34.935  30.068  1.00  0.00     0.040 A 
ATOM     70  C   UNL A   1      34.693  34.533  32.364  1.00  0.00     0.040 A 
ATOM     71  F   UNL A   1      36.474  33.193  32.983  1.00  0.00    -0.206 F 
ATOM     72  C   UNL A   1      33.872  35.101  31.402  1.00  0.00     0.006 A 
ENDBRANCH  51  65
BRANCH  52  73
ATOM     73  C   UNL A   1      44.790  28.853  28.527  1.00  0.00     0.057 A 
ATOM     74  C   UNL A   1      45.433  27.735  29.105  1.00  0.00     0.134 A 
ATOM     75  C   UNL A   1      44.444  28.735  27.179  1.00  0.00     0.134 A 
ATOM     76  F   UNL A   1      45.847  27.783  30.382  1.00  0.00    -0.206 F 
ATOM     77  C   UNL A   1      45.561  26.514  28.438  1.00  0.00     0.040 A 
ATOM     78  C   UNL A   1      44.600  27.520  26.485  1.00  0.00     0.040 A 
ATOM     79  F   UNL A   1      43.811  29.729  26.541  1.00  0.00    -0.206 F 
ATOM     80  C   UNL A   1      45.114  26.394  27.129  1.00  0.00     0.006 A 
ENDBRANCH  52  73
BRANCH  64  81
ATOM     81  C   UNL A   1      42.328  35.767  29.043  1.00  0.00     0.057 A 
ATOM     82  C   UNL A   1      41.692  36.183  27.867  1.00  0.00     0.134 A 
ATOM     83  C   UNL A   1      43.138  36.749  29.660  1.00  0.00     0.134 A 
ATOM     84  F   UNL A   1      41.005  35.318  27.107  1.00  0.00    -0.206 F 
ATOM     85  C   UNL A   1      41.760  37.502  27.405  1.00  0.00     0.040 A 
ATOM     86  C   UNL A   1      43.269  38.049  29.169  1.00  0.00     0.040 A 
ATOM     87  F   UNL A   1      43.826  36.517  30.785  1.00  0.00    -0.206 F 
ATOM     88  C   UNL A   1      42.550  38.441  28.056  1.00  0.00     0.006 A 
ENDBRANCH  64  81
ENDBRANCH  38  39
ENDBRANCH  31  33
ENDBRANCH  30  31
ENDBRANCH  29  30
ENDBRANCH   1  29
TORSDOF 15
ENDMDL
MODEL 2
REMARK VINA RESULT:     -13.9      1.436      2.339
REMARK SMILES Cc1cccc(-n2c(C)cc(/C=N\c3ccc(O)c(C(=O)OCCOC(=O)c4ccc(-c5c6nc(c(-c7c(F)cccc7F)c7ccc([nH]7)c(-c7c(F)cccc7F)c7nc(c(-c8c(F)cccc8F)c8ccc5[nH]8)C=C7)C=C6)cc4)c3)c2C)c1
REMARK SMILES IDX 23 1 22 2 20 3 21 4 19 5 14 6 15 7 82 8 16 9 17 10 13 11
REMARK SMILES IDX 12 12 11 13 7 14 8 15 83 16 9 17 10 18 84 19 6 20 1 21 2 22
REMARK SMILES IDX 3 23 85 24 4 25 5 26 18 27 24 29 25 30 26 31 27 32 28 33
REMARK SMILES IDX 29 34 81 35 30 36 80 37 31 38 32 39 33 40 74 41 34 42 79 43
REMARK SMILES IDX 73 44 75 45 35 46 78 47 72 48 71 49 36 51 62 52 45 53 61 54
REMARK SMILES IDX 46 55 49 56 60 57 76 58 47 59 48 60 59 62 77 63 50 64 37 65
REMARK SMILES IDX 38 66 43 67 39 68 40 69 42 70 44 71 41 72 63 73 64 74 69 75
REMARK SMILES IDX 65 76 66 77 68 78 70 79 67 80 51 81 52 82 57 83 53 84 54 85
REMARK SMILES IDX 56 86 58 87 55 88
REMARK H PARENT 18 28 75 50 49 61
REMARK Flexibility Score: inf
ROOT
ATOM      1  C   UNL A   1      39.241  21.330  25.780  1.00  0.00     0.275 C 
ENDROOT
BRANCH   1   2
ATOM      2  O   UNL A   1      38.131  22.248  25.811  1.00  0.00    -0.458 OA
BRANCH   2   3
ATOM      3  C   UNL A   1      36.882  21.839  25.084  1.00  0.00     0.342 C 
ATOM      4  O   UNL A   1      37.411  21.176  24.143  1.00  0.00    -0.246 OA
BRANCH   3   5
ATOM      5  C   UNL A   1      34.839  22.267  25.625  1.00  0.00     0.103 A 
ATOM      6  C   UNL A   1      32.238  22.830  24.886  1.00  0.00     0.064 A 
ATOM      7  C   UNL A   1      31.716  22.523  26.109  1.00  0.00     0.032 A 
ATOM      8  C   UNL A   1      33.639  22.634  24.679  1.00  0.00     0.048 A 
ATOM      9  C   UNL A   1      32.611  22.306  27.139  1.00  0.00     0.049 A 
ATOM     10  C   UNL A   1      34.041  22.296  26.943  1.00  0.00     0.130 A 
BRANCH   6  11
ATOM     11  N   UNL A   1      31.448  23.235  23.807  1.00  0.00    -0.256 NA
ATOM     12  C   UNL A   1      31.445  24.416  23.256  1.00  0.00     0.121 C 
BRANCH  12  13
ATOM     13  C   UNL A   1      32.176  25.659  23.522  1.00  0.00     0.014 A 
ATOM     14  N   UNL A   1      33.047  27.578  24.351  1.00  0.00    -0.318 N 
ATOM     15  C   UNL A   1      33.420  27.524  23.024  1.00  0.00     0.021 A 
ATOM     16  C   UNL A   1      32.388  26.395  24.685  1.00  0.00     0.029 A 
ATOM     17  C   UNL A   1      34.258  28.568  22.369  1.00  0.00     0.065 C 
ATOM     18  C   UNL A   1      32.919  26.346  22.505  1.00  0.00     0.033 A 
ATOM     19  C   UNL A   1      31.946  26.138  26.078  1.00  0.00     0.065 C 
BRANCH  14  20
ATOM     20  C   UNL A   1      33.148  28.704  25.209  1.00  0.00     0.046 A 
ATOM     21  C   UNL A   1      30.959  31.667  26.147  1.00  0.00     0.044 C 
ATOM     22  C   UNL A   1      32.036  30.624  26.170  1.00  0.00    -0.049 A 
ATOM     23  C   UNL A   1      32.901  30.546  27.272  1.00  0.00     0.003 A 
ATOM     24  C   UNL A   1      32.164  29.695  25.129  1.00  0.00     0.030 A 
ATOM     25  C   UNL A   1      33.920  29.595  27.312  1.00  0.00     0.002 A 
ATOM     26  C   UNL A   1      34.061  28.687  26.267  1.00  0.00     0.026 A 
ENDBRANCH  14  20
ENDBRANCH  12  13
ENDBRANCH   6  11
BRANCH  10  27
ATOM     27  O   UNL A   1      34.561  22.533  28.229  1.00  0.00    -0.507 OA
ATOM     28  H   UNL A   1      34.263  23.268  28.727  1.00  0.00     0.293 HD
ENDBRANCH  10  27
ENDBRANCH   3   5
ENDBRANCH   2   3
ENDBRANCH   1   2
BRANCH   1  29
ATOM     29  C   UNL A   1      40.300  21.822  26.776  1.00  0.00     0.275 C 
BRANCH  29  30
ATOM     30  O   UNL A   1      41.389  22.590  26.187  1.00  0.00    -0.458 OA
BRANCH  30  31
ATOM     31  C   UNL A   1      41.785  23.765  26.759  1.00  0.00     0.338 C 
ATOM     32  O   UNL A   1      42.702  23.888  27.550  1.00  0.00    -0.246 OA
BRANCH  31  33
ATOM     33  C   UNL A   1      40.799  24.843  26.525  1.00  0.00     0.060 A 
ATOM     34  C   UNL A   1      41.456  26.324  25.718  1.00  0.00     0.016 A 
ATOM     35  C   UNL A   1      39.558  24.991  27.822  1.00  0.00     0.016 A 
ATOM     36  C   UNL A   1      40.903  28.001  26.288  1.00  0.00     0.010 A 
ATOM     37  C   UNL A   1      39.032  26.661  28.396  1.00  0.00     0.010 A 
ATOM     38  C   UNL A   1      39.718  28.147  27.640  1.00  0.00    -0.014 A 
BRANCH  38  39
ATOM     39  C   UNL A   1      39.826  29.247  28.602  1.00  0.00     0.031 A 
ATOM     40  C   UNL A   1      38.737  30.231  28.703  1.00  0.00     0.074 A 
ATOM     41  C   UNL A   1      40.836  29.228  29.506  1.00  0.00     0.049 A 
ATOM     42  N   UNL A   1      38.888  31.382  29.251  1.00  0.00    -0.248 NA
ATOM     43  C   UNL A   1      37.396  30.037  28.165  1.00  0.00     0.031 C 
ATOM     44  C   UNL A   1      40.987  29.984  30.748  1.00  0.00     0.029 A 
ATOM     45  N   UNL A   1      42.035  28.546  29.444  1.00  0.00    -0.354 N 
ATOM     46  C   UNL A   1      37.651  31.966  29.381  1.00  0.00     0.074 A 
ATOM     47  C   UNL A   1      36.758  31.111  28.640  1.00  0.00     0.031 C 
ATOM     48  C   UNL A   1      42.270  29.915  31.155  1.00  0.00     0.029 A 
ATOM     49  C   UNL A   1      43.033  29.207  30.141  1.00  0.00     0.049 A 
ATOM     50  H   UNL A   1      42.165  27.696  28.963  1.00  0.00     0.167 HD
ATOM     51  C   UNL A   1      37.535  33.053  30.194  1.00  0.00     0.037 A 
ATOM     52  C   UNL A   1      44.105  29.700  29.448  1.00  0.00     0.037 A 
ATOM     53  C   UNL A   1      38.845  33.407  30.751  1.00  0.00     0.049 A 
ATOM     54  C   UNL A   1      43.986  31.207  29.238  1.00  0.00     0.074 A 
ATOM     55  C   UNL A   1      39.506  33.106  31.931  1.00  0.00     0.029 A 
ATOM     56  N   UNL A   1      39.823  33.837  29.878  1.00  0.00    -0.354 N 
ATOM     57  N   UNL A   1      43.024  31.943  29.731  1.00  0.00    -0.248 NA
ATOM     58  C   UNL A   1      44.899  31.997  28.414  1.00  0.00     0.031 C 
ATOM     59  C   UNL A   1      40.903  33.338  31.725  1.00  0.00     0.029 A 
ATOM     60  C   UNL A   1      41.085  33.815  30.438  1.00  0.00     0.049 A 
ATOM     61  H   UNL A   1      39.642  34.128  28.955  1.00  0.00     0.167 HD
ATOM     62  C   UNL A   1      43.125  33.229  29.279  1.00  0.00     0.074 A 
ATOM     63  C   UNL A   1      44.313  33.208  28.441  1.00  0.00     0.031 C 
ATOM     64  C   UNL A   1      42.218  34.204  29.605  1.00  0.00     0.037 A 
BRANCH  51  65
ATOM     65  C   UNL A   1      36.234  33.664  30.649  1.00  0.00     0.057 A 
ATOM     66  C   UNL A   1      35.355  34.239  29.710  1.00  0.00     0.134 A 
ATOM     67  C   UNL A   1      35.789  33.742  31.982  1.00  0.00     0.134 A 
ATOM     68  F   UNL A   1      35.590  34.168  28.394  1.00  0.00    -0.206 F 
ATOM     69  C   UNL A   1      34.187  34.921  30.074  1.00  0.00     0.040 A 
ATOM     70  C   UNL A   1      34.647  34.463  32.365  1.00  0.00     0.040 A 
ATOM     71  F   UNL A   1      36.399  33.079  32.971  1.00  0.00    -0.206 F 
ATOM     72  C   UNL A   1      33.844  35.065  31.409  1.00  0.00     0.006 A 
ENDBRANCH  51  65
BRANCH  52  73
ATOM     73  C   UNL A   1      44.679  28.691  28.497  1.00  0.00     0.057 A 
ATOM     74  C   UNL A   1      44.433  28.883  27.118  1.00  0.00     0.134 A 
ATOM     75  C   UNL A   1      45.711  27.805  28.820  1.00  0.00     0.134 A 
ATOM     76  F   UNL A   1      43.426  29.677  26.720  1.00  0.00    -0.206 F 
ATOM     77  C   UNL A   1      45.273  28.371  26.127  1.00  0.00     0.040 A 
ATOM     78  C   UNL A   1      46.542  27.254  27.827  1.00  0.00     0.040 A 
ATOM     79  F   UNL A   1      46.039  27.568  30.097  1.00  0.00    -0.206 F 
ATOM     80  C   UNL A   1      46.354  27.576  26.483  1.00  0.00     0.006 A 
ENDBRANCH  52  73
BRANCH  64  81
ATOM     81  C   UNL A   1      42.330  35.634  29.131  1.00  0.00     0.057 A 
ATOM     82  C   UNL A   1      41.599  36.119  28.040  1.00  0.00     0.134 A 
ATOM     83  C   UNL A   1      43.254  36.551  29.683  1.00  0.00     0.134 A 
ATOM     84  F   UNL A   1      40.788  35.317  27.336  1.00  0.00    -0.206 F 
ATOM     85  C   UNL A   1      41.693  37.447  27.606  1.00  0.00     0.040 A 
ATOM     86  C   UNL A   1      43.408  37.856  29.213  1.00  0.00     0.040 A 
ATOM     87  F   UNL A   1      44.042  36.247  30.722  1.00  0.00    -0.206 F 
ATOM     88  C   UNL A   1      42.600  38.321  28.193  1.00  0.00     0.006 A 
ENDBRANCH  64  81
ENDBRANCH  38  39
ENDBRANCH  31  33
ENDBRANCH  30  31
ENDBRANCH  29  30
ENDBRANCH   1  29
TORSDOF 15
ENDMDL
MODEL 3
REMARK VINA RESULT:     -13.6      4.104      9.692
REMARK SMILES Cc1cccc(-n2c(C)cc(/C=N\c3ccc(O)c(C(=O)OCCOC(=O)c4ccc(-c5c6nc(c(-c7c(F)cccc7F)c7ccc([nH]7)c(-c7c(F)cccc7F)c7nc(c(-c8c(F)cccc8F)c8ccc5[nH]8)C=C7)C=C6)cc4)c3)c2C)c1
REMARK SMILES IDX 23 1 22 2 20 3 21 4 19 5 14 6 15 7 82 8 16 9 17 10 13 11
REMARK SMILES IDX 12 12 11 13 7 14 8 15 83 16 9 17 10 18 84 19 6 20 1 21 2 22
REMARK SMILES IDX 3 23 85 24 4 25 5 26 18 27 24 29 25 30 26 31 27 32 28 33
REMARK SMILES IDX 29 34 81 35 30 36 80 37 31 38 32 39 33 40 74 41 34 42 79 43
REMARK SMILES IDX 73 44 75 45 35 46 78 47 72 48 71 49 36 51 62 52 45 53 61 54
REMARK SMILES IDX 46 55 49 56 60 57 76 58 47 59 48 60 59 62 77 63 50 64 37 65
REMARK SMILES IDX 38 66 43 67 39 68 40 69 42 70 44 71 41 72 63 73 64 74 69 75
REMARK SMILES IDX 65 76 66 77 68 78 70 79 67 80 51 81 52 82 57 83 53 84 54 85
REMARK SMILES IDX 56 86 58 87 55 88
REMARK H PARENT 18 28 75 50 49 61
REMARK Flexibility Score: inf
ROOT
ATOM      1  C   UNL A   1      33.261  33.645  28.031  1.00  0.00     0.275 C 
ENDROOT
BRANCH   1   2
ATOM      2  O   UNL A   1      33.304  32.236  27.733  1.00  0.00    -0.458 OA
BRANCH   2   3
ATOM      3  C   UNL A   1      32.117  31.647  27.027  1.00  0.00     0.342 C 
ATOM      4  O   UNL A   1      31.422  32.699  26.901  1.00  0.00    -0.246 OA
BRANCH   3   5
ATOM      5  C   UNL A   1      31.830  29.602  26.405  1.00  0.00     0.103 A 
ATOM      6  C   UNL A   1      31.718  27.707  24.399  1.00  0.00     0.064 A 
ATOM      7  C   UNL A   1      31.843  26.648  25.253  1.00  0.00     0.032 A 
ATOM      8  C   UNL A   1      31.789  29.027  24.943  1.00  0.00     0.048 A 
ATOM      9  C   UNL A   1      31.756  26.917  26.604  1.00  0.00     0.049 A 
ATOM     10  C   UNL A   1      31.641  28.256  27.131  1.00  0.00     0.130 A 
BRANCH   6  11
ATOM     11  N   UNL A   1      31.619  27.553  23.015  1.00  0.00    -0.256 NA
ATOM     12  C   UNL A   1      31.968  26.500  22.330  1.00  0.00     0.121 C 
BRANCH  12  13
ATOM     13  C   UNL A   1      32.550  25.205  22.693  1.00  0.00     0.014 A 
ATOM     14  N   UNL A   1      33.004  23.115  23.440  1.00  0.00    -0.318 N 
ATOM     15  C   UNL A   1      34.220  23.688  23.127  1.00  0.00     0.021 A 
ATOM     16  C   UNL A   1      31.982  23.991  23.074  1.00  0.00     0.029 A 
ATOM     17  C   UNL A   1      35.519  22.971  23.266  1.00  0.00     0.065 C 
ATOM     18  C   UNL A   1      33.962  24.956  22.645  1.00  0.00     0.033 A 
ATOM     19  C   UNL A   1      30.558  23.600  23.216  1.00  0.00     0.065 C 
BRANCH  14  20
ATOM     20  C   UNL A   1      32.802  21.916  24.172  1.00  0.00     0.046 A 
ATOM     21  C   UNL A   1      32.485  18.213  23.377  1.00  0.00     0.044 C 
ATOM     22  C   UNL A   1      32.692  19.502  24.115  1.00  0.00    -0.049 A 
ATOM     23  C   UNL A   1      33.075  19.474  25.464  1.00  0.00     0.003 A 
ATOM     24  C   UNL A   1      32.552  20.735  23.465  1.00  0.00     0.030 A 
ATOM     25  C   UNL A   1      33.259  20.657  26.177  1.00  0.00     0.002 A 
ATOM     26  C   UNL A   1      33.099  21.883  25.538  1.00  0.00     0.026 A 
ENDBRANCH  14  20
ENDBRANCH  12  13
ENDBRANCH   6  11
BRANCH  10  27
ATOM     27  O   UNL A   1      31.105  28.070  28.419  1.00  0.00    -0.507 OA
ATOM     28  H   UNL A   1      31.197  28.741  29.066  1.00  0.00     0.293 HD
ENDBRANCH  10  27
ENDBRANCH   3   5
ENDBRANCH   2   3
ENDBRANCH   1   2
BRANCH   1  29
ATOM     29  C   UNL A   1      34.379  33.959  29.035  1.00  0.00     0.275 C 
BRANCH  29  30
ATOM     30  O   UNL A   1      34.638  32.911  30.014  1.00  0.00    -0.458 OA
BRANCH  30  31
ATOM     31  C   UNL A   1      35.919  32.515  30.270  1.00  0.00     0.338 C 
ATOM     32  O   UNL A   1      36.843  33.258  30.543  1.00  0.00    -0.246 OA
BRANCH  31  33
ATOM     33  C   UNL A   1      36.131  31.096  29.909  1.00  0.00     0.060 A 
ATOM     34  C   UNL A   1      36.523  30.000  31.295  1.00  0.00     0.016 A 
ATOM     35  C   UNL A   1      36.931  30.861  28.312  1.00  0.00     0.016 A 
ATOM     36  C   UNL A   1      37.812  28.682  31.087  1.00  0.00     0.010 A 
ATOM     37  C   UNL A   1      38.226  29.564  28.122  1.00  0.00     0.010 A 
ATOM     38  C   UNL A   1      38.667  28.500  29.510  1.00  0.00    -0.014 A 
BRANCH  38  39
ATOM     39  C   UNL A   1      40.081  28.119  29.475  1.00  0.00     0.031 A 
ATOM     40  C   UNL A   1      40.472  26.838  28.865  1.00  0.00     0.074 A 
ATOM     41  C   UNL A   1      41.015  29.035  29.834  1.00  0.00     0.049 A 
ATOM     42  N   UNL A   1      41.607  26.279  29.087  1.00  0.00    -0.248 NA
ATOM     43  C   UNL A   1      39.618  26.046  27.989  1.00  0.00     0.031 C 
ATOM     44  C   UNL A   1      42.454  29.042  29.585  1.00  0.00     0.029 A 
ATOM     45  N   UNL A   1      40.857  30.166  30.611  1.00  0.00    -0.354 N 
ATOM     46  C   UNL A   1      41.749  25.227  28.215  1.00  0.00     0.074 A 
ATOM     47  C   UNL A   1      40.460  25.089  27.586  1.00  0.00     0.031 C 
ATOM     48  C   UNL A   1      43.040  29.947  30.394  1.00  0.00     0.029 A 
ATOM     49  C   UNL A   1      42.025  30.487  31.283  1.00  0.00     0.049 A 
ATOM     50  H   UNL A   1      40.019  30.678  30.679  1.00  0.00     0.167 HD
ATOM     51  C   UNL A   1      42.987  24.676  28.070  1.00  0.00     0.037 A 
ATOM     52  C   UNL A   1      42.036  30.427  32.650  1.00  0.00     0.037 A 
ATOM     53  C   UNL A   1      43.942  25.340  28.963  1.00  0.00     0.049 A 
ATOM     54  C   UNL A   1      42.726  29.160  33.146  1.00  0.00     0.074 A 
ATOM     55  C   UNL A   1      44.839  26.385  28.814  1.00  0.00     0.029 A 
ATOM     56  N   UNL A   1      43.754  25.205  30.324  1.00  0.00    -0.354 N 
ATOM     57  N   UNL A   1      43.305  28.286  32.364  1.00  0.00    -0.248 NA
ATOM     58  C   UNL A   1      42.771  28.741  34.546  1.00  0.00     0.031 C 
ATOM     59  C   UNL A   1      45.153  26.887  30.117  1.00  0.00     0.029 A 
ATOM     60  C   UNL A   1      44.479  26.124  31.056  1.00  0.00     0.049 A 
ATOM     61  H   UNL A   1      43.166  24.527  30.729  1.00  0.00     0.167 HD
ATOM     62  C   UNL A   1      43.733  27.206  33.086  1.00  0.00     0.074 A 
ATOM     63  C   UNL A   1      43.359  27.534  34.452  1.00  0.00     0.031 C 
ATOM     64  C   UNL A   1      44.336  26.120  32.508  1.00  0.00     0.037 A 
BRANCH  51  65
ATOM     65  C   UNL A   1      43.382  23.697  26.993  1.00  0.00     0.057 A 
ATOM     66  C   UNL A   1      43.023  22.340  27.104  1.00  0.00     0.134 A 
ATOM     67  C   UNL A   1      44.126  24.007  25.839  1.00  0.00     0.134 A 
ATOM     68  F   UNL A   1      42.240  21.900  28.097  1.00  0.00    -0.206 F 
ATOM     69  C   UNL A   1      43.452  21.359  26.200  1.00  0.00     0.040 A 
ATOM     70  C   UNL A   1      44.602  23.029  24.952  1.00  0.00     0.040 A 
ATOM     71  F   UNL A   1      44.378  25.271  25.479  1.00  0.00    -0.206 F 
ATOM     72  C   UNL A   1      44.273  21.696  25.136  1.00  0.00     0.006 A 
ENDBRANCH  51  65
BRANCH  52  73
ATOM     73  C   UNL A   1      40.848  31.114  33.258  1.00  0.00     0.057 A 
ATOM     74  C   UNL A   1      40.777  32.521  33.134  1.00  0.00     0.134 A 
ATOM     75  C   UNL A   1      39.659  30.468  33.607  1.00  0.00     0.134 A 
ATOM     76  F   UNL A   1      41.885  33.226  32.852  1.00  0.00    -0.206 F 
ATOM     77  C   UNL A   1      39.569  33.220  33.176  1.00  0.00     0.040 A 
ATOM     78  C   UNL A   1      38.440  31.167  33.688  1.00  0.00     0.040 A 
ATOM     79  F   UNL A   1      39.612  29.134  33.730  1.00  0.00    -0.206 F 
ATOM     80  C   UNL A   1      38.386  32.535  33.424  1.00  0.00     0.006 A 
ENDBRANCH  52  73
BRANCH  64  81
ATOM     81  C   UNL A   1      44.833  24.930  33.295  1.00  0.00     0.057 A 
ATOM     82  C   UNL A   1      46.190  24.590  33.361  1.00  0.00     0.134 A 
ATOM     83  C   UNL A   1      43.960  24.017  33.931  1.00  0.00     0.134 A 
ATOM     84  F   UNL A   1      47.113  25.291  32.687  1.00  0.00    -0.206 F 
ATOM     85  C   UNL A   1      46.653  23.495  34.099  1.00  0.00     0.040 A 
ATOM     86  C   UNL A   1      44.405  22.882  34.611  1.00  0.00     0.040 A 
ATOM     87  F   UNL A   1      42.631  24.183  33.954  1.00  0.00    -0.206 F 
ATOM     88  C   UNL A   1      45.760  22.636  34.727  1.00  0.00     0.006 A 
ENDBRANCH  64  81
ENDBRANCH  38  39
ENDBRANCH  31  33
ENDBRANCH  30  31
ENDBRANCH  29  30
ENDBRANCH   1  29
TORSDOF 15
ENDMDL
