MODEL 1
REMARK VINA RESULT:     -11.1      0.000      0.000
REMARK SMILES C[NH2+][C@@]1(C(=O)OCCOC(=O)c2ccc(-c3c4nc(c(-c5c(F)cccc5F)c5ccc([nH]5)c(-c5c(F)cccc5F)c5nc(c(-c6c(F)cccc6F)c6ccc3[nH]6)C=C5)C=C4)cc2)CCC[C@H](Oc2cccc(OC)c2)C1
REMARK SMILES IDX 7 1 6 2 4 3 5 4 3 5 66 6 79 7 67 8 69 9 68 10 2 11 1 12
REMARK SMILES IDX 70 15 71 16 72 17 78 18 73 19 75 20 74 21 76 22 77 23 8 24
REMARK SMILES IDX 9 25 10 26 11 27 12 28 13 29 65 30 14 31 64 32 15 33 16 34
REMARK SMILES IDX 17 35 58 36 18 37 63 38 57 39 59 40 19 41 62 42 56 43 55 44
REMARK SMILES IDX 20 46 46 47 29 48 45 49 30 50 33 51 44 52 60 53 31 54 32 55
REMARK SMILES IDX 43 57 61 58 34 59 21 60 22 61 27 62 23 63 24 64 26 65 28 66
REMARK SMILES IDX 25 67 47 68 48 69 53 70 49 71 50 72 52 73 54 74 51 75 35 76
REMARK SMILES IDX 36 77 41 78 37 79 38 80 40 81 42 82 39 83
REMARK H PARENT 2 13 2 14 59 45 33 56
REMARK Flexibility Score: inf
ROOT
ATOM      1  C   UNL A   1      31.704  28.615  27.186  1.00  0.00     0.274 C 
ENDROOT
BRANCH   1   2
ATOM      2  O   UNL A   1      31.253  27.401  26.551  1.00  0.00    -0.457 OA
BRANCH   2   3
ATOM      3  C   UNL A   1      32.211  26.518  26.179  1.00  0.00     0.368 C 
ATOM      4  O   UNL A   1      33.414  26.737  26.310  1.00  0.00    -0.245 OA
BRANCH   3   5
ATOM      5  C   UNL A   1      31.636  25.157  25.628  1.00  0.00     0.197 C 
ATOM      6  C   UNL A   1      32.797  24.536  24.816  1.00  0.00     0.081 C 
ATOM      7  C   UNL A   1      30.364  25.279  24.741  1.00  0.00     0.126 C 
ATOM      8  C   UNL A   1      33.045  25.307  23.522  1.00  0.00     0.011 C 
ATOM      9  C   UNL A   1      30.571  25.885  23.333  1.00  0.00     0.180 C 
ATOM     10  C   UNL A   1      31.802  25.278  22.644  1.00  0.00     0.046 C 
BRANCH   5  11
ATOM     11  N   UNL A   1      31.373  24.325  26.848  1.00  0.00    -0.334 N 
ATOM     12  C   UNL A   1      30.375  23.273  26.740  1.00  0.00     0.331 C 
ATOM     13  H   UNL A   1      32.254  23.885  27.113  1.00  0.00     0.347 HD
ATOM     14  H   UNL A   1      30.990  24.979  27.530  1.00  0.00     0.347 HD
ENDBRANCH   5  11
BRANCH   9  15
ATOM     15  O   UNL A   1      30.683  27.294  23.498  1.00  0.00    -0.490 OA
BRANCH  15  16
ATOM     16  C   UNL A   1      29.614  28.116  23.312  1.00  0.00     0.123 A 
ATOM     17  C   UNL A   1      28.270  27.783  23.436  1.00  0.00     0.047 A 
ATOM     18  C   UNL A   1      29.968  29.402  22.887  1.00  0.00     0.092 A 
ATOM     19  C   UNL A   1      27.291  28.702  23.051  1.00  0.00     0.008 A 
ATOM     20  C   UNL A   1      29.000  30.327  22.503  1.00  0.00     0.122 A 
ATOM     21  C   UNL A   1      27.657  29.961  22.571  1.00  0.00     0.046 A 
BRANCH  20  22
ATOM     22  O   UNL A   1      29.243  31.587  22.033  1.00  0.00    -0.497 OA
ATOM     23  C   UNL A   1      28.122  32.311  21.538  1.00  0.00     0.278 C 
ENDBRANCH  20  22
ENDBRANCH  15  16
ENDBRANCH   9  15
ENDBRANCH   3   5
ENDBRANCH   2   3
ENDBRANCH   1   2
BRANCH   1  24
ATOM     24  C   UNL A   1      31.728  29.734  26.154  1.00  0.00     0.275 C 
BRANCH  24  25
ATOM     25  O   UNL A   1      33.064  30.259  26.109  1.00  0.00    -0.458 OA
BRANCH  25  26
ATOM     26  C   UNL A   1      33.327  31.250  26.982  1.00  0.00     0.338 C 
ATOM     27  O   UNL A   1      32.605  32.177  27.318  1.00  0.00    -0.246 OA
BRANCH  26  28
ATOM     28  C   UNL A   1      34.641  31.004  27.581  1.00  0.00     0.060 A 
ATOM     29  C   UNL A   1      34.992  29.698  27.921  1.00  0.00     0.016 A 
ATOM     30  C   UNL A   1      35.469  32.072  27.912  1.00  0.00     0.016 A 
ATOM     31  C   UNL A   1      36.128  29.466  28.689  1.00  0.00     0.010 A 
ATOM     32  C   UNL A   1      36.669  31.821  28.580  1.00  0.00     0.010 A 
ATOM     33  C   UNL A   1      36.997  30.520  29.008  1.00  0.00    -0.014 A 
BRANCH  33  34
ATOM     34  C   UNL A   1      38.235  30.278  29.801  1.00  0.00     0.031 A 
ATOM     35  C   UNL A   1      39.361  29.467  29.218  1.00  0.00     0.074 A 
ATOM     36  C   UNL A   1      38.354  30.773  31.050  1.00  0.00     0.049 A 
ATOM     37  N   UNL A   1      40.399  28.940  29.816  1.00  0.00    -0.248 NA
ATOM     38  C   UNL A   1      39.298  29.191  27.773  1.00  0.00     0.031 C 
ATOM     39  C   UNL A   1      37.367  31.610  31.733  1.00  0.00     0.029 A 
ATOM     40  N   UNL A   1      39.367  30.642  31.968  1.00  0.00    -0.354 N 
ATOM     41  C   UNL A   1      41.070  28.212  28.841  1.00  0.00     0.074 A 
ATOM     42  C   UNL A   1      40.330  28.374  27.608  1.00  0.00     0.031 C 
ATOM     43  C   UNL A   1      37.839  31.956  32.938  1.00  0.00     0.029 A 
ATOM     44  C   UNL A   1      39.117  31.288  33.154  1.00  0.00     0.049 A 
ATOM     45  H   UNL A   1      40.192  30.134  31.793  1.00  0.00     0.167 HD
ATOM     46  C   UNL A   1      42.194  27.467  28.969  1.00  0.00     0.037 A 
ATOM     47  C   UNL A   1      39.812  31.307  34.307  1.00  0.00     0.037 A 
ATOM     48  C   UNL A   1      42.966  27.366  30.180  1.00  0.00     0.049 A 
ATOM     49  C   UNL A   1      41.064  30.490  34.421  1.00  0.00     0.074 A 
ATOM     50  C   UNL A   1      44.121  26.638  30.413  1.00  0.00     0.029 A 
ATOM     51  N   UNL A   1      42.673  28.038  31.357  1.00  0.00    -0.354 N 
ATOM     52  N   UNL A   1      41.635  29.727  33.522  1.00  0.00    -0.248 NA
ATOM     53  C   UNL A   1      41.752  30.513  35.720  1.00  0.00     0.031 C 
ATOM     54  C   UNL A   1      44.518  26.859  31.737  1.00  0.00     0.029 A 
ATOM     55  C   UNL A   1      43.627  27.745  32.318  1.00  0.00     0.049 A 
ATOM     56  H   UNL A   1      41.901  28.634  31.491  1.00  0.00     0.167 HD
ATOM     57  C   UNL A   1      42.744  29.173  34.145  1.00  0.00     0.074 A 
ATOM     58  C   UNL A   1      42.782  29.709  35.491  1.00  0.00     0.031 C 
ATOM     59  C   UNL A   1      43.643  28.288  33.651  1.00  0.00     0.037 A 
BRANCH  46  60
ATOM     60  C   UNL A   1      42.638  26.674  27.777  1.00  0.00     0.057 A 
ATOM     61  C   UNL A   1      43.534  27.185  26.831  1.00  0.00     0.134 A 
ATOM     62  C   UNL A   1      42.177  25.364  27.590  1.00  0.00     0.134 A 
ATOM     63  F   UNL A   1      43.999  28.438  26.943  1.00  0.00    -0.206 F 
ATOM     64  C   UNL A   1      43.944  26.427  25.731  1.00  0.00     0.040 A 
ATOM     65  C   UNL A   1      42.595  24.589  26.507  1.00  0.00     0.040 A 
ATOM     66  F   UNL A   1      41.319  24.813  28.462  1.00  0.00    -0.206 F 
ATOM     67  C   UNL A   1      43.478  25.122  25.571  1.00  0.00     0.006 A 
ENDBRANCH  46  60
BRANCH  47  68
ATOM     68  C   UNL A   1      39.306  32.097  35.456  1.00  0.00     0.057 A 
ATOM     69  C   UNL A   1      39.671  33.435  35.628  1.00  0.00     0.134 A 
ATOM     70  C   UNL A   1      38.421  31.541  36.389  1.00  0.00     0.134 A 
ATOM     71  F   UNL A   1      40.534  34.014  34.779  1.00  0.00    -0.206 F 
ATOM     72  C   UNL A   1      39.175  34.196  36.688  1.00  0.00     0.040 A 
ATOM     73  C   UNL A   1      37.900  32.297  37.439  1.00  0.00     0.040 A 
ATOM     74  F   UNL A   1      38.031  30.263  36.276  1.00  0.00    -0.206 F 
ATOM     75  C   UNL A   1      38.279  33.628  37.592  1.00  0.00     0.006 A 
ENDBRANCH  47  68
BRANCH  59  76
ATOM     76  C   UNL A   1      44.743  27.860  34.571  1.00  0.00     0.057 A 
ATOM     77  C   UNL A   1      45.946  28.572  34.653  1.00  0.00     0.134 A 
ATOM     78  C   UNL A   1      44.591  26.739  35.395  1.00  0.00     0.134 A 
ATOM     79  F   UNL A   1      46.153  29.646  33.877  1.00  0.00    -0.206 F 
ATOM     80  C   UNL A   1      46.969  28.172  35.514  1.00  0.00     0.040 A 
ATOM     81  C   UNL A   1      45.600  26.338  36.271  1.00  0.00     0.040 A 
ATOM     82  F   UNL A   1      43.460  26.017  35.363  1.00  0.00    -0.206 F 
ATOM     83  C   UNL A   1      46.795  27.054  36.328  1.00  0.00     0.006 A 
ENDBRANCH  59  76
ENDBRANCH  33  34
ENDBRANCH  26  28
ENDBRANCH  25  26
ENDBRANCH  24  25
ENDBRANCH   1  24
TORSDOF 15
ENDMDL
MODEL 2
REMARK VINA RESULT:     -10.9      4.565      9.408
REMARK SMILES C[NH2+][C@@]1(C(=O)OCCOC(=O)c2ccc(-c3c4nc(c(-c5c(F)cccc5F)c5ccc([nH]5)c(-c5c(F)cccc5F)c5nc(c(-c6c(F)cccc6F)c6ccc3[nH]6)C=C5)C=C4)cc2)CCC[C@H](Oc2cccc(OC)c2)C1
REMARK SMILES IDX 7 1 6 2 4 3 5 4 3 5 66 6 79 7 67 8 69 9 68 10 2 11 1 12
REMARK SMILES IDX 70 15 71 16 72 17 78 18 73 19 75 20 74 21 76 22 77 23 8 24
REMARK SMILES IDX 9 25 10 26 11 27 12 28 13 29 65 30 14 31 64 32 15 33 16 34
REMARK SMILES IDX 17 35 58 36 18 37 63 38 57 39 59 40 19 41 62 42 56 43 55 44
REMARK SMILES IDX 20 46 46 47 29 48 45 49 30 50 33 51 44 52 60 53 31 54 32 55
REMARK SMILES IDX 43 57 61 58 34 59 21 60 22 61 27 62 23 63 24 64 26 65 28 66
REMARK SMILES IDX 25 67 47 68 48 69 53 70 49 71 50 72 52 73 54 74 51 75 35 76
REMARK SMILES IDX 36 77 41 78 37 79 38 80 40 81 42 82 39 83
REMARK H PARENT 2 13 2 14 59 45 33 56
REMARK Flexibility Score: inf
ROOT
ATOM      1  C   UNL A   1      36.617  22.605  23.582  1.00  0.00     0.274 C 
ENDROOT
BRANCH   1   2
ATOM      2  O   UNL A   1      35.186  22.780  23.552  1.00  0.00    -0.457 OA
BRANCH   2   3
ATOM      3  C   UNL A   1      34.675  23.746  24.353  1.00  0.00     0.368 C 
ATOM      4  O   UNL A   1      35.314  24.274  25.260  1.00  0.00    -0.245 OA
BRANCH   3   5
ATOM      5  C   UNL A   1      33.209  24.178  23.965  1.00  0.00     0.197 C 
ATOM      6  C   UNL A   1      32.630  24.815  25.250  1.00  0.00     0.081 C 
ATOM      7  C   UNL A   1      32.283  23.029  23.471  1.00  0.00     0.126 C 
ATOM      8  C   UNL A   1      32.363  23.762  26.322  1.00  0.00     0.011 C 
ATOM      9  C   UNL A   1      31.817  22.020  24.546  1.00  0.00     0.180 C 
ATOM     10  C   UNL A   1      31.353  22.741  25.820  1.00  0.00     0.046 C 
BRANCH   5  11
ATOM     11  N   UNL A   1      33.380  25.231  22.913  1.00  0.00    -0.334 N 
ATOM     12  C   UNL A   1      32.478  26.371  22.951  1.00  0.00     0.331 C 
ATOM     13  H   UNL A   1      34.331  25.591  22.993  1.00  0.00     0.347 HD
ATOM     14  H   UNL A   1      33.165  24.759  22.035  1.00  0.00     0.347 HD
ENDBRANCH   5  11
BRANCH   9  15
ATOM     15  O   UNL A   1      32.906  21.137  24.790  1.00  0.00    -0.490 OA
BRANCH  15  16
ATOM     16  C   UNL A   1      33.012  19.945  24.142  1.00  0.00     0.123 A 
ATOM     17  C   UNL A   1      32.179  19.462  23.139  1.00  0.00     0.047 A 
ATOM     18  C   UNL A   1      34.047  19.137  24.626  1.00  0.00     0.092 A 
ATOM     19  C   UNL A   1      32.328  18.147  22.690  1.00  0.00     0.008 A 
ATOM     20  C   UNL A   1      34.205  17.826  24.185  1.00  0.00     0.122 A 
ATOM     21  C   UNL A   1      33.325  17.330  23.225  1.00  0.00     0.046 A 
BRANCH  20  22
ATOM     22  O   UNL A   1      35.152  16.944  24.627  1.00  0.00    -0.497 OA
ATOM     23  C   UNL A   1      34.685  15.828  25.376  1.00  0.00     0.278 C 
ENDBRANCH  20  22
ENDBRANCH  15  16
ENDBRANCH   9  15
ENDBRANCH   3   5
ENDBRANCH   2   3
ENDBRANCH   1   2
BRANCH   1  24
ATOM     24  C   UNL A   1      36.941  21.285  24.269  1.00  0.00     0.275 C 
BRANCH  24  25
ATOM     25  O   UNL A   1      37.334  21.580  25.619  1.00  0.00    -0.458 OA
BRANCH  25  26
ATOM     26  C   UNL A   1      38.599  21.249  25.939  1.00  0.00     0.338 C 
ATOM     27  O   UNL A   1      39.178  20.188  25.751  1.00  0.00    -0.246 OA
BRANCH  26  28
ATOM     28  C   UNL A   1      39.261  22.432  26.495  1.00  0.00     0.060 A 
ATOM     29  C   UNL A   1      38.769  23.695  26.169  1.00  0.00     0.016 A 
ATOM     30  C   UNL A   1      40.431  22.294  27.238  1.00  0.00     0.016 A 
ATOM     31  C   UNL A   1      39.506  24.828  26.495  1.00  0.00     0.010 A 
ATOM     32  C   UNL A   1      41.103  23.440  27.665  1.00  0.00     0.010 A 
ATOM     33  C   UNL A   1      40.670  24.720  27.270  1.00  0.00    -0.014 A 
BRANCH  33  34
ATOM     34  C   UNL A   1      41.448  25.930  27.656  1.00  0.00     0.031 A 
ATOM     35  C   UNL A   1      40.820  26.991  28.520  1.00  0.00     0.074 A 
ATOM     36  C   UNL A   1      42.716  26.093  27.227  1.00  0.00     0.049 A 
ATOM     37  N   UNL A   1      41.227  28.211  28.761  1.00  0.00    -0.248 NA
ATOM     38  C   UNL A   1      39.553  26.640  29.181  1.00  0.00     0.031 C 
ATOM     39  C   UNL A   1      43.472  25.135  26.419  1.00  0.00     0.029 A 
ATOM     40  N   UNL A   1      43.596  27.130  27.415  1.00  0.00    -0.354 N 
ATOM     41  C   UNL A   1      40.233  28.796  29.537  1.00  0.00     0.074 A 
ATOM     42  C   UNL A   1      39.209  27.793  29.739  1.00  0.00     0.031 C 
ATOM     43  C   UNL A   1      44.712  25.604  26.222  1.00  0.00     0.029 A 
ATOM     44  C   UNL A   1      44.811  26.937  26.803  1.00  0.00     0.049 A 
ATOM     45  H   UNL A   1      43.377  27.935  27.939  1.00  0.00     0.167 HD
ATOM     46  C   UNL A   1      40.178  30.059  30.026  1.00  0.00     0.037 A 
ATOM     47  C   UNL A   1      45.872  27.756  26.680  1.00  0.00     0.037 A 
ATOM     48  C   UNL A   1      41.231  31.029  29.883  1.00  0.00     0.049 A 
ATOM     49  C   UNL A   1      45.797  29.142  27.245  1.00  0.00     0.074 A 
ATOM     50  C   UNL A   1      41.273  32.335  30.342  1.00  0.00     0.029 A 
ATOM     51  N   UNL A   1      42.443  30.788  29.253  1.00  0.00    -0.354 N 
ATOM     52  N   UNL A   1      44.813  29.717  27.891  1.00  0.00    -0.248 NA
ATOM     53  C   UNL A   1      46.968  30.005  27.036  1.00  0.00     0.031 C 
ATOM     54  C   UNL A   1      42.506  32.888  29.977  1.00  0.00     0.029 A 
ATOM     55  C   UNL A   1      43.241  31.918  29.315  1.00  0.00     0.049 A 
ATOM     56  H   UNL A   1      42.698  29.940  28.825  1.00  0.00     0.167 HD
ATOM     57  C   UNL A   1      45.240  31.008  28.162  1.00  0.00     0.074 A 
ATOM     58  C   UNL A   1      46.584  31.126  27.633  1.00  0.00     0.031 C 
ATOM     59  C   UNL A   1      44.574  32.013  28.780  1.00  0.00     0.037 A 
BRANCH  46  60
ATOM     60  C   UNL A   1      38.922  30.473  30.732  1.00  0.00     0.057 A 
ATOM     61  C   UNL A   1      37.850  31.073  30.060  1.00  0.00     0.134 A 
ATOM     62  C   UNL A   1      38.776  30.240  32.105  1.00  0.00     0.134 A 
ATOM     63  F   UNL A   1      37.934  31.338  28.748  1.00  0.00    -0.206 F 
ATOM     64  C   UNL A   1      36.684  31.443  30.733  1.00  0.00     0.040 A 
ATOM     65  C   UNL A   1      37.607  30.587  32.786  1.00  0.00     0.040 A 
ATOM     66  F   UNL A   1      39.764  29.666  32.808  1.00  0.00    -0.206 F 
ATOM     67  C   UNL A   1      36.558  31.194  32.099  1.00  0.00     0.006 A 
ENDBRANCH  46  60
BRANCH  47  68
ATOM     68  C   UNL A   1      47.077  27.290  25.951  1.00  0.00     0.057 A 
ATOM     69  C   UNL A   1      47.206  27.486  24.573  1.00  0.00     0.134 A 
ATOM     70  C   UNL A   1      48.138  26.667  26.619  1.00  0.00     0.134 A 
ATOM     71  F   UNL A   1      46.211  28.057  23.876  1.00  0.00    -0.206 F 
ATOM     72  C   UNL A   1      48.349  27.081  23.882  1.00  0.00     0.040 A 
ATOM     73  C   UNL A   1      49.296  26.277  25.945  1.00  0.00     0.040 A 
ATOM     74  F   UNL A   1      48.075  26.453  27.941  1.00  0.00    -0.206 F 
ATOM     75  C   UNL A   1      49.402  26.482  24.572  1.00  0.00     0.006 A 
ENDBRANCH  47  68
BRANCH  59  76
ATOM     76  C   UNL A   1      45.298  33.315  28.923  1.00  0.00     0.057 A 
ATOM     77  C   UNL A   1      45.176  34.328  27.965  1.00  0.00     0.134 A 
ATOM     78  C   UNL A   1      46.108  33.563  30.037  1.00  0.00     0.134 A 
ATOM     79  F   UNL A   1      44.425  34.141  26.869  1.00  0.00    -0.206 F 
ATOM     80  C   UNL A   1      45.851  35.542  28.102  1.00  0.00     0.040 A 
ATOM     81  C   UNL A   1      46.775  34.779  30.193  1.00  0.00     0.040 A 
ATOM     82  F   UNL A   1      46.262  32.632  30.990  1.00  0.00    -0.206 F 
ATOM     83  C   UNL A   1      46.650  35.770  29.222  1.00  0.00     0.006 A 
ENDBRANCH  59  76
ENDBRANCH  33  34
ENDBRANCH  26  28
ENDBRANCH  25  26
ENDBRANCH  24  25
ENDBRANCH   1  24
TORSDOF 15
ENDMDL
MODEL 3
REMARK VINA RESULT:     -10.8      1.765      4.319
REMARK SMILES C[NH2+][C@@]1(C(=O)OCCOC(=O)c2ccc(-c3c4nc(c(-c5c(F)cccc5F)c5ccc([nH]5)c(-c5c(F)cccc5F)c5nc(c(-c6c(F)cccc6F)c6ccc3[nH]6)C=C5)C=C4)cc2)CCC[C@H](Oc2cccc(OC)c2)C1
REMARK SMILES IDX 7 1 6 2 4 3 5 4 3 5 66 6 79 7 67 8 69 9 68 10 2 11 1 12
REMARK SMILES IDX 70 15 71 16 72 17 78 18 73 19 75 20 74 21 76 22 77 23 8 24
REMARK SMILES IDX 9 25 10 26 11 27 12 28 13 29 65 30 14 31 64 32 15 33 16 34
REMARK SMILES IDX 17 35 58 36 18 37 63 38 57 39 59 40 19 41 62 42 56 43 55 44
REMARK SMILES IDX 20 46 46 47 29 48 45 49 30 50 33 51 44 52 60 53 31 54 32 55
REMARK SMILES IDX 43 57 61 58 34 59 21 60 22 61 27 62 23 63 24 64 26 65 28 66
REMARK SMILES IDX 25 67 47 68 48 69 53 70 49 71 50 72 52 73 54 74 51 75 35 76
REMARK SMILES IDX 36 77 41 78 37 79 38 80 40 81 42 82 39 83
REMARK H PARENT 2 13 2 14 59 45 33 56
REMARK Flexibility Score: inf
ROOT
ATOM      1  C   UNL A   1      31.629  28.235  26.264  1.00  0.00     0.274 C 
ENDROOT
BRANCH   1   2
ATOM      2  O   UNL A   1      31.492  27.223  25.246  1.00  0.00    -0.457 OA
BRANCH   2   3
ATOM      3  C   UNL A   1      32.639  26.748  24.703  1.00  0.00     0.368 C 
ATOM      4  O   UNL A   1      33.638  26.483  25.368  1.00  0.00    -0.245 OA
BRANCH   3   5
ATOM      5  C   UNL A   1      32.547  26.502  23.148  1.00  0.00     0.197 C 
ATOM      6  C   UNL A   1      31.155  25.864  22.928  1.00  0.00     0.081 C 
ATOM      7  C   UNL A   1      33.657  25.590  22.549  1.00  0.00     0.126 C 
ATOM      8  C   UNL A   1      31.107  24.436  23.465  1.00  0.00     0.011 C 
ATOM      9  C   UNL A   1      33.566  24.087  22.900  1.00  0.00     0.180 C 
ATOM     10  C   UNL A   1      32.130  23.567  22.747  1.00  0.00     0.046 C 
BRANCH   5  11
ATOM     11  N   UNL A   1      32.577  27.870  22.536  1.00  0.00    -0.334 N 
ATOM     12  C   UNL A   1      33.846  28.579  22.537  1.00  0.00     0.331 C 
ATOM     13  H   UNL A   1      32.279  27.777  21.565  1.00  0.00     0.347 HD
ATOM     14  H   UNL A   1      31.964  28.432  23.128  1.00  0.00     0.347 HD
ENDBRANCH   5  11
BRANCH   9  15
ATOM     15  O   UNL A   1      34.056  23.939  24.228  1.00  0.00    -0.490 OA
BRANCH  15  16
ATOM     16  C   UNL A   1      34.938  22.954  24.553  1.00  0.00     0.123 A 
ATOM     17  C   UNL A   1      34.717  21.582  24.496  1.00  0.00     0.047 A 
ATOM     18  C   UNL A   1      36.153  23.435  25.053  1.00  0.00     0.092 A 
ATOM     19  C   UNL A   1      35.671  20.706  25.019  1.00  0.00     0.008 A 
ATOM     20  C   UNL A   1      37.111  22.571  25.576  1.00  0.00     0.122 A 
ATOM     21  C   UNL A   1      36.853  21.201  25.572  1.00  0.00     0.046 A 
BRANCH  20  22
ATOM     22  O   UNL A   1      38.306  22.943  26.126  1.00  0.00    -0.497 OA
ATOM     23  C   UNL A   1      39.341  21.966  26.125  1.00  0.00     0.278 C 
ENDBRANCH  20  22
ENDBRANCH  15  16
ENDBRANCH   9  15
ENDBRANCH   3   5
ENDBRANCH   2   3
ENDBRANCH   1   2
BRANCH   1  24
ATOM     24  C   UNL A   1      31.597  29.607  25.604  1.00  0.00     0.275 C 
BRANCH  24  25
ATOM     25  O   UNL A   1      32.911  30.178  25.720  1.00  0.00    -0.458 OA
BRANCH  25  26
ATOM     26  C   UNL A   1      33.073  31.058  26.726  1.00  0.00     0.338 C 
ATOM     27  O   UNL A   1      32.276  31.881  27.152  1.00  0.00    -0.246 OA
BRANCH  26  28
ATOM     28  C   UNL A   1      34.382  30.823  27.341  1.00  0.00     0.060 A 
ATOM     29  C   UNL A   1      34.761  29.514  27.638  1.00  0.00     0.016 A 
ATOM     30  C   UNL A   1      35.176  31.899  27.727  1.00  0.00     0.016 A 
ATOM     31  C   UNL A   1      35.888  29.282  28.420  1.00  0.00     0.010 A 
ATOM     32  C   UNL A   1      36.369  31.652  28.409  1.00  0.00     0.010 A 
ATOM     33  C   UNL A   1      36.723  30.345  28.795  1.00  0.00    -0.014 A 
BRANCH  33  34
ATOM     34  C   UNL A   1      37.952  30.104  29.602  1.00  0.00     0.031 A 
ATOM     35  C   UNL A   1      39.076  29.276  29.040  1.00  0.00     0.074 A 
ATOM     36  C   UNL A   1      38.064  30.616  30.845  1.00  0.00     0.049 A 
ATOM     37  N   UNL A   1      40.105  28.750  29.655  1.00  0.00    -0.248 NA
ATOM     38  C   UNL A   1      39.024  28.980  27.600  1.00  0.00     0.031 C 
ATOM     39  C   UNL A   1      37.078  31.470  31.507  1.00  0.00     0.029 A 
ATOM     40  N   UNL A   1      39.067  30.490  31.774  1.00  0.00    -0.354 N 
ATOM     41  C   UNL A   1      40.778  28.002  28.697  1.00  0.00     0.074 A 
ATOM     42  C   UNL A   1      40.050  28.153  27.455  1.00  0.00     0.031 C 
ATOM     43  C   UNL A   1      37.542  31.830  32.712  1.00  0.00     0.029 A 
ATOM     44  C   UNL A   1      38.812  31.155  32.948  1.00  0.00     0.049 A 
ATOM     45  H   UNL A   1      39.890  29.973  31.614  1.00  0.00     0.167 HD
ATOM     46  C   UNL A   1      41.895  27.250  28.846  1.00  0.00     0.037 A 
ATOM     47  C   UNL A   1      39.498  31.185  34.107  1.00  0.00     0.037 A 
ATOM     48  C   UNL A   1      42.655  27.160  30.065  1.00  0.00     0.049 A 
ATOM     49  C   UNL A   1      40.741  30.360  34.244  1.00  0.00     0.074 A 
ATOM     50  C   UNL A   1      43.802  26.427  30.318  1.00  0.00     0.029 A 
ATOM     51  N   UNL A   1      42.357  27.851  31.230  1.00  0.00    -0.354 N 
ATOM     52  N   UNL A   1      41.314  29.580  33.361  1.00  0.00    -0.248 NA
ATOM     53  C   UNL A   1      41.418  30.395  35.548  1.00  0.00     0.031 C 
ATOM     54  C   UNL A   1      44.190  26.664  31.642  1.00  0.00     0.029 A 
ATOM     55  C   UNL A   1      43.300  27.565  32.203  1.00  0.00     0.049 A 
ATOM     56  H   UNL A   1      41.589  28.455  31.348  1.00  0.00     0.167 HD
ATOM     57  C   UNL A   1      42.413  29.026  34.001  1.00  0.00     0.074 A 
ATOM     58  C   UNL A   1      42.444  29.581  35.340  1.00  0.00     0.031 C 
ATOM     59  C   UNL A   1      43.309  28.126  33.528  1.00  0.00     0.037 A 
BRANCH  46  60
ATOM     60  C   UNL A   1      42.343  26.437  27.669  1.00  0.00     0.057 A 
ATOM     61  C   UNL A   1      41.916  25.119  27.464  1.00  0.00     0.134 A 
ATOM     62  C   UNL A   1      43.197  26.996  26.709  1.00  0.00     0.134 A 
ATOM     63  F   UNL A   1      41.112  24.520  28.354  1.00  0.00    -0.206 F 
ATOM     64  C   UNL A   1      42.337  24.380  26.356  1.00  0.00     0.040 A 
ATOM     65  C   UNL A   1      43.608  26.275  25.587  1.00  0.00     0.040 A 
ATOM     66  F   UNL A   1      43.641  28.255  26.844  1.00  0.00    -0.206 F 
ATOM     67  C   UNL A   1      43.181  24.961  25.410  1.00  0.00     0.006 A 
ENDBRANCH  46  60
BRANCH  47  68
ATOM     68  C   UNL A   1      38.987  31.995  35.240  1.00  0.00     0.057 A 
ATOM     69  C   UNL A   1      38.238  31.409  36.265  1.00  0.00     0.134 A 
ATOM     70  C   UNL A   1      39.262  33.364  35.340  1.00  0.00     0.134 A 
ATOM     71  F   UNL A   1      37.923  30.106  36.211  1.00  0.00    -0.206 F 
ATOM     72  C   UNL A   1      37.780  32.155  37.352  1.00  0.00     0.040 A 
ATOM     73  C   UNL A   1      38.831  34.117  36.432  1.00  0.00     0.040 A 
ATOM     74  F   UNL A   1      39.979  33.983  34.390  1.00  0.00    -0.206 F 
ATOM     75  C   UNL A   1      38.085  33.513  37.441  1.00  0.00     0.006 A 
ENDBRANCH  47  68
BRANCH  59  76
ATOM     76  C   UNL A   1      44.398  27.703  34.464  1.00  0.00     0.057 A 
ATOM     77  C   UNL A   1      44.267  26.565  35.270  1.00  0.00     0.134 A 
ATOM     78  C   UNL A   1      45.592  28.427  34.546  1.00  0.00     0.134 A 
ATOM     79  F   UNL A   1      43.138  25.840  35.244  1.00  0.00    -0.206 F 
ATOM     80  C   UNL A   1      45.284  26.170  36.139  1.00  0.00     0.040 A 
ATOM     81  C   UNL A   1      46.623  28.034  35.401  1.00  0.00     0.040 A 
ATOM     82  F   UNL A   1      45.777  29.525  33.798  1.00  0.00    -0.206 F 
ATOM     83  C   UNL A   1      46.468  26.905  36.203  1.00  0.00     0.006 A 
ENDBRANCH  59  76
ENDBRANCH  33  34
ENDBRANCH  26  28
ENDBRANCH  25  26
ENDBRANCH  24  25
ENDBRANCH   1  24
TORSDOF 15
ENDMDL
