MODEL 1
REMARK VINA RESULT:     -11.3      0.000      0.000
REMARK SMILES CN(Cc1ncc(C(=O)OCCOC(=O)c2ccc(-c3c4nc(c(-c5c(F)cccc5F)c5ccc([nH]5)c(-c5c(F)cccc5F)c5nc(c(-c6c(F)cccc6F)c6ccc3[nH]6)C=C5)C=C4)cc2)cn1)S(=O)(=O)c1ccc(Cl)cc1
REMARK SMILES IDX 11 1 10 2 8 3 9 4 7 5 4 6 5 7 71 8 6 9 70 10 3 11 2 12 1 13
REMARK SMILES IDX 72 14 73 15 74 16 75 17 76 18 81 19 77 20 80 21 78 22 79 23
REMARK SMILES IDX 12 24 13 25 14 26 15 27 16 28 17 29 69 30 18 31 68 32 19 33
REMARK SMILES IDX 20 34 21 35 62 36 22 37 67 38 61 39 63 40 23 41 66 42 60 43
REMARK SMILES IDX 59 44 24 46 50 47 33 48 49 49 34 50 37 51 48 52 64 53 35 54
REMARK SMILES IDX 36 55 47 57 65 58 38 59 25 60 26 61 31 62 27 63 28 64 30 65
REMARK SMILES IDX 32 66 29 67 51 68 52 69 57 70 53 71 54 72 56 73 58 74 55 75
REMARK SMILES IDX 39 76 40 77 45 78 41 79 42 80 44 81 46 82 43 83
REMARK H PARENT 63 45 37 56
REMARK Flexibility Score: inf
ROOT
ATOM      1  C   UNL A   1      42.764  20.932  26.149  1.00  0.00     0.275 C 
ENDROOT
BRANCH   1   2
ATOM      2  O   UNL A   1      41.381  21.118  25.786  1.00  0.00    -0.458 OA
BRANCH   2   3
ATOM      3  C   UNL A   1      40.549  21.368  26.825  1.00  0.00     0.341 C 
ATOM      4  O   UNL A   1      40.768  21.139  28.000  1.00  0.00    -0.246 OA
BRANCH   3   5
ATOM      5  C   UNL A   1      39.340  22.072  26.386  1.00  0.00     0.096 A 
ATOM      6  C   UNL A   1      37.079  23.222  25.446  1.00  0.00     0.143 A 
ATOM      7  N   UNL A   1      37.859  23.958  26.269  1.00  0.00    -0.239 NA
ATOM      8  N   UNL A   1      37.301  21.932  25.126  1.00  0.00    -0.239 NA
ATOM      9  C   UNL A   1      38.981  23.354  26.729  1.00  0.00     0.130 A 
ATOM     10  C   UNL A   1      38.451  21.402  25.574  1.00  0.00     0.130 A 
BRANCH   6  11
ATOM     11  C   UNL A   1      36.003  23.928  24.646  1.00  0.00     0.179 C 
BRANCH  11  12
ATOM     12  N   UNL A   1      34.767  24.322  25.414  1.00  0.00    -0.193 NA
ATOM     13  C   UNL A   1      34.412  23.320  26.454  1.00  0.00     0.125 C 
BRANCH  12  14
ATOM     14  S   UNL A   1      33.407  24.777  24.481  1.00  0.00     0.243 S 
ATOM     15  O   UNL A   1      33.820  24.935  23.102  1.00  0.00    -0.207 OA
ATOM     16  O   UNL A   1      32.324  23.883  24.823  1.00  0.00    -0.207 OA
BRANCH  14  17
ATOM     17  C   UNL A   1      32.966  26.371  25.125  1.00  0.00     0.082 A 
ATOM     18  C   UNL A   1      31.984  26.457  26.117  1.00  0.00     0.023 A 
ATOM     19  C   UNL A   1      33.601  27.519  24.642  1.00  0.00     0.023 A 
ATOM     20  C   UNL A   1      31.641  27.706  26.638  1.00  0.00     0.022 A 
ATOM     21  C   UNL A   1      33.241  28.767  25.154  1.00  0.00     0.022 A 
ATOM     22  C   UNL A   1      32.267  28.855  26.150  1.00  0.00     0.041 A 
ATOM     23  Cl  UNL A   1      31.829  30.393  26.783  1.00  0.00    -0.084 Cl
ENDBRANCH  14  17
ENDBRANCH  12  14
ENDBRANCH  11  12
ENDBRANCH   6  11
ENDBRANCH   3   5
ENDBRANCH   2   3
ENDBRANCH   1   2
BRANCH   1  24
ATOM     24  C   UNL A   1      43.679  21.769  25.254  1.00  0.00     0.275 C 
BRANCH  24  25
ATOM     25  O   UNL A   1      43.064  23.024  24.898  1.00  0.00    -0.458 OA
BRANCH  25  26
ATOM     26  C   UNL A   1      43.825  24.125  25.096  1.00  0.00     0.338 C 
ATOM     27  O   UNL A   1      44.845  24.438  24.505  1.00  0.00    -0.246 OA
BRANCH  26  28
ATOM     28  C   UNL A   1      43.194  24.999  26.096  1.00  0.00     0.060 A 
ATOM     29  C   UNL A   1      43.615  26.323  26.168  1.00  0.00     0.016 A 
ATOM     30  C   UNL A   1      42.312  24.493  27.050  1.00  0.00     0.016 A 
ATOM     31  C   UNL A   1      43.201  27.142  27.214  1.00  0.00     0.010 A 
ATOM     32  C   UNL A   1      41.843  25.337  28.067  1.00  0.00     0.010 A 
ATOM     33  C   UNL A   1      42.299  26.666  28.173  1.00  0.00    -0.014 A 
BRANCH  33  34
ATOM     34  C   UNL A   1      41.870  27.549  29.294  1.00  0.00     0.031 A 
ATOM     35  C   UNL A   1      42.628  27.556  30.595  1.00  0.00     0.074 A 
ATOM     36  C   UNL A   1      40.814  28.375  29.142  1.00  0.00     0.049 A 
ATOM     37  N   UNL A   1      42.326  28.141  31.727  1.00  0.00    -0.248 NA
ATOM     38  C   UNL A   1      43.889  26.799  30.628  1.00  0.00     0.031 C 
ATOM     39  C   UNL A   1      40.015  28.515  27.924  1.00  0.00     0.029 A 
ATOM     40  N   UNL A   1      40.236  29.260  30.019  1.00  0.00    -0.354 N 
ATOM     41  C   UNL A   1      43.329  27.782  32.620  1.00  0.00     0.074 A 
ATOM     42  C   UNL A   1      44.249  26.928  31.898  1.00  0.00     0.031 C 
ATOM     43  C   UNL A   1      39.075  29.452  28.119  1.00  0.00     0.029 A 
ATOM     44  C   UNL A   1      39.149  29.920  29.499  1.00  0.00     0.049 A 
ATOM     45  H   UNL A   1      40.568  29.406  30.935  1.00  0.00     0.167 HD
ATOM     46  C   UNL A   1      43.468  28.130  33.922  1.00  0.00     0.037 A 
ATOM     47  C   UNL A   1      38.283  30.777  30.072  1.00  0.00     0.037 A 
ATOM     48  C   UNL A   1      42.583  29.021  34.627  1.00  0.00     0.049 A 
ATOM     49  C   UNL A   1      38.436  31.120  31.526  1.00  0.00     0.074 A 
ATOM     50  C   UNL A   1      42.655  29.447  35.943  1.00  0.00     0.029 A 
ATOM     51  N   UNL A   1      41.472  29.637  34.070  1.00  0.00    -0.354 N 
ATOM     52  N   UNL A   1      39.357  30.730  32.373  1.00  0.00    -0.248 NA
ATOM     53  C   UNL A   1      37.417  32.003  32.110  1.00  0.00     0.031 C 
ATOM     54  C   UNL A   1      41.569  30.294  36.191  1.00  0.00     0.029 A 
ATOM     55  C   UNL A   1      40.842  30.425  35.020  1.00  0.00     0.049 A 
ATOM     56  H   UNL A   1      41.173  29.529  33.138  1.00  0.00     0.167 HD
ATOM     57  C   UNL A   1      39.032  31.322  33.586  1.00  0.00     0.074 A 
ATOM     58  C   UNL A   1      37.843  32.118  33.360  1.00  0.00     0.031 C 
ATOM     59  C   UNL A   1      39.657  31.209  34.782  1.00  0.00     0.037 A 
BRANCH  46  60
ATOM     60  C   UNL A   1      44.604  27.517  34.686  1.00  0.00     0.057 A 
ATOM     61  C   UNL A   1      45.848  28.146  34.804  1.00  0.00     0.134 A 
ATOM     62  C   UNL A   1      44.432  26.294  35.348  1.00  0.00     0.134 A 
ATOM     63  F   UNL A   1      46.083  29.313  34.185  1.00  0.00    -0.206 F 
ATOM     64  C   UNL A   1      46.889  27.570  35.537  1.00  0.00     0.040 A 
ATOM     65  C   UNL A   1      45.456  25.720  36.101  1.00  0.00     0.040 A 
ATOM     66  F   UNL A   1      43.261  25.642  35.280  1.00  0.00    -0.206 F 
ATOM     67  C   UNL A   1      46.691  26.356  36.194  1.00  0.00     0.006 A 
ENDBRANCH  46  60
BRANCH  47  68
ATOM     68  C   UNL A   1      37.158  31.334  29.278  1.00  0.00     0.057 A 
ATOM     69  C   UNL A   1      35.998  30.587  29.044  1.00  0.00     0.134 A 
ATOM     70  C   UNL A   1      37.217  32.624  28.738  1.00  0.00     0.134 A 
ATOM     71  F   UNL A   1      35.895  29.336  29.513  1.00  0.00    -0.206 F 
ATOM     72  C   UNL A   1      34.938  31.103  28.296  1.00  0.00     0.040 A 
ATOM     73  C   UNL A   1      36.155  33.161  28.010  1.00  0.00     0.040 A 
ATOM     74  F   UNL A   1      38.303  33.389  28.926  1.00  0.00    -0.206 F 
ATOM     75  C   UNL A   1      35.012  32.397  27.784  1.00  0.00     0.006 A 
ENDBRANCH  47  68
BRANCH  59  76
ATOM     76  C   UNL A   1      39.077  31.980  35.930  1.00  0.00     0.057 A 
ATOM     77  C   UNL A   1      39.419  33.318  36.163  1.00  0.00     0.134 A 
ATOM     78  C   UNL A   1      38.152  31.386  36.796  1.00  0.00     0.134 A 
ATOM     79  F   UNL A   1      40.312  33.938  35.377  1.00  0.00    -0.206 F 
ATOM     80  C   UNL A   1      38.875  34.033  37.231  1.00  0.00     0.040 A 
ATOM     81  C   UNL A   1      37.584  32.097  37.855  1.00  0.00     0.040 A 
ATOM     82  F   UNL A   1      37.778  30.109  36.622  1.00  0.00    -0.206 F 
ATOM     83  C   UNL A   1      37.950  33.422  38.077  1.00  0.00     0.006 A 
ENDBRANCH  59  76
ENDBRANCH  33  34
ENDBRANCH  26  28
ENDBRANCH  25  26
ENDBRANCH  24  25
ENDBRANCH   1  24
TORSDOF 15
ENDMDL
MODEL 2
REMARK VINA RESULT:     -11.1      5.139      7.613
REMARK SMILES CN(Cc1ncc(C(=O)OCCOC(=O)c2ccc(-c3c4nc(c(-c5c(F)cccc5F)c5ccc([nH]5)c(-c5c(F)cccc5F)c5nc(c(-c6c(F)cccc6F)c6ccc3[nH]6)C=C5)C=C4)cc2)cn1)S(=O)(=O)c1ccc(Cl)cc1
REMARK SMILES IDX 11 1 10 2 8 3 9 4 7 5 4 6 5 7 71 8 6 9 70 10 3 11 2 12 1 13
REMARK SMILES IDX 72 14 73 15 74 16 75 17 76 18 81 19 77 20 80 21 78 22 79 23
REMARK SMILES IDX 12 24 13 25 14 26 15 27 16 28 17 29 69 30 18 31 68 32 19 33
REMARK SMILES IDX 20 34 21 35 62 36 22 37 67 38 61 39 63 40 23 41 66 42 60 43
REMARK SMILES IDX 59 44 24 46 50 47 33 48 49 49 34 50 37 51 48 52 64 53 35 54
REMARK SMILES IDX 36 55 47 57 65 58 38 59 25 60 26 61 31 62 27 63 28 64 30 65
REMARK SMILES IDX 32 66 29 67 51 68 52 69 57 70 53 71 54 72 56 73 58 74 55 75
REMARK SMILES IDX 39 76 40 77 45 78 41 79 42 80 44 81 46 82 43 83
REMARK H PARENT 63 45 37 56
REMARK Flexibility Score: inf
ROOT
ATOM      1  C   UNL A   1      42.288  19.195  26.721  1.00  0.00     0.275 C 
ENDROOT
BRANCH   1   2
ATOM      2  O   UNL A   1      41.574  20.260  26.064  1.00  0.00    -0.458 OA
BRANCH   2   3
ATOM      3  C   UNL A   1      41.484  21.408  26.774  1.00  0.00     0.341 C 
ATOM      4  O   UNL A   1      42.363  21.915  27.447  1.00  0.00    -0.246 OA
BRANCH   3   5
ATOM      5  C   UNL A   1      40.193  22.071  26.562  1.00  0.00     0.096 A 
ATOM      6  C   UNL A   1      37.764  23.145  26.046  1.00  0.00     0.143 A 
ATOM      7  N   UNL A   1      38.650  23.901  26.734  1.00  0.00    -0.239 NA
ATOM      8  N   UNL A   1      37.972  21.867  25.673  1.00  0.00    -0.239 NA
ATOM      9  C   UNL A   1      39.854  23.335  26.984  1.00  0.00     0.130 A 
ATOM     10  C   UNL A   1      39.201  21.376  25.906  1.00  0.00     0.130 A 
BRANCH   6  11
ATOM     11  C   UNL A   1      36.542  23.818  25.456  1.00  0.00     0.179 C 
BRANCH  11  12
ATOM     12  N   UNL A   1      35.610  22.921  24.682  1.00  0.00    -0.193 NA
ATOM     13  C   UNL A   1      35.299  23.468  23.334  1.00  0.00     0.125 C 
BRANCH  12  14
ATOM     14  S   UNL A   1      34.197  22.409  25.500  1.00  0.00     0.243 S 
ATOM     15  O   UNL A   1      34.452  22.425  26.926  1.00  0.00    -0.207 OA
ATOM     16  O   UNL A   1      33.081  23.145  24.948  1.00  0.00    -0.207 OA
BRANCH  14  17
ATOM     17  C   UNL A   1      33.994  20.724  24.982  1.00  0.00     0.082 A 
ATOM     18  C   UNL A   1      32.720  20.268  24.628  1.00  0.00     0.023 A 
ATOM     19  C   UNL A   1      35.102  19.873  24.928  1.00  0.00     0.023 A 
ATOM     20  C   UNL A   1      32.555  18.948  24.207  1.00  0.00     0.022 A 
ATOM     21  C   UNL A   1      34.927  18.548  24.522  1.00  0.00     0.022 A 
ATOM     22  C   UNL A   1      33.658  18.093  24.160  1.00  0.00     0.041 A 
ATOM     23  Cl  UNL A   1      33.447  16.462  23.657  1.00  0.00    -0.084 Cl
ENDBRANCH  14  17
ENDBRANCH  12  14
ENDBRANCH  11  12
ENDBRANCH   6  11
ENDBRANCH   3   5
ENDBRANCH   2   3
ENDBRANCH   1   2
BRANCH   1  24
ATOM     24  C   UNL A   1      43.253  18.507  25.754  1.00  0.00     0.275 C 
BRANCH  24  25
ATOM     25  O   UNL A   1      43.475  19.307  24.575  1.00  0.00    -0.458 OA
BRANCH  25  26
ATOM     26  C   UNL A   1      44.769  19.570  24.282  1.00  0.00     0.338 C 
ATOM     27  O   UNL A   1      45.580  18.823  23.759  1.00  0.00    -0.246 OA
BRANCH  26  28
ATOM     28  C   UNL A   1      45.080  20.973  24.597  1.00  0.00     0.060 A 
ATOM     29  C   UNL A   1      45.553  21.269  25.872  1.00  0.00     0.016 A 
ATOM     30  C   UNL A   1      44.771  22.002  23.710  1.00  0.00     0.016 A 
ATOM     31  C   UNL A   1      45.677  22.590  26.292  1.00  0.00     0.010 A 
ATOM     32  C   UNL A   1      44.959  23.334  24.111  1.00  0.00     0.010 A 
ATOM     33  C   UNL A   1      45.394  23.643  25.414  1.00  0.00    -0.014 A 
BRANCH  33  34
ATOM     34  C   UNL A   1      45.523  25.053  25.878  1.00  0.00     0.031 A 
ATOM     35  C   UNL A   1      46.841  25.773  25.775  1.00  0.00     0.074 A 
ATOM     36  C   UNL A   1      44.451  25.708  26.368  1.00  0.00     0.049 A 
ATOM     37  N   UNL A   1      47.187  26.941  26.255  1.00  0.00    -0.248 NA
ATOM     38  C   UNL A   1      47.914  25.085  25.041  1.00  0.00     0.031 C 
ATOM     39  C   UNL A   1      43.099  25.158  26.481  1.00  0.00     0.029 A 
ATOM     40  N   UNL A   1      44.328  26.986  26.856  1.00  0.00    -0.354 N 
ATOM     41  C   UNL A   1      48.528  27.106  25.928  1.00  0.00     0.074 A 
ATOM     42  C   UNL A   1      48.934  25.917  25.208  1.00  0.00     0.031 C 
ATOM     43  C   UNL A   1      42.279  26.100  26.972  1.00  0.00     0.029 A 
ATOM     44  C   UNL A   1      43.060  27.292  27.286  1.00  0.00     0.049 A 
ATOM     45  H   UNL A   1      45.078  27.623  26.895  1.00  0.00     0.167 HD
ATOM     46  C   UNL A   1      49.345  28.151  26.204  1.00  0.00     0.037 A 
ATOM     47  C   UNL A   1      42.579  28.389  27.901  1.00  0.00     0.037 A 
ATOM     48  C   UNL A   1      48.930  29.357  26.874  1.00  0.00     0.049 A 
ATOM     49  C   UNL A   1      43.512  29.519  28.229  1.00  0.00     0.074 A 
ATOM     50  C   UNL A   1      49.684  30.477  27.181  1.00  0.00     0.029 A 
ATOM     51  N   UNL A   1      47.644  29.607  27.327  1.00  0.00    -0.354 N 
ATOM     52  N   UNL A   1      44.790  29.639  27.963  1.00  0.00    -0.248 NA
ATOM     53  C   UNL A   1      42.942  30.658  28.964  1.00  0.00     0.031 C 
ATOM     54  C   UNL A   1      48.862  31.391  27.850  1.00  0.00     0.029 A 
ATOM     55  C   UNL A   1      47.587  30.855  27.925  1.00  0.00     0.049 A 
ATOM     56  H   UNL A   1      46.882  28.988  27.239  1.00  0.00     0.167 HD
ATOM     57  C   UNL A   1      45.175  30.864  28.492  1.00  0.00     0.074 A 
ATOM     58  C   UNL A   1      43.991  31.461  29.073  1.00  0.00     0.031 C 
ATOM     59  C   UNL A   1      46.402  31.436  28.503  1.00  0.00     0.037 A 
BRANCH  46  60
ATOM     60  C   UNL A   1      50.788  28.024  25.813  1.00  0.00     0.057 A 
ATOM     61  C   UNL A   1      51.230  28.262  24.506  1.00  0.00     0.134 A 
ATOM     62  C   UNL A   1      51.754  27.699  26.774  1.00  0.00     0.134 A 
ATOM     63  F   UNL A   1      50.354  28.565  23.536  1.00  0.00    -0.206 F 
ATOM     64  C   UNL A   1      52.580  28.160  24.164  1.00  0.00     0.040 A 
ATOM     65  C   UNL A   1      53.109  27.616  26.449  1.00  0.00     0.040 A 
ATOM     66  F   UNL A   1      51.398  27.465  28.046  1.00  0.00    -0.206 F 
ATOM     67  C   UNL A   1      53.525  27.843  25.140  1.00  0.00     0.006 A 
ENDBRANCH  46  60
BRANCH  47  68
ATOM     68  C   UNL A   1      41.148  28.452  28.292  1.00  0.00     0.057 A 
ATOM     69  C   UNL A   1      40.729  28.058  29.568  1.00  0.00     0.134 A 
ATOM     70  C   UNL A   1      40.169  28.909  27.401  1.00  0.00     0.134 A 
ATOM     71  F   UNL A   1      41.617  27.587  30.455  1.00  0.00    -0.206 F 
ATOM     72  C   UNL A   1      39.385  28.111  29.942  1.00  0.00     0.040 A 
ATOM     73  C   UNL A   1      38.826  28.991  27.771  1.00  0.00     0.040 A 
ATOM     74  F   UNL A   1      40.508  29.299  26.164  1.00  0.00    -0.206 F 
ATOM     75  C   UNL A   1      38.431  28.587  29.044  1.00  0.00     0.006 A 
ENDBRANCH  47  68
BRANCH  59  76
ATOM     76  C   UNL A   1      46.518  32.786  29.147  1.00  0.00     0.057 A 
ATOM     77  C   UNL A   1      46.301  33.966  28.424  1.00  0.00     0.134 A 
ATOM     78  C   UNL A   1      46.828  32.905  30.507  1.00  0.00     0.134 A 
ATOM     79  F   UNL A   1      46.017  33.917  27.114  1.00  0.00    -0.206 F 
ATOM     80  C   UNL A   1      46.408  35.219  29.027  1.00  0.00     0.040 A 
ATOM     81  C   UNL A   1      46.916  34.153  31.127  1.00  0.00     0.040 A 
ATOM     82  F   UNL A   1      47.041  31.813  31.256  1.00  0.00    -0.206 F 
ATOM     83  C   UNL A   1      46.712  35.314  30.385  1.00  0.00     0.006 A 
ENDBRANCH  59  76
ENDBRANCH  33  34
ENDBRANCH  26  28
ENDBRANCH  25  26
ENDBRANCH  24  25
ENDBRANCH   1  24
TORSDOF 15
ENDMDL
MODEL 3
REMARK VINA RESULT:     -11.0      4.849      9.811
REMARK SMILES CN(Cc1ncc(C(=O)OCCOC(=O)c2ccc(-c3c4nc(c(-c5c(F)cccc5F)c5ccc([nH]5)c(-c5c(F)cccc5F)c5nc(c(-c6c(F)cccc6F)c6ccc3[nH]6)C=C5)C=C4)cc2)cn1)S(=O)(=O)c1ccc(Cl)cc1
REMARK SMILES IDX 11 1 10 2 8 3 9 4 7 5 4 6 5 7 71 8 6 9 70 10 3 11 2 12 1 13
REMARK SMILES IDX 72 14 73 15 74 16 75 17 76 18 81 19 77 20 80 21 78 22 79 23
REMARK SMILES IDX 12 24 13 25 14 26 15 27 16 28 17 29 69 30 18 31 68 32 19 33
REMARK SMILES IDX 20 34 21 35 62 36 22 37 67 38 61 39 63 40 23 41 66 42 60 43
REMARK SMILES IDX 59 44 24 46 50 47 33 48 49 49 34 50 37 51 48 52 64 53 35 54
REMARK SMILES IDX 36 55 47 57 65 58 38 59 25 60 26 61 31 62 27 63 28 64 30 65
REMARK SMILES IDX 32 66 29 67 51 68 52 69 57 70 53 71 54 72 56 73 58 74 55 75
REMARK SMILES IDX 39 76 40 77 45 78 41 79 42 80 44 81 46 82 43 83
REMARK H PARENT 63 45 37 56
REMARK Flexibility Score: inf
ROOT
ATOM      1  C   UNL A   1      34.281  34.140  30.049  1.00  0.00     0.275 C 
ENDROOT
BRANCH   1   2
ATOM      2  O   UNL A   1      33.901  32.903  29.415  1.00  0.00    -0.458 OA
BRANCH   2   3
ATOM      3  C   UNL A   1      34.501  32.665  28.225  1.00  0.00     0.341 C 
ATOM      4  O   UNL A   1      35.257  33.413  27.632  1.00  0.00    -0.246 OA
BRANCH   3   5
ATOM      5  C   UNL A   1      34.221  31.308  27.745  1.00  0.00     0.096 A 
ATOM      6  C   UNL A   1      33.900  28.772  26.858  1.00  0.00     0.143 A 
ATOM      7  N   UNL A   1      32.816  29.580  26.850  1.00  0.00    -0.239 NA
ATOM      8  N   UNL A   1      35.107  29.111  27.352  1.00  0.00    -0.239 NA
ATOM      9  C   UNL A   1      33.004  30.841  27.306  1.00  0.00     0.130 A 
ATOM     10  C   UNL A   1      35.247  30.388  27.747  1.00  0.00     0.130 A 
BRANCH   6  11
ATOM     11  C   UNL A   1      33.845  27.478  26.073  1.00  0.00     0.179 C 
BRANCH  11  12
ATOM     12  N   UNL A   1      32.515  27.146  25.447  1.00  0.00    -0.193 NA
ATOM     13  C   UNL A   1      31.997  25.827  25.900  1.00  0.00     0.125 C 
BRANCH  12  14
ATOM     14  S   UNL A   1      32.412  27.318  23.748  1.00  0.00     0.243 S 
ATOM     15  O   UNL A   1      33.643  27.907  23.264  1.00  0.00    -0.207 OA
ATOM     16  O   UNL A   1      31.940  26.062  23.210  1.00  0.00    -0.207 OA
BRANCH  14  17
ATOM     17  C   UNL A   1      31.097  28.488  23.519  1.00  0.00     0.082 A 
ATOM     18  C   UNL A   1      30.209  28.316  22.452  1.00  0.00     0.023 A 
ATOM     19  C   UNL A   1      30.959  29.562  24.403  1.00  0.00     0.023 A 
ATOM     20  C   UNL A   1      29.165  29.224  22.274  1.00  0.00     0.022 A 
ATOM     21  C   UNL A   1      29.922  30.478  24.208  1.00  0.00     0.022 A 
ATOM     22  C   UNL A   1      29.030  30.303  23.150  1.00  0.00     0.041 A 
ATOM     23  Cl  UNL A   1      27.751  31.430  22.915  1.00  0.00    -0.084 Cl
ENDBRANCH  14  17
ENDBRANCH  12  14
ENDBRANCH  11  12
ENDBRANCH   6  11
ENDBRANCH   3   5
ENDBRANCH   2   3
ENDBRANCH   1   2
BRANCH   1  24
ATOM     24  C   UNL A   1      34.697  33.903  31.501  1.00  0.00     0.275 C 
BRANCH  24  25
ATOM     25  O   UNL A   1      34.898  32.501  31.769  1.00  0.00    -0.458 OA
BRANCH  25  26
ATOM     26  C   UNL A   1      35.922  32.207  32.603  1.00  0.00     0.338 C 
ATOM     27  O   UNL A   1      35.966  32.368  33.812  1.00  0.00    -0.246 OA
BRANCH  26  28
ATOM     28  C   UNL A   1      37.003  31.544  31.857  1.00  0.00     0.060 A 
ATOM     29  C   UNL A   1      37.929  30.793  32.574  1.00  0.00     0.016 A 
ATOM     30  C   UNL A   1      37.196  31.777  30.497  1.00  0.00     0.016 A 
ATOM     31  C   UNL A   1      39.078  30.308  31.957  1.00  0.00     0.010 A 
ATOM     32  C   UNL A   1      38.320  31.232  29.859  1.00  0.00     0.010 A 
ATOM     33  C   UNL A   1      39.285  30.509  30.587  1.00  0.00    -0.014 A 
BRANCH  33  34
ATOM     34  C   UNL A   1      40.523  29.991  29.938  1.00  0.00     0.031 A 
ATOM     35  C   UNL A   1      41.732  30.876  29.785  1.00  0.00     0.074 A 
ATOM     36  C   UNL A   1      40.582  28.714  29.509  1.00  0.00     0.049 A 
ATOM     37  N   UNL A   1      42.840  30.656  29.123  1.00  0.00    -0.248 NA
ATOM     38  C   UNL A   1      41.684  32.182  30.458  1.00  0.00     0.031 C 
ATOM     39  C   UNL A   1      39.510  27.726  29.635  1.00  0.00     0.029 A 
ATOM     40  N   UNL A   1      41.593  28.025  28.884  1.00  0.00    -0.354 N 
ATOM     41  C   UNL A   1      43.599  31.813  29.257  1.00  0.00     0.074 A 
ATOM     42  C   UNL A   1      42.824  32.733  30.064  1.00  0.00     0.031 C 
ATOM     43  C   UNL A   1      39.930  26.553  29.137  1.00  0.00     0.029 A 
ATOM     44  C   UNL A   1      41.268  26.725  28.581  1.00  0.00     0.049 A 
ATOM     45  H   UNL A   1      42.468  28.425  28.672  1.00  0.00     0.167 HD
ATOM     46  C   UNL A   1      44.827  32.084  28.753  1.00  0.00     0.037 A 
ATOM     47  C   UNL A   1      41.948  25.784  27.900  1.00  0.00     0.037 A 
ATOM     48  C   UNL A   1      45.622  31.152  27.996  1.00  0.00     0.049 A 
ATOM     49  C   UNL A   1      43.292  26.119  27.320  1.00  0.00     0.074 A 
ATOM     50  C   UNL A   1      46.886  31.331  27.459  1.00  0.00     0.029 A 
ATOM     51  N   UNL A   1      45.236  29.858  27.679  1.00  0.00    -0.354 N 
ATOM     52  N   UNL A   1      43.974  27.235  27.407  1.00  0.00    -0.248 NA
ATOM     53  C   UNL A   1      43.951  25.072  26.525  1.00  0.00     0.031 C 
ATOM     54  C   UNL A   1      47.250  30.157  26.790  1.00  0.00     0.029 A 
ATOM     55  C   UNL A   1      46.230  29.234  26.942  1.00  0.00     0.049 A 
ATOM     56  H   UNL A   1      44.381  29.443  27.939  1.00  0.00     0.167 HD
ATOM     57  C   UNL A   1      45.141  27.024  26.685  1.00  0.00     0.074 A 
ATOM     58  C   UNL A   1      45.087  25.665  26.187  1.00  0.00     0.031 C 
ATOM     59  C   UNL A   1      46.161  27.883  26.450  1.00  0.00     0.037 A 
BRANCH  46  60
ATOM     60  C   UNL A   1      45.378  33.462  28.973  1.00  0.00     0.057 A 
ATOM     61  C   UNL A   1      46.200  33.771  30.064  1.00  0.00     0.134 A 
ATOM     62  C   UNL A   1      45.113  34.484  28.053  1.00  0.00     0.134 A 
ATOM     63  F   UNL A   1      46.482  32.840  30.988  1.00  0.00    -0.206 F 
ATOM     64  C   UNL A   1      46.721  35.054  30.242  1.00  0.00     0.040 A 
ATOM     65  C   UNL A   1      45.647  35.764  28.208  1.00  0.00     0.040 A 
ATOM     66  F   UNL A   1      44.338  34.253  26.982  1.00  0.00    -0.206 F 
ATOM     67  C   UNL A   1      46.450  36.054  29.308  1.00  0.00     0.006 A 
ENDBRANCH  46  60
BRANCH  47  68
ATOM     68  C   UNL A   1      41.345  24.444  27.686  1.00  0.00     0.057 A 
ATOM     69  C   UNL A   1      40.329  24.250  26.743  1.00  0.00     0.134 A 
ATOM     70  C   UNL A   1      41.771  23.328  28.417  1.00  0.00     0.134 A 
ATOM     71  F   UNL A   1      39.860  25.285  26.033  1.00  0.00    -0.206 F 
ATOM     72  C   UNL A   1      39.754  22.994  26.539  1.00  0.00     0.040 A 
ATOM     73  C   UNL A   1      41.224  22.062  28.204  1.00  0.00     0.040 A 
ATOM     74  F   UNL A   1      42.740  23.450  29.335  1.00  0.00    -0.206 F 
ATOM     75  C   UNL A   1      40.209  21.894  27.265  1.00  0.00     0.006 A 
ENDBRANCH  47  68
BRANCH  59  76
ATOM     76  C   UNL A   1      47.309  27.369  25.633  1.00  0.00     0.057 A 
ATOM     77  C   UNL A   1      47.385  27.592  24.252  1.00  0.00     0.134 A 
ATOM     78  C   UNL A   1      48.359  26.665  26.235  1.00  0.00     0.134 A 
ATOM     79  F   UNL A   1      46.403  28.247  23.615  1.00  0.00    -0.206 F 
ATOM     80  C   UNL A   1      48.456  27.114  23.495  1.00  0.00     0.040 A 
ATOM     81  C   UNL A   1      49.446  26.202  25.492  1.00  0.00     0.040 A 
ATOM     82  F   UNL A   1      48.349  26.425  27.555  1.00  0.00    -0.206 F 
ATOM     83  C   UNL A   1      49.493  26.421  24.118  1.00  0.00     0.006 A 
ENDBRANCH  59  76
ENDBRANCH  33  34
ENDBRANCH  26  28
ENDBRANCH  25  26
ENDBRANCH  24  25
ENDBRANCH   1  24
TORSDOF 15
ENDMDL
