MODEL 1
REMARK VINA RESULT:     -10.1      0.000      0.000
REMARK SMILES CC(C)C[C@H](NC(=O)CNC(=O)[C@@H]([NH3+])C(C)C)C(=O)OCCOC(=O)c1ccc(-c2c3nc(c(-c4c(F)cccc4F)c4ccc([nH]4)c(-c4c(F)cccc4F)c4nc(c(-c5c(F)cccc5F)c5ccc2[nH]5)C=C4)C=C3)cc1
REMARK SMILES IDX 20 1 18 2 19 3 5 4 4 5 2 6 1 7 3 8 6 9 7 10 8 12 9 13 10 14
REMARK SMILES IDX 11 15 12 17 13 18 14 19 15 23 16 24 17 25 21 26 22 27 23 28
REMARK SMILES IDX 24 29 25 30 26 31 27 32 79 33 28 34 78 35 29 36 30 37 31 38
REMARK SMILES IDX 72 39 32 40 77 41 71 42 73 43 33 44 76 45 70 46 69 47 34 49
REMARK SMILES IDX 60 50 43 51 59 52 44 53 47 54 58 55 74 56 45 57 46 58 57 60
REMARK SMILES IDX 75 61 48 62 35 63 36 64 41 65 37 66 38 67 40 68 42 69 39 70
REMARK SMILES IDX 61 71 62 72 67 73 63 74 64 75 66 76 68 77 65 78 49 79 50 80
REMARK SMILES IDX 55 81 51 82 52 83 54 84 56 85 53 86
REMARK H PARENT 6 11 10 16 14 20 14 21 14 22 73 48 47 59
REMARK Flexibility Score: inf
ROOT
ATOM      1  O   UNL A   1      32.161  28.193  25.733  1.00  0.00    -0.461 OA
ENDROOT
BRANCH   1   2
ATOM      2  C   UNL A   1      31.521  27.343  26.585  1.00  0.00     0.328 C 
ATOM      3  O   UNL A   1      31.294  27.596  27.765  1.00  0.00    -0.250 OA
BRANCH   2   4
ATOM      4  C   UNL A   1      31.233  25.969  25.954  1.00  0.00     0.192 C 
BRANCH   4   5
ATOM      5  C   UNL A   1      29.782  25.967  25.435  1.00  0.00     0.040 C 
BRANCH   5   6
ATOM      6  C   UNL A   1      29.555  26.074  23.912  1.00  0.00    -0.015 C 
ATOM      7  C   UNL A   1      28.875  27.359  23.438  1.00  0.00     0.007 C 
ATOM      8  C   UNL A   1      30.902  25.943  23.192  1.00  0.00     0.007 C 
ENDBRANCH   5   6
ENDBRANCH   4   5
BRANCH   4   9
ATOM      9  N   UNL A   1      31.435  24.873  26.915  1.00  0.00    -0.341 N 
ATOM     10  C   UNL A   1      31.854  23.587  26.725  1.00  0.00     0.240 C 
ATOM     11  H   UNL A   1      31.236  25.105  27.850  1.00  0.00     0.164 HD
ATOM     12  O   UNL A   1      31.954  22.857  27.716  1.00  0.00    -0.273 OA
BRANCH  10  13
ATOM     13  C   UNL A   1      32.184  23.051  25.322  1.00  0.00     0.216 C 
BRANCH  13  14
ATOM     14  N   UNL A   1      33.408  22.266  25.336  1.00  0.00    -0.342 N 
ATOM     15  C   UNL A   1      33.662  20.970  25.011  1.00  0.00     0.278 C 
ATOM     16  H   UNL A   1      34.201  22.766  25.637  1.00  0.00     0.164 HD
ATOM     17  O   UNL A   1      34.800  20.552  25.255  1.00  0.00    -0.268 OA
BRANCH  15  18
ATOM     18  C   UNL A   1      32.633  20.038  24.324  1.00  0.00     0.273 C 
BRANCH  18  19
ATOM     19  N   UNL A   1      32.208  20.560  23.010  1.00  0.00    -0.347 N 
ATOM     20  H   UNL A   1      32.664  20.029  22.269  1.00  0.00     0.345 HD
ATOM     21  H   UNL A   1      32.471  21.543  22.934  1.00  0.00     0.345 HD
ATOM     22  H   UNL A   1      31.196  20.471  22.920  1.00  0.00     0.345 HD
ENDBRANCH  18  19
BRANCH  18  23
ATOM     23  C   UNL A   1      33.155  18.583  24.274  1.00  0.00     0.051 C 
ATOM     24  C   UNL A   1      32.599  17.780  25.463  1.00  0.00     0.014 C 
ATOM     25  C   UNL A   1      32.755  17.863  22.979  1.00  0.00     0.014 C 
ENDBRANCH  18  23
ENDBRANCH  15  18
ENDBRANCH  13  14
ENDBRANCH  10  13
ENDBRANCH   4   9
ENDBRANCH   2   4
ENDBRANCH   1   2
BRANCH   1  26
ATOM     26  C   UNL A   1      31.397  29.352  25.346  1.00  0.00     0.274 C 
BRANCH  26  27
ATOM     27  C   UNL A   1      31.866  30.634  26.044  1.00  0.00     0.275 C 
BRANCH  27  28
ATOM     28  O   UNL A   1      33.268  30.614  26.373  1.00  0.00    -0.458 OA
BRANCH  28  29
ATOM     29  C   UNL A   1      33.662  31.578  27.240  1.00  0.00     0.338 C 
ATOM     30  O   UNL A   1      33.019  32.556  27.583  1.00  0.00    -0.246 OA
BRANCH  29  31
ATOM     31  C   UNL A   1      34.958  31.234  27.854  1.00  0.00     0.060 A 
ATOM     32  C   UNL A   1      35.132  29.922  28.314  1.00  0.00     0.016 A 
ATOM     33  C   UNL A   1      35.954  32.191  28.057  1.00  0.00     0.016 A 
ATOM     34  C   UNL A   1      36.293  29.568  29.000  1.00  0.00     0.010 A 
ATOM     35  C   UNL A   1      37.115  31.838  28.753  1.00  0.00     0.010 A 
ATOM     36  C   UNL A   1      37.280  30.532  29.247  1.00  0.00    -0.014 A 
BRANCH  36  37
ATOM     37  C   UNL A   1      38.438  30.197  30.107  1.00  0.00     0.031 A 
ATOM     38  C   UNL A   1      39.508  29.282  29.584  1.00  0.00     0.074 A 
ATOM     39  C   UNL A   1      38.545  30.723  31.341  1.00  0.00     0.049 A 
ATOM     40  N   UNL A   1      40.558  28.799  30.196  1.00  0.00    -0.248 NA
ATOM     41  C   UNL A   1      39.377  28.858  28.182  1.00  0.00     0.031 C 
ATOM     42  C   UNL A   1      37.603  31.664  31.944  1.00  0.00     0.029 A 
ATOM     43  N   UNL A   1      39.499  30.532  32.309  1.00  0.00    -0.354 N 
ATOM     44  C   UNL A   1      41.209  28.006  29.260  1.00  0.00     0.074 A 
ATOM     45  C   UNL A   1      40.426  28.060  28.042  1.00  0.00     0.031 C 
ATOM     46  C   UNL A   1      38.022  31.965  33.185  1.00  0.00     0.029 A 
ATOM     47  C   UNL A   1      39.239  31.208  33.475  1.00  0.00     0.049 A 
ATOM     48  H   UNL A   1      40.293  29.965  32.179  1.00  0.00     0.167 HD
ATOM     49  C   UNL A   1      42.355  27.299  29.402  1.00  0.00     0.037 A 
ATOM     50  C   UNL A   1      39.894  31.195  34.651  1.00  0.00     0.037 A 
ATOM     51  C   UNL A   1      43.136  27.246  30.609  1.00  0.00     0.049 A 
ATOM     52  C   UNL A   1      41.123  30.341  34.807  1.00  0.00     0.074 A 
ATOM     53  C   UNL A   1      44.310  26.553  30.849  1.00  0.00     0.029 A 
ATOM     54  N   UNL A   1      42.818  27.915  31.781  1.00  0.00    -0.354 N 
ATOM     55  N   UNL A   1      41.721  29.582  33.922  1.00  0.00    -0.248 NA
ATOM     56  C   UNL A   1      41.762  30.335  36.132  1.00  0.00     0.031 C 
ATOM     57  C   UNL A   1      44.686  26.777  32.177  1.00  0.00     0.029 A 
ATOM     58  C   UNL A   1      43.766  27.638  32.753  1.00  0.00     0.049 A 
ATOM     59  H   UNL A   1      42.036  28.499  31.905  1.00  0.00     0.167 HD
ATOM     60  C   UNL A   1      42.815  29.027  34.573  1.00  0.00     0.074 A 
ATOM     61  C   UNL A   1      42.805  29.543  35.926  1.00  0.00     0.031 C 
ATOM     62  C   UNL A   1      43.745  28.165  34.093  1.00  0.00     0.037 A 
BRANCH  49  63
ATOM     63  C   UNL A   1      42.820  26.501  28.221  1.00  0.00     0.057 A 
ATOM     64  C   UNL A   1      42.334  25.214  27.965  1.00  0.00     0.134 A 
ATOM     65  C   UNL A   1      43.743  27.040  27.316  1.00  0.00     0.134 A 
ATOM     66  F   UNL A   1      41.460  24.637  28.803  1.00  0.00    -0.206 F 
ATOM     67  C   UNL A   1      42.763  24.481  26.856  1.00  0.00     0.040 A 
ATOM     68  C   UNL A   1      44.164  26.326  26.193  1.00  0.00     0.040 A 
ATOM     69  F   UNL A   1      44.243  28.269  27.505  1.00  0.00    -0.206 F 
ATOM     70  C   UNL A   1      43.677  25.041  25.964  1.00  0.00     0.006 A 
ENDBRANCH  49  63
BRANCH  50  71
ATOM     71  C   UNL A   1      39.390  32.001  35.790  1.00  0.00     0.057 A 
ATOM     72  C   UNL A   1      38.417  31.494  36.658  1.00  0.00     0.134 A 
ATOM     73  C   UNL A   1      39.854  33.300  36.022  1.00  0.00     0.134 A 
ATOM     74  F   UNL A   1      37.916  30.265  36.469  1.00  0.00    -0.206 F 
ATOM     75  C   UNL A   1      37.913  32.257  37.713  1.00  0.00     0.040 A 
ATOM     76  C   UNL A   1      39.376  34.066  37.086  1.00  0.00     0.040 A 
ATOM     77  F   UNL A   1      40.784  33.841  35.222  1.00  0.00    -0.206 F 
ATOM     78  C   UNL A   1      38.397  33.546  37.932  1.00  0.00     0.006 A 
ENDBRANCH  50  71
BRANCH  62  79
ATOM     79  C   UNL A   1      44.844  27.754  35.025  1.00  0.00     0.057 A 
ATOM     80  C   UNL A   1      46.023  28.500  35.151  1.00  0.00     0.134 A 
ATOM     81  C   UNL A   1      44.705  26.620  35.835  1.00  0.00     0.134 A 
ATOM     82  F   UNL A   1      46.221  29.589  34.393  1.00  0.00    -0.206 F 
ATOM     83  C   UNL A   1      47.031  28.123  36.038  1.00  0.00     0.040 A 
ATOM     84  C   UNL A   1      45.698  26.243  36.740  1.00  0.00     0.040 A 
ATOM     85  F   UNL A   1      43.597  25.865  35.766  1.00  0.00    -0.206 F 
ATOM     86  C   UNL A   1      46.868  26.994  36.840  1.00  0.00     0.006 A 
ENDBRANCH  62  79
ENDBRANCH  36  37
ENDBRANCH  29  31
ENDBRANCH  28  29
ENDBRANCH  27  28
ENDBRANCH  26  27
ENDBRANCH   1  26
TORSDOF 19
ENDMDL
MODEL 2
REMARK VINA RESULT:      -9.9      4.198      7.445
REMARK SMILES CC(C)C[C@H](NC(=O)CNC(=O)[C@@H]([NH3+])C(C)C)C(=O)OCCOC(=O)c1ccc(-c2c3nc(c(-c4c(F)cccc4F)c4ccc([nH]4)c(-c4c(F)cccc4F)c4nc(c(-c5c(F)cccc5F)c5ccc2[nH]5)C=C4)C=C3)cc1
REMARK SMILES IDX 20 1 18 2 19 3 5 4 4 5 2 6 1 7 3 8 6 9 7 10 8 12 9 13 10 14
REMARK SMILES IDX 11 15 12 17 13 18 14 19 15 23 16 24 17 25 21 26 22 27 23 28
REMARK SMILES IDX 24 29 25 30 26 31 27 32 79 33 28 34 78 35 29 36 30 37 31 38
REMARK SMILES IDX 72 39 32 40 77 41 71 42 73 43 33 44 76 45 70 46 69 47 34 49
REMARK SMILES IDX 60 50 43 51 59 52 44 53 47 54 58 55 74 56 45 57 46 58 57 60
REMARK SMILES IDX 75 61 48 62 35 63 36 64 41 65 37 66 38 67 40 68 42 69 39 70
REMARK SMILES IDX 61 71 62 72 67 73 63 74 64 75 66 76 68 77 65 78 49 79 50 80
REMARK SMILES IDX 55 81 51 82 52 83 54 84 56 85 53 86
REMARK H PARENT 6 11 10 16 14 20 14 21 14 22 73 48 47 59
REMARK Flexibility Score: inf
ROOT
ATOM      1  O   UNL A   1      37.660  21.915  25.781  1.00  0.00    -0.461 OA
ENDROOT
BRANCH   1   2
ATOM      2  C   UNL A   1      37.290  23.223  25.887  1.00  0.00     0.328 C 
ATOM      3  O   UNL A   1      38.025  24.112  26.305  1.00  0.00    -0.250 OA
BRANCH   2   4
ATOM      4  C   UNL A   1      35.804  23.452  25.558  1.00  0.00     0.192 C 
BRANCH   4   5
ATOM      5  C   UNL A   1      35.486  24.945  25.759  1.00  0.00     0.040 C 
BRANCH   5   6
ATOM      6  C   UNL A   1      34.283  25.542  24.996  1.00  0.00    -0.015 C 
ATOM      7  C   UNL A   1      33.929  24.847  23.681  1.00  0.00     0.007 C 
ATOM      8  C   UNL A   1      33.049  25.519  25.906  1.00  0.00     0.007 C 
ENDBRANCH   5   6
ENDBRANCH   4   5
BRANCH   4   9
ATOM      9  N   UNL A   1      34.925  22.622  26.397  1.00  0.00    -0.341 N 
ATOM     10  C   UNL A   1      34.371  21.395  26.168  1.00  0.00     0.240 C 
ATOM     11  H   UNL A   1      34.697  23.018  27.269  1.00  0.00     0.164 HD
ATOM     12  O   UNL A   1      33.667  20.901  27.053  1.00  0.00    -0.273 OA
BRANCH  10  13
ATOM     13  C   UNL A   1      34.603  20.646  24.845  1.00  0.00     0.216 C 
BRANCH  13  14
ATOM     14  N   UNL A   1      33.347  20.184  24.277  1.00  0.00    -0.342 N 
ATOM     15  C   UNL A   1      32.731  18.972  24.295  1.00  0.00     0.278 C 
ATOM     16  H   UNL A   1      32.850  20.879  23.787  1.00  0.00     0.164 HD
ATOM     17  O   UNL A   1      31.714  18.858  23.600  1.00  0.00    -0.268 OA
BRANCH  15  18
ATOM     18  C   UNL A   1      33.205  17.779  25.162  1.00  0.00     0.273 C 
BRANCH  18  19
ATOM     19  N   UNL A   1      32.591  17.796  26.506  1.00  0.00    -0.347 N 
ATOM     20  H   UNL A   1      31.622  17.488  26.441  1.00  0.00     0.345 HD
ATOM     21  H   UNL A   1      32.622  18.744  26.881  1.00  0.00     0.345 HD
ATOM     22  H   UNL A   1      33.107  17.169  27.123  1.00  0.00     0.345 HD
ENDBRANCH  18  19
BRANCH  18  23
ATOM     23  C   UNL A   1      33.015  16.441  24.411  1.00  0.00     0.051 C 
ATOM     24  C   UNL A   1      34.123  16.262  23.359  1.00  0.00     0.014 C 
ATOM     25  C   UNL A   1      33.049  15.231  25.354  1.00  0.00     0.014 C 
ENDBRANCH  18  23
ENDBRANCH  15  18
ENDBRANCH  13  14
ENDBRANCH  10  13
ENDBRANCH   4   9
ENDBRANCH   2   4
ENDBRANCH   1   2
BRANCH   1  26
ATOM     26  C   UNL A   1      39.050  21.655  26.052  1.00  0.00     0.274 C 
BRANCH  26  27
ATOM     27  C   UNL A   1      39.520  20.300  25.510  1.00  0.00     0.275 C 
BRANCH  27  28
ATOM     28  O   UNL A   1      40.501  19.667  26.353  1.00  0.00    -0.458 OA
BRANCH  28  29
ATOM     29  C   UNL A   1      41.787  19.872  25.979  1.00  0.00     0.338 C 
ATOM     30  O   UNL A   1      42.454  19.164  25.243  1.00  0.00    -0.246 OA
BRANCH  29  31
ATOM     31  C   UNL A   1      42.276  21.173  26.475  1.00  0.00     0.060 A 
ATOM     32  C   UNL A   1      42.203  21.413  27.853  1.00  0.00     0.016 A 
ATOM     33  C   UNL A   1      42.714  22.175  25.606  1.00  0.00     0.016 A 
ATOM     34  C   UNL A   1      42.548  22.662  28.366  1.00  0.00     0.010 A 
ATOM     35  C   UNL A   1      43.051  23.431  26.120  1.00  0.00     0.010 A 
ATOM     36  C   UNL A   1      42.949  23.687  27.499  1.00  0.00    -0.014 A 
BRANCH  36  37
ATOM     37  C   UNL A   1      43.164  25.055  28.024  1.00  0.00     0.031 A 
ATOM     38  C   UNL A   1      44.556  25.505  28.368  1.00  0.00     0.074 A 
ATOM     39  C   UNL A   1      42.127  25.899  28.174  1.00  0.00     0.049 A 
ATOM     40  N   UNL A   1      44.954  26.625  28.913  1.00  0.00    -0.248 NA
ATOM     41  C   UNL A   1      45.643  24.566  28.052  1.00  0.00     0.031 C 
ATOM     42  C   UNL A   1      40.738  25.602  27.827  1.00  0.00     0.029 A 
ATOM     43  N   UNL A   1      42.086  27.180  28.664  1.00  0.00    -0.354 N 
ATOM     44  C   UNL A   1      46.335  26.524  29.016  1.00  0.00     0.074 A 
ATOM     45  C   UNL A   1      46.705  25.227  28.491  1.00  0.00     0.031 C 
ATOM     46  C   UNL A   1      39.978  26.670  28.121  1.00  0.00     0.029 A 
ATOM     47  C   UNL A   1      40.821  27.709  28.712  1.00  0.00     0.049 A 
ATOM     48  H   UNL A   1      42.888  27.672  28.953  1.00  0.00     0.167 HD
ATOM     49  C   UNL A   1      47.215  27.432  29.502  1.00  0.00     0.037 A 
ATOM     50  C   UNL A   1      40.389  28.886  29.202  1.00  0.00     0.037 A 
ATOM     51  C   UNL A   1      46.850  28.723  30.022  1.00  0.00     0.049 A 
ATOM     52  C   UNL A   1      41.377  29.846  29.806  1.00  0.00     0.074 A 
ATOM     53  C   UNL A   1      47.671  29.709  30.540  1.00  0.00     0.029 A 
ATOM     54  N   UNL A   1      45.552  29.207  30.089  1.00  0.00    -0.354 N 
ATOM     55  N   UNL A   1      42.679  29.735  29.914  1.00  0.00    -0.248 NA
ATOM     56  C   UNL A   1      40.833  31.092  30.368  1.00  0.00     0.031 C 
ATOM     57  C   UNL A   1      46.867  30.778  30.950  1.00  0.00     0.029 A 
ATOM     58  C   UNL A   1      45.549  30.471  30.655  1.00  0.00     0.049 A 
ATOM     59  H   UNL A   1      44.752  28.724  29.781  1.00  0.00     0.167 HD
ATOM     60  C   UNL A   1      43.110  30.901  30.533  1.00  0.00     0.074 A 
ATOM     61  C   UNL A   1      41.934  31.712  30.769  1.00  0.00     0.031 C 
ATOM     62  C   UNL A   1      44.370  31.268  30.876  1.00  0.00     0.037 A 
BRANCH  49  63
ATOM     63  C   UNL A   1      48.662  27.045  29.517  1.00  0.00     0.057 A 
ATOM     64  C   UNL A   1      49.520  27.360  28.457  1.00  0.00     0.134 A 
ATOM     65  C   UNL A   1      49.208  26.372  30.617  1.00  0.00     0.134 A 
ATOM     66  F   UNL A   1      49.054  27.990  27.368  1.00  0.00    -0.206 F 
ATOM     67  C   UNL A   1      50.870  27.005  28.483  1.00  0.00     0.040 A 
ATOM     68  C   UNL A   1      50.560  26.029  30.664  1.00  0.00     0.040 A 
ATOM     69  F   UNL A   1      48.438  26.043  31.664  1.00  0.00    -0.206 F 
ATOM     70  C   UNL A   1      51.394  26.342  29.592  1.00  0.00     0.006 A 
ENDBRANCH  49  63
BRANCH  50  71
ATOM     71  C   UNL A   1      38.944  29.219  29.166  1.00  0.00     0.057 A 
ATOM     72  C   UNL A   1      38.140  29.072  30.301  1.00  0.00     0.134 A 
ATOM     73  C   UNL A   1      38.332  29.673  27.992  1.00  0.00     0.134 A 
ATOM     74  F   UNL A   1      38.666  28.617  31.447  1.00  0.00    -0.206 F 
ATOM     75  C   UNL A   1      36.773  29.353  30.268  1.00  0.00     0.040 A 
ATOM     76  C   UNL A   1      36.971  29.978  27.950  1.00  0.00     0.040 A 
ATOM     77  F   UNL A   1      39.051  29.832  26.871  1.00  0.00    -0.206 F 
ATOM     78  C   UNL A   1      36.186  29.812  29.089  1.00  0.00     0.006 A 
ENDBRANCH  50  71
BRANCH  62  79
ATOM     79  C   UNL A   1      44.543  32.614  31.512  1.00  0.00     0.057 A 
ATOM     80  C   UNL A   1      44.502  32.783  32.902  1.00  0.00     0.134 A 
ATOM     81  C   UNL A   1      44.792  33.747  30.727  1.00  0.00     0.134 A 
ATOM     82  F   UNL A   1      44.255  31.739  33.707  1.00  0.00    -0.206 F 
ATOM     83  C   UNL A   1      44.687  34.036  33.487  1.00  0.00     0.040 A 
ATOM     84  C   UNL A   1      44.997  35.001  31.302  1.00  0.00     0.040 A 
ATOM     85  F   UNL A   1      44.849  33.649  29.390  1.00  0.00    -0.206 F 
ATOM     86  C   UNL A   1      44.941  35.149  32.687  1.00  0.00     0.006 A 
ENDBRANCH  62  79
ENDBRANCH  36  37
ENDBRANCH  29  31
ENDBRANCH  28  29
ENDBRANCH  27  28
ENDBRANCH  26  27
ENDBRANCH   1  26
TORSDOF 19
ENDMDL
MODEL 3
REMARK VINA RESULT:      -9.9      4.419      7.748
REMARK SMILES CC(C)C[C@H](NC(=O)CNC(=O)[C@@H]([NH3+])C(C)C)C(=O)OCCOC(=O)c1ccc(-c2c3nc(c(-c4c(F)cccc4F)c4ccc([nH]4)c(-c4c(F)cccc4F)c4nc(c(-c5c(F)cccc5F)c5ccc2[nH]5)C=C4)C=C3)cc1
REMARK SMILES IDX 20 1 18 2 19 3 5 4 4 5 2 6 1 7 3 8 6 9 7 10 8 12 9 13 10 14
REMARK SMILES IDX 11 15 12 17 13 18 14 19 15 23 16 24 17 25 21 26 22 27 23 28
REMARK SMILES IDX 24 29 25 30 26 31 27 32 79 33 28 34 78 35 29 36 30 37 31 38
REMARK SMILES IDX 72 39 32 40 77 41 71 42 73 43 33 44 76 45 70 46 69 47 34 49
REMARK SMILES IDX 60 50 43 51 59 52 44 53 47 54 58 55 74 56 45 57 46 58 57 60
REMARK SMILES IDX 75 61 48 62 35 63 36 64 41 65 37 66 38 67 40 68 42 69 39 70
REMARK SMILES IDX 61 71 62 72 67 73 63 74 64 75 66 76 68 77 65 78 49 79 50 80
REMARK SMILES IDX 55 81 51 82 52 83 54 84 56 85 53 86
REMARK H PARENT 6 11 10 16 14 20 14 21 14 22 73 48 47 59
REMARK Flexibility Score: inf
ROOT
ATOM      1  O   UNL A   1      33.020  28.886  26.729  1.00  0.00    -0.461 OA
ENDROOT
BRANCH   1   2
ATOM      2  C   UNL A   1      31.931  28.104  26.981  1.00  0.00     0.328 C 
ATOM      3  O   UNL A   1      31.219  28.218  27.974  1.00  0.00    -0.250 OA
BRANCH   2   4
ATOM      4  C   UNL A   1      31.766  26.965  25.960  1.00  0.00     0.192 C 
BRANCH   4   5
ATOM      5  C   UNL A   1      30.867  27.467  24.814  1.00  0.00     0.040 C 
BRANCH   5   6
ATOM      6  C   UNL A   1      31.177  26.983  23.380  1.00  0.00    -0.015 C 
ATOM      7  C   UNL A   1      30.740  25.553  23.060  1.00  0.00     0.007 C 
ATOM      8  C   UNL A   1      30.512  27.931  22.375  1.00  0.00     0.007 C 
ENDBRANCH   5   6
ENDBRANCH   4   5
BRANCH   4   9
ATOM      9  N   UNL A   1      31.188  25.759  26.575  1.00  0.00    -0.341 N 
ATOM     10  C   UNL A   1      31.684  24.492  26.691  1.00  0.00     0.240 C 
ATOM     11  H   UNL A   1      30.295  25.887  26.967  1.00  0.00     0.164 HD
ATOM     12  O   UNL A   1      30.995  23.650  27.272  1.00  0.00    -0.273 OA
BRANCH  10  13
ATOM     13  C   UNL A   1      33.056  24.113  26.109  1.00  0.00     0.216 C 
BRANCH  13  14
ATOM     14  N   UNL A   1      32.911  23.374  24.865  1.00  0.00    -0.342 N 
ATOM     15  C   UNL A   1      33.655  22.384  24.303  1.00  0.00     0.278 C 
ATOM     16  H   UNL A   1      32.129  23.640  24.331  1.00  0.00     0.164 HD
ATOM     17  O   UNL A   1      33.343  22.041  23.156  1.00  0.00    -0.268 OA
BRANCH  15  18
ATOM     18  C   UNL A   1      34.811  21.655  25.033  1.00  0.00     0.273 C 
BRANCH  18  19
ATOM     19  N   UNL A   1      34.469  20.252  25.343  1.00  0.00    -0.347 N 
ATOM     20  H   UNL A   1      34.568  19.684  24.502  1.00  0.00     0.345 HD
ATOM     21  H   UNL A   1      33.505  20.203  25.675  1.00  0.00     0.345 HD
ATOM     22  H   UNL A   1      35.096  19.901  26.067  1.00  0.00     0.345 HD
ENDBRANCH  18  19
BRANCH  18  23
ATOM     23  C   UNL A   1      36.140  21.813  24.258  1.00  0.00     0.051 C 
ATOM     24  C   UNL A   1      36.461  23.304  24.056  1.00  0.00     0.014 C 
ATOM     25  C   UNL A   1      37.322  21.162  24.988  1.00  0.00     0.014 C 
ENDBRANCH  18  23
ENDBRANCH  15  18
ENDBRANCH  13  14
ENDBRANCH  10  13
ENDBRANCH   4   9
ENDBRANCH   2   4
ENDBRANCH   1   2
BRANCH   1  26
ATOM     26  C   UNL A   1      32.785  30.303  26.836  1.00  0.00     0.274 C 
BRANCH  26  27
ATOM     27  C   UNL A   1      33.874  31.029  27.634  1.00  0.00     0.275 C 
BRANCH  27  28
ATOM     28  O   UNL A   1      34.656  30.140  28.454  1.00  0.00    -0.458 OA
BRANCH  28  29
ATOM     29  C   UNL A   1      35.657  30.738  29.145  1.00  0.00     0.338 C 
ATOM     30  O   UNL A   1      35.545  31.652  29.946  1.00  0.00    -0.246 OA
BRANCH  29  31
ATOM     31  C   UNL A   1      36.939  30.046  28.916  1.00  0.00     0.060 A 
ATOM     32  C   UNL A   1      37.659  29.621  30.039  1.00  0.00     0.016 A 
ATOM     33  C   UNL A   1      37.473  29.892  27.634  1.00  0.00     0.016 A 
ATOM     34  C   UNL A   1      38.926  29.060  29.888  1.00  0.00     0.010 A 
ATOM     35  C   UNL A   1      38.748  29.338  27.484  1.00  0.00     0.010 A 
ATOM     36  C   UNL A   1      39.489  28.939  28.610  1.00  0.00    -0.014 A 
BRANCH  36  37
ATOM     37  C   UNL A   1      40.893  28.490  28.463  1.00  0.00     0.031 A 
ATOM     38  C   UNL A   1      42.009  29.478  28.647  1.00  0.00     0.074 A 
ATOM     39  C   UNL A   1      41.171  27.203  28.188  1.00  0.00     0.049 A 
ATOM     40  N   UNL A   1      43.296  29.314  28.486  1.00  0.00    -0.248 NA
ATOM     41  C   UNL A   1      41.621  30.831  29.074  1.00  0.00     0.031 C 
ATOM     42  C   UNL A   1      40.182  26.137  28.039  1.00  0.00     0.029 A 
ATOM     43  N   UNL A   1      42.376  26.578  27.980  1.00  0.00    -0.354 N 
ATOM     44  C   UNL A   1      43.873  30.543  28.779  1.00  0.00     0.074 A 
ATOM     45  C   UNL A   1      42.793  31.448  29.114  1.00  0.00     0.031 C 
ATOM     46  C   UNL A   1      40.820  24.988  27.757  1.00  0.00     0.029 A 
ATOM     47  C   UNL A   1      42.256  25.247  27.668  1.00  0.00     0.049 A 
ATOM     48  H   UNL A   1      43.242  27.041  28.049  1.00  0.00     0.167 HD
ATOM     49  C   UNL A   1      45.183  30.886  28.772  1.00  0.00     0.037 A 
ATOM     50  C   UNL A   1      43.196  24.348  27.322  1.00  0.00     0.037 A 
ATOM     51  C   UNL A   1      46.258  29.988  28.442  1.00  0.00     0.049 A 
ATOM     52  C   UNL A   1      44.638  24.772  27.247  1.00  0.00     0.074 A 
ATOM     53  C   UNL A   1      47.618  30.246  28.404  1.00  0.00     0.029 A 
ATOM     54  N   UNL A   1      46.093  28.656  28.093  1.00  0.00    -0.354 N 
ATOM     55  N   UNL A   1      45.171  25.940  27.510  1.00  0.00    -0.248 NA
ATOM     56  C   UNL A   1      45.607  23.754  26.816  1.00  0.00     0.031 C 
ATOM     57  C   UNL A   1      48.273  29.077  28.000  1.00  0.00     0.029 A 
ATOM     58  C   UNL A   1      47.324  28.084  27.822  1.00  0.00     0.049 A 
ATOM     59  H   UNL A   1      45.229  28.188  28.044  1.00  0.00     0.167 HD
ATOM     60  C   UNL A   1      46.536  25.792  27.300  1.00  0.00     0.074 A 
ATOM     61  C   UNL A   1      46.752  24.419  26.895  1.00  0.00     0.031 C 
ATOM     62  C   UNL A   1      47.523  26.713  27.428  1.00  0.00     0.037 A 
BRANCH  49  63
ATOM     63  C   UNL A   1      45.523  32.306  29.109  1.00  0.00     0.057 A 
ATOM     64  C   UNL A   1      45.816  32.703  30.419  1.00  0.00     0.134 A 
ATOM     65  C   UNL A   1      45.584  33.281  28.105  1.00  0.00     0.134 A 
ATOM     66  F   UNL A   1      45.759  31.819  31.426  1.00  0.00    -0.206 F 
ATOM     67  C   UNL A   1      46.142  34.026  30.723  1.00  0.00     0.040 A 
ATOM     68  C   UNL A   1      45.928  34.602  28.393  1.00  0.00     0.040 A 
ATOM     69  F   UNL A   1      45.316  32.963  26.831  1.00  0.00    -0.206 F 
ATOM     70  C   UNL A   1      46.204  34.978  29.707  1.00  0.00     0.006 A 
ENDBRANCH  49  63
BRANCH  50  71
ATOM     71  C   UNL A   1      42.806  22.955  26.995  1.00  0.00     0.057 A 
ATOM     72  C   UNL A   1      42.738  22.516  25.668  1.00  0.00     0.134 A 
ATOM     73  C   UNL A   1      42.474  22.038  27.999  1.00  0.00     0.134 A 
ATOM     74  F   UNL A   1      43.020  23.358  24.663  1.00  0.00    -0.206 F 
ATOM     75  C   UNL A   1      42.340  21.217  25.349  1.00  0.00     0.040 A 
ATOM     76  C   UNL A   1      42.096  20.730  27.696  1.00  0.00     0.040 A 
ATOM     77  F   UNL A   1      42.518  22.401  29.289  1.00  0.00    -0.206 F 
ATOM     78  C   UNL A   1      42.023  20.317  26.367  1.00  0.00     0.006 A 
ENDBRANCH  50  71
BRANCH  62  79
ATOM     79  C   UNL A   1      48.925  26.257  27.160  1.00  0.00     0.057 A 
ATOM     80  C   UNL A   1      49.709  25.660  28.156  1.00  0.00     0.134 A 
ATOM     81  C   UNL A   1      49.483  26.379  25.882  1.00  0.00     0.134 A 
ATOM     82  F   UNL A   1      49.236  25.526  29.404  1.00  0.00    -0.206 F 
ATOM     83  C   UNL A   1      51.005  25.217  27.893  1.00  0.00     0.040 A 
ATOM     84  C   UNL A   1      50.772  25.922  25.601  1.00  0.00     0.040 A 
ATOM     85  F   UNL A   1      48.781  26.936  24.883  1.00  0.00    -0.206 F 
ATOM     86  C   UNL A   1      51.538  25.342  26.611  1.00  0.00     0.006 A 
ENDBRANCH  62  79
ENDBRANCH  36  37
ENDBRANCH  29  31
ENDBRANCH  28  29
ENDBRANCH  27  28
ENDBRANCH  26  27
ENDBRANCH   1  26
TORSDOF 19
ENDMDL
