MODEL 1
REMARK VINA RESULT:     -11.4      0.000      0.000
REMARK SMILES CC(C)N1C[C@@H](C(=O)N2CCC(C(=O)OCCOC(=O)c3ccc(-c4c5nc(c(-c6c(F)cccc6F)c6ccc([nH]6)c(-c6c(F)cccc6F)c6nc(c(-c7c(F)cccc7F)c7ccc4[nH]7)C=C6)C=C5)cc3)CC2)CC1=O
REMARK SMILES IDX 16 1 15 2 13 3 14 4 12 5 7 6 8 7 9 8 10 9 76 10 11 11 75 12
REMARK SMILES IDX 6 13 4 14 5 15 78 16 77 17 79 18 2 19 1 20 3 21 17 22 18 23
REMARK SMILES IDX 19 24 20 25 21 26 22 27 74 28 23 29 73 30 24 31 25 32 26 33
REMARK SMILES IDX 67 34 27 35 72 36 66 37 68 38 28 39 71 40 65 41 64 42 29 44
REMARK SMILES IDX 55 45 38 46 54 47 39 48 42 49 53 50 69 51 40 52 41 53 52 55
REMARK SMILES IDX 70 56 43 57 30 58 31 59 36 60 32 61 33 62 35 63 37 64 34 65
REMARK SMILES IDX 56 66 57 67 62 68 58 69 59 70 61 71 63 72 60 73 44 74 45 75
REMARK SMILES IDX 50 76 46 77 47 78 49 79 51 80 48 81
REMARK H PARENT 68 43 42 54
REMARK Flexibility Score: inf
ROOT
ATOM      1  C   UNL A   1      42.746  20.293  26.174  1.00  0.00     0.274 C 
ENDROOT
BRANCH   1   2
ATOM      2  O   UNL A   1      41.381  20.359  25.716  1.00  0.00    -0.462 OA
BRANCH   2   3
ATOM      3  C   UNL A   1      40.500  20.991  26.529  1.00  0.00     0.309 C 
ATOM      4  O   UNL A   1      40.609  21.082  27.747  1.00  0.00    -0.252 OA
BRANCH   3   5
ATOM      5  C   UNL A   1      39.350  21.633  25.780  1.00  0.00     0.103 C 
ATOM      6  C   UNL A   1      35.447  22.598  25.856  1.00  0.00     0.227 C 
ATOM      7  O   UNL A   1      34.953  21.519  26.202  1.00  0.00    -0.274 OA
ATOM      8  N   UNL A   1      36.705  22.640  25.281  1.00  0.00    -0.342 N 
ATOM      9  C   UNL A   1      37.169  21.445  24.574  1.00  0.00     0.120 C 
ATOM     10  C   UNL A   1      37.768  23.569  25.652  1.00  0.00     0.120 C 
ATOM     11  C   UNL A   1      38.210  20.686  25.386  1.00  0.00     0.037 C 
ATOM     12  C   UNL A   1      38.803  22.851  26.528  1.00  0.00     0.037 C 
BRANCH   6  13
ATOM     13  C   UNL A   1      34.551  23.830  25.852  1.00  0.00     0.107 C 
ATOM     14  N   UNL A   1      32.341  24.499  25.465  1.00  0.00    -0.339 N 
ATOM     15  C   UNL A   1      33.100  23.416  26.032  1.00  0.00     0.133 C 
ATOM     16  C   UNL A   1      33.103  25.261  24.595  1.00  0.00     0.223 C 
ATOM     17  C   UNL A   1      34.547  24.828  24.705  1.00  0.00     0.115 C 
ATOM     18  O   UNL A   1      32.704  26.133  23.842  1.00  0.00    -0.275 OA
BRANCH  14  19
ATOM     19  C   UNL A   1      30.890  24.571  25.634  1.00  0.00     0.078 C 
ATOM     20  C   UNL A   1      30.350  23.459  26.534  1.00  0.00     0.031 C 
ATOM     21  C   UNL A   1      30.450  25.946  26.125  1.00  0.00     0.031 C 
ENDBRANCH  14  19
ENDBRANCH   6  13
ENDBRANCH   3   5
ENDBRANCH   2   3
ENDBRANCH   1   2
BRANCH   1  22
ATOM     22  C   UNL A   1      43.621  21.318  25.449  1.00  0.00     0.275 C 
BRANCH  22  23
ATOM     23  O   UNL A   1      43.849  22.491  26.254  1.00  0.00    -0.458 OA
BRANCH  23  24
ATOM     24  C   UNL A   1      43.625  23.669  25.627  1.00  0.00     0.338 C 
ATOM     25  O   UNL A   1      43.778  23.925  24.446  1.00  0.00    -0.246 OA
BRANCH  24  26
ATOM     26  C   UNL A   1      43.026  24.629  26.565  1.00  0.00     0.060 A 
ATOM     27  C   UNL A   1      43.602  25.897  26.653  1.00  0.00     0.016 A 
ATOM     28  C   UNL A   1      41.994  24.259  27.427  1.00  0.00     0.016 A 
ATOM     29  C   UNL A   1      43.162  26.805  27.610  1.00  0.00     0.010 A 
ATOM     30  C   UNL A   1      41.546  25.174  28.386  1.00  0.00     0.010 A 
ATOM     31  C   UNL A   1      42.137  26.446  28.492  1.00  0.00    -0.014 A 
BRANCH  31  32
ATOM     32  C   UNL A   1      41.731  27.391  29.558  1.00  0.00     0.031 A 
ATOM     33  C   UNL A   1      42.479  27.415  30.859  1.00  0.00     0.074 A 
ATOM     34  C   UNL A   1      40.721  28.254  29.342  1.00  0.00     0.049 A 
ATOM     35  N   UNL A   1      42.225  28.095  31.948  1.00  0.00    -0.248 NA
ATOM     36  C   UNL A   1      43.675  26.562  30.946  1.00  0.00     0.031 C 
ATOM     37  C   UNL A   1      39.963  28.373  28.096  1.00  0.00     0.029 A 
ATOM     38  N   UNL A   1      40.161  29.196  30.167  1.00  0.00    -0.354 N 
ATOM     39  C   UNL A   1      43.214  27.739  32.855  1.00  0.00     0.074 A 
ATOM     40  C   UNL A   1      44.068  26.774  32.193  1.00  0.00     0.031 C 
ATOM     41  C   UNL A   1      39.037  29.334  28.240  1.00  0.00     0.029 A 
ATOM     42  C   UNL A   1      39.104  29.862  29.599  1.00  0.00     0.049 A 
ATOM     43  H   UNL A   1      40.486  29.377  31.078  1.00  0.00     0.167 HD
ATOM     44  C   UNL A   1      43.394  28.181  34.123  1.00  0.00     0.037 A 
ATOM     45  C   UNL A   1      38.263  30.770  30.128  1.00  0.00     0.037 A 
ATOM     46  C   UNL A   1      42.550  29.148  34.773  1.00  0.00     0.049 A 
ATOM     47  C   UNL A   1      38.440  31.188  31.561  1.00  0.00     0.074 A 
ATOM     48  C   UNL A   1      42.638  29.645  36.062  1.00  0.00     0.029 A 
ATOM     49  N   UNL A   1      41.463  29.771  34.177  1.00  0.00    -0.354 N 
ATOM     50  N   UNL A   1      39.354  30.816  32.423  1.00  0.00    -0.248 NA
ATOM     51  C   UNL A   1      37.459  32.142  32.098  1.00  0.00     0.031 C 
ATOM     52  C   UNL A   1      41.586  30.548  36.254  1.00  0.00     0.029 A 
ATOM     53  C   UNL A   1      40.866  30.639  35.075  1.00  0.00     0.049 A 
ATOM     54  H   UNL A   1      41.162  29.618  33.253  1.00  0.00     0.167 HD
ATOM     55  C   UNL A   1      39.071  31.502  33.597  1.00  0.00     0.074 A 
ATOM     56  C   UNL A   1      37.908  32.325  33.332  1.00  0.00     0.031 C 
ATOM     57  C   UNL A   1      39.714  31.454  34.789  1.00  0.00     0.037 A 
BRANCH  44  58
ATOM     58  C   UNL A   1      44.535  27.596  34.898  1.00  0.00     0.057 A 
ATOM     59  C   UNL A   1      44.396  26.419  35.643  1.00  0.00     0.134 A 
ATOM     60  C   UNL A   1      45.798  28.203  34.875  1.00  0.00     0.134 A 
ATOM     61  F   UNL A   1      43.209  25.798  35.718  1.00  0.00    -0.206 F 
ATOM     62  C   UNL A   1      45.468  25.876  36.353  1.00  0.00     0.040 A 
ATOM     63  C   UNL A   1      46.882  27.659  35.564  1.00  0.00     0.040 A 
ATOM     64  F   UNL A   1      45.997  29.333  34.178  1.00  0.00    -0.206 F 
ATOM     65  C   UNL A   1      46.718  26.493  36.309  1.00  0.00     0.006 A 
ENDBRANCH  44  58
BRANCH  45  66
ATOM     66  C   UNL A   1      37.155  31.322  29.310  1.00  0.00     0.057 A 
ATOM     67  C   UNL A   1      36.013  30.563  29.034  1.00  0.00     0.134 A 
ATOM     68  C   UNL A   1      37.221  32.613  28.772  1.00  0.00     0.134 A 
ATOM     69  F   UNL A   1      35.904  29.311  29.503  1.00  0.00    -0.206 F 
ATOM     70  C   UNL A   1      34.979  31.063  28.242  1.00  0.00     0.040 A 
ATOM     71  C   UNL A   1      36.184  33.134  27.998  1.00  0.00     0.040 A 
ATOM     72  F   UNL A   1      38.291  33.388  29.000  1.00  0.00    -0.206 F 
ATOM     73  C   UNL A   1      35.061  32.356  27.726  1.00  0.00     0.006 A 
ENDBRANCH  45  66
BRANCH  57  74
ATOM     74  C   UNL A   1      39.192  32.338  35.879  1.00  0.00     0.057 A 
ATOM     75  C   UNL A   1      39.619  33.664  36.020  1.00  0.00     0.134 A 
ATOM     76  C   UNL A   1      38.231  31.865  36.782  1.00  0.00     0.134 A 
ATOM     77  F   UNL A   1      40.549  34.170  35.196  1.00  0.00    -0.206 F 
ATOM     78  C   UNL A   1      39.122  34.485  37.034  1.00  0.00     0.040 A 
ATOM     79  C   UNL A   1      37.712  32.682  37.786  1.00  0.00     0.040 A 
ATOM     80  F   UNL A   1      37.779  30.605  36.697  1.00  0.00    -0.206 F 
ATOM     81  C   UNL A   1      38.161  33.995  37.917  1.00  0.00     0.006 A 
ENDBRANCH  57  74
ENDBRANCH  31  32
ENDBRANCH  24  26
ENDBRANCH  23  24
ENDBRANCH  22  23
ENDBRANCH   1  22
TORSDOF 13
ENDMDL
MODEL 2
REMARK VINA RESULT:     -11.3      2.863      8.077
REMARK SMILES CC(C)N1C[C@@H](C(=O)N2CCC(C(=O)OCCOC(=O)c3ccc(-c4c5nc(c(-c6c(F)cccc6F)c6ccc([nH]6)c(-c6c(F)cccc6F)c6nc(c(-c7c(F)cccc7F)c7ccc4[nH]7)C=C6)C=C5)cc3)CC2)CC1=O
REMARK SMILES IDX 16 1 15 2 13 3 14 4 12 5 7 6 8 7 9 8 10 9 76 10 11 11 75 12
REMARK SMILES IDX 6 13 4 14 5 15 78 16 77 17 79 18 2 19 1 20 3 21 17 22 18 23
REMARK SMILES IDX 19 24 20 25 21 26 22 27 74 28 23 29 73 30 24 31 25 32 26 33
REMARK SMILES IDX 67 34 27 35 72 36 66 37 68 38 28 39 71 40 65 41 64 42 29 44
REMARK SMILES IDX 55 45 38 46 54 47 39 48 42 49 53 50 69 51 40 52 41 53 52 55
REMARK SMILES IDX 70 56 43 57 30 58 31 59 36 60 32 61 33 62 35 63 37 64 34 65
REMARK SMILES IDX 56 66 57 67 62 68 58 69 59 70 61 71 63 72 60 73 44 74 45 75
REMARK SMILES IDX 50 76 46 77 47 78 49 79 51 80 48 81
REMARK H PARENT 68 43 42 54
REMARK Flexibility Score: inf
ROOT
ATOM      1  C   UNL A   1      31.681  28.754  24.883  1.00  0.00     0.274 C 
ENDROOT
BRANCH   1   2
ATOM      2  O   UNL A   1      32.535  27.898  25.667  1.00  0.00    -0.462 OA
BRANCH   2   3
ATOM      3  C   UNL A   1      31.983  26.749  26.127  1.00  0.00     0.309 C 
ATOM      4  O   UNL A   1      31.235  26.669  27.096  1.00  0.00    -0.252 OA
BRANCH   3   5
ATOM      5  C   UNL A   1      32.346  25.536  25.295  1.00  0.00     0.103 C 
ATOM      6  C   UNL A   1      32.793  21.540  25.247  1.00  0.00     0.227 C 
ATOM      7  O   UNL A   1      33.496  21.378  26.251  1.00  0.00    -0.274 OA
ATOM      8  N   UNL A   1      32.744  22.772  24.618  1.00  0.00    -0.342 N 
ATOM      9  C   UNL A   1      33.902  23.655  24.762  1.00  0.00     0.120 C 
ATOM     10  C   UNL A   1      31.524  23.447  24.188  1.00  0.00     0.120 C 
ATOM     11  C   UNL A   1      33.616  24.796  25.730  1.00  0.00     0.037 C 
ATOM     12  C   UNL A   1      31.170  24.563  25.179  1.00  0.00     0.037 C 
BRANCH   6  13
ATOM     13  C   UNL A   1      32.188  20.307  24.587  1.00  0.00     0.107 C 
ATOM     14  N   UNL A   1      32.649  18.064  24.102  1.00  0.00    -0.339 N 
ATOM     15  C   UNL A   1      32.850  19.052  25.129  1.00  0.00     0.133 C 
ATOM     16  C   UNL A   1      32.372  18.646  22.876  1.00  0.00     0.223 C 
ATOM     17  C   UNL A   1      32.153  20.128  23.078  1.00  0.00     0.115 C 
ATOM     18  O   UNL A   1      32.319  18.086  21.794  1.00  0.00    -0.275 OA
BRANCH  14  19
ATOM     19  C   UNL A   1      32.965  16.656  24.339  1.00  0.00     0.078 C 
ATOM     20  C   UNL A   1      34.425  16.325  24.030  1.00  0.00     0.031 C 
ATOM     21  C   UNL A   1      32.585  16.226  25.752  1.00  0.00     0.031 C 
ENDBRANCH  14  19
ENDBRANCH   6  13
ENDBRANCH   3   5
ENDBRANCH   2   3
ENDBRANCH   1   2
BRANCH   1  22
ATOM     22  C   UNL A   1      31.654  30.175  25.450  1.00  0.00     0.275 C 
BRANCH  22  23
ATOM     23  O   UNL A   1      32.226  30.235  26.771  1.00  0.00    -0.458 OA
BRANCH  23  24
ATOM     24  C   UNL A   1      32.827  31.406  27.084  1.00  0.00     0.338 C 
ATOM     25  O   UNL A   1      32.355  32.528  27.013  1.00  0.00    -0.246 OA
BRANCH  24  26
ATOM     26  C   UNL A   1      34.152  31.149  27.666  1.00  0.00     0.060 A 
ATOM     27  C   UNL A   1      34.475  29.831  27.988  1.00  0.00     0.016 A 
ATOM     28  C   UNL A   1      35.016  32.191  27.999  1.00  0.00     0.016 A 
ATOM     29  C   UNL A   1      35.658  29.540  28.658  1.00  0.00     0.010 A 
ATOM     30  C   UNL A   1      36.211  31.899  28.667  1.00  0.00     0.010 A 
ATOM     31  C   UNL A   1      36.531  30.574  29.011  1.00  0.00    -0.014 A 
BRANCH  31  32
ATOM     32  C   UNL A   1      37.751  30.262  29.793  1.00  0.00     0.031 A 
ATOM     33  C   UNL A   1      38.822  29.399  29.191  1.00  0.00     0.074 A 
ATOM     34  C   UNL A   1      37.915  30.786  31.021  1.00  0.00     0.049 A 
ATOM     35  N   UNL A   1      39.914  28.933  29.740  1.00  0.00    -0.248 NA
ATOM     36  C   UNL A   1      38.641  29.013  27.783  1.00  0.00     0.031 C 
ATOM     37  C   UNL A   1      36.976  31.692  31.686  1.00  0.00     0.029 A 
ATOM     38  N   UNL A   1      38.931  30.632  31.929  1.00  0.00    -0.354 N 
ATOM     39  C   UNL A   1      40.542  28.183  28.754  1.00  0.00     0.074 A 
ATOM     40  C   UNL A   1      39.703  28.247  27.576  1.00  0.00     0.031 C 
ATOM     41  C   UNL A   1      37.463  32.013  32.895  1.00  0.00     0.029 A 
ATOM     42  C   UNL A   1      38.717  31.299  33.109  1.00  0.00     0.049 A 
ATOM     43  H   UNL A   1      39.736  30.095  31.750  1.00  0.00     0.167 HD
ATOM     44  C   UNL A   1      41.712  27.505  28.827  1.00  0.00     0.037 A 
ATOM     45  C   UNL A   1      39.436  31.304  34.247  1.00  0.00     0.037 A 
ATOM     46  C   UNL A   1      42.549  27.453  29.997  1.00  0.00     0.049 A 
ATOM     47  C   UNL A   1      40.694  30.484  34.326  1.00  0.00     0.074 A 
ATOM     48  C   UNL A   1      43.744  26.777  30.176  1.00  0.00     0.029 A 
ATOM     49  N   UNL A   1      42.278  28.110  31.188  1.00  0.00    -0.354 N 
ATOM     50  N   UNL A   1      41.258  29.746  33.402  1.00  0.00    -0.248 NA
ATOM     51  C   UNL A   1      41.407  30.488  35.611  1.00  0.00     0.031 C 
ATOM     52  C   UNL A   1      44.181  27.004  31.486  1.00  0.00     0.029 A 
ATOM     53  C   UNL A   1      43.277  27.848  32.110  1.00  0.00     0.049 A 
ATOM     54  H   UNL A   1      41.492  28.679  31.353  1.00  0.00     0.167 HD
ATOM     55  C   UNL A   1      42.399  29.213  33.985  1.00  0.00     0.074 A 
ATOM     56  C   UNL A   1      42.456  29.724  35.340  1.00  0.00     0.031 C 
ATOM     57  C   UNL A   1      43.318  28.373  33.450  1.00  0.00     0.037 A 
BRANCH  44  58
ATOM     58  C   UNL A   1      42.141  26.743  27.610  1.00  0.00     0.057 A 
ATOM     59  C   UNL A   1      42.910  27.334  26.601  1.00  0.00     0.134 A 
ATOM     60  C   UNL A   1      41.804  25.391  27.461  1.00  0.00     0.134 A 
ATOM     61  F   UNL A   1      43.252  28.629  26.677  1.00  0.00    -0.206 F 
ATOM     62  C   UNL A   1      43.314  26.612  25.476  1.00  0.00     0.040 A 
ATOM     63  C   UNL A   1      42.219  24.654  26.352  1.00  0.00     0.040 A 
ATOM     64  F   UNL A   1      41.070  24.766  28.395  1.00  0.00    -0.206 F 
ATOM     65  C   UNL A   1      42.974  25.265  25.353  1.00  0.00     0.006 A 
ENDBRANCH  44  58
BRANCH  45  66
ATOM     66  C   UNL A   1      38.968  32.085  35.418  1.00  0.00     0.057 A 
ATOM     67  C   UNL A   1      38.233  31.482  36.443  1.00  0.00     0.134 A 
ATOM     68  C   UNL A   1      39.230  33.456  35.530  1.00  0.00     0.134 A 
ATOM     69  F   UNL A   1      37.931  30.176  36.379  1.00  0.00    -0.206 F 
ATOM     70  C   UNL A   1      37.763  32.214  37.534  1.00  0.00     0.040 A 
ATOM     71  C   UNL A   1      38.787  34.197  36.626  1.00  0.00     0.040 A 
ATOM     72  F   UNL A   1      39.928  34.093  34.578  1.00  0.00    -0.206 F 
ATOM     73  C   UNL A   1      38.045  33.576  37.630  1.00  0.00     0.006 A 
ENDBRANCH  45  66
BRANCH  57  74
ATOM     74  C   UNL A   1      44.473  27.984  34.320  1.00  0.00     0.057 A 
ATOM     75  C   UNL A   1      44.442  26.830  35.113  1.00  0.00     0.134 A 
ATOM     76  C   UNL A   1      45.641  28.758  34.344  1.00  0.00     0.134 A 
ATOM     77  F   UNL A   1      43.346  26.057  35.144  1.00  0.00    -0.206 F 
ATOM     78  C   UNL A   1      45.526  26.470  35.915  1.00  0.00     0.040 A 
ATOM     79  C   UNL A   1      46.737  28.397  35.125  1.00  0.00     0.040 A 
ATOM     80  F   UNL A   1      45.734  29.872  33.602  1.00  0.00    -0.206 F 
ATOM     81  C   UNL A   1      46.680  27.252  35.918  1.00  0.00     0.006 A 
ENDBRANCH  57  74
ENDBRANCH  31  32
ENDBRANCH  24  26
ENDBRANCH  23  24
ENDBRANCH  22  23
ENDBRANCH   1  22
TORSDOF 13
ENDMDL
MODEL 3
REMARK VINA RESULT:     -11.3      4.669     10.024
REMARK SMILES CC(C)N1C[C@@H](C(=O)N2CCC(C(=O)OCCOC(=O)c3ccc(-c4c5nc(c(-c6c(F)cccc6F)c6ccc([nH]6)c(-c6c(F)cccc6F)c6nc(c(-c7c(F)cccc7F)c7ccc4[nH]7)C=C6)C=C5)cc3)CC2)CC1=O
REMARK SMILES IDX 16 1 15 2 13 3 14 4 12 5 7 6 8 7 9 8 10 9 76 10 11 11 75 12
REMARK SMILES IDX 6 13 4 14 5 15 78 16 77 17 79 18 2 19 1 20 3 21 17 22 18 23
REMARK SMILES IDX 19 24 20 25 21 26 22 27 74 28 23 29 73 30 24 31 25 32 26 33
REMARK SMILES IDX 67 34 27 35 72 36 66 37 68 38 28 39 71 40 65 41 64 42 29 44
REMARK SMILES IDX 55 45 38 46 54 47 39 48 42 49 53 50 69 51 40 52 41 53 52 55
REMARK SMILES IDX 70 56 43 57 30 58 31 59 36 60 32 61 33 62 35 63 37 64 34 65
REMARK SMILES IDX 56 66 57 67 62 68 58 69 59 70 61 71 63 72 60 73 44 74 45 75
REMARK SMILES IDX 50 76 46 77 47 78 49 79 51 80 48 81
REMARK H PARENT 68 43 42 54
REMARK Flexibility Score: inf
ROOT
ATOM      1  C   UNL A   1      34.237  34.501  29.841  1.00  0.00     0.274 C 
ENDROOT
BRANCH   1   2
ATOM      2  O   UNL A   1      33.619  33.338  29.256  1.00  0.00    -0.462 OA
BRANCH   2   3
ATOM      3  C   UNL A   1      34.282  32.752  28.229  1.00  0.00     0.309 C 
ATOM      4  O   UNL A   1      35.242  33.241  27.644  1.00  0.00    -0.252 OA
BRANCH   3   5
ATOM      5  C   UNL A   1      33.744  31.380  27.877  1.00  0.00     0.103 C 
ATOM      6  C   UNL A   1      33.261  28.632  24.981  1.00  0.00     0.227 C 
ATOM      7  O   UNL A   1      32.776  29.331  24.084  1.00  0.00    -0.274 OA
ATOM      8  N   UNL A   1      33.191  29.041  26.302  1.00  0.00    -0.342 N 
ATOM      9  C   UNL A   1      32.095  29.934  26.680  1.00  0.00     0.120 C 
ATOM     10  C   UNL A   1      34.304  29.022  27.246  1.00  0.00     0.120 C 
ATOM     11  C   UNL A   1      32.584  31.363  26.877  1.00  0.00     0.037 C 
ATOM     12  C   UNL A   1      34.863  30.440  27.418  1.00  0.00     0.037 C 
BRANCH   6  13
ATOM     13  C   UNL A   1      33.707  27.218  24.630  1.00  0.00     0.107 C 
ATOM     14  N   UNL A   1      32.898  25.185  23.799  1.00  0.00    -0.339 N 
ATOM     15  C   UNL A   1      32.742  26.605  23.629  1.00  0.00     0.133 C 
ATOM     16  C   UNL A   1      33.458  24.873  25.026  1.00  0.00     0.223 C 
ATOM     17  C   UNL A   1      33.927  26.149  25.687  1.00  0.00     0.115 C 
ATOM     18  O   UNL A   1      33.560  23.765  25.526  1.00  0.00    -0.275 OA
BRANCH  14  19
ATOM     19  C   UNL A   1      32.284  24.242  22.864  1.00  0.00     0.078 C 
ATOM     20  C   UNL A   1      33.305  23.288  22.243  1.00  0.00     0.031 C 
ATOM     21  C   UNL A   1      31.133  23.479  23.511  1.00  0.00     0.031 C 
ENDBRANCH  14  19
ENDBRANCH   6  13
ENDBRANCH   3   5
ENDBRANCH   2   3
ENDBRANCH   1   2
BRANCH   1  22
ATOM     22  C   UNL A   1      34.991  34.141  31.123  1.00  0.00     0.275 C 
BRANCH  22  23
ATOM     23  O   UNL A   1      34.857  32.743  31.447  1.00  0.00    -0.458 OA
BRANCH  23  24
ATOM     24  C   UNL A   1      35.754  32.274  32.344  1.00  0.00     0.338 C 
ATOM     25  O   UNL A   1      35.671  32.293  33.560  1.00  0.00    -0.246 OA
BRANCH  24  26
ATOM     26  C   UNL A   1      36.851  31.590  31.645  1.00  0.00     0.060 A 
ATOM     27  C   UNL A   1      37.868  31.032  32.420  1.00  0.00     0.016 A 
ATOM     28  C   UNL A   1      36.943  31.596  30.254  1.00  0.00     0.016 A 
ATOM     29  C   UNL A   1      38.994  30.485  31.816  1.00  0.00     0.010 A 
ATOM     30  C   UNL A   1      38.073  31.039  29.643  1.00  0.00     0.010 A 
ATOM     31  C   UNL A   1      39.110  30.494  30.421  1.00  0.00    -0.014 A 
BRANCH  31  32
ATOM     32  C   UNL A   1      40.349  29.980  29.791  1.00  0.00     0.031 A 
ATOM     33  C   UNL A   1      41.532  30.888  29.622  1.00  0.00     0.074 A 
ATOM     34  C   UNL A   1      40.425  28.691  29.413  1.00  0.00     0.049 A 
ATOM     35  N   UNL A   1      42.668  30.662  29.014  1.00  0.00    -0.248 NA
ATOM     36  C   UNL A   1      41.423  32.228  30.220  1.00  0.00     0.031 C 
ATOM     37  C   UNL A   1      39.367  27.695  29.586  1.00  0.00     0.029 A 
ATOM     38  N   UNL A   1      41.440  27.999  28.803  1.00  0.00    -0.354 N 
ATOM     39  C   UNL A   1      43.402  31.834  29.137  1.00  0.00     0.074 A 
ATOM     40  C   UNL A   1      42.579  32.774  29.869  1.00  0.00     0.031 C 
ATOM     41  C   UNL A   1      39.790  26.519  29.095  1.00  0.00     0.029 A 
ATOM     42  C   UNL A   1      41.124  26.692  28.529  1.00  0.00     0.049 A 
ATOM     43  H   UNL A   1      42.311  28.401  28.584  1.00  0.00     0.167 HD
ATOM     44  C   UNL A   1      44.650  32.099  28.683  1.00  0.00     0.037 A 
ATOM     45  C   UNL A   1      41.821  25.750  27.866  1.00  0.00     0.037 A 
ATOM     46  C   UNL A   1      45.470  31.159  27.965  1.00  0.00     0.049 A 
ATOM     47  C   UNL A   1      43.173  26.093  27.306  1.00  0.00     0.074 A 
ATOM     48  C   UNL A   1      46.741  31.339  27.445  1.00  0.00     0.029 A 
ATOM     49  N   UNL A   1      45.098  29.855  27.672  1.00  0.00    -0.354 N 
ATOM     50  N   UNL A   1      43.842  27.216  27.393  1.00  0.00    -0.248 NA
ATOM     51  C   UNL A   1      43.862  25.040  26.546  1.00  0.00     0.031 C 
ATOM     52  C   UNL A   1      47.126  30.151  26.813  1.00  0.00     0.029 A 
ATOM     53  C   UNL A   1      46.110  29.222  26.969  1.00  0.00     0.049 A 
ATOM     54  H   UNL A   1      44.242  29.441  27.925  1.00  0.00     0.167 HD
ATOM     55  C   UNL A   1      45.035  27.002  26.717  1.00  0.00     0.074 A 
ATOM     56  C   UNL A   1      45.005  25.635  26.236  1.00  0.00     0.031 C 
ATOM     57  C   UNL A   1      46.064  27.859  26.508  1.00  0.00     0.037 A 
BRANCH  44  58
ATOM     58  C   UNL A   1      45.192  33.475  28.927  1.00  0.00     0.057 A 
ATOM     59  C   UNL A   1      45.979  33.770  30.047  1.00  0.00     0.134 A 
ATOM     60  C   UNL A   1      44.947  34.510  28.015  1.00  0.00     0.134 A 
ATOM     61  F   UNL A   1      46.237  32.827  30.965  1.00  0.00    -0.206 F 
ATOM     62  C   UNL A   1      46.489  35.052  30.259  1.00  0.00     0.040 A 
ATOM     63  C   UNL A   1      45.468  35.789  28.206  1.00  0.00     0.040 A 
ATOM     64  F   UNL A   1      44.201  34.290  26.921  1.00  0.00    -0.206 F 
ATOM     65  C   UNL A   1      46.239  36.065  29.334  1.00  0.00     0.006 A 
ENDBRANCH  44  58
BRANCH  45  66
ATOM     66  C   UNL A   1      41.237  24.402  27.661  1.00  0.00     0.057 A 
ATOM     67  C   UNL A   1      41.693  23.298  28.389  1.00  0.00     0.134 A 
ATOM     68  C   UNL A   1      40.222  24.182  26.722  1.00  0.00     0.134 A 
ATOM     69  F   UNL A   1      42.681  23.442  29.286  1.00  0.00    -0.206 F 
ATOM     70  C   UNL A   1      41.171  22.021  28.184  1.00  0.00     0.040 A 
ATOM     71  C   UNL A   1      39.674  22.915  26.522  1.00  0.00     0.040 A 
ATOM     72  F   UNL A   1      39.744  25.200  25.992  1.00  0.00    -0.206 F 
ATOM     73  C   UNL A   1      40.153  21.828  27.250  1.00  0.00     0.006 A 
ENDBRANCH  45  66
BRANCH  57  74
ATOM     74  C   UNL A   1      47.247  27.332  25.757  1.00  0.00     0.057 A 
ATOM     75  C   UNL A   1      48.288  26.654  26.404  1.00  0.00     0.134 A 
ATOM     76  C   UNL A   1      47.334  27.481  24.367  1.00  0.00     0.134 A 
ATOM     77  F   UNL A   1      48.269  26.494  27.736  1.00  0.00    -0.206 F 
ATOM     78  C   UNL A   1      49.383  26.158  25.697  1.00  0.00     0.040 A 
ATOM     79  C   UNL A   1      48.415  26.971  23.647  1.00  0.00     0.040 A 
ATOM     80  F   UNL A   1      46.367  28.116  23.688  1.00  0.00    -0.206 F 
ATOM     81  C   UNL A   1      49.446  26.312  24.313  1.00  0.00     0.006 A 
ENDBRANCH  57  74
ENDBRANCH  31  32
ENDBRANCH  24  26
ENDBRANCH  23  24
ENDBRANCH  22  23
ENDBRANCH   1  22
TORSDOF 13
ENDMDL
