MODEL 1
REMARK VINA RESULT:     -11.6      0.000      0.000
REMARK SMILES Cc1cc(S[C@@H](C)c2ccc(C(=O)OCCOC(=O)c3ccc(-c4c5nc(c(-c6c(F)cccc6F)c6ccc([nH]6)c(-c6c(F)cccc6F)c6nc(c(-c7c(F)cccc7F)c7ccc4[nH]7)C=C6)C=C5)cc3)o2)n(C)n1
REMARK SMILES IDX 15 1 14 2 12 3 13 4 11 5 8 6 9 7 74 8 10 9 6 10 7 11 5 12
REMARK SMILES IDX 4 13 1 14 2 15 3 16 77 17 75 18 76 19 16 20 17 21 18 22
REMARK SMILES IDX 19 23 20 24 21 25 73 26 22 27 72 28 23 29 24 30 25 31 66 32
REMARK SMILES IDX 26 33 71 34 65 35 67 36 27 37 70 38 64 39 63 40 28 42 54 43
REMARK SMILES IDX 37 44 53 45 38 46 41 47 52 48 68 49 39 50 40 51 51 53 69 54
REMARK SMILES IDX 42 55 29 56 30 57 35 58 31 59 32 60 34 61 36 62 33 63 55 64
REMARK SMILES IDX 56 65 61 66 57 67 58 68 60 69 62 70 59 71 43 72 44 73 49 74
REMARK SMILES IDX 45 75 46 76 48 77 50 78 47 79
REMARK H PARENT 67 41 41 52
REMARK Flexibility Score: inf
ROOT
ATOM      1  C   UNL A   1      42.387  20.692  25.961  1.00  0.00     0.275 C 
ENDROOT
BRANCH   1   2
ATOM      2  O   UNL A   1      41.120  21.302  25.644  1.00  0.00    -0.456 OA
BRANCH   2   3
ATOM      3  C   UNL A   1      40.231  21.440  26.671  1.00  0.00     0.374 C 
ATOM      4  O   UNL A   1      40.408  20.984  27.797  1.00  0.00    -0.242 OA
BRANCH   3   5
ATOM      5  C   UNL A   1      39.081  22.201  26.235  1.00  0.00     0.211 A 
ATOM      6  C   UNL A   1      37.108  22.446  25.240  1.00  0.00     0.118 A 
ATOM      7  C   UNL A   1      37.423  23.665  25.809  1.00  0.00     0.048 A 
ATOM      8  O   UNL A   1      38.144  21.577  25.455  1.00  0.00    -0.453 OA
ATOM      9  C   UNL A   1      38.677  23.506  26.451  1.00  0.00     0.058 A 
BRANCH   6  10
ATOM     10  C   UNL A   1      35.888  21.954  24.500  1.00  0.00     0.116 C 
ATOM     11  C   UNL A   1      35.320  23.025  23.552  1.00  0.00     0.028 C 
BRANCH  10  12
ATOM     12  S   UNL A   1      34.587  21.232  25.594  1.00  0.00    -0.096 SA
BRANCH  12  13
ATOM     13  C   UNL A   1      34.105  19.822  24.710  1.00  0.00     0.095 A 
ATOM     14  C   UNL A   1      33.879  16.322  23.782  1.00  0.00     0.069 C 
ATOM     15  C   UNL A   1      33.738  17.773  23.995  1.00  0.00     0.061 A 
ATOM     16  C   UNL A   1      34.689  18.586  24.617  1.00  0.00     0.060 A 
ATOM     17  N   UNL A   1      32.681  18.478  23.577  1.00  0.00    -0.178 NA
ATOM     18  N   UNL A   1      32.975  19.753  23.934  1.00  0.00    -0.262 N 
ATOM     19  C   UNL A   1      32.224  20.839  23.346  1.00  0.00     0.175 C 
ENDBRANCH  12  13
ENDBRANCH  10  12
ENDBRANCH   6  10
ENDBRANCH   3   5
ENDBRANCH   2   3
ENDBRANCH   1   2
BRANCH   1  20
ATOM     20  C   UNL A   1      43.568  21.593  25.592  1.00  0.00     0.275 C 
BRANCH  20  21
ATOM     21  O   UNL A   1      43.135  22.807  24.943  1.00  0.00    -0.458 OA
BRANCH  21  22
ATOM     22  C   UNL A   1      43.898  23.892  25.196  1.00  0.00     0.338 C 
ATOM     23  O   UNL A   1      45.078  24.041  24.922  1.00  0.00    -0.246 OA
BRANCH  22  24
ATOM     24  C   UNL A   1      43.096  24.968  25.802  1.00  0.00     0.060 A 
ATOM     25  C   UNL A   1      43.693  26.212  25.918  1.00  0.00     0.016 A 
ATOM     26  C   UNL A   1      41.895  24.710  26.468  1.00  0.00     0.016 A 
ATOM     27  C   UNL A   1      43.165  27.136  26.819  1.00  0.00     0.010 A 
ATOM     28  C   UNL A   1      41.340  25.684  27.327  1.00  0.00     0.010 A 
ATOM     29  C   UNL A   1      42.023  26.877  27.606  1.00  0.00    -0.014 A 
BRANCH  29  30
ATOM     30  C   UNL A   1      41.715  27.794  28.779  1.00  0.00     0.031 A 
ATOM     31  C   UNL A   1      40.502  28.728  28.786  1.00  0.00     0.074 A 
ATOM     32  C   UNL A   1      42.380  27.647  29.950  1.00  0.00     0.049 A 
ATOM     33  N   UNL A   1      39.949  29.370  29.795  1.00  0.00    -0.248 NA
ATOM     34  C   UNL A   1      39.797  28.954  27.514  1.00  0.00     0.031 C 
ATOM     35  C   UNL A   1      43.537  26.775  30.159  1.00  0.00     0.029 A 
ATOM     36  N   UNL A   1      42.137  28.165  31.206  1.00  0.00    -0.354 N 
ATOM     37  C   UNL A   1      38.813  30.000  29.290  1.00  0.00     0.074 A 
ATOM     38  C   UNL A   1      38.759  29.692  27.881  1.00  0.00     0.031 C 
ATOM     39  C   UNL A   1      43.817  26.716  31.468  1.00  0.00     0.029 A 
ATOM     40  C   UNL A   1      42.948  27.641  32.189  1.00  0.00     0.049 A 
ATOM     41  H   UNL A   1      41.450  28.847  31.382  1.00  0.00     0.167 HD
ATOM     42  C   UNL A   1      37.896  30.782  29.912  1.00  0.00     0.037 A 
ATOM     43  C   UNL A   1      43.017  27.881  33.515  1.00  0.00     0.037 A 
ATOM     44  C   UNL A   1      37.973  31.215  31.283  1.00  0.00     0.049 A 
ATOM     45  C   UNL A   1      42.112  28.909  34.136  1.00  0.00     0.074 A 
ATOM     46  C   UNL A   1      37.175  32.137  31.942  1.00  0.00     0.029 A 
ATOM     47  N   UNL A   1      38.923  30.788  32.195  1.00  0.00    -0.354 N 
ATOM     48  N   UNL A   1      41.082  29.530  33.620  1.00  0.00    -0.248 NA
ATOM     49  C   UNL A   1      42.412  29.301  35.523  1.00  0.00     0.031 C 
ATOM     50  C   UNL A   1      37.701  32.337  33.222  1.00  0.00     0.029 A 
ATOM     51  C   UNL A   1      38.770  31.474  33.390  1.00  0.00     0.049 A 
ATOM     52  H   UNL A   1      39.604  30.098  32.021  1.00  0.00     0.167 HD
ATOM     53  C   UNL A   1      40.614  30.385  34.611  1.00  0.00     0.074 A 
ATOM     54  C   UNL A   1      41.444  30.169  35.777  1.00  0.00     0.031 C 
ATOM     55  C   UNL A   1      39.600  31.282  34.550  1.00  0.00     0.037 A 
BRANCH  42  56
ATOM     56  C   UNL A   1      36.777  31.337  29.075  1.00  0.00     0.057 A 
ATOM     57  C   UNL A   1      35.666  30.572  28.700  1.00  0.00     0.134 A 
ATOM     58  C   UNL A   1      36.802  32.680  28.672  1.00  0.00     0.134 A 
ATOM     59  F   UNL A   1      35.583  29.277  29.038  1.00  0.00    -0.206 F 
ATOM     60  C   UNL A   1      34.624  31.122  27.946  1.00  0.00     0.040 A 
ATOM     61  C   UNL A   1      35.759  33.244  27.937  1.00  0.00     0.040 A 
ATOM     62  F   UNL A   1      37.836  33.468  29.003  1.00  0.00    -0.206 F 
ATOM     63  C   UNL A   1      34.667  32.463  27.568  1.00  0.00     0.006 A 
ENDBRANCH  42  56
BRANCH  43  64
ATOM     64  C   UNL A   1      44.042  27.192  34.353  1.00  0.00     0.057 A 
ATOM     65  C   UNL A   1      45.333  27.710  34.510  1.00  0.00     0.134 A 
ATOM     66  C   UNL A   1      43.765  25.969  34.981  1.00  0.00     0.134 A 
ATOM     67  F   UNL A   1      45.682  28.855  33.904  1.00  0.00    -0.206 F 
ATOM     68  C   UNL A   1      46.308  27.039  35.254  1.00  0.00     0.040 A 
ATOM     69  C   UNL A   1      44.713  25.312  35.765  1.00  0.00     0.040 A 
ATOM     70  F   UNL A   1      42.557  25.400  34.856  1.00  0.00    -0.206 F 
ATOM     71  C   UNL A   1      45.993  25.843  35.895  1.00  0.00     0.006 A 
ENDBRANCH  43  64
BRANCH  55  72
ATOM     72  C   UNL A   1      39.322  32.100  35.780  1.00  0.00     0.057 A 
ATOM     73  C   UNL A   1      38.456  31.653  36.788  1.00  0.00     0.134 A 
ATOM     74  C   UNL A   1      39.935  33.345  35.968  1.00  0.00     0.134 A 
ATOM     75  F   UNL A   1      37.830  30.472  36.673  1.00  0.00    -0.206 F 
ATOM     76  C   UNL A   1      38.178  32.433  37.913  1.00  0.00     0.040 A 
ATOM     77  C   UNL A   1      39.690  34.119  37.104  1.00  0.00     0.040 A 
ATOM     78  F   UNL A   1      40.788  33.831  35.053  1.00  0.00    -0.206 F 
ATOM     79  C   UNL A   1      38.800  33.668  38.076  1.00  0.00     0.006 A 
ENDBRANCH  55  72
ENDBRANCH  29  30
ENDBRANCH  22  24
ENDBRANCH  21  22
ENDBRANCH  20  21
ENDBRANCH   1  20
TORSDOF 14
ENDMDL
MODEL 2
REMARK VINA RESULT:     -11.4      5.123      9.536
REMARK SMILES Cc1cc(S[C@@H](C)c2ccc(C(=O)OCCOC(=O)c3ccc(-c4c5nc(c(-c6c(F)cccc6F)c6ccc([nH]6)c(-c6c(F)cccc6F)c6nc(c(-c7c(F)cccc7F)c7ccc4[nH]7)C=C6)C=C5)cc3)o2)n(C)n1
REMARK SMILES IDX 15 1 14 2 12 3 13 4 11 5 8 6 9 7 74 8 10 9 6 10 7 11 5 12
REMARK SMILES IDX 4 13 1 14 2 15 3 16 77 17 75 18 76 19 16 20 17 21 18 22
REMARK SMILES IDX 19 23 20 24 21 25 73 26 22 27 72 28 23 29 24 30 25 31 66 32
REMARK SMILES IDX 26 33 71 34 65 35 67 36 27 37 70 38 64 39 63 40 28 42 54 43
REMARK SMILES IDX 37 44 53 45 38 46 41 47 52 48 68 49 39 50 40 51 51 53 69 54
REMARK SMILES IDX 42 55 29 56 30 57 35 58 31 59 32 60 34 61 36 62 33 63 55 64
REMARK SMILES IDX 56 65 61 66 57 67 58 68 60 69 62 70 59 71 43 72 44 73 49 74
REMARK SMILES IDX 45 75 46 76 48 77 50 78 47 79
REMARK H PARENT 67 41 41 52
REMARK Flexibility Score: inf
ROOT
ATOM      1  C   UNL A   1      34.647  35.094  28.327  1.00  0.00     0.275 C 
ENDROOT
BRANCH   1   2
ATOM      2  O   UNL A   1      34.676  33.785  27.726  1.00  0.00    -0.456 OA
BRANCH   2   3
ATOM      3  C   UNL A   1      35.665  32.941  28.142  1.00  0.00     0.374 C 
ATOM      4  O   UNL A   1      36.678  33.307  28.730  1.00  0.00    -0.242 OA
BRANCH   3   5
ATOM      5  C   UNL A   1      35.331  31.576  27.797  1.00  0.00     0.211 A 
ATOM      6  C   UNL A   1      34.012  29.991  26.966  1.00  0.00     0.118 A 
ATOM      7  C   UNL A   1      35.200  29.379  27.316  1.00  0.00     0.048 A 
ATOM      8  O   UNL A   1      34.077  31.314  27.311  1.00  0.00    -0.453 OA
ATOM      9  C   UNL A   1      36.045  30.392  27.837  1.00  0.00     0.058 A 
BRANCH   6  10
ATOM     10  C   UNL A   1      32.763  29.476  26.294  1.00  0.00     0.116 C 
ATOM     11  C   UNL A   1      31.973  28.518  27.204  1.00  0.00     0.028 C 
BRANCH  10  12
ATOM     12  S   UNL A   1      33.054  28.761  24.616  1.00  0.00    -0.096 SA
BRANCH  12  13
ATOM     13  C   UNL A   1      31.489  28.896  23.883  1.00  0.00     0.095 A 
ATOM     14  C   UNL A   1      28.308  30.364  22.942  1.00  0.00     0.069 C 
ATOM     15  C   UNL A   1      29.546  29.584  23.113  1.00  0.00     0.061 A 
ATOM     16  C   UNL A   1      30.433  29.714  24.185  1.00  0.00     0.060 A 
ATOM     17  N   UNL A   1      29.936  28.628  22.260  1.00  0.00    -0.178 NA
ATOM     18  N   UNL A   1      31.079  28.147  22.809  1.00  0.00    -0.262 N 
ATOM     19  C   UNL A   1      31.601  26.880  22.348  1.00  0.00     0.175 C 
ENDBRANCH  12  13
ENDBRANCH  10  12
ENDBRANCH   6  10
ENDBRANCH   3   5
ENDBRANCH   2   3
ENDBRANCH   1   2
BRANCH   1  20
ATOM     20  C   UNL A   1      33.243  35.481  28.797  1.00  0.00     0.275 C 
BRANCH  20  21
ATOM     21  O   UNL A   1      32.895  34.835  30.039  1.00  0.00    -0.458 OA
BRANCH  21  22
ATOM     22  C   UNL A   1      32.903  35.641  31.122  1.00  0.00     0.338 C 
ATOM     23  O   UNL A   1      32.236  36.649  31.293  1.00  0.00    -0.246 OA
BRANCH  22  24
ATOM     24  C   UNL A   1      33.792  35.108  32.168  1.00  0.00     0.060 A 
ATOM     25  C   UNL A   1      35.079  35.616  32.222  1.00  0.00     0.016 A 
ATOM     26  C   UNL A   1      33.465  33.967  32.906  1.00  0.00     0.016 A 
ATOM     27  C   UNL A   1      36.066  34.893  32.893  1.00  0.00     0.010 A 
ATOM     28  C   UNL A   1      34.464  33.285  33.634  1.00  0.00     0.010 A 
ATOM     29  C   UNL A   1      35.811  33.672  33.553  1.00  0.00    -0.014 A 
BRANCH  29  30
ATOM     30  C   UNL A   1      36.985  32.801  33.968  1.00  0.00     0.031 A 
ATOM     31  C   UNL A   1      37.584  31.743  33.037  1.00  0.00     0.074 A 
ATOM     32  C   UNL A   1      37.682  33.091  35.093  1.00  0.00     0.049 A 
ATOM     33  N   UNL A   1      38.735  31.108  33.127  1.00  0.00    -0.248 NA
ATOM     34  C   UNL A   1      36.818  31.365  31.838  1.00  0.00     0.031 C 
ATOM     35  C   UNL A   1      37.299  34.094  36.087  1.00  0.00     0.029 A 
ATOM     36  N   UNL A   1      38.897  32.627  35.556  1.00  0.00    -0.354 N 
ATOM     37  C   UNL A   1      38.849  30.329  31.977  1.00  0.00     0.074 A 
ATOM     38  C   UNL A   1      37.645  30.543  31.210  1.00  0.00     0.031 C 
ATOM     39  C   UNL A   1      38.305  34.263  36.957  1.00  0.00     0.029 A 
ATOM     40  C   UNL A   1      39.359  33.295  36.669  1.00  0.00     0.049 A 
ATOM     41  H   UNL A   1      39.387  31.887  35.130  1.00  0.00     0.167 HD
ATOM     42  C   UNL A   1      39.841  29.492  31.582  1.00  0.00     0.037 A 
ATOM     43  C   UNL A   1      40.483  33.146  37.401  1.00  0.00     0.037 A 
ATOM     44  C   UNL A   1      40.999  29.155  32.367  1.00  0.00     0.049 A 
ATOM     45  C   UNL A   1      41.467  32.065  37.046  1.00  0.00     0.074 A 
ATOM     46  C   UNL A   1      41.965  28.194  32.109  1.00  0.00     0.029 A 
ATOM     47  N   UNL A   1      41.331  29.737  33.577  1.00  0.00    -0.354 N 
ATOM     48  N   UNL A   1      41.520  31.307  35.981  1.00  0.00    -0.248 NA
ATOM     49  C   UNL A   1      42.530  31.794  38.026  1.00  0.00     0.031 C 
ATOM     50  C   UNL A   1      42.825  28.131  33.210  1.00  0.00     0.029 A 
ATOM     51  C   UNL A   1      42.449  29.113  34.110  1.00  0.00     0.049 A 
ATOM     52  H   UNL A   1      40.846  30.484  33.997  1.00  0.00     0.167 HD
ATOM     53  C   UNL A   1      42.613  30.468  36.163  1.00  0.00     0.074 A 
ATOM     54  C   UNL A   1      43.226  30.844  37.419  1.00  0.00     0.031 C 
ATOM     55  C   UNL A   1      43.056  29.465  35.367  1.00  0.00     0.037 A 
BRANCH  42  56
ATOM     56  C   UNL A   1      39.656  28.768  30.276  1.00  0.00     0.057 A 
ATOM     57  C   UNL A   1      40.083  29.301  29.053  1.00  0.00     0.134 A 
ATOM     58  C   UNL A   1      39.073  27.494  30.257  1.00  0.00     0.134 A 
ATOM     59  F   UNL A   1      40.636  30.522  28.996  1.00  0.00    -0.206 F 
ATOM     60  C   UNL A   1      39.927  28.594  27.857  1.00  0.00     0.040 A 
ATOM     61  C   UNL A   1      38.931  26.771  29.072  1.00  0.00     0.040 A 
ATOM     62  F   UNL A   1      38.647  26.925  31.395  1.00  0.00    -0.206 F 
ATOM     63  C   UNL A   1      39.355  27.322  27.866  1.00  0.00     0.006 A 
ENDBRANCH  42  56
BRANCH  43  64
ATOM     64  C   UNL A   1      40.712  33.992  38.608  1.00  0.00     0.057 A 
ATOM     65  C   UNL A   1      41.511  35.141  38.560  1.00  0.00     0.134 A 
ATOM     66  C   UNL A   1      40.172  33.643  39.854  1.00  0.00     0.134 A 
ATOM     67  F   UNL A   1      42.094  35.513  37.411  1.00  0.00    -0.206 F 
ATOM     68  C   UNL A   1      41.766  35.906  39.702  1.00  0.00     0.040 A 
ATOM     69  C   UNL A   1      40.380  34.422  40.992  1.00  0.00     0.040 A 
ATOM     70  F   UNL A   1      39.416  32.542  39.982  1.00  0.00    -0.206 F 
ATOM     71  C   UNL A   1      41.188  35.553  40.919  1.00  0.00     0.006 A 
ENDBRANCH  43  64
BRANCH  55  72
ATOM     72  C   UNL A   1      44.265  28.698  35.823  1.00  0.00     0.057 A 
ATOM     73  C   UNL A   1      45.568  29.103  35.497  1.00  0.00     0.134 A 
ATOM     74  C   UNL A   1      44.131  27.546  36.610  1.00  0.00     0.134 A 
ATOM     75  F   UNL A   1      45.772  30.193  34.742  1.00  0.00    -0.206 F 
ATOM     76  C   UNL A   1      46.685  28.368  35.898  1.00  0.00     0.040 A 
ATOM     77  C   UNL A   1      45.242  26.822  37.045  1.00  0.00     0.040 A 
ATOM     78  F   UNL A   1      42.917  27.107  36.974  1.00  0.00    -0.206 F 
ATOM     79  C   UNL A   1      46.525  27.226  36.678  1.00  0.00     0.006 A 
ENDBRANCH  55  72
ENDBRANCH  29  30
ENDBRANCH  22  24
ENDBRANCH  21  22
ENDBRANCH  20  21
ENDBRANCH   1  20
TORSDOF 14
ENDMDL
MODEL 3
REMARK VINA RESULT:     -11.4      1.399      2.626
REMARK SMILES Cc1cc(S[C@@H](C)c2ccc(C(=O)OCCOC(=O)c3ccc(-c4c5nc(c(-c6c(F)cccc6F)c6ccc([nH]6)c(-c6c(F)cccc6F)c6nc(c(-c7c(F)cccc7F)c7ccc4[nH]7)C=C6)C=C5)cc3)o2)n(C)n1
REMARK SMILES IDX 15 1 14 2 12 3 13 4 11 5 8 6 9 7 74 8 10 9 6 10 7 11 5 12
REMARK SMILES IDX 4 13 1 14 2 15 3 16 77 17 75 18 76 19 16 20 17 21 18 22
REMARK SMILES IDX 19 23 20 24 21 25 73 26 22 27 72 28 23 29 24 30 25 31 66 32
REMARK SMILES IDX 26 33 71 34 65 35 67 36 27 37 70 38 64 39 63 40 28 42 54 43
REMARK SMILES IDX 37 44 53 45 38 46 41 47 52 48 68 49 39 50 40 51 51 53 69 54
REMARK SMILES IDX 42 55 29 56 30 57 35 58 31 59 32 60 34 61 36 62 33 63 55 64
REMARK SMILES IDX 56 65 61 66 57 67 58 68 60 69 62 70 59 71 43 72 44 73 49 74
REMARK SMILES IDX 45 75 46 76 48 77 50 78 47 79
REMARK H PARENT 67 41 41 52
REMARK Flexibility Score: inf
ROOT
ATOM      1  C   UNL A   1      42.776  21.194  25.995  1.00  0.00     0.275 C 
ENDROOT
BRANCH   1   2
ATOM      2  O   UNL A   1      41.437  21.493  25.556  1.00  0.00    -0.456 OA
BRANCH   2   3
ATOM      3  C   UNL A   1      40.423  21.149  26.403  1.00  0.00     0.374 C 
ATOM      4  O   UNL A   1      40.478  20.213  27.195  1.00  0.00    -0.242 OA
BRANCH   3   5
ATOM      5  C   UNL A   1      39.304  22.049  26.230  1.00  0.00     0.211 A 
ATOM      6  C   UNL A   1      37.234  22.567  25.605  1.00  0.00     0.118 A 
ATOM      7  C   UNL A   1      37.761  23.690  26.212  1.00  0.00     0.048 A 
ATOM      8  O   UNL A   1      38.194  21.591  25.570  1.00  0.00    -0.453 OA
ATOM      9  C   UNL A   1      39.077  23.357  26.619  1.00  0.00     0.058 A 
BRANCH   6  10
ATOM     10  C   UNL A   1      35.868  22.261  25.042  1.00  0.00     0.116 C 
ATOM     11  C   UNL A   1      35.635  20.747  24.887  1.00  0.00     0.028 C 
BRANCH  10  12
ATOM     12  S   UNL A   1      35.468  23.189  23.496  1.00  0.00    -0.096 SA
BRANCH  12  13
ATOM     13  C   UNL A   1      34.508  24.502  24.093  1.00  0.00     0.095 A 
ATOM     14  C   UNL A   1      33.595  27.397  26.079  1.00  0.00     0.069 C 
ATOM     15  C   UNL A   1      33.749  26.303  25.105  1.00  0.00     0.061 A 
ATOM     16  C   UNL A   1      34.580  25.192  25.274  1.00  0.00     0.060 A 
ATOM     17  N   UNL A   1      33.070  26.243  23.953  1.00  0.00    -0.178 NA
ATOM     18  N   UNL A   1      33.475  25.075  23.395  1.00  0.00    -0.262 N 
ATOM     19  C   UNL A   1      32.704  24.510  22.310  1.00  0.00     0.175 C 
ENDBRANCH  12  13
ENDBRANCH  10  12
ENDBRANCH   6  10
ENDBRANCH   3   5
ENDBRANCH   2   3
ENDBRANCH   1   2
BRANCH   1  20
ATOM     20  C   UNL A   1      43.829  21.963  25.193  1.00  0.00     0.275 C 
BRANCH  20  21
ATOM     21  O   UNL A   1      43.294  23.178  24.630  1.00  0.00    -0.458 OA
BRANCH  21  22
ATOM     22  C   UNL A   1      43.965  24.303  24.959  1.00  0.00     0.338 C 
ATOM     23  O   UNL A   1      45.125  24.572  24.692  1.00  0.00    -0.246 OA
BRANCH  22  24
ATOM     24  C   UNL A   1      43.081  25.259  25.646  1.00  0.00     0.060 A 
ATOM     25  C   UNL A   1      43.480  26.585  25.668  1.00  0.00     0.016 A 
ATOM     26  C   UNL A   1      42.027  24.839  26.462  1.00  0.00     0.016 A 
ATOM     27  C   UNL A   1      42.925  27.445  26.615  1.00  0.00     0.010 A 
ATOM     28  C   UNL A   1      41.432  25.742  27.370  1.00  0.00     0.010 A 
ATOM     29  C   UNL A   1      41.944  27.037  27.544  1.00  0.00    -0.014 A 
BRANCH  29  30
ATOM     30  C   UNL A   1      41.639  27.933  28.733  1.00  0.00     0.031 A 
ATOM     31  C   UNL A   1      40.412  28.849  28.770  1.00  0.00     0.074 A 
ATOM     32  C   UNL A   1      42.323  27.781  29.893  1.00  0.00     0.049 A 
ATOM     33  N   UNL A   1      39.864  29.469  29.795  1.00  0.00    -0.248 NA
ATOM     34  C   UNL A   1      39.686  29.081  27.510  1.00  0.00     0.031 C 
ATOM     35  C   UNL A   1      43.495  26.923  30.073  1.00  0.00     0.029 A 
ATOM     36  N   UNL A   1      42.090  28.279  31.159  1.00  0.00    -0.354 N 
ATOM     37  C   UNL A   1      38.712  30.089  29.314  1.00  0.00     0.074 A 
ATOM     38  C   UNL A   1      38.643  29.798  27.901  1.00  0.00     0.031 C 
ATOM     39  C   UNL A   1      43.794  26.852  31.378  1.00  0.00     0.029 A 
ATOM     40  C   UNL A   1      42.922  27.754  32.123  1.00  0.00     0.049 A 
ATOM     41  H   UNL A   1      41.394  28.947  31.354  1.00  0.00     0.167 HD
ATOM     42  C   UNL A   1      37.792  30.849  29.959  1.00  0.00     0.037 A 
ATOM     43  C   UNL A   1      43.006  27.977  33.452  1.00  0.00     0.037 A 
ATOM     44  C   UNL A   1      37.882  31.264  31.334  1.00  0.00     0.049 A 
ATOM     45  C   UNL A   1      42.094  28.984  34.098  1.00  0.00     0.074 A 
ATOM     46  C   UNL A   1      37.079  32.165  32.016  1.00  0.00     0.029 A 
ATOM     47  N   UNL A   1      38.850  30.839  32.227  1.00  0.00    -0.354 N 
ATOM     48  N   UNL A   1      41.048  29.595  33.605  1.00  0.00    -0.248 NA
ATOM     49  C   UNL A   1      42.408  29.362  35.486  1.00  0.00     0.031 C 
ATOM     50  C   UNL A   1      37.620  32.356  33.292  1.00  0.00     0.029 A 
ATOM     51  C   UNL A   1      38.705  31.508  33.433  1.00  0.00     0.049 A 
ATOM     52  H   UNL A   1      39.539  30.163  32.034  1.00  0.00     0.167 HD
ATOM     53  C   UNL A   1      40.582  30.430  34.614  1.00  0.00     0.074 A 
ATOM     54  C   UNL A   1      41.431  30.211  35.765  1.00  0.00     0.031 C 
ATOM     55  C   UNL A   1      39.554  31.312  34.579  1.00  0.00     0.037 A 
BRANCH  42  56
ATOM     56  C   UNL A   1      36.653  31.398  29.144  1.00  0.00     0.057 A 
ATOM     57  C   UNL A   1      36.628  32.718  28.678  1.00  0.00     0.134 A 
ATOM     58  C   UNL A   1      35.581  30.567  28.791  1.00  0.00     0.134 A 
ATOM     59  F   UNL A   1      37.614  33.571  28.991  1.00  0.00    -0.206 F 
ATOM     60  C   UNL A   1      35.571  33.194  27.897  1.00  0.00     0.040 A 
ATOM     61  C   UNL A   1      34.530  31.026  27.995  1.00  0.00     0.040 A 
ATOM     62  F   UNL A   1      35.546  29.290  29.202  1.00  0.00    -0.206 F 
ATOM     63  C   UNL A   1      34.521  32.344  27.548  1.00  0.00     0.006 A 
ENDBRANCH  42  56
BRANCH  43  64
ATOM     64  C   UNL A   1      44.053  27.293  34.265  1.00  0.00     0.057 A 
ATOM     65  C   UNL A   1      43.797  26.087  34.928  1.00  0.00     0.134 A 
ATOM     66  C   UNL A   1      45.326  27.856  34.435  1.00  0.00     0.134 A 
ATOM     67  F   UNL A   1      42.588  25.511  34.845  1.00  0.00    -0.206 F 
ATOM     68  C   UNL A   1      44.762  25.471  35.731  1.00  0.00     0.040 A 
ATOM     69  C   UNL A   1      46.313  27.230  35.194  1.00  0.00     0.040 A 
ATOM     70  F   UNL A   1      45.635  29.023  33.849  1.00  0.00    -0.206 F 
ATOM     71  C   UNL A   1      46.029  26.038  35.854  1.00  0.00     0.006 A 
ENDBRANCH  43  64
BRANCH  55  72
ATOM     72  C   UNL A   1      39.280  32.110  35.823  1.00  0.00     0.057 A 
ATOM     73  C   UNL A   1      38.412  31.651  36.823  1.00  0.00     0.134 A 
ATOM     74  C   UNL A   1      39.901  33.348  36.034  1.00  0.00     0.134 A 
ATOM     75  F   UNL A   1      37.778  30.476  36.687  1.00  0.00    -0.206 F 
ATOM     76  C   UNL A   1      38.138  32.412  37.962  1.00  0.00     0.040 A 
ATOM     77  C   UNL A   1      39.661  34.103  37.183  1.00  0.00     0.040 A 
ATOM     78  F   UNL A   1      40.757  33.845  35.128  1.00  0.00    -0.206 F 
ATOM     79  C   UNL A   1      38.768  33.640  38.147  1.00  0.00     0.006 A 
ENDBRANCH  55  72
ENDBRANCH  29  30
ENDBRANCH  22  24
ENDBRANCH  21  22
ENDBRANCH  20  21
ENDBRANCH   1  20
TORSDOF 14
ENDMDL
