MODEL 1
REMARK VINA RESULT:     -10.1      0.000      0.000
REMARK SMILES O=C(CCCCc1nc(C[C@H]2CCCO2)no1)OCCOC(=O)c1ccc(-c2c3nc(c(-c4c(F)cccc4F)c4ccc([nH]4)c(-c4c(F)cccc4F)c4nc(c(-c5c(F)cccc5F)c5ccc2[nH]5)C=C4)C=C3)cc1
REMARK SMILES IDX 1 1 2 2 3 3 4 4 5 5 6 6 7 7 8 8 17 9 9 10 16 11 10 12 11 13
REMARK SMILES IDX 12 14 15 15 13 16 14 17 18 18 19 19 20 20 21 21 22 22 23 23
REMARK SMILES IDX 24 24 25 25 77 26 26 27 76 28 27 29 28 30 29 31 70 32 30 33
REMARK SMILES IDX 75 34 69 35 71 36 31 37 74 38 68 39 67 40 32 42 58 43 41 44
REMARK SMILES IDX 57 45 42 46 45 47 56 48 72 49 43 50 44 51 55 53 73 54 46 55
REMARK SMILES IDX 33 56 34 57 39 58 35 59 36 60 38 61 40 62 37 63 59 64 60 65
REMARK SMILES IDX 65 66 61 67 62 68 64 69 66 70 63 71 47 72 48 73 53 74 49 75
REMARK SMILES IDX 50 76 52 77 54 78 51 79
REMARK H PARENT 71 41 45 52
REMARK Flexibility Score: inf
ROOT
ATOM      1  O   UNL A   1      43.160  18.155  25.399  1.00  0.00    -0.252 OA
ATOM      2  C   UNL A   1      42.919  19.342  25.591  1.00  0.00     0.305 C 
ENDROOT
BRANCH   2   3
ATOM      3  C   UNL A   1      41.759  19.791  26.457  1.00  0.00     0.123 C 
BRANCH   3   4
ATOM      4  C   UNL A   1      41.359  21.252  26.263  1.00  0.00     0.012 C 
BRANCH   4   5
ATOM      5  C   UNL A   1      40.028  21.657  26.907  1.00  0.00     0.010 C 
BRANCH   5   6
ATOM      6  C   UNL A   1      39.435  23.008  26.498  1.00  0.00     0.100 C 
BRANCH   6   7
ATOM      7  C   UNL A   1      38.027  23.023  26.042  1.00  0.00     0.226 A 
ATOM      8  N   UNL A   1      37.443  22.172  25.228  1.00  0.00    -0.196 NA
ATOM      9  O   UNL A   1      37.225  24.062  26.406  1.00  0.00    -0.339 OA
ATOM     10  C   UNL A   1      36.211  22.744  25.048  1.00  0.00     0.174 A 
ATOM     11  N   UNL A   1      36.010  23.871  25.745  1.00  0.00    -0.062 NA
BRANCH  10  12
ATOM     12  C   UNL A   1      35.233  22.225  24.066  1.00  0.00     0.113 C 
BRANCH  12  13
ATOM     13  C   UNL A   1      33.865  22.912  24.103  1.00  0.00     0.126 C 
ATOM     14  C   UNL A   1      33.014  22.748  22.852  1.00  0.00     0.035 C 
ATOM     15  O   UNL A   1      33.093  22.285  25.153  1.00  0.00    -0.378 OA
ATOM     16  C   UNL A   1      32.394  21.390  23.060  1.00  0.00     0.031 C 
ATOM     17  C   UNL A   1      32.146  21.381  24.555  1.00  0.00     0.160 C 
ENDBRANCH  12  13
ENDBRANCH  10  12
ENDBRANCH   6   7
ENDBRANCH   5   6
ENDBRANCH   4   5
ENDBRANCH   3   4
ENDBRANCH   2   3
BRANCH   2  18
ATOM     18  O   UNL A   1      43.586  20.308  24.907  1.00  0.00    -0.462 OA
BRANCH  18  19
ATOM     19  C   UNL A   1      44.989  20.519  25.143  1.00  0.00     0.274 C 
BRANCH  19  20
ATOM     20  C   UNL A   1      45.305  21.912  25.700  1.00  0.00     0.275 C 
BRANCH  20  21
ATOM     21  O   UNL A   1      44.143  22.755  25.708  1.00  0.00    -0.458 OA
BRANCH  21  22
ATOM     22  C   UNL A   1      44.401  24.067  25.464  1.00  0.00     0.338 C 
ATOM     23  O   UNL A   1      44.977  24.527  24.497  1.00  0.00    -0.246 OA
BRANCH  22  24
ATOM     24  C   UNL A   1      43.722  24.908  26.475  1.00  0.00     0.060 A 
ATOM     25  C   UNL A   1      44.135  26.241  26.585  1.00  0.00     0.016 A 
ATOM     26  C   UNL A   1      42.707  24.417  27.301  1.00  0.00     0.016 A 
ATOM     27  C   UNL A   1      43.553  27.080  27.536  1.00  0.00     0.010 A 
ATOM     28  C   UNL A   1      42.131  25.257  28.263  1.00  0.00     0.010 A 
ATOM     29  C   UNL A   1      42.564  26.587  28.397  1.00  0.00    -0.014 A 
BRANCH  29  30
ATOM     30  C   UNL A   1      42.050  27.445  29.491  1.00  0.00     0.031 A 
ATOM     31  C   UNL A   1      42.703  27.389  30.844  1.00  0.00     0.074 A 
ATOM     32  C   UNL A   1      41.020  28.283  29.279  1.00  0.00     0.049 A 
ATOM     33  N   UNL A   1      42.421  28.066  31.928  1.00  0.00    -0.248 NA
ATOM     34  C   UNL A   1      43.824  26.447  30.996  1.00  0.00     0.031 C 
ATOM     35  C   UNL A   1      40.309  28.447  28.012  1.00  0.00     0.029 A 
ATOM     36  N   UNL A   1      40.388  29.150  30.136  1.00  0.00    -0.354 N 
ATOM     37  C   UNL A   1      43.332  27.643  32.886  1.00  0.00     0.074 A 
ATOM     38  C   UNL A   1      44.158  26.628  32.266  1.00  0.00     0.031 C 
ATOM     39  C   UNL A   1      39.327  29.351  28.179  1.00  0.00     0.029 A 
ATOM     40  C   UNL A   1      39.331  29.815  29.566  1.00  0.00     0.049 A 
ATOM     41  H   UNL A   1      40.668  29.284  31.071  1.00  0.00     0.167 HD
ATOM     42  C   UNL A   1      43.478  28.071  34.161  1.00  0.00     0.037 A 
ATOM     43  C   UNL A   1      38.457  30.686  30.105  1.00  0.00     0.037 A 
ATOM     44  C   UNL A   1      42.662  29.078  34.786  1.00  0.00     0.049 A 
ATOM     45  C   UNL A   1      38.594  31.083  31.551  1.00  0.00     0.074 A 
ATOM     46  C   UNL A   1      42.774  29.609  36.060  1.00  0.00     0.029 A 
ATOM     47  N   UNL A   1      41.574  29.694  34.190  1.00  0.00    -0.354 N 
ATOM     48  N   UNL A   1      39.501  30.728  32.426  1.00  0.00    -0.248 NA
ATOM     49  C   UNL A   1      37.578  32.006  32.085  1.00  0.00     0.031 C 
ATOM     50  C   UNL A   1      41.724  30.513  36.252  1.00  0.00     0.029 A 
ATOM     51  C   UNL A   1      40.981  30.571  35.083  1.00  0.00     0.049 A 
ATOM     52  H   UNL A   1      41.268  29.532  33.268  1.00  0.00     0.167 HD
ATOM     53  C   UNL A   1      39.181  31.396  33.602  1.00  0.00     0.074 A 
ATOM     54  C   UNL A   1      38.003  32.191  33.327  1.00  0.00     0.031 C 
ATOM     55  C   UNL A   1      39.808  31.355  34.802  1.00  0.00     0.037 A 
BRANCH  42  56
ATOM     56  C   UNL A   1      44.564  27.445  34.981  1.00  0.00     0.057 A 
ATOM     57  C   UNL A   1      44.337  26.286  35.732  1.00  0.00     0.134 A 
ATOM     58  C   UNL A   1      45.861  27.969  34.966  1.00  0.00     0.134 A 
ATOM     59  F   UNL A   1      43.112  25.743  35.793  1.00  0.00    -0.206 F 
ATOM     60  C   UNL A   1      45.366  25.673  36.450  1.00  0.00     0.040 A 
ATOM     61  C   UNL A   1      46.901  27.355  35.665  1.00  0.00     0.040 A 
ATOM     62  F   UNL A   1      46.141  29.075  34.261  1.00  0.00    -0.206 F 
ATOM     63  C   UNL A   1      46.654  26.203  36.410  1.00  0.00     0.006 A 
ENDBRANCH  42  56
BRANCH  43  64
ATOM     64  C   UNL A   1      37.347  31.234  29.288  1.00  0.00     0.057 A 
ATOM     65  C   UNL A   1      37.404  32.529  28.760  1.00  0.00     0.134 A 
ATOM     66  C   UNL A   1      36.180  30.494  29.064  1.00  0.00     0.134 A 
ATOM     67  F   UNL A   1      38.485  33.295  28.968  1.00  0.00    -0.206 F 
ATOM     68  C   UNL A   1      36.331  33.078  28.057  1.00  0.00     0.040 A 
ATOM     69  C   UNL A   1      35.109  31.022  28.343  1.00  0.00     0.040 A 
ATOM     70  F   UNL A   1      36.063  29.250  29.549  1.00  0.00    -0.206 F 
ATOM     71  C   UNL A   1      35.179  32.322  27.845  1.00  0.00     0.006 A 
ENDBRANCH  43  64
BRANCH  55  72
ATOM     72  C   UNL A   1      39.243  32.200  35.905  1.00  0.00     0.057 A 
ATOM     73  C   UNL A   1      39.667  33.519  36.108  1.00  0.00     0.134 A 
ATOM     74  C   UNL A   1      38.236  31.707  36.743  1.00  0.00     0.134 A 
ATOM     75  F   UNL A   1      40.638  34.045  35.347  1.00  0.00    -0.206 F 
ATOM     76  C   UNL A   1      39.120  34.312  37.117  1.00  0.00     0.040 A 
ATOM     77  C   UNL A   1      37.666  32.498  37.741  1.00  0.00     0.040 A 
ATOM     78  F   UNL A   1      37.779  30.453  36.596  1.00  0.00    -0.206 F 
ATOM     79  C   UNL A   1      38.111  33.804  37.933  1.00  0.00     0.006 A 
ENDBRANCH  55  72
ENDBRANCH  29  30
ENDBRANCH  22  24
ENDBRANCH  21  22
ENDBRANCH  20  21
ENDBRANCH  19  20
ENDBRANCH  18  19
ENDBRANCH   2  18
TORSDOF 17
ENDMDL
MODEL 2
REMARK VINA RESULT:     -10.1      5.784     11.684
REMARK SMILES O=C(CCCCc1nc(C[C@H]2CCCO2)no1)OCCOC(=O)c1ccc(-c2c3nc(c(-c4c(F)cccc4F)c4ccc([nH]4)c(-c4c(F)cccc4F)c4nc(c(-c5c(F)cccc5F)c5ccc2[nH]5)C=C4)C=C3)cc1
REMARK SMILES IDX 1 1 2 2 3 3 4 4 5 5 6 6 7 7 8 8 17 9 9 10 16 11 10 12 11 13
REMARK SMILES IDX 12 14 15 15 13 16 14 17 18 18 19 19 20 20 21 21 22 22 23 23
REMARK SMILES IDX 24 24 25 25 77 26 26 27 76 28 27 29 28 30 29 31 70 32 30 33
REMARK SMILES IDX 75 34 69 35 71 36 31 37 74 38 68 39 67 40 32 42 58 43 41 44
REMARK SMILES IDX 57 45 42 46 45 47 56 48 72 49 43 50 44 51 55 53 73 54 46 55
REMARK SMILES IDX 33 56 34 57 39 58 35 59 36 60 38 61 40 62 37 63 59 64 60 65
REMARK SMILES IDX 65 66 61 67 62 68 64 69 66 70 63 71 47 72 48 73 53 74 49 75
REMARK SMILES IDX 50 76 52 77 54 78 51 79
REMARK H PARENT 71 41 45 52
REMARK Flexibility Score: inf
ROOT
ATOM      1  O   UNL A   1      34.037  38.224  32.968  1.00  0.00    -0.252 OA
ATOM      2  C   UNL A   1      33.849  37.012  32.932  1.00  0.00     0.305 C 
ENDROOT
BRANCH   2   3
ATOM      3  C   UNL A   1      32.470  36.424  32.709  1.00  0.00     0.123 C 
BRANCH   3   4
ATOM      4  C   UNL A   1      32.178  36.038  31.262  1.00  0.00     0.012 C 
BRANCH   4   5
ATOM      5  C   UNL A   1      33.245  36.460  30.243  1.00  0.00     0.010 C 
BRANCH   5   6
ATOM      6  C   UNL A   1      33.050  36.001  28.796  1.00  0.00     0.100 C 
BRANCH   6   7
ATOM      7  C   UNL A   1      33.691  34.728  28.394  1.00  0.00     0.226 A 
ATOM      8  N   UNL A   1      33.252  33.509  28.616  1.00  0.00    -0.196 NA
ATOM      9  O   UNL A   1      34.917  34.764  27.803  1.00  0.00    -0.339 OA
ATOM     10  C   UNL A   1      34.293  32.742  28.166  1.00  0.00     0.174 A 
ATOM     11  N   UNL A   1      35.316  33.435  27.646  1.00  0.00    -0.062 NA
BRANCH  10  12
ATOM     12  C   UNL A   1      34.334  31.274  28.355  1.00  0.00     0.113 C 
BRANCH  12  13
ATOM     13  C   UNL A   1      34.192  30.460  27.066  1.00  0.00     0.126 C 
ATOM     14  C   UNL A   1      34.197  28.948  27.241  1.00  0.00     0.035 C 
ATOM     15  O   UNL A   1      32.892  30.757  26.507  1.00  0.00    -0.378 OA
ATOM     16  C   UNL A   1      32.770  28.666  27.638  1.00  0.00     0.031 C 
ATOM     17  C   UNL A   1      32.004  29.661  26.792  1.00  0.00     0.160 C 
ENDBRANCH  12  13
ENDBRANCH  10  12
ENDBRANCH   6   7
ENDBRANCH   5   6
ENDBRANCH   4   5
ENDBRANCH   3   4
ENDBRANCH   2   3
BRANCH   2  18
ATOM     18  O   UNL A   1      34.845  36.143  33.249  1.00  0.00    -0.462 OA
BRANCH  18  19
ATOM     19  C   UNL A   1      34.571  34.734  33.333  1.00  0.00     0.274 C 
BRANCH  19  20
ATOM     20  C   UNL A   1      35.068  33.948  32.114  1.00  0.00     0.275 C 
BRANCH  20  21
ATOM     21  O   UNL A   1      35.245  32.556  32.418  1.00  0.00    -0.458 OA
BRANCH  21  22
ATOM     22  C   UNL A   1      36.349  32.282  33.163  1.00  0.00     0.338 C 
ATOM     23  O   UNL A   1      36.457  32.391  34.369  1.00  0.00    -0.246 OA
BRANCH  22  24
ATOM     24  C   UNL A   1      37.383  31.651  32.313  1.00  0.00     0.060 A 
ATOM     25  C   UNL A   1      38.452  31.021  32.962  1.00  0.00     0.016 A 
ATOM     26  C   UNL A   1      37.321  31.670  30.916  1.00  0.00     0.016 A 
ATOM     27  C   UNL A   1      39.474  30.431  32.218  1.00  0.00     0.010 A 
ATOM     28  C   UNL A   1      38.353  31.085  30.171  1.00  0.00     0.010 A 
ATOM     29  C   UNL A   1      39.443  30.479  30.819  1.00  0.00    -0.014 A 
BRANCH  29  30
ATOM     30  C   UNL A   1      40.599  29.970  30.042  1.00  0.00     0.031 A 
ATOM     31  C   UNL A   1      41.747  30.889  29.734  1.00  0.00     0.074 A 
ATOM     32  C   UNL A   1      40.635  28.691  29.627  1.00  0.00     0.049 A 
ATOM     33  N   UNL A   1      42.857  30.640  29.086  1.00  0.00    -0.248 NA
ATOM     34  C   UNL A   1      41.632  32.273  30.222  1.00  0.00     0.031 C 
ATOM     35  C   UNL A   1      39.597  27.691  29.871  1.00  0.00     0.029 A 
ATOM     36  N   UNL A   1      41.587  28.018  28.901  1.00  0.00    -0.354 N 
ATOM     37  C   UNL A   1      43.576  31.827  29.098  1.00  0.00     0.074 A 
ATOM     38  C   UNL A   1      42.765  32.807  29.790  1.00  0.00     0.031 C 
ATOM     39  C   UNL A   1      39.962  26.534  29.292  1.00  0.00     0.029 A 
ATOM     40  C   UNL A   1      41.250  26.717  28.623  1.00  0.00     0.049 A 
ATOM     41  H   UNL A   1      42.433  28.430  28.608  1.00  0.00     0.167 HD
ATOM     42  C   UNL A   1      44.806  32.075  28.591  1.00  0.00     0.037 A 
ATOM     43  C   UNL A   1      41.899  25.785  27.899  1.00  0.00     0.037 A 
ATOM     44  C   UNL A   1      45.619  31.109  27.901  1.00  0.00     0.049 A 
ATOM     45  C   UNL A   1      43.231  26.114  27.277  1.00  0.00     0.074 A 
ATOM     46  C   UNL A   1      46.900  31.262  27.400  1.00  0.00     0.029 A 
ATOM     47  N   UNL A   1      45.223  29.816  27.601  1.00  0.00    -0.354 N 
ATOM     48  N   UNL A   1      43.930  27.218  27.354  1.00  0.00    -0.248 NA
ATOM     49  C   UNL A   1      43.862  25.061  26.464  1.00  0.00     0.031 C 
ATOM     50  C   UNL A   1      47.262  30.075  26.754  1.00  0.00     0.029 A 
ATOM     51  C   UNL A   1      46.220  29.172  26.886  1.00  0.00     0.049 A 
ATOM     52  H   UNL A   1      44.361  29.414  27.857  1.00  0.00     0.167 HD
ATOM     53  C   UNL A   1      45.089  26.989  26.622  1.00  0.00     0.074 A 
ATOM     54  C   UNL A   1      45.006  25.634  26.119  1.00  0.00     0.031 C 
ATOM     55  C   UNL A   1      46.128  27.826  26.388  1.00  0.00     0.037 A 
BRANCH  42  56
ATOM     56  C   UNL A   1      45.356  33.458  28.756  1.00  0.00     0.057 A 
ATOM     57  C   UNL A   1      46.164  33.799  29.847  1.00  0.00     0.134 A 
ATOM     58  C   UNL A   1      45.129  34.437  27.782  1.00  0.00     0.134 A 
ATOM     59  F   UNL A   1      46.409  32.906  30.818  1.00  0.00    -0.206 F 
ATOM     60  C   UNL A   1      46.722  35.073  29.968  1.00  0.00     0.040 A 
ATOM     61  C   UNL A   1      45.695  35.708  27.883  1.00  0.00     0.040 A 
ATOM     62  F   UNL A   1      44.367  34.168  26.711  1.00  0.00    -0.206 F 
ATOM     63  C   UNL A   1      46.495  36.029  28.979  1.00  0.00     0.006 A 
ENDBRANCH  42  56
BRANCH  43  64
ATOM     64  C   UNL A   1      41.295  24.446  27.692  1.00  0.00     0.057 A 
ATOM     65  C   UNL A   1      41.757  23.324  28.388  1.00  0.00     0.134 A 
ATOM     66  C   UNL A   1      40.279  24.249  26.749  1.00  0.00     0.134 A 
ATOM     67  F   UNL A   1      42.750  23.447  29.282  1.00  0.00    -0.206 F 
ATOM     68  C   UNL A   1      41.247  22.049  28.140  1.00  0.00     0.040 A 
ATOM     69  C   UNL A   1      39.743  22.984  26.507  1.00  0.00     0.040 A 
ATOM     70  F   UNL A   1      39.798  25.285  26.045  1.00  0.00    -0.206 F 
ATOM     71  C   UNL A   1      40.234  21.878  27.198  1.00  0.00     0.006 A 
ENDBRANCH  43  64
BRANCH  55  72
ATOM     72  C   UNL A   1      47.265  27.300  25.563  1.00  0.00     0.057 A 
ATOM     73  C   UNL A   1      47.343  27.537  24.185  1.00  0.00     0.134 A 
ATOM     74  C   UNL A   1      48.314  26.588  26.158  1.00  0.00     0.134 A 
ATOM     75  F   UNL A   1      46.363  28.202  23.554  1.00  0.00    -0.206 F 
ATOM     76  C   UNL A   1      48.416  27.071  23.425  1.00  0.00     0.040 A 
ATOM     77  C   UNL A   1      49.403  26.136  25.412  1.00  0.00     0.040 A 
ATOM     78  F   UNL A   1      48.304  26.334  27.476  1.00  0.00    -0.206 F 
ATOM     79  C   UNL A   1      49.454  26.374  24.041  1.00  0.00     0.006 A 
ENDBRANCH  55  72
ENDBRANCH  29  30
ENDBRANCH  22  24
ENDBRANCH  21  22
ENDBRANCH  20  21
ENDBRANCH  19  20
ENDBRANCH  18  19
ENDBRANCH   2  18
TORSDOF 17
ENDMDL
MODEL 3
REMARK VINA RESULT:     -10.1      4.247      8.948
REMARK SMILES O=C(CCCCc1nc(C[C@H]2CCCO2)no1)OCCOC(=O)c1ccc(-c2c3nc(c(-c4c(F)cccc4F)c4ccc([nH]4)c(-c4c(F)cccc4F)c4nc(c(-c5c(F)cccc5F)c5ccc2[nH]5)C=C4)C=C3)cc1
REMARK SMILES IDX 1 1 2 2 3 3 4 4 5 5 6 6 7 7 8 8 17 9 9 10 16 11 10 12 11 13
REMARK SMILES IDX 12 14 15 15 13 16 14 17 18 18 19 19 20 20 21 21 22 22 23 23
REMARK SMILES IDX 24 24 25 25 77 26 26 27 76 28 27 29 28 30 29 31 70 32 30 33
REMARK SMILES IDX 75 34 69 35 71 36 31 37 74 38 68 39 67 40 32 42 58 43 41 44
REMARK SMILES IDX 57 45 42 46 45 47 56 48 72 49 43 50 44 51 55 53 73 54 46 55
REMARK SMILES IDX 33 56 34 57 39 58 35 59 36 60 38 61 40 62 37 63 59 64 60 65
REMARK SMILES IDX 65 66 61 67 62 68 64 69 66 70 63 71 47 72 48 73 53 74 49 75
REMARK SMILES IDX 50 76 52 77 54 78 51 79
REMARK H PARENT 71 41 45 52
REMARK Flexibility Score: inf
ROOT
ATOM      1  O   UNL A   1      46.808  20.650  24.796  1.00  0.00    -0.252 OA
ATOM      2  C   UNL A   1      45.748  21.215  25.045  1.00  0.00     0.305 C 
ENDROOT
BRANCH   2   3
ATOM      3  C   UNL A   1      45.707  22.587  25.689  1.00  0.00     0.123 C 
BRANCH   3   4
ATOM      4  C   UNL A   1      45.483  23.734  24.708  1.00  0.00     0.012 C 
BRANCH   4   5
ATOM      5  C   UNL A   1      45.722  25.139  25.276  1.00  0.00     0.010 C 
BRANCH   5   6
ATOM      6  C   UNL A   1      44.538  26.108  25.265  1.00  0.00     0.100 C 
BRANCH   6   7
ATOM      7  C   UNL A   1      44.642  27.319  26.111  1.00  0.00     0.226 A 
ATOM      8  N   UNL A   1      43.810  28.335  26.154  1.00  0.00    -0.196 NA
ATOM      9  O   UNL A   1      45.748  27.491  26.885  1.00  0.00    -0.339 OA
ATOM     10  C   UNL A   1      44.464  29.209  26.980  1.00  0.00     0.174 A 
ATOM     11  N   UNL A   1      45.626  28.753  27.470  1.00  0.00    -0.062 NA
BRANCH  10  12
ATOM     12  C   UNL A   1      43.986  30.591  27.210  1.00  0.00     0.113 C 
BRANCH  12  13
ATOM     13  C   UNL A   1      44.383  31.593  26.123  1.00  0.00     0.126 C 
ATOM     14  C   UNL A   1      44.261  33.060  26.507  1.00  0.00     0.035 C 
ATOM     15  O   UNL A   1      45.791  31.404  25.853  1.00  0.00    -0.378 OA
ATOM     16  C   UNL A   1      45.539  33.302  27.269  1.00  0.00     0.031 C 
ATOM     17  C   UNL A   1      46.532  32.458  26.496  1.00  0.00     0.160 C 
ENDBRANCH  12  13
ENDBRANCH  10  12
ENDBRANCH   6   7
ENDBRANCH   5   6
ENDBRANCH   4   5
ENDBRANCH   3   4
ENDBRANCH   2   3
BRANCH   2  18
ATOM     18  O   UNL A   1      44.562  20.568  24.900  1.00  0.00    -0.462 OA
BRANCH  18  19
ATOM     19  C   UNL A   1      44.465  19.165  25.203  1.00  0.00     0.274 C 
BRANCH  19  20
ATOM     20  C   UNL A   1      43.092  18.760  25.752  1.00  0.00     0.275 C 
BRANCH  20  21
ATOM     21  O   UNL A   1      42.029  19.465  25.092  1.00  0.00    -0.458 OA
BRANCH  21  22
ATOM     22  C   UNL A   1      41.083  19.963  25.932  1.00  0.00     0.338 C 
ATOM     23  O   UNL A   1      40.059  19.408  26.283  1.00  0.00    -0.246 OA
BRANCH  22  24
ATOM     24  C   UNL A   1      41.553  21.238  26.517  1.00  0.00     0.060 A 
ATOM     25  C   UNL A   1      41.642  21.311  27.912  1.00  0.00     0.016 A 
ATOM     26  C   UNL A   1      41.900  22.342  25.732  1.00  0.00     0.016 A 
ATOM     27  C   UNL A   1      42.053  22.493  28.528  1.00  0.00     0.010 A 
ATOM     28  C   UNL A   1      42.302  23.532  26.352  1.00  0.00     0.010 A 
ATOM     29  C   UNL A   1      42.363  23.618  27.754  1.00  0.00    -0.014 A 
BRANCH  29  30
ATOM     30  C   UNL A   1      42.667  24.907  28.421  1.00  0.00     0.031 A 
ATOM     31  C   UNL A   1      41.587  25.946  28.550  1.00  0.00     0.074 A 
ATOM     32  C   UNL A   1      43.890  25.146  28.925  1.00  0.00     0.049 A 
ATOM     33  N   UNL A   1      41.639  27.127  29.111  1.00  0.00    -0.248 NA
ATOM     34  C   UNL A   1      40.277  25.609  27.972  1.00  0.00     0.031 C 
ATOM     35  C   UNL A   1      45.019  24.220  28.883  1.00  0.00     0.029 A 
ATOM     36  N   UNL A   1      44.386  26.254  29.569  1.00  0.00    -0.354 N 
ATOM     37  C   UNL A   1      40.369  27.670  28.965  1.00  0.00     0.074 A 
ATOM     38  C   UNL A   1      39.576  26.703  28.235  1.00  0.00     0.031 C 
ATOM     39  C   UNL A   1      46.083  24.803  29.463  1.00  0.00     0.029 A 
ATOM     40  C   UNL A   1      45.713  26.149  29.901  1.00  0.00     0.049 A 
ATOM     41  H   UNL A   1      43.840  27.048  29.773  1.00  0.00     0.167 HD
ATOM     42  C   UNL A   1      39.902  28.859  29.411  1.00  0.00     0.037 A 
ATOM     43  C   UNL A   1      46.540  27.042  30.479  1.00  0.00     0.037 A 
ATOM     44  C   UNL A   1      40.683  29.827  30.135  1.00  0.00     0.049 A 
ATOM     45  C   UNL A   1      46.012  28.391  30.892  1.00  0.00     0.074 A 
ATOM     46  C   UNL A   1      40.274  31.037  30.670  1.00  0.00     0.029 A 
ATOM     47  N   UNL A   1      42.034  29.703  30.412  1.00  0.00    -0.354 N 
ATOM     48  N   UNL A   1      44.794  28.864  30.810  1.00  0.00    -0.248 NA
ATOM     49  C   UNL A   1      46.981  29.331  31.479  1.00  0.00     0.031 C 
ATOM     50  C   UNL A   1      41.390  31.668  31.230  1.00  0.00     0.029 A 
ATOM     51  C   UNL A   1      42.485  30.832  31.076  1.00  0.00     0.049 A 
ATOM     52  H   UNL A   1      42.591  28.927  30.173  1.00  0.00     0.167 HD
ATOM     53  C   UNL A   1      44.844  30.143  31.352  1.00  0.00     0.074 A 
ATOM     54  C   UNL A   1      46.210  30.368  31.773  1.00  0.00     0.031 C 
ATOM     55  C   UNL A   1      43.846  31.049  31.488  1.00  0.00     0.037 A 
BRANCH  42  56
ATOM     56  C   UNL A   1      38.471  29.193  29.122  1.00  0.00     0.057 A 
ATOM     57  C   UNL A   1      37.491  29.138  30.120  1.00  0.00     0.134 A 
ATOM     58  C   UNL A   1      38.084  29.635  27.852  1.00  0.00     0.134 A 
ATOM     59  F   UNL A   1      37.800  28.712  31.354  1.00  0.00    -0.206 F 
ATOM     60  C   UNL A   1      36.169  29.504  29.861  1.00  0.00     0.040 A 
ATOM     61  C   UNL A   1      36.770  30.021  27.586  1.00  0.00     0.040 A 
ATOM     62  F   UNL A   1      38.980  29.714  26.856  1.00  0.00    -0.206 F 
ATOM     63  C   UNL A   1      35.808  29.955  28.592  1.00  0.00     0.006 A 
ENDBRANCH  42  56
BRANCH  43  64
ATOM     64  C   UNL A   1      47.971  26.710  30.687  1.00  0.00     0.057 A 
ATOM     65  C   UNL A   1      48.403  26.047  31.840  1.00  0.00     0.134 A 
ATOM     66  C   UNL A   1      48.945  27.101  29.760  1.00  0.00     0.134 A 
ATOM     67  F   UNL A   1      47.518  25.675  32.776  1.00  0.00    -0.206 F 
ATOM     68  C   UNL A   1      49.757  25.803  32.077  1.00  0.00     0.040 A 
ATOM     69  C   UNL A   1      50.299  26.844  29.973  1.00  0.00     0.040 A 
ATOM     70  F   UNL A   1      48.593  27.746  28.638  1.00  0.00    -0.206 F 
ATOM     71  C   UNL A   1      50.709  26.200  31.140  1.00  0.00     0.006 A 
ENDBRANCH  43  64
BRANCH  55  72
ATOM     72  C   UNL A   1      44.188  32.361  32.128  1.00  0.00     0.057 A 
ATOM     73  C   UNL A   1      44.550  33.478  31.363  1.00  0.00     0.134 A 
ATOM     74  C   UNL A   1      44.114  32.524  33.516  1.00  0.00     0.134 A 
ATOM     75  F   UNL A   1      44.652  33.383  30.029  1.00  0.00    -0.206 F 
ATOM     76  C   UNL A   1      44.841  34.705  31.959  1.00  0.00     0.040 A 
ATOM     77  C   UNL A   1      44.381  33.753  34.122  1.00  0.00     0.040 A 
ATOM     78  F   UNL A   1      43.765  31.496  34.306  1.00  0.00    -0.206 F 
ATOM     79  C   UNL A   1      44.750  34.847  33.342  1.00  0.00     0.006 A 
ENDBRANCH  55  72
ENDBRANCH  29  30
ENDBRANCH  22  24
ENDBRANCH  21  22
ENDBRANCH  20  21
ENDBRANCH  19  20
ENDBRANCH  18  19
ENDBRANCH   2  18
TORSDOF 17
ENDMDL
