MODEL 1
REMARK VINA RESULT:     -11.2      0.000      0.000
REMARK SMILES O=C(OCCOC(=O)[C@H](CCc1ccccn1)c1ccccc1Br)c1ccc(-c2c3nc(c(-c4c(F)cccc4F)c4ccc([nH]4)c(-c4c(F)cccc4F)c4nc(c(-c5c(F)cccc5F)c5ccc2[nH]5)C=C4)C=C3)cc1
REMARK SMILES IDX 5 1 4 2 3 3 2 4 1 5 25 6 26 7 78 8 27 9 77 10 28 11 29 12
REMARK SMILES IDX 30 13 71 14 31 15 76 16 70 17 72 18 32 19 75 20 69 21 68 22
REMARK SMILES IDX 33 24 59 25 42 26 58 27 43 28 46 29 57 30 73 31 44 32 45 33
REMARK SMILES IDX 56 35 74 36 47 37 34 38 35 39 40 40 36 41 37 42 39 43 41 44
REMARK SMILES IDX 38 45 60 46 61 47 66 48 62 49 63 50 65 51 67 52 64 53 48 54
REMARK SMILES IDX 49 55 54 56 50 57 51 58 53 59 55 60 52 61 6 62 7 63 8 64
REMARK SMILES IDX 9 65 18 66 19 67 23 68 20 69 22 70 24 71 21 72 10 73 11 74
REMARK SMILES IDX 12 75 13 76 17 77 14 78 16 79 15 80
REMARK H PARENT 72 23 46 34
REMARK Flexibility Score: inf
ROOT
ATOM      1  C   UNL A   1      31.779  30.718  26.599  1.00  0.00     0.274 C 
ENDROOT
BRANCH   1   2
ATOM      2  C   UNL A   1      31.698  32.222  26.329  1.00  0.00     0.275 C 
BRANCH   2   3
ATOM      3  O   UNL A   1      31.818  33.014  27.524  1.00  0.00    -0.458 OA
BRANCH   3   4
ATOM      4  C   UNL A   1      32.865  33.751  27.959  1.00  0.00     0.338 C 
ATOM      5  O   UNL A   1      32.730  34.976  27.967  1.00  0.00    -0.246 OA
BRANCH   4   6
ATOM      6  C   UNL A   1      34.196  33.204  28.417  1.00  0.00     0.060 A 
ATOM      7  C   UNL A   1      35.458  33.804  28.314  1.00  0.00     0.016 A 
ATOM      8  C   UNL A   1      34.135  31.975  29.092  1.00  0.00     0.016 A 
ATOM      9  C   UNL A   1      36.584  33.262  28.955  1.00  0.00     0.010 A 
ATOM     10  C   UNL A   1      35.250  31.436  29.739  1.00  0.00     0.010 A 
ATOM     11  C   UNL A   1      36.483  32.084  29.689  1.00  0.00    -0.014 A 
BRANCH  11  12
ATOM     12  C   UNL A   1      37.685  31.432  30.262  1.00  0.00     0.031 A 
ATOM     13  C   UNL A   1      38.042  31.744  31.678  1.00  0.00     0.074 A 
ATOM     14  C   UNL A   1      38.440  30.578  29.549  1.00  0.00     0.049 A 
ATOM     15  N   UNL A   1      39.022  31.276  32.401  1.00  0.00    -0.248 NA
ATOM     16  C   UNL A   1      37.191  32.726  32.368  1.00  0.00     0.031 C 
ATOM     17  C   UNL A   1      38.197  30.231  28.158  1.00  0.00     0.029 A 
ATOM     18  N   UNL A   1      39.552  29.843  29.881  1.00  0.00    -0.354 N 
ATOM     19  C   UNL A   1      38.897  31.897  33.631  1.00  0.00     0.074 A 
ATOM     20  C   UNL A   1      37.803  32.837  33.534  1.00  0.00     0.031 C 
ATOM     21  C   UNL A   1      39.105  29.327  27.759  1.00  0.00     0.029 A 
ATOM     22  C   UNL A   1      40.019  29.052  28.856  1.00  0.00     0.049 A 
ATOM     23  H   UNL A   1      39.975  29.878  30.769  1.00  0.00     0.167 HD
ATOM     24  C   UNL A   1      39.605  31.672  34.758  1.00  0.00     0.037 A 
ATOM     25  C   UNL A   1      41.060  28.199  28.803  1.00  0.00     0.037 A 
ATOM     26  C   UNL A   1      40.698  30.745  34.840  1.00  0.00     0.049 A 
ATOM     27  C   UNL A   1      41.875  28.010  30.050  1.00  0.00     0.074 A 
ATOM     28  C   UNL A   1      41.492  30.445  35.928  1.00  0.00     0.029 A 
ATOM     29  N   UNL A   1      41.156  29.975  33.778  1.00  0.00    -0.354 N 
ATOM     30  N   UNL A   1      41.711  28.564  31.228  1.00  0.00    -0.248 NA
ATOM     31  C   UNL A   1      43.006  27.076  29.976  1.00  0.00     0.031 C 
ATOM     32  C   UNL A   1      42.464  29.528  35.513  1.00  0.00     0.029 A 
ATOM     33  C   UNL A   1      42.239  29.215  34.180  1.00  0.00     0.049 A 
ATOM     34  H   UNL A   1      40.768  29.972  32.873  1.00  0.00     0.167 HD
ATOM     35  C   UNL A   1      42.697  28.027  32.042  1.00  0.00     0.074 A 
ATOM     36  C   UNL A   1      43.442  27.088  31.227  1.00  0.00     0.031 C 
ATOM     37  C   UNL A   1      42.962  28.286  33.345  1.00  0.00     0.037 A 
BRANCH  24  38
ATOM     38  C   UNL A   1      39.207  32.474  35.958  1.00  0.00     0.057 A 
ATOM     39  C   UNL A   1      39.765  33.734  36.220  1.00  0.00     0.134 A 
ATOM     40  C   UNL A   1      38.322  31.946  36.904  1.00  0.00     0.134 A 
ATOM     41  F   UNL A   1      40.651  34.276  35.371  1.00  0.00    -0.206 F 
ATOM     42  C   UNL A   1      39.488  34.421  37.401  1.00  0.00     0.040 A 
ATOM     43  C   UNL A   1      38.014  32.639  38.075  1.00  0.00     0.040 A 
ATOM     44  F   UNL A   1      37.767  30.739  36.719  1.00  0.00    -0.206 F 
ATOM     45  C   UNL A   1      38.608  33.873  38.332  1.00  0.00     0.006 A 
ENDBRANCH  24  38
BRANCH  25  46
ATOM     46  C   UNL A   1      41.385  27.450  27.554  1.00  0.00     0.057 A 
ATOM     47  C   UNL A   1      40.891  26.159  27.327  1.00  0.00     0.134 A 
ATOM     48  C   UNL A   1      42.228  27.989  26.573  1.00  0.00     0.134 A 
ATOM     49  F   UNL A   1      40.093  25.572  28.232  1.00  0.00    -0.206 F 
ATOM     50  C   UNL A   1      41.244  25.422  26.192  1.00  0.00     0.040 A 
ATOM     51  C   UNL A   1      42.567  27.275  25.419  1.00  0.00     0.040 A 
ATOM     52  F   UNL A   1      42.739  29.220  26.718  1.00  0.00    -0.206 F 
ATOM     53  C   UNL A   1      42.084  25.982  25.232  1.00  0.00     0.006 A 
ENDBRANCH  25  46
BRANCH  37  54
ATOM     54  C   UNL A   1      44.085  27.519  33.972  1.00  0.00     0.057 A 
ATOM     55  C   UNL A   1      45.389  28.027  34.029  1.00  0.00     0.134 A 
ATOM     56  C   UNL A   1      43.846  26.271  34.562  1.00  0.00     0.134 A 
ATOM     57  F   UNL A   1      45.683  29.210  33.468  1.00  0.00    -0.206 F 
ATOM     58  C   UNL A   1      46.422  27.310  34.630  1.00  0.00     0.040 A 
ATOM     59  C   UNL A   1      44.864  25.559  35.194  1.00  0.00     0.040 A 
ATOM     60  F   UNL A   1      42.617  25.734  34.548  1.00  0.00    -0.206 F 
ATOM     61  C   UNL A   1      46.158  26.076  35.223  1.00  0.00     0.006 A 
ENDBRANCH  37  54
ENDBRANCH  11  12
ENDBRANCH   4   6
ENDBRANCH   3   4
ENDBRANCH   2   3
ENDBRANCH   1   2
BRANCH   1  62
ATOM     62  O   UNL A   1      31.483  29.982  25.398  1.00  0.00    -0.462 OA
BRANCH  62  63
ATOM     63  C   UNL A   1      32.494  29.353  24.741  1.00  0.00     0.313 C 
ATOM     64  O   UNL A   1      33.670  29.703  24.793  1.00  0.00    -0.252 OA
BRANCH  63  65
ATOM     65  C   UNL A   1      31.956  28.159  23.923  1.00  0.00     0.131 C 
BRANCH  65  66
ATOM     66  C   UNL A   1      32.745  26.859  24.215  1.00  0.00    -0.020 A 
ATOM     67  C   UNL A   1      32.988  26.500  25.557  1.00  0.00     0.006 A 
ATOM     68  C   UNL A   1      33.156  25.907  23.250  1.00  0.00     0.022 A 
ATOM     69  C   UNL A   1      33.664  25.332  25.923  1.00  0.00     0.000 A 
ATOM     70  C   UNL A   1      33.867  24.748  23.619  1.00  0.00     0.016 A 
ATOM     71  Br  UNL A   1      32.685  25.915  21.407  1.00  0.00    -0.051 Br
ATOM     72  C   UNL A   1      34.133  24.467  24.951  1.00  0.00     0.001 A 
ENDBRANCH  65  66
BRANCH  65  73
ATOM     73  C   UNL A   1      30.401  28.115  24.178  1.00  0.00     0.026 C 
BRANCH  73  74
ATOM     74  C   UNL A   1      29.455  28.358  22.976  1.00  0.00     0.057 C 
BRANCH  74  75
ATOM     75  C   UNL A   1      29.024  29.754  22.574  1.00  0.00     0.040 A 
ATOM     76  C   UNL A   1      28.888  30.735  23.563  1.00  0.00     0.024 A 
ATOM     77  N   UNL A   1      28.664  29.998  21.297  1.00  0.00    -0.261 NA
ATOM     78  C   UNL A   1      28.482  32.024  23.218  1.00  0.00     0.003 A 
ATOM     79  C   UNL A   1      28.240  31.253  20.991  1.00  0.00     0.111 A 
ATOM     80  C   UNL A   1      28.154  32.292  21.900  1.00  0.00     0.020 A 
ENDBRANCH  74  75
ENDBRANCH  73  74
ENDBRANCH  65  73
ENDBRANCH  63  65
ENDBRANCH  62  63
ENDBRANCH   1  62
TORSDOF 15
ENDMDL
MODEL 2
REMARK VINA RESULT:     -11.0      1.481      2.823
REMARK SMILES O=C(OCCOC(=O)[C@H](CCc1ccccn1)c1ccccc1Br)c1ccc(-c2c3nc(c(-c4c(F)cccc4F)c4ccc([nH]4)c(-c4c(F)cccc4F)c4nc(c(-c5c(F)cccc5F)c5ccc2[nH]5)C=C4)C=C3)cc1
REMARK SMILES IDX 5 1 4 2 3 3 2 4 1 5 25 6 26 7 78 8 27 9 77 10 28 11 29 12
REMARK SMILES IDX 30 13 71 14 31 15 76 16 70 17 72 18 32 19 75 20 69 21 68 22
REMARK SMILES IDX 33 24 59 25 42 26 58 27 43 28 46 29 57 30 73 31 44 32 45 33
REMARK SMILES IDX 56 35 74 36 47 37 34 38 35 39 40 40 36 41 37 42 39 43 41 44
REMARK SMILES IDX 38 45 60 46 61 47 66 48 62 49 63 50 65 51 67 52 64 53 48 54
REMARK SMILES IDX 49 55 54 56 50 57 51 58 53 59 55 60 52 61 6 62 7 63 8 64
REMARK SMILES IDX 9 65 18 66 19 67 23 68 20 69 22 70 24 71 21 72 10 73 11 74
REMARK SMILES IDX 12 75 13 76 17 77 14 78 16 79 15 80
REMARK H PARENT 72 23 46 34
REMARK Flexibility Score: inf
ROOT
ATOM      1  C   UNL A   1      31.405  31.598  26.727  1.00  0.00     0.274 C 
ENDROOT
BRANCH   1   2
ATOM      2  C   UNL A   1      32.151  32.920  26.539  1.00  0.00     0.275 C 
BRANCH   2   3
ATOM      3  O   UNL A   1      31.999  33.814  27.656  1.00  0.00    -0.458 OA
BRANCH   3   4
ATOM      4  C   UNL A   1      32.949  34.438  28.387  1.00  0.00     0.338 C 
ATOM      5  O   UNL A   1      32.737  35.608  28.711  1.00  0.00    -0.246 OA
BRANCH   4   6
ATOM      6  C   UNL A   1      34.261  33.832  28.825  1.00  0.00     0.060 A 
ATOM      7  C   UNL A   1      35.542  34.391  28.740  1.00  0.00     0.016 A 
ATOM      8  C   UNL A   1      34.159  32.584  29.460  1.00  0.00     0.016 A 
ATOM      9  C   UNL A   1      36.650  33.791  29.361  1.00  0.00     0.010 A 
ATOM     10  C   UNL A   1      35.255  31.987  30.087  1.00  0.00     0.010 A 
ATOM     11  C   UNL A   1      36.510  32.593  30.057  1.00  0.00    -0.014 A 
BRANCH  11  12
ATOM     12  C   UNL A   1      37.689  31.884  30.606  1.00  0.00     0.031 A 
ATOM     13  C   UNL A   1      38.109  32.200  32.004  1.00  0.00     0.074 A 
ATOM     14  C   UNL A   1      38.370  30.972  29.888  1.00  0.00     0.049 A 
ATOM     15  N   UNL A   1      39.082  31.689  32.706  1.00  0.00    -0.248 NA
ATOM     16  C   UNL A   1      37.338  33.245  32.699  1.00  0.00     0.031 C 
ATOM     17  C   UNL A   1      38.064  30.613  28.513  1.00  0.00     0.029 A 
ATOM     18  N   UNL A   1      39.447  30.179  30.201  1.00  0.00    -0.354 N 
ATOM     19  C   UNL A   1      39.032  32.340  33.926  1.00  0.00     0.074 A 
ATOM     20  C   UNL A   1      37.993  33.341  33.842  1.00  0.00     0.031 C 
ATOM     21  C   UNL A   1      38.904  29.650  28.106  1.00  0.00     0.029 A 
ATOM     22  C   UNL A   1      39.835  29.343  29.179  1.00  0.00     0.049 A 
ATOM     23  H   UNL A   1      39.899  30.207  31.075  1.00  0.00     0.167 HD
ATOM     24  C   UNL A   1      39.762  32.096  35.036  1.00  0.00     0.037 A 
ATOM     25  C   UNL A   1      40.822  28.429  29.113  1.00  0.00     0.037 A 
ATOM     26  C   UNL A   1      40.800  31.108  35.103  1.00  0.00     0.049 A 
ATOM     27  C   UNL A   1      41.663  28.216  30.339  1.00  0.00     0.074 A 
ATOM     28  C   UNL A   1      41.610  30.782  36.173  1.00  0.00     0.029 A 
ATOM     29  N   UNL A   1      41.179  30.292  34.044  1.00  0.00    -0.354 N 
ATOM     30  N   UNL A   1      41.570  28.802  31.509  1.00  0.00    -0.248 NA
ATOM     31  C   UNL A   1      42.735  27.216  30.250  1.00  0.00     0.031 C 
ATOM     32  C   UNL A   1      42.513  29.802  35.748  1.00  0.00     0.029 A 
ATOM     33  C   UNL A   1      42.228  29.477  34.429  1.00  0.00     0.049 A 
ATOM     34  H   UNL A   1      40.762  30.294  33.152  1.00  0.00     0.167 HD
ATOM     35  C   UNL A   1      42.547  28.223  32.304  1.00  0.00     0.074 A 
ATOM     36  C   UNL A   1      43.211  27.226  31.486  1.00  0.00     0.031 C 
ATOM     37  C   UNL A   1      42.868  28.492  33.592  1.00  0.00     0.037 A 
BRANCH  24  38
ATOM     38  C   UNL A   1      39.448  32.942  36.230  1.00  0.00     0.057 A 
ATOM     39  C   UNL A   1      40.101  34.163  36.458  1.00  0.00     0.134 A 
ATOM     40  C   UNL A   1      38.551  32.494  37.204  1.00  0.00     0.134 A 
ATOM     41  F   UNL A   1      41.003  34.628  35.580  1.00  0.00    -0.206 F 
ATOM     42  C   UNL A   1      39.901  34.887  37.633  1.00  0.00     0.040 A 
ATOM     43  C   UNL A   1      38.320  33.225  38.369  1.00  0.00     0.040 A 
ATOM     44  F   UNL A   1      37.908  31.327  37.051  1.00  0.00    -0.206 F 
ATOM     45  C   UNL A   1      39.005  34.418  38.592  1.00  0.00     0.006 A 
ENDBRANCH  24  38
BRANCH  25  46
ATOM     46  C   UNL A   1      41.063  27.639  27.871  1.00  0.00     0.057 A 
ATOM     47  C   UNL A   1      41.879  28.126  26.842  1.00  0.00     0.134 A 
ATOM     48  C   UNL A   1      40.455  26.394  27.663  1.00  0.00     0.134 A 
ATOM     49  F   UNL A   1      42.479  29.320  26.964  1.00  0.00    -0.206 F 
ATOM     50  C   UNL A   1      42.058  27.424  25.645  1.00  0.00     0.040 A 
ATOM     51  C   UNL A   1      40.646  25.667  26.483  1.00  0.00     0.040 A 
ATOM     52  F   UNL A   1      39.661  25.861  28.603  1.00  0.00    -0.206 F 
ATOM     53  C   UNL A   1      41.441  26.188  25.465  1.00  0.00     0.006 A 
ENDBRANCH  25  46
BRANCH  37  54
ATOM     54  C   UNL A   1      43.964  27.671  34.201  1.00  0.00     0.057 A 
ATOM     55  C   UNL A   1      45.295  28.108  34.217  1.00  0.00     0.134 A 
ATOM     56  C   UNL A   1      43.673  26.446  34.813  1.00  0.00     0.134 A 
ATOM     57  F   UNL A   1      45.639  29.266  33.633  1.00  0.00    -0.206 F 
ATOM     58  C   UNL A   1      46.303  27.343  34.801  1.00  0.00     0.040 A 
ATOM     59  C   UNL A   1      44.668  25.687  35.428  1.00  0.00     0.040 A 
ATOM     60  F   UNL A   1      42.417  25.976  34.837  1.00  0.00    -0.206 F 
ATOM     61  C   UNL A   1      45.987  26.132  35.417  1.00  0.00     0.006 A 
ENDBRANCH  37  54
ENDBRANCH  11  12
ENDBRANCH   4   6
ENDBRANCH   3   4
ENDBRANCH   2   3
ENDBRANCH   1   2
BRANCH   1  62
ATOM     62  O   UNL A   1      31.948  30.594  25.850  1.00  0.00    -0.462 OA
BRANCH  62  63
ATOM     63  C   UNL A   1      32.187  29.347  26.339  1.00  0.00     0.313 C 
ATOM     64  O   UNL A   1      32.247  29.078  27.536  1.00  0.00    -0.252 OA
BRANCH  63  65
ATOM     65  C   UNL A   1      32.377  28.335  25.188  1.00  0.00     0.131 C 
BRANCH  65  66
ATOM     66  C   UNL A   1      31.034  27.707  24.745  1.00  0.00    -0.020 A 
ATOM     67  C   UNL A   1      30.286  28.347  23.735  1.00  0.00     0.006 A 
ATOM     68  C   UNL A   1      30.521  26.459  25.178  1.00  0.00     0.022 A 
ATOM     69  C   UNL A   1      29.077  27.843  23.246  1.00  0.00     0.000 A 
ATOM     70  C   UNL A   1      29.286  25.970  24.709  1.00  0.00     0.016 A 
ATOM     71  Br  UNL A   1      31.441  25.193  26.260  1.00  0.00    -0.051 Br
ATOM     72  C   UNL A   1      28.558  26.667  23.755  1.00  0.00     0.001 A 
ENDBRANCH  65  66
BRANCH  65  73
ATOM     73  C   UNL A   1      33.210  29.082  24.077  1.00  0.00     0.026 C 
BRANCH  73  74
ATOM     74  C   UNL A   1      34.069  28.232  23.109  1.00  0.00     0.057 C 
BRANCH  74  75
ATOM     75  C   UNL A   1      33.657  26.832  22.702  1.00  0.00     0.040 A 
ATOM     76  C   UNL A   1      33.995  25.755  23.530  1.00  0.00     0.024 A 
ATOM     77  N   UNL A   1      33.081  26.630  21.499  1.00  0.00    -0.261 NA
ATOM     78  C   UNL A   1      33.635  24.457  23.171  1.00  0.00     0.003 A 
ATOM     79  C   UNL A   1      32.769  25.352  21.156  1.00  0.00     0.111 A 
ATOM     80  C   UNL A   1      33.004  24.248  21.957  1.00  0.00     0.020 A 
ENDBRANCH  74  75
ENDBRANCH  73  74
ENDBRANCH  65  73
ENDBRANCH  63  65
ENDBRANCH  62  63
ENDBRANCH   1  62
TORSDOF 15
ENDMDL
MODEL 3
REMARK VINA RESULT:     -10.8      1.322      3.264
REMARK SMILES O=C(OCCOC(=O)[C@H](CCc1ccccn1)c1ccccc1Br)c1ccc(-c2c3nc(c(-c4c(F)cccc4F)c4ccc([nH]4)c(-c4c(F)cccc4F)c4nc(c(-c5c(F)cccc5F)c5ccc2[nH]5)C=C4)C=C3)cc1
REMARK SMILES IDX 5 1 4 2 3 3 2 4 1 5 25 6 26 7 78 8 27 9 77 10 28 11 29 12
REMARK SMILES IDX 30 13 71 14 31 15 76 16 70 17 72 18 32 19 75 20 69 21 68 22
REMARK SMILES IDX 33 24 59 25 42 26 58 27 43 28 46 29 57 30 73 31 44 32 45 33
REMARK SMILES IDX 56 35 74 36 47 37 34 38 35 39 40 40 36 41 37 42 39 43 41 44
REMARK SMILES IDX 38 45 60 46 61 47 66 48 62 49 63 50 65 51 67 52 64 53 48 54
REMARK SMILES IDX 49 55 54 56 50 57 51 58 53 59 55 60 52 61 6 62 7 63 8 64
REMARK SMILES IDX 9 65 18 66 19 67 23 68 20 69 22 70 24 71 21 72 10 73 11 74
REMARK SMILES IDX 12 75 13 76 17 77 14 78 16 79 15 80
REMARK H PARENT 72 23 46 34
REMARK Flexibility Score: inf
ROOT
ATOM      1  C   UNL A   1      32.177  30.686  26.425  1.00  0.00     0.274 C 
ENDROOT
BRANCH   1   2
ATOM      2  C   UNL A   1      31.382  31.954  26.739  1.00  0.00     0.275 C 
BRANCH   2   3
ATOM      3  O   UNL A   1      32.202  33.134  26.782  1.00  0.00    -0.458 OA
BRANCH   3   4
ATOM      4  C   UNL A   1      32.949  33.620  27.799  1.00  0.00     0.338 C 
ATOM      5  O   UNL A   1      32.525  34.615  28.389  1.00  0.00    -0.246 OA
BRANCH   4   6
ATOM      6  C   UNL A   1      34.274  33.060  28.262  1.00  0.00     0.060 A 
ATOM      7  C   UNL A   1      35.556  33.574  28.032  1.00  0.00     0.016 A 
ATOM      8  C   UNL A   1      34.187  31.925  29.085  1.00  0.00     0.016 A 
ATOM      9  C   UNL A   1      36.686  33.052  28.685  1.00  0.00     0.010 A 
ATOM     10  C   UNL A   1      35.305  31.409  29.743  1.00  0.00     0.010 A 
ATOM     11  C   UNL A   1      36.564  31.977  29.561  1.00  0.00    -0.014 A 
BRANCH  11  12
ATOM     12  C   UNL A   1      37.760  31.335  30.157  1.00  0.00     0.031 A 
ATOM     13  C   UNL A   1      38.097  31.661  31.574  1.00  0.00     0.074 A 
ATOM     14  C   UNL A   1      38.527  30.476  29.462  1.00  0.00     0.049 A 
ATOM     15  N   UNL A   1      39.069  31.203  32.315  1.00  0.00    -0.248 NA
ATOM     16  C   UNL A   1      37.233  32.648  32.243  1.00  0.00     0.031 C 
ATOM     17  C   UNL A   1      38.304  30.114  28.071  1.00  0.00     0.029 A 
ATOM     18  N   UNL A   1      39.636  29.747  29.816  1.00  0.00    -0.354 N 
ATOM     19  C   UNL A   1      38.924  31.836  33.537  1.00  0.00     0.074 A 
ATOM     20  C   UNL A   1      37.830  32.772  33.416  1.00  0.00     0.031 C 
ATOM     21  C   UNL A   1      39.220  29.210  27.694  1.00  0.00     0.029 A 
ATOM     22  C   UNL A   1      40.120  28.948  28.805  1.00  0.00     0.049 A 
ATOM     23  H   UNL A   1      40.047  29.793  30.709  1.00  0.00     0.167 HD
ATOM     24  C   UNL A   1      39.618  31.624  34.676  1.00  0.00     0.037 A 
ATOM     25  C   UNL A   1      41.163  28.097  28.774  1.00  0.00     0.037 A 
ATOM     26  C   UNL A   1      40.712  30.701  34.781  1.00  0.00     0.049 A 
ATOM     27  C   UNL A   1      41.962  27.922  30.035  1.00  0.00     0.074 A 
ATOM     28  C   UNL A   1      41.493  30.413  35.883  1.00  0.00     0.029 A 
ATOM     29  N   UNL A   1      41.187  29.922  33.733  1.00  0.00    -0.354 N 
ATOM     30  N   UNL A   1      41.781  28.488  31.205  1.00  0.00    -0.248 NA
ATOM     31  C   UNL A   1      43.096  26.991  29.985  1.00  0.00     0.031 C 
ATOM     32  C   UNL A   1      42.473  29.495  35.490  1.00  0.00     0.029 A 
ATOM     33  C   UNL A   1      42.267  29.168  34.157  1.00  0.00     0.049 A 
ATOM     34  H   UNL A   1      40.811  29.909  32.823  1.00  0.00     0.167 HD
ATOM     35  C   UNL A   1      42.756  27.961  32.037  1.00  0.00     0.074 A 
ATOM     36  C   UNL A   1      43.515  27.016  31.242  1.00  0.00     0.031 C 
ATOM     37  C   UNL A   1      43.003  28.234  33.341  1.00  0.00     0.037 A 
BRANCH  24  38
ATOM     38  C   UNL A   1      39.201  32.436  35.862  1.00  0.00     0.057 A 
ATOM     39  C   UNL A   1      39.740  33.707  36.111  1.00  0.00     0.134 A 
ATOM     40  C   UNL A   1      38.319  31.908  36.810  1.00  0.00     0.134 A 
ATOM     41  F   UNL A   1      40.623  34.251  35.258  1.00  0.00    -0.206 F 
ATOM     42  C   UNL A   1      39.447  34.407  37.280  1.00  0.00     0.040 A 
ATOM     43  C   UNL A   1      37.994  32.612  37.970  1.00  0.00     0.040 A 
ATOM     44  F   UNL A   1      37.783  30.691  36.638  1.00  0.00    -0.206 F 
ATOM     45  C   UNL A   1      38.569  33.859  38.214  1.00  0.00     0.006 A 
ENDBRANCH  24  38
BRANCH  25  46
ATOM     46  C   UNL A   1      41.507  27.337  27.538  1.00  0.00     0.057 A 
ATOM     47  C   UNL A   1      41.061  26.024  27.340  1.00  0.00     0.134 A 
ATOM     48  C   UNL A   1      42.321  27.889  26.540  1.00  0.00     0.134 A 
ATOM     49  F   UNL A   1      40.293  25.425  28.262  1.00  0.00    -0.206 F 
ATOM     50  C   UNL A   1      41.433  25.279  26.216  1.00  0.00     0.040 A 
ATOM     51  C   UNL A   1      42.679  27.166  25.397  1.00  0.00     0.040 A 
ATOM     52  F   UNL A   1      42.786  29.141  26.657  1.00  0.00    -0.206 F 
ATOM     53  C   UNL A   1      42.244  25.852  25.238  1.00  0.00     0.006 A 
ENDBRANCH  25  46
BRANCH  37  54
ATOM     54  C   UNL A   1      44.120  27.476  33.991  1.00  0.00     0.057 A 
ATOM     55  C   UNL A   1      43.917  26.226  34.588  1.00  0.00     0.134 A 
ATOM     56  C   UNL A   1      45.423  27.989  33.981  1.00  0.00     0.134 A 
ATOM     57  F   UNL A   1      42.688  25.688  34.643  1.00  0.00    -0.206 F 
ATOM     58  C   UNL A   1      44.968  25.522  35.175  1.00  0.00     0.040 A 
ATOM     59  C   UNL A   1      46.487  27.281  34.536  1.00  0.00     0.040 A 
ATOM     60  F   UNL A   1      45.683  29.179  33.417  1.00  0.00    -0.206 F 
ATOM     61  C   UNL A   1      46.259  26.047  35.141  1.00  0.00     0.006 A 
ENDBRANCH  37  54
ENDBRANCH  11  12
ENDBRANCH   4   6
ENDBRANCH   3   4
ENDBRANCH   2   3
ENDBRANCH   1   2
BRANCH   1  62
ATOM     62  O   UNL A   1      31.460  29.872  25.478  1.00  0.00    -0.462 OA
BRANCH  62  63
ATOM     63  C   UNL A   1      32.159  29.156  24.557  1.00  0.00     0.313 C 
ATOM     64  O   UNL A   1      33.348  29.336  24.305  1.00  0.00    -0.252 OA
BRANCH  63  65
ATOM     65  C   UNL A   1      31.253  28.106  23.878  1.00  0.00     0.131 C 
BRANCH  65  66
ATOM     66  C   UNL A   1      30.026  28.759  23.195  1.00  0.00    -0.020 A 
ATOM     67  C   UNL A   1      30.231  29.864  22.344  1.00  0.00     0.006 A 
ATOM     68  C   UNL A   1      28.696  28.274  23.248  1.00  0.00     0.022 A 
ATOM     69  C   UNL A   1      29.193  30.502  21.659  1.00  0.00     0.000 A 
ATOM     70  C   UNL A   1      27.646  28.939  22.585  1.00  0.00     0.016 A 
ATOM     71  Br  UNL A   1      28.142  26.623  24.014  1.00  0.00    -0.051 Br
ATOM     72  C   UNL A   1      27.891  30.059  21.803  1.00  0.00     0.001 A 
ENDBRANCH  65  66
BRANCH  65  73
ATOM     73  C   UNL A   1      32.196  27.239  22.958  1.00  0.00     0.026 C 
BRANCH  73  74
ATOM     74  C   UNL A   1      31.944  25.713  22.883  1.00  0.00     0.057 C 
BRANCH  74  75
ATOM     75  C   UNL A   1      31.932  24.847  24.126  1.00  0.00     0.040 A 
ATOM     76  C   UNL A   1      30.897  23.921  24.299  1.00  0.00     0.024 A 
ATOM     77  N   UNL A   1      32.843  25.062  25.097  1.00  0.00    -0.261 NA
ATOM     78  C   UNL A   1      30.859  23.120  25.440  1.00  0.00     0.003 A 
ATOM     79  C   UNL A   1      32.766  24.292  26.215  1.00  0.00     0.111 A 
ATOM     80  C   UNL A   1      31.818  23.306  26.421  1.00  0.00     0.020 A 
ENDBRANCH  74  75
ENDBRANCH  73  74
ENDBRANCH  65  73
ENDBRANCH  63  65
ENDBRANCH  62  63
ENDBRANCH   1  62
TORSDOF 15
ENDMDL
