MODEL 1
REMARK VINA RESULT:     -10.8      0.000      0.000
REMARK SMILES Cc1nc(CSCC(=O)N2CCCC[C@@H]2C(=O)OCCOC(=O)c2ccc(-c3c4nc(c(-c5c(F)cccc5F)c5ccc([nH]5)c(-c5c(F)cccc5F)c5nc(c(-c6c(F)cccc6F)c6ccc3[nH]6)C=C5)C=C4)cc2)cs1
REMARK SMILES IDX 18 1 16 2 17 3 15 4 10 5 11 6 12 7 14 8 13 9 8 10 9 11 7 12
REMARK SMILES IDX 6 13 5 14 4 15 1 16 2 17 3 18 79 19 78 20 19 21 20 22 21 23
REMARK SMILES IDX 22 24 23 25 24 26 25 27 77 28 26 29 76 30 27 31 28 32 29 33
REMARK SMILES IDX 70 34 30 35 75 36 69 37 71 38 31 39 74 40 68 41 67 42 32 44
REMARK SMILES IDX 58 45 41 46 57 47 42 48 45 49 56 50 72 51 43 52 44 53 55 55
REMARK SMILES IDX 73 56 46 57 33 58 34 59 39 60 35 61 36 62 38 63 40 64 37 65
REMARK SMILES IDX 59 66 60 67 65 68 61 69 62 70 64 71 66 72 63 73 47 74 48 75
REMARK SMILES IDX 53 76 49 77 50 78 52 79 54 80 51 81
REMARK H PARENT 71 43 45 54
REMARK Flexibility Score: inf
ROOT
ATOM      1  O   UNL A   1      35.006  22.945  25.599  1.00  0.00    -0.461 OA
ENDROOT
BRANCH   1   2
ATOM      2  C   UNL A   1      33.752  23.335  25.945  1.00  0.00     0.328 C 
ATOM      3  O   UNL A   1      32.993  22.683  26.661  1.00  0.00    -0.250 OA
BRANCH   2   4
ATOM      4  C   UNL A   1      33.333  24.685  25.345  1.00  0.00     0.195 C 
ATOM      5  N   UNL A   1      32.638  24.552  24.058  1.00  0.00    -0.328 N 
ATOM      6  C   UNL A   1      32.091  25.763  23.465  1.00  0.00     0.120 C 
ATOM      7  C   UNL A   1      33.079  26.934  23.527  1.00  0.00     0.022 C 
ATOM      8  C   UNL A   1      34.353  25.814  25.376  1.00  0.00     0.037 C 
ATOM      9  C   UNL A   1      33.670  27.109  24.927  1.00  0.00     0.005 C 
BRANCH   5  10
ATOM     10  C   UNL A   1      32.914  23.461  23.239  1.00  0.00     0.233 C 
ATOM     11  O   UNL A   1      33.921  23.416  22.544  1.00  0.00    -0.274 OA
BRANCH  10  12
ATOM     12  C   UNL A   1      31.899  22.333  23.444  1.00  0.00     0.170 C 
BRANCH  12  13
ATOM     13  S   UNL A   1      32.528  20.661  23.094  1.00  0.00    -0.146 SA
BRANCH  13  14
ATOM     14  C   UNL A   1      32.344  19.893  24.740  1.00  0.00     0.127 C 
BRANCH  14  15
ATOM     15  C   UNL A   1      32.939  18.523  24.786  1.00  0.00     0.061 A 
ATOM     16  C   UNL A   1      32.262  15.076  25.755  1.00  0.00     0.079 C 
ATOM     17  C   UNL A   1      32.814  16.355  25.238  1.00  0.00     0.090 A 
ATOM     18  N   UNL A   1      32.156  17.488  25.273  1.00  0.00    -0.246 NA
ATOM     19  S   UNL A   1      34.386  16.440  24.556  1.00  0.00    -0.127 S 
ATOM     20  C   UNL A   1      34.179  18.128  24.319  1.00  0.00     0.091 A 
ENDBRANCH  14  15
ENDBRANCH  13  14
ENDBRANCH  12  13
ENDBRANCH  10  12
ENDBRANCH   5  10
ENDBRANCH   2   4
ENDBRANCH   1   2
BRANCH   1  21
ATOM     21  C   UNL A   1      35.438  21.675  26.128  1.00  0.00     0.274 C 
BRANCH  21  22
ATOM     22  C   UNL A   1      36.377  20.920  25.179  1.00  0.00     0.275 C 
BRANCH  22  23
ATOM     23  O   UNL A   1      37.611  21.625  24.940  1.00  0.00    -0.458 OA
BRANCH  23  24
ATOM     24  C   UNL A   1      38.636  21.253  25.737  1.00  0.00     0.338 C 
ATOM     25  O   UNL A   1      39.145  20.138  25.811  1.00  0.00    -0.246 OA
BRANCH  24  26
ATOM     26  C   UNL A   1      39.221  22.414  26.425  1.00  0.00     0.060 A 
ATOM     27  C   UNL A   1      38.687  23.671  26.120  1.00  0.00     0.016 A 
ATOM     28  C   UNL A   1      40.339  22.305  27.251  1.00  0.00     0.016 A 
ATOM     29  C   UNL A   1      39.276  24.828  26.605  1.00  0.00     0.010 A 
ATOM     30  C   UNL A   1      40.949  23.471  27.724  1.00  0.00     0.010 A 
ATOM     31  C   UNL A   1      40.436  24.734  27.374  1.00  0.00    -0.014 A 
BRANCH  31  32
ATOM     32  C   UNL A   1      41.198  25.971  27.648  1.00  0.00     0.031 A 
ATOM     33  C   UNL A   1      40.553  27.042  28.478  1.00  0.00     0.074 A 
ATOM     34  C   UNL A   1      42.473  26.092  27.244  1.00  0.00     0.049 A 
ATOM     35  N   UNL A   1      41.000  28.229  28.796  1.00  0.00    -0.248 NA
ATOM     36  C   UNL A   1      39.227  26.726  29.033  1.00  0.00     0.031 C 
ATOM     37  C   UNL A   1      43.234  25.067  26.532  1.00  0.00     0.029 A 
ATOM     38  N   UNL A   1      43.353  27.131  27.387  1.00  0.00    -0.354 N 
ATOM     39  C   UNL A   1      40.002  28.810  29.567  1.00  0.00     0.074 A 
ATOM     40  C   UNL A   1      38.922  27.852  29.660  1.00  0.00     0.031 C 
ATOM     41  C   UNL A   1      44.474  25.530  26.302  1.00  0.00     0.029 A 
ATOM     42  C   UNL A   1      44.574  26.897  26.806  1.00  0.00     0.049 A 
ATOM     43  H   UNL A   1      43.131  27.965  27.861  1.00  0.00     0.167 HD
ATOM     44  C   UNL A   1      39.990  30.036  30.141  1.00  0.00     0.037 A 
ATOM     45  C   UNL A   1      45.636  27.713  26.673  1.00  0.00     0.037 A 
ATOM     46  C   UNL A   1      41.070  30.979  30.045  1.00  0.00     0.049 A 
ATOM     47  C   UNL A   1      45.556  29.111  27.221  1.00  0.00     0.074 A 
ATOM     48  C   UNL A   1      41.156  32.257  30.569  1.00  0.00     0.029 A 
ATOM     49  N   UNL A   1      42.260  30.741  29.370  1.00  0.00    -0.354 N 
ATOM     50  N   UNL A   1      44.591  29.677  27.905  1.00  0.00    -0.248 NA
ATOM     51  C   UNL A   1      46.706  29.987  26.962  1.00  0.00     0.031 C 
ATOM     52  C   UNL A   1      42.384  32.806  30.177  1.00  0.00     0.029 A 
ATOM     53  C   UNL A   1      43.079  31.855  29.446  1.00  0.00     0.049 A 
ATOM     54  H   UNL A   1      42.489  29.903  28.907  1.00  0.00     0.167 HD
ATOM     55  C   UNL A   1      45.023  30.968  28.178  1.00  0.00     0.074 A 
ATOM     56  C   UNL A   1      46.343  31.097  27.591  1.00  0.00     0.031 C 
ATOM     57  C   UNL A   1      44.388  31.958  28.854  1.00  0.00     0.037 A 
BRANCH  44  58
ATOM     58  C   UNL A   1      38.740  30.429  30.873  1.00  0.00     0.057 A 
ATOM     59  C   UNL A   1      38.555  30.152  32.234  1.00  0.00     0.134 A 
ATOM     60  C   UNL A   1      37.697  31.073  30.196  1.00  0.00     0.134 A 
ATOM     61  F   UNL A   1      39.506  29.515  32.934  1.00  0.00    -0.206 F 
ATOM     62  C   UNL A   1      37.362  30.470  32.887  1.00  0.00     0.040 A 
ATOM     63  C   UNL A   1      36.510  31.418  30.844  1.00  0.00     0.040 A 
ATOM     64  F   UNL A   1      37.809  31.366  28.892  1.00  0.00    -0.206 F 
ATOM     65  C   UNL A   1      36.337  31.108  32.191  1.00  0.00     0.006 A 
ENDBRANCH  44  58
BRANCH  45  66
ATOM     66  C   UNL A   1      46.852  27.233  25.974  1.00  0.00     0.057 A 
ATOM     67  C   UNL A   1      47.872  26.576  26.668  1.00  0.00     0.134 A 
ATOM     68  C   UNL A   1      47.021  27.415  24.595  1.00  0.00     0.134 A 
ATOM     69  F   UNL A   1      47.777  26.394  27.993  1.00  0.00    -0.206 F 
ATOM     70  C   UNL A   1      49.019  26.116  26.019  1.00  0.00     0.040 A 
ATOM     71  C   UNL A   1      48.152  26.941  23.928  1.00  0.00     0.040 A 
ATOM     72  F   UNL A   1      46.079  28.041  23.874  1.00  0.00    -0.206 F 
ATOM     73  C   UNL A   1      49.157  26.292  24.642  1.00  0.00     0.006 A 
ENDBRANCH  45  66
BRANCH  57  74
ATOM     74  C   UNL A   1      45.128  33.251  29.019  1.00  0.00     0.057 A 
ATOM     75  C   UNL A   1      45.003  34.296  28.096  1.00  0.00     0.134 A 
ATOM     76  C   UNL A   1      45.948  33.464  30.135  1.00  0.00     0.134 A 
ATOM     77  F   UNL A   1      44.244  34.147  26.999  1.00  0.00    -0.206 F 
ATOM     78  C   UNL A   1      45.683  35.503  28.267  1.00  0.00     0.040 A 
ATOM     79  C   UNL A   1      46.614  34.675  30.328  1.00  0.00     0.040 A 
ATOM     80  F   UNL A   1      46.104  32.504  31.059  1.00  0.00    -0.206 F 
ATOM     81  C   UNL A   1      46.486  35.696  29.390  1.00  0.00     0.006 A 
ENDBRANCH  57  74
ENDBRANCH  31  32
ENDBRANCH  24  26
ENDBRANCH  23  24
ENDBRANCH  22  23
ENDBRANCH  21  22
ENDBRANCH   1  21
TORSDOF 16
ENDMDL
MODEL 2
REMARK VINA RESULT:     -10.7      2.057      3.779
REMARK SMILES Cc1nc(CSCC(=O)N2CCCC[C@@H]2C(=O)OCCOC(=O)c2ccc(-c3c4nc(c(-c5c(F)cccc5F)c5ccc([nH]5)c(-c5c(F)cccc5F)c5nc(c(-c6c(F)cccc6F)c6ccc3[nH]6)C=C5)C=C4)cc2)cs1
REMARK SMILES IDX 18 1 16 2 17 3 15 4 10 5 11 6 12 7 14 8 13 9 8 10 9 11 7 12
REMARK SMILES IDX 6 13 5 14 4 15 1 16 2 17 3 18 79 19 78 20 19 21 20 22 21 23
REMARK SMILES IDX 22 24 23 25 24 26 25 27 77 28 26 29 76 30 27 31 28 32 29 33
REMARK SMILES IDX 70 34 30 35 75 36 69 37 71 38 31 39 74 40 68 41 67 42 32 44
REMARK SMILES IDX 58 45 41 46 57 47 42 48 45 49 56 50 72 51 43 52 44 53 55 55
REMARK SMILES IDX 73 56 46 57 33 58 34 59 39 60 35 61 36 62 38 63 40 64 37 65
REMARK SMILES IDX 59 66 60 67 65 68 61 69 62 70 64 71 66 72 63 73 47 74 48 75
REMARK SMILES IDX 53 76 49 77 50 78 52 79 54 80 51 81
REMARK H PARENT 71 43 45 54
REMARK Flexibility Score: inf
ROOT
ATOM      1  O   UNL A   1      35.589  22.100  24.245  1.00  0.00    -0.461 OA
ENDROOT
BRANCH   1   2
ATOM      2  C   UNL A   1      35.140  23.183  24.930  1.00  0.00     0.328 C 
ATOM      3  O   UNL A   1      35.854  24.107  25.317  1.00  0.00    -0.250 OA
BRANCH   2   4
ATOM      4  C   UNL A   1      33.630  23.160  25.208  1.00  0.00     0.195 C 
ATOM      5  N   UNL A   1      32.819  23.317  23.994  1.00  0.00    -0.328 N 
ATOM      6  C   UNL A   1      31.376  23.187  24.132  1.00  0.00     0.120 C 
ATOM      7  C   UNL A   1      30.840  23.952  25.348  1.00  0.00     0.022 C 
ATOM      8  C   UNL A   1      33.122  23.970  26.392  1.00  0.00     0.037 C 
ATOM      9  C   UNL A   1      31.642  23.646  26.614  1.00  0.00     0.005 C 
BRANCH   5  10
ATOM     10  C   UNL A   1      33.335  24.020  22.910  1.00  0.00     0.233 C 
ATOM     11  O   UNL A   1      33.777  23.448  21.921  1.00  0.00    -0.274 OA
BRANCH  10  12
ATOM     12  C   UNL A   1      33.137  25.531  23.073  1.00  0.00     0.170 C 
BRANCH  12  13
ATOM     13  S   UNL A   1      32.123  26.317  21.783  1.00  0.00    -0.146 SA
BRANCH  13  14
ATOM     14  C   UNL A   1      30.868  27.148  22.815  1.00  0.00     0.127 C 
BRANCH  14  15
ATOM     15  C   UNL A   1      31.488  27.924  23.931  1.00  0.00     0.061 A 
ATOM     16  C   UNL A   1      31.688  28.169  27.561  1.00  0.00     0.079 C 
ATOM     17  C   UNL A   1      31.838  28.301  26.089  1.00  0.00     0.090 A 
ATOM     18  N   UNL A   1      31.213  27.531  25.231  1.00  0.00    -0.246 NA
ATOM     19  S   UNL A   1      32.850  29.500  25.396  1.00  0.00    -0.127 S 
ATOM     20  C   UNL A   1      32.392  28.966  23.831  1.00  0.00     0.091 A 
ENDBRANCH  14  15
ENDBRANCH  13  14
ENDBRANCH  12  13
ENDBRANCH  10  12
ENDBRANCH   5  10
ENDBRANCH   2   4
ENDBRANCH   1   2
BRANCH   1  21
ATOM     21  C   UNL A   1      35.705  20.879  25.005  1.00  0.00     0.274 C 
BRANCH  21  22
ATOM     22  C   UNL A   1      37.128  20.306  25.001  1.00  0.00     0.275 C 
BRANCH  22  23
ATOM     23  O   UNL A   1      38.140  21.328  25.086  1.00  0.00    -0.458 OA
BRANCH  23  24
ATOM     24  C   UNL A   1      39.136  21.064  25.960  1.00  0.00     0.338 C 
ATOM     25  O   UNL A   1      39.696  19.986  26.135  1.00  0.00    -0.246 OA
BRANCH  24  26
ATOM     26  C   UNL A   1      39.620  22.297  26.599  1.00  0.00     0.060 A 
ATOM     27  C   UNL A   1      39.113  23.508  26.115  1.00  0.00     0.016 A 
ATOM     28  C   UNL A   1      40.630  22.289  27.561  1.00  0.00     0.016 A 
ATOM     29  C   UNL A   1      39.626  24.718  26.555  1.00  0.00     0.010 A 
ATOM     30  C   UNL A   1      41.166  23.508  27.991  1.00  0.00     0.010 A 
ATOM     31  C   UNL A   1      40.686  24.721  27.464  1.00  0.00    -0.014 A 
BRANCH  31  32
ATOM     32  C   UNL A   1      41.395  25.994  27.708  1.00  0.00     0.031 A 
ATOM     33  C   UNL A   1      40.703  27.059  28.508  1.00  0.00     0.074 A 
ATOM     34  C   UNL A   1      42.666  26.157  27.307  1.00  0.00     0.049 A 
ATOM     35  N   UNL A   1      41.100  28.271  28.797  1.00  0.00    -0.248 NA
ATOM     36  C   UNL A   1      39.388  26.704  29.066  1.00  0.00     0.031 C 
ATOM     37  C   UNL A   1      43.472  25.147  26.624  1.00  0.00     0.029 A 
ATOM     38  N   UNL A   1      43.502  27.235  27.427  1.00  0.00    -0.354 N 
ATOM     39  C   UNL A   1      40.075  28.831  29.549  1.00  0.00     0.074 A 
ATOM     40  C   UNL A   1      39.035  27.832  29.663  1.00  0.00     0.031 C 
ATOM     41  C   UNL A   1      44.694  25.653  26.388  1.00  0.00     0.029 A 
ATOM     42  C   UNL A   1      44.734  27.036  26.857  1.00  0.00     0.049 A 
ATOM     43  H   UNL A   1      43.245  28.071  27.878  1.00  0.00     0.167 HD
ATOM     44  C   UNL A   1      40.010  30.069  30.092  1.00  0.00     0.037 A 
ATOM     45  C   UNL A   1      45.763  27.890  26.706  1.00  0.00     0.037 A 
ATOM     46  C   UNL A   1      41.052  31.053  29.975  1.00  0.00     0.049 A 
ATOM     47  C   UNL A   1      45.624  29.298  27.218  1.00  0.00     0.074 A 
ATOM     48  C   UNL A   1      41.084  32.346  30.466  1.00  0.00     0.029 A 
ATOM     49  N   UNL A   1      42.254  30.846  29.312  1.00  0.00    -0.354 N 
ATOM     50  N   UNL A   1      44.633  29.841  27.883  1.00  0.00    -0.248 NA
ATOM     51  C   UNL A   1      46.739  30.213  26.941  1.00  0.00     0.031 C 
ATOM     52  C   UNL A   1      42.289  32.935  30.065  1.00  0.00     0.029 A 
ATOM     53  C   UNL A   1      43.027  31.995  29.362  1.00  0.00     0.049 A 
ATOM     54  H   UNL A   1      42.519  30.007  28.871  1.00  0.00     0.167 HD
ATOM     55  C   UNL A   1      45.012  31.156  28.124  1.00  0.00     0.074 A 
ATOM     56  C   UNL A   1      46.328  31.323  27.540  1.00  0.00     0.031 C 
ATOM     57  C   UNL A   1      44.334  32.135  28.772  1.00  0.00     0.037 A 
BRANCH  44  58
ATOM     58  C   UNL A   1      38.742  30.430  30.808  1.00  0.00     0.057 A 
ATOM     59  C   UNL A   1      37.671  31.057  30.158  1.00  0.00     0.134 A 
ATOM     60  C   UNL A   1      38.605  30.170  32.178  1.00  0.00     0.134 A 
ATOM     61  F   UNL A   1      37.749  31.356  28.853  1.00  0.00    -0.206 F 
ATOM     62  C   UNL A   1      36.522  31.442  30.852  1.00  0.00     0.040 A 
ATOM     63  C   UNL A   1      37.451  30.528  32.876  1.00  0.00     0.040 A 
ATOM     64  F   UNL A   1      39.594  29.575  32.861  1.00  0.00    -0.206 F 
ATOM     65  C   UNL A   1      36.410  31.175  32.215  1.00  0.00     0.006 A 
ENDBRANCH  44  58
BRANCH  45  66
ATOM     66  C   UNL A   1      47.001  27.443  26.025  1.00  0.00     0.057 A 
ATOM     67  C   UNL A   1      48.098  26.972  26.755  1.00  0.00     0.134 A 
ATOM     68  C   UNL A   1      47.116  27.469  24.629  1.00  0.00     0.134 A 
ATOM     69  F   UNL A   1      48.055  26.946  28.094  1.00  0.00    -0.206 F 
ATOM     70  C   UNL A   1      49.266  26.544  26.122  1.00  0.00     0.040 A 
ATOM     71  C   UNL A   1      48.270  27.023  23.982  1.00  0.00     0.040 A 
ATOM     72  F   UNL A   1      46.101  27.913  23.874  1.00  0.00    -0.206 F 
ATOM     73  C   UNL A   1      49.352  26.562  24.730  1.00  0.00     0.006 A 
ENDBRANCH  45  66
BRANCH  57  74
ATOM     74  C   UNL A   1      45.019  33.461  28.907  1.00  0.00     0.057 A 
ATOM     75  C   UNL A   1      45.885  33.739  29.972  1.00  0.00     0.134 A 
ATOM     76  C   UNL A   1      44.838  34.458  27.940  1.00  0.00     0.134 A 
ATOM     77  F   UNL A   1      46.088  32.830  30.938  1.00  0.00    -0.206 F 
ATOM     78  C   UNL A   1      46.533  34.971  30.081  1.00  0.00     0.040 A 
ATOM     79  C   UNL A   1      45.498  35.685  28.026  1.00  0.00     0.040 A 
ATOM     80  F   UNL A   1      44.027  34.251  26.892  1.00  0.00    -0.206 F 
ATOM     81  C   UNL A   1      46.343  35.945  29.101  1.00  0.00     0.006 A 
ENDBRANCH  57  74
ENDBRANCH  31  32
ENDBRANCH  24  26
ENDBRANCH  23  24
ENDBRANCH  22  23
ENDBRANCH  21  22
ENDBRANCH   1  21
TORSDOF 16
ENDMDL
MODEL 3
REMARK VINA RESULT:     -10.7      3.956      8.438
REMARK SMILES Cc1nc(CSCC(=O)N2CCCC[C@@H]2C(=O)OCCOC(=O)c2ccc(-c3c4nc(c(-c5c(F)cccc5F)c5ccc([nH]5)c(-c5c(F)cccc5F)c5nc(c(-c6c(F)cccc6F)c6ccc3[nH]6)C=C5)C=C4)cc2)cs1
REMARK SMILES IDX 18 1 16 2 17 3 15 4 10 5 11 6 12 7 14 8 13 9 8 10 9 11 7 12
REMARK SMILES IDX 6 13 5 14 4 15 1 16 2 17 3 18 79 19 78 20 19 21 20 22 21 23
REMARK SMILES IDX 22 24 23 25 24 26 25 27 77 28 26 29 76 30 27 31 28 32 29 33
REMARK SMILES IDX 70 34 30 35 75 36 69 37 71 38 31 39 74 40 68 41 67 42 32 44
REMARK SMILES IDX 58 45 41 46 57 47 42 48 45 49 56 50 72 51 43 52 44 53 55 55
REMARK SMILES IDX 73 56 46 57 33 58 34 59 39 60 35 61 36 62 38 63 40 64 37 65
REMARK SMILES IDX 59 66 60 67 65 68 61 69 62 70 64 71 66 72 63 73 47 74 48 75
REMARK SMILES IDX 53 76 49 77 50 78 52 79 54 80 51 81
REMARK H PARENT 71 43 45 54
REMARK Flexibility Score: inf
ROOT
ATOM      1  O   UNL A   1      31.781  27.900  26.031  1.00  0.00    -0.461 OA
ENDROOT
BRANCH   1   2
ATOM      2  C   UNL A   1      32.736  27.017  25.641  1.00  0.00     0.328 C 
ATOM      3  O   UNL A   1      33.869  26.962  26.116  1.00  0.00    -0.250 OA
BRANCH   2   4
ATOM      4  C   UNL A   1      32.289  26.072  24.516  1.00  0.00     0.195 C 
ATOM      5  N   UNL A   1      31.696  24.825  25.014  1.00  0.00    -0.328 N 
ATOM      6  C   UNL A   1      31.128  23.914  24.030  1.00  0.00     0.120 C 
ATOM      7  C   UNL A   1      32.044  23.733  22.814  1.00  0.00     0.022 C 
ATOM      8  C   UNL A   1      33.241  25.873  23.346  1.00  0.00     0.037 C 
ATOM      9  C   UNL A   1      32.523  25.073  22.255  1.00  0.00     0.005 C 
BRANCH   5  10
ATOM     10  C   UNL A   1      32.088  24.325  26.252  1.00  0.00     0.233 C 
ATOM     11  O   UNL A   1      31.389  24.453  27.250  1.00  0.00    -0.274 OA
BRANCH  10  12
ATOM     12  C   UNL A   1      33.381  23.510  26.146  1.00  0.00     0.170 C 
BRANCH  12  13
ATOM     13  S   UNL A   1      33.287  21.828  26.838  1.00  0.00    -0.146 SA
BRANCH  13  14
ATOM     14  C   UNL A   1      32.471  20.954  25.459  1.00  0.00     0.127 C 
BRANCH  14  15
ATOM     15  C   UNL A   1      33.099  19.626  25.190  1.00  0.00     0.061 A 
ATOM     16  C   UNL A   1      32.526  16.032  25.382  1.00  0.00     0.079 C 
ATOM     17  C   UNL A   1      33.036  17.408  25.152  1.00  0.00     0.090 A 
ATOM     18  N   UNL A   1      32.352  18.487  25.449  1.00  0.00    -0.246 NA
ATOM     19  S   UNL A   1      34.588  17.687  24.478  1.00  0.00    -0.127 S 
ATOM     20  C   UNL A   1      34.336  19.378  24.624  1.00  0.00     0.091 A 
ENDBRANCH  14  15
ENDBRANCH  13  14
ENDBRANCH  12  13
ENDBRANCH  10  12
ENDBRANCH   5  10
ENDBRANCH   2   4
ENDBRANCH   1   2
BRANCH   1  21
ATOM     21  C   UNL A   1      31.475  28.950  25.091  1.00  0.00     0.274 C 
BRANCH  21  22
ATOM     22  C   UNL A   1      31.695  30.353  25.670  1.00  0.00     0.275 C 
BRANCH  22  23
ATOM     23  O   UNL A   1      32.398  30.332  26.928  1.00  0.00    -0.458 OA
BRANCH  23  24
ATOM     24  C   UNL A   1      33.065  31.469  27.220  1.00  0.00     0.338 C 
ATOM     25  O   UNL A   1      32.604  32.607  27.249  1.00  0.00    -0.246 OA
BRANCH  24  26
ATOM     26  C   UNL A   1      34.430  31.179  27.685  1.00  0.00     0.060 A 
ATOM     27  C   UNL A   1      34.753  29.837  27.913  1.00  0.00     0.016 A 
ATOM     28  C   UNL A   1      35.336  32.188  28.009  1.00  0.00     0.016 A 
ATOM     29  C   UNL A   1      35.963  29.488  28.494  1.00  0.00     0.010 A 
ATOM     30  C   UNL A   1      36.548  31.841  28.616  1.00  0.00     0.010 A 
ATOM     31  C   UNL A   1      36.847  30.493  28.887  1.00  0.00    -0.014 A 
BRANCH  31  32
ATOM     32  C   UNL A   1      37.993  30.122  29.744  1.00  0.00     0.031 A 
ATOM     33  C   UNL A   1      39.068  29.249  29.166  1.00  0.00     0.074 A 
ATOM     34  C   UNL A   1      38.116  30.634  30.980  1.00  0.00     0.049 A 
ATOM     35  N   UNL A   1      40.129  28.747  29.742  1.00  0.00    -0.248 NA
ATOM     36  C   UNL A   1      38.931  28.903  27.743  1.00  0.00     0.031 C 
ATOM     37  C   UNL A   1      37.191  31.582  31.597  1.00  0.00     0.029 A 
ATOM     38  N   UNL A   1      39.081  30.432  31.930  1.00  0.00    -0.354 N 
ATOM     39  C   UNL A   1      40.774  28.007  28.759  1.00  0.00     0.074 A 
ATOM     40  C   UNL A   1      39.980  28.116  27.554  1.00  0.00     0.031 C 
ATOM     41  C   UNL A   1      37.637  31.884  32.828  1.00  0.00     0.029 A 
ATOM     42  C   UNL A   1      38.847  31.112  33.099  1.00  0.00     0.049 A 
ATOM     43  H   UNL A   1      39.866  29.855  31.789  1.00  0.00     0.167 HD
ATOM     44  C   UNL A   1      41.923  27.300  28.857  1.00  0.00     0.037 A 
ATOM     45  C   UNL A   1      39.522  31.084  34.263  1.00  0.00     0.037 A 
ATOM     46  C   UNL A   1      42.706  27.201  30.059  1.00  0.00     0.049 A 
ATOM     47  C   UNL A   1      40.734  30.201  34.383  1.00  0.00     0.074 A 
ATOM     48  C   UNL A   1      43.875  26.494  30.278  1.00  0.00     0.029 A 
ATOM     49  N   UNL A   1      42.389  27.834  31.254  1.00  0.00    -0.354 N 
ATOM     50  N   UNL A   1      41.311  29.461  33.468  1.00  0.00    -0.248 NA
ATOM     51  C   UNL A   1      41.373  30.135  35.704  1.00  0.00     0.031 C 
ATOM     52  C   UNL A   1      44.244  26.668  31.617  1.00  0.00     0.029 A 
ATOM     53  C   UNL A   1      43.329  27.517  32.221  1.00  0.00     0.049 A 
ATOM     54  H   UNL A   1      41.613  28.421  31.394  1.00  0.00     0.167 HD
ATOM     55  C   UNL A   1      42.396  28.858  34.093  1.00  0.00     0.074 A 
ATOM     56  C   UNL A   1      42.397  29.327  35.465  1.00  0.00     0.031 C 
ATOM     57  C   UNL A   1      43.308  27.997  33.579  1.00  0.00     0.037 A 
BRANCH  44  58
ATOM     58  C   UNL A   1      42.357  26.538  27.639  1.00  0.00     0.057 A 
ATOM     59  C   UNL A   1      42.008  25.197  27.435  1.00  0.00     0.134 A 
ATOM     60  C   UNL A   1      43.160  27.152  26.670  1.00  0.00     0.134 A 
ATOM     61  F   UNL A   1      41.262  24.543  28.338  1.00  0.00    -0.206 F 
ATOM     62  C   UNL A   1      42.471  24.484  26.327  1.00  0.00     0.040 A 
ATOM     63  C   UNL A   1      43.607  26.457  25.545  1.00  0.00     0.040 A 
ATOM     64  F   UNL A   1      43.532  28.435  26.805  1.00  0.00    -0.206 F 
ATOM     65  C   UNL A   1      43.270  25.116  25.377  1.00  0.00     0.006 A 
ENDBRANCH  44  58
BRANCH  45  66
ATOM     66  C   UNL A   1      39.054  31.900  35.408  1.00  0.00     0.057 A 
ATOM     67  C   UNL A   1      39.423  33.244  35.536  1.00  0.00     0.134 A 
ATOM     68  C   UNL A   1      38.222  31.361  36.397  1.00  0.00     0.134 A 
ATOM     69  F   UNL A   1      40.236  33.809  34.632  1.00  0.00    -0.206 F 
ATOM     70  C   UNL A   1      38.983  34.022  36.608  1.00  0.00     0.040 A 
ATOM     71  C   UNL A   1      37.757  32.134  37.463  1.00  0.00     0.040 A 
ATOM     72  F   UNL A   1      37.836  30.078  36.333  1.00  0.00    -0.206 F 
ATOM     73  C   UNL A   1      38.141  33.469  37.572  1.00  0.00     0.006 A 
ENDBRANCH  45  66
BRANCH  57  74
ATOM     74  C   UNL A   1      44.398  27.534  34.498  1.00  0.00     0.057 A 
ATOM     75  C   UNL A   1      45.603  28.236  34.625  1.00  0.00     0.134 A 
ATOM     76  C   UNL A   1      44.225  26.393  35.290  1.00  0.00     0.134 A 
ATOM     77  F   UNL A   1      45.835  29.329  33.882  1.00  0.00    -0.206 F 
ATOM     78  C   UNL A   1      46.607  27.807  35.495  1.00  0.00     0.040 A 
ATOM     79  C   UNL A   1      45.211  25.967  36.181  1.00  0.00     0.040 A 
ATOM     80  F   UNL A   1      43.089  25.681  35.220  1.00  0.00    -0.206 F 
ATOM     81  C   UNL A   1      46.408  26.673  36.281  1.00  0.00     0.006 A 
ENDBRANCH  57  74
ENDBRANCH  31  32
ENDBRANCH  24  26
ENDBRANCH  23  24
ENDBRANCH  22  23
ENDBRANCH  21  22
ENDBRANCH   1  21
TORSDOF 16
ENDMDL
