MODEL 1
REMARK VINA RESULT:     -13.5      0.000      0.000
REMARK SMILES Cc1c(NC(=O)c2cccc(-c3cc4ccccc4oc3=O)c2)cccc1C(=O)OCCOC(=O)c1ccc(-c2c3nc(c(-c4c(F)cccc4F)c4ccc([nH]4)c(-c4c(F)cccc4F)c4nc(c(-c5c(F)cccc5F)c5ccc2[nH]5)C=C4)C=C3)cc1
REMARK SMILES IDX 31 1 30 2 28 3 29 4 27 5 1 6 2 7 3 8 24 9 26 10 25 11 4 12
REMARK SMILES IDX 5 13 6 15 7 16 8 17 23 18 9 19 11 20 10 21 12 22 13 23 21 24
REMARK SMILES IDX 14 25 20 26 22 27 15 28 19 29 16 30 18 31 17 32 32 33 33 34
REMARK SMILES IDX 34 35 35 36 36 37 37 38 89 39 38 40 88 41 39 42 40 43 41 44
REMARK SMILES IDX 82 45 42 46 87 47 81 48 83 49 43 50 86 51 80 52 79 53 44 55
REMARK SMILES IDX 70 56 53 57 69 58 54 59 57 60 68 61 84 62 55 63 56 64 67 66
REMARK SMILES IDX 85 67 58 68 45 69 46 70 51 71 47 72 48 73 50 74 52 75 49 76
REMARK SMILES IDX 71 77 72 78 77 79 73 80 74 81 76 82 78 83 75 84 59 85 60 86
REMARK SMILES IDX 65 87 61 88 62 89 64 90 66 91 63 92
REMARK H PARENT 4 14 83 54 57 65
REMARK Flexibility Score: inf
ROOT
ATOM      1  C   UNL A   1      32.082  29.997  25.966  1.00  0.00     0.275 C 
ENDROOT
BRANCH   1   2
ATOM      2  O   UNL A   1      32.862  29.336  24.919  1.00  0.00    -0.458 OA
BRANCH   2   3
ATOM      3  C   UNL A   1      33.318  28.087  25.108  1.00  0.00     0.338 C 
ATOM      4  O   UNL A   1      34.321  27.840  25.756  1.00  0.00    -0.246 OA
BRANCH   3   5
ATOM      5  C   UNL A   1      32.629  26.973  24.389  1.00  0.00     0.065 A 
ATOM      6  C   UNL A   1      30.806  26.497  26.111  1.00  0.00     0.047 C 
ATOM      7  C   UNL A   1      31.551  26.189  24.842  1.00  0.00    -0.013 A 
ATOM      8  C   UNL A   1      31.287  24.994  24.119  1.00  0.00     0.045 A 
ATOM      9  C   UNL A   1      31.810  24.791  22.836  1.00  0.00     0.026 A 
ATOM     10  C   UNL A   1      33.273  26.622  23.178  1.00  0.00     0.016 A 
ATOM     11  C   UNL A   1      32.817  25.603  22.363  1.00  0.00     0.003 A 
BRANCH   8  12
ATOM     12  N   UNL A   1      30.590  23.937  24.733  1.00  0.00    -0.322 N 
ATOM     13  C   UNL A   1      31.068  22.851  25.451  1.00  0.00     0.255 C 
ATOM     14  H   UNL A   1      29.610  23.974  24.639  1.00  0.00     0.170 HD
ATOM     15  O   UNL A   1      30.277  21.943  25.715  1.00  0.00    -0.269 OA
BRANCH  13  16
ATOM     16  C   UNL A   1      32.457  22.767  26.023  1.00  0.00     0.040 A 
ATOM     17  C   UNL A   1      32.582  22.627  27.411  1.00  0.00     0.014 A 
ATOM     18  C   UNL A   1      33.624  22.972  25.269  1.00  0.00     0.022 A 
ATOM     19  C   UNL A   1      33.839  22.638  28.021  1.00  0.00     0.001 A 
ATOM     20  C   UNL A   1      34.902  22.977  25.868  1.00  0.00    -0.010 A 
ATOM     21  C   UNL A   1      34.993  22.798  27.253  1.00  0.00     0.009 A 
BRANCH  20  22
ATOM     22  C   UNL A   1      36.143  23.416  25.158  1.00  0.00     0.068 A 
ATOM     23  C   UNL A   1      37.352  23.420  25.764  1.00  0.00     0.028 A 
ATOM     24  C   UNL A   1      36.254  22.724  23.828  1.00  0.00     0.344 A 
ATOM     25  C   UNL A   1      38.142  22.179  25.626  1.00  0.00     0.018 A 
ATOM     26  O   UNL A   1      36.561  21.376  23.960  1.00  0.00    -0.422 OA
ATOM     27  O   UNL A   1      35.971  23.269  22.771  1.00  0.00    -0.246 OA
ATOM     28  C   UNL A   1      39.364  21.984  26.250  1.00  0.00     0.012 A 
ATOM     29  C   UNL A   1      37.597  21.130  24.876  1.00  0.00     0.138 A 
ATOM     30  C   UNL A   1      39.955  20.717  26.198  1.00  0.00     0.001 A 
ATOM     31  C   UNL A   1      38.097  19.837  24.954  1.00  0.00     0.048 A 
ATOM     32  C   UNL A   1      39.280  19.627  25.648  1.00  0.00     0.004 A 
ENDBRANCH  20  22
ENDBRANCH  13  16
ENDBRANCH   8  12
ENDBRANCH   3   5
ENDBRANCH   2   3
ENDBRANCH   1   2
BRANCH   1  33
ATOM     33  C   UNL A   1      32.708  30.667  27.241  1.00  0.00     0.275 C 
BRANCH  33  34
ATOM     34  O   UNL A   1      34.032  30.402  27.823  1.00  0.00    -0.458 OA
BRANCH  34  35
ATOM     35  C   UNL A   1      35.050  31.294  28.037  1.00  0.00     0.338 C 
ATOM     36  O   UNL A   1      35.022  32.463  27.787  1.00  0.00    -0.246 OA
BRANCH  35  37
ATOM     37  C   UNL A   1      36.289  30.596  28.417  1.00  0.00     0.060 A 
ATOM     38  C   UNL A   1      36.419  29.975  29.668  1.00  0.00     0.016 A 
ATOM     39  C   UNL A   1      37.242  30.454  27.422  1.00  0.00     0.016 A 
ATOM     40  C   UNL A   1      37.460  29.079  29.868  1.00  0.00     0.010 A 
ATOM     41  C   UNL A   1      38.141  29.440  27.537  1.00  0.00     0.010 A 
ATOM     42  C   UNL A   1      38.294  28.816  28.782  1.00  0.00    -0.014 A 
BRANCH  42  43
ATOM     43  C   UNL A   1      39.653  28.348  28.925  1.00  0.00     0.031 A 
ATOM     44  C   UNL A   1      40.045  27.001  28.522  1.00  0.00     0.074 A 
ATOM     45  C   UNL A   1      40.457  29.421  29.107  1.00  0.00     0.049 A 
ATOM     46  N   UNL A   1      41.112  26.415  28.926  1.00  0.00    -0.248 NA
ATOM     47  C   UNL A   1      39.235  26.165  27.641  1.00  0.00     0.031 C 
ATOM     48  C   UNL A   1      41.865  29.640  28.878  1.00  0.00     0.029 A 
ATOM     49  N   UNL A   1      40.015  30.642  29.646  1.00  0.00    -0.354 N 
ATOM     50  C   UNL A   1      41.323  25.339  28.086  1.00  0.00     0.074 A 
ATOM     51  C   UNL A   1      40.050  25.121  27.442  1.00  0.00     0.031 C 
ATOM     52  C   UNL A   1      42.229  30.750  29.557  1.00  0.00     0.029 A 
ATOM     53  C   UNL A   1      41.076  31.200  30.340  1.00  0.00     0.049 A 
ATOM     54  H   UNL A   1      39.115  31.031  29.548  1.00  0.00     0.167 HD
ATOM     55  C   UNL A   1      42.611  24.926  27.884  1.00  0.00     0.037 A 
ATOM     56  C   UNL A   1      40.958  31.180  31.701  1.00  0.00     0.037 A 
ATOM     57  C   UNL A   1      43.515  25.806  28.640  1.00  0.00     0.049 A 
ATOM     58  C   UNL A   1      41.905  30.152  32.272  1.00  0.00     0.074 A 
ATOM     59  C   UNL A   1      44.230  26.927  28.247  1.00  0.00     0.029 A 
ATOM     60  N   UNL A   1      43.446  25.853  30.031  1.00  0.00    -0.354 N 
ATOM     61  N   UNL A   1      42.285  29.070  31.644  1.00  0.00    -0.248 NA
ATOM     62  C   UNL A   1      42.564  30.324  33.558  1.00  0.00     0.031 C 
ATOM     63  C   UNL A   1      44.487  27.707  29.405  1.00  0.00     0.029 A 
ATOM     64  C   UNL A   1      43.940  27.059  30.502  1.00  0.00     0.049 A 
ATOM     65  H   UNL A   1      43.096  25.130  30.601  1.00  0.00     0.167 HD
ATOM     66  C   UNL A   1      43.270  28.458  32.361  1.00  0.00     0.074 A 
ATOM     67  C   UNL A   1      43.393  29.267  33.564  1.00  0.00     0.031 C 
ATOM     68  C   UNL A   1      43.947  27.353  31.929  1.00  0.00     0.037 A 
BRANCH  55  69
ATOM     69  C   UNL A   1      43.104  24.008  26.775  1.00  0.00     0.057 A 
ATOM     70  C   UNL A   1      43.123  22.608  26.968  1.00  0.00     0.134 A 
ATOM     71  C   UNL A   1      43.587  24.409  25.516  1.00  0.00     0.134 A 
ATOM     72  F   UNL A   1      42.612  22.043  28.069  1.00  0.00    -0.206 F 
ATOM     73  C   UNL A   1      43.657  21.704  26.037  1.00  0.00     0.040 A 
ATOM     74  C   UNL A   1      44.149  23.518  24.583  1.00  0.00     0.040 A 
ATOM     75  F   UNL A   1      43.499  25.673  25.090  1.00  0.00    -0.206 F 
ATOM     76  C   UNL A   1      44.195  22.159  24.846  1.00  0.00     0.006 A 
ENDBRANCH  55  69
BRANCH  56  77
ATOM     77  C   UNL A   1      39.565  31.475  32.207  1.00  0.00     0.057 A 
ATOM     78  C   UNL A   1      38.817  30.430  32.799  1.00  0.00     0.134 A 
ATOM     79  C   UNL A   1      39.034  32.760  32.357  1.00  0.00     0.134 A 
ATOM     80  F   UNL A   1      39.245  29.160  32.711  1.00  0.00    -0.206 F 
ATOM     81  C   UNL A   1      37.665  30.657  33.565  1.00  0.00     0.040 A 
ATOM     82  C   UNL A   1      37.864  32.999  33.104  1.00  0.00     0.040 A 
ATOM     83  F   UNL A   1      39.666  33.827  31.847  1.00  0.00    -0.206 F 
ATOM     84  C   UNL A   1      37.190  31.951  33.730  1.00  0.00     0.006 A 
ENDBRANCH  56  77
BRANCH  68  85
ATOM     85  C   UNL A   1      44.770  26.482  32.832  1.00  0.00     0.057 A 
ATOM     86  C   UNL A   1      44.210  25.670  33.827  1.00  0.00     0.134 A 
ATOM     87  C   UNL A   1      46.148  26.297  32.596  1.00  0.00     0.134 A 
ATOM     88  F   UNL A   1      42.891  25.657  34.065  1.00  0.00    -0.206 F 
ATOM     89  C   UNL A   1      44.978  24.786  34.586  1.00  0.00     0.040 A 
ATOM     90  C   UNL A   1      46.910  25.367  33.300  1.00  0.00     0.040 A 
ATOM     91  F   UNL A   1      46.803  26.986  31.649  1.00  0.00    -0.206 F 
ATOM     92  C   UNL A   1      46.330  24.621  34.314  1.00  0.00     0.006 A 
ENDBRANCH  68  85
ENDBRANCH  42  43
ENDBRANCH  35  37
ENDBRANCH  34  35
ENDBRANCH  33  34
ENDBRANCH   1  33
TORSDOF 14
ENDMDL
MODEL 2
REMARK VINA RESULT:     -13.2      2.563      8.526
REMARK SMILES Cc1c(NC(=O)c2cccc(-c3cc4ccccc4oc3=O)c2)cccc1C(=O)OCCOC(=O)c1ccc(-c2c3nc(c(-c4c(F)cccc4F)c4ccc([nH]4)c(-c4c(F)cccc4F)c4nc(c(-c5c(F)cccc5F)c5ccc2[nH]5)C=C4)C=C3)cc1
REMARK SMILES IDX 31 1 30 2 28 3 29 4 27 5 1 6 2 7 3 8 24 9 26 10 25 11 4 12
REMARK SMILES IDX 5 13 6 15 7 16 8 17 23 18 9 19 11 20 10 21 12 22 13 23 21 24
REMARK SMILES IDX 14 25 20 26 22 27 15 28 19 29 16 30 18 31 17 32 32 33 33 34
REMARK SMILES IDX 34 35 35 36 36 37 37 38 89 39 38 40 88 41 39 42 40 43 41 44
REMARK SMILES IDX 82 45 42 46 87 47 81 48 83 49 43 50 86 51 80 52 79 53 44 55
REMARK SMILES IDX 70 56 53 57 69 58 54 59 57 60 68 61 84 62 55 63 56 64 67 66
REMARK SMILES IDX 85 67 58 68 45 69 46 70 51 71 47 72 48 73 50 74 52 75 49 76
REMARK SMILES IDX 71 77 72 78 77 79 73 80 74 81 76 82 78 83 75 84 59 85 60 86
REMARK SMILES IDX 65 87 61 88 62 89 64 90 66 91 63 92
REMARK H PARENT 4 14 83 54 57 65
REMARK Flexibility Score: inf
ROOT
ATOM      1  C   UNL A   1      37.002  23.220  25.085  1.00  0.00     0.275 C 
ENDROOT
BRANCH   1   2
ATOM      2  O   UNL A   1      35.827  23.747  25.779  1.00  0.00    -0.458 OA
BRANCH   2   3
ATOM      3  C   UNL A   1      34.786  22.941  26.044  1.00  0.00     0.338 C 
ATOM      4  O   UNL A   1      34.901  21.888  26.649  1.00  0.00    -0.246 OA
BRANCH   3   5
ATOM      5  C   UNL A   1      33.456  23.300  25.464  1.00  0.00     0.065 A 
ATOM      6  C   UNL A   1      34.024  22.943  23.001  1.00  0.00     0.047 C 
ATOM      7  C   UNL A   1      33.104  23.386  24.103  1.00  0.00    -0.013 A 
ATOM      8  C   UNL A   1      31.885  24.055  23.804  1.00  0.00     0.045 A 
ATOM      9  C   UNL A   1      30.921  24.284  24.794  1.00  0.00     0.026 A 
ATOM     10  C   UNL A   1      32.529  23.730  26.442  1.00  0.00     0.016 A 
ATOM     11  C   UNL A   1      31.245  24.131  26.124  1.00  0.00     0.003 A 
BRANCH   8  12
ATOM     12  N   UNL A   1      31.678  24.607  22.527  1.00  0.00    -0.322 N 
ATOM     13  C   UNL A   1      31.834  25.911  22.083  1.00  0.00     0.255 C 
ATOM     14  H   UNL A   1      31.374  23.968  21.842  1.00  0.00     0.170 HD
ATOM     15  O   UNL A   1      31.391  26.196  20.968  1.00  0.00    -0.269 OA
BRANCH  13  16
ATOM     16  C   UNL A   1      32.610  26.965  22.826  1.00  0.00     0.040 A 
ATOM     17  C   UNL A   1      33.628  27.632  22.135  1.00  0.00     0.014 A 
ATOM     18  C   UNL A   1      32.473  27.207  24.203  1.00  0.00     0.022 A 
ATOM     19  C   UNL A   1      34.451  28.555  22.787  1.00  0.00     0.001 A 
ATOM     20  C   UNL A   1      33.289  28.141  24.875  1.00  0.00    -0.010 A 
ATOM     21  C   UNL A   1      34.273  28.818  24.146  1.00  0.00     0.009 A 
BRANCH  20  22
ATOM     22  C   UNL A   1      33.341  28.268  26.365  1.00  0.00     0.068 A 
ATOM     23  C   UNL A   1      34.124  29.184  26.979  1.00  0.00     0.028 A 
ATOM     24  C   UNL A   1      31.950  28.340  26.930  1.00  0.00     0.344 A 
ATOM     25  C   UNL A   1      33.490  30.491  27.249  1.00  0.00     0.018 A 
ATOM     26  O   UNL A   1      31.329  29.550  26.645  1.00  0.00    -0.422 OA
ATOM     27  O   UNL A   1      31.399  27.386  27.460  1.00  0.00    -0.246 OA
ATOM     28  C   UNL A   1      34.171  31.566  27.797  1.00  0.00     0.012 A 
ATOM     29  C   UNL A   1      32.151  30.664  26.876  1.00  0.00     0.138 A 
ATOM     30  C   UNL A   1      33.533  32.809  27.859  1.00  0.00     0.001 A 
ATOM     31  C   UNL A   1      31.573  31.923  26.788  1.00  0.00     0.048 A 
ATOM     32  C   UNL A   1      32.287  33.013  27.264  1.00  0.00     0.004 A 
ENDBRANCH  20  22
ENDBRANCH  13  16
ENDBRANCH   8  12
ENDBRANCH   3   5
ENDBRANCH   2   3
ENDBRANCH   1   2
BRANCH   1  33
ATOM     33  C   UNL A   1      38.075  22.287  25.751  1.00  0.00     0.275 C 
BRANCH  33  34
ATOM     34  O   UNL A   1      39.115  22.677  26.715  1.00  0.00    -0.458 OA
BRANCH  34  35
ATOM     35  C   UNL A   1      40.358  23.190  26.448  1.00  0.00     0.338 C 
ATOM     36  O   UNL A   1      41.289  22.579  26.013  1.00  0.00    -0.246 OA
BRANCH  35  37
ATOM     37  C   UNL A   1      40.485  24.560  26.972  1.00  0.00     0.060 A 
ATOM     38  C   UNL A   1      40.960  25.605  26.167  1.00  0.00     0.016 A 
ATOM     39  C   UNL A   1      39.964  24.782  28.235  1.00  0.00     0.016 A 
ATOM     40  C   UNL A   1      40.775  26.914  26.587  1.00  0.00     0.010 A 
ATOM     41  C   UNL A   1      39.603  26.052  28.565  1.00  0.00     0.010 A 
ATOM     42  C   UNL A   1      40.078  27.110  27.779  1.00  0.00    -0.014 A 
BRANCH  42  43
ATOM     43  C   UNL A   1      40.230  28.290  28.598  1.00  0.00     0.031 A 
ATOM     44  C   UNL A   1      39.197  29.321  28.654  1.00  0.00     0.074 A 
ATOM     45  C   UNL A   1      41.219  28.065  29.493  1.00  0.00     0.049 A 
ATOM     46  N   UNL A   1      39.402  30.517  29.067  1.00  0.00    -0.248 NA
ATOM     47  C   UNL A   1      37.826  29.100  28.205  1.00  0.00     0.031 C 
ATOM     48  C   UNL A   1      41.523  28.639  30.782  1.00  0.00     0.029 A 
ATOM     49  N   UNL A   1      42.265  27.148  29.283  1.00  0.00    -0.354 N 
ATOM     50  C   UNL A   1      38.163  31.078  29.307  1.00  0.00     0.074 A 
ATOM     51  C   UNL A   1      37.235  30.241  28.585  1.00  0.00     0.031 C 
ATOM     52  C   UNL A   1      42.802  28.325  31.086  1.00  0.00     0.029 A 
ATOM     53  C   UNL A   1      43.386  27.640  29.930  1.00  0.00     0.049 A 
ATOM     54  H   UNL A   1      42.210  26.310  28.770  1.00  0.00     0.167 HD
ATOM     55  C   UNL A   1      38.071  32.043  30.272  1.00  0.00     0.037 A 
ATOM     56  C   UNL A   1      44.370  28.118  29.111  1.00  0.00     0.037 A 
ATOM     57  C   UNL A   1      39.398  32.238  30.874  1.00  0.00     0.049 A 
ATOM     58  C   UNL A   1      44.400  29.626  29.192  1.00  0.00     0.074 A 
ATOM     59  C   UNL A   1      39.962  31.701  32.022  1.00  0.00     0.029 A 
ATOM     60  N   UNL A   1      40.457  32.709  30.101  1.00  0.00    -0.354 N 
ATOM     61  N   UNL A   1      43.357  30.372  29.448  1.00  0.00    -0.248 NA
ATOM     62  C   UNL A   1      45.634  30.391  29.081  1.00  0.00     0.031 C 
ATOM     63  C   UNL A   1      41.374  31.748  31.875  1.00  0.00     0.029 A 
ATOM     64  C   UNL A   1      41.670  32.321  30.648  1.00  0.00     0.049 A 
ATOM     65  H   UNL A   1      40.358  33.244  29.280  1.00  0.00     0.167 HD
ATOM     66  C   UNL A   1      43.762  31.663  29.624  1.00  0.00     0.074 A 
ATOM     67  C   UNL A   1      45.192  31.629  29.359  1.00  0.00     0.031 C 
ATOM     68  C   UNL A   1      42.925  32.675  29.999  1.00  0.00     0.037 A 
BRANCH  55  69
ATOM     69  C   UNL A   1      36.795  32.550  30.927  1.00  0.00     0.057 A 
ATOM     70  C   UNL A   1      36.068  33.610  30.340  1.00  0.00     0.134 A 
ATOM     71  C   UNL A   1      36.229  32.074  32.124  1.00  0.00     0.134 A 
ATOM     72  F   UNL A   1      36.408  34.122  29.150  1.00  0.00    -0.206 F 
ATOM     73  C   UNL A   1      34.942  34.201  30.934  1.00  0.00     0.040 A 
ATOM     74  C   UNL A   1      35.116  32.673  32.744  1.00  0.00     0.040 A 
ATOM     75  F   UNL A   1      36.680  30.976  32.737  1.00  0.00    -0.206 F 
ATOM     76  C   UNL A   1      34.473  33.748  32.154  1.00  0.00     0.006 A 
ENDBRANCH  55  69
BRANCH  56  77
ATOM     77  C   UNL A   1      44.592  27.297  27.864  1.00  0.00     0.057 A 
ATOM     78  C   UNL A   1      44.193  27.827  26.614  1.00  0.00     0.134 A 
ATOM     79  C   UNL A   1      45.382  26.144  27.807  1.00  0.00     0.134 A 
ATOM     80  F   UNL A   1      43.433  28.933  26.563  1.00  0.00    -0.206 F 
ATOM     81  C   UNL A   1      44.623  27.299  25.389  1.00  0.00     0.040 A 
ATOM     82  C   UNL A   1      45.802  25.588  26.583  1.00  0.00     0.040 A 
ATOM     83  F   UNL A   1      45.827  25.562  28.930  1.00  0.00    -0.206 F 
ATOM     84  C   UNL A   1      45.443  26.179  25.371  1.00  0.00     0.006 A 
ENDBRANCH  56  77
BRANCH  68  85
ATOM     85  C   UNL A   1      43.272  34.128  29.861  1.00  0.00     0.057 A 
ATOM     86  C   UNL A   1      43.297  34.793  28.628  1.00  0.00     0.134 A 
ATOM     87  C   UNL A   1      43.410  34.948  31.001  1.00  0.00     0.134 A 
ATOM     88  F   UNL A   1      43.054  34.150  27.477  1.00  0.00    -0.206 F 
ATOM     89  C   UNL A   1      43.516  36.168  28.528  1.00  0.00     0.040 A 
ATOM     90  C   UNL A   1      43.559  36.331  30.915  1.00  0.00     0.040 A 
ATOM     91  F   UNL A   1      43.370  34.445  32.244  1.00  0.00    -0.206 F 
ATOM     92  C   UNL A   1      43.632  36.944  29.674  1.00  0.00     0.006 A 
ENDBRANCH  68  85
ENDBRANCH  42  43
ENDBRANCH  35  37
ENDBRANCH  34  35
ENDBRANCH  33  34
ENDBRANCH   1  33
TORSDOF 14
ENDMDL
MODEL 3
REMARK VINA RESULT:     -13.1      2.678      4.938
REMARK SMILES Cc1c(NC(=O)c2cccc(-c3cc4ccccc4oc3=O)c2)cccc1C(=O)OCCOC(=O)c1ccc(-c2c3nc(c(-c4c(F)cccc4F)c4ccc([nH]4)c(-c4c(F)cccc4F)c4nc(c(-c5c(F)cccc5F)c5ccc2[nH]5)C=C4)C=C3)cc1
REMARK SMILES IDX 31 1 30 2 28 3 29 4 27 5 1 6 2 7 3 8 24 9 26 10 25 11 4 12
REMARK SMILES IDX 5 13 6 15 7 16 8 17 23 18 9 19 11 20 10 21 12 22 13 23 21 24
REMARK SMILES IDX 14 25 20 26 22 27 15 28 19 29 16 30 18 31 17 32 32 33 33 34
REMARK SMILES IDX 34 35 35 36 36 37 37 38 89 39 38 40 88 41 39 42 40 43 41 44
REMARK SMILES IDX 82 45 42 46 87 47 81 48 83 49 43 50 86 51 80 52 79 53 44 55
REMARK SMILES IDX 70 56 53 57 69 58 54 59 57 60 68 61 84 62 55 63 56 64 67 66
REMARK SMILES IDX 85 67 58 68 45 69 46 70 51 71 47 72 48 73 50 74 52 75 49 76
REMARK SMILES IDX 71 77 72 78 77 79 73 80 74 81 76 82 78 83 75 84 59 85 60 86
REMARK SMILES IDX 65 87 61 88 62 89 64 90 66 91 63 92
REMARK H PARENT 4 14 83 54 57 65
REMARK Flexibility Score: inf
ROOT
ATOM      1  C   UNL A   1      32.904  35.526  29.503  1.00  0.00     0.275 C 
ENDROOT
BRANCH   1   2
ATOM      2  O   UNL A   1      32.955  34.196  28.896  1.00  0.00    -0.458 OA
BRANCH   2   3
ATOM      3  C   UNL A   1      33.957  33.876  28.061  1.00  0.00     0.338 C 
ATOM      4  O   UNL A   1      34.619  34.713  27.470  1.00  0.00    -0.246 OA
BRANCH   3   5
ATOM      5  C   UNL A   1      34.182  32.430  27.757  1.00  0.00     0.065 A 
ATOM      6  C   UNL A   1      31.789  31.815  27.114  1.00  0.00     0.047 C 
ATOM      7  C   UNL A   1      33.220  31.463  27.406  1.00  0.00    -0.013 A 
ATOM      8  C   UNL A   1      33.630  30.103  27.485  1.00  0.00     0.045 A 
ATOM      9  C   UNL A   1      34.986  29.756  27.543  1.00  0.00     0.026 A 
ATOM     10  C   UNL A   1      35.512  32.018  28.008  1.00  0.00     0.016 A 
ATOM     11  C   UNL A   1      35.935  30.715  27.816  1.00  0.00     0.003 A 
BRANCH   8  12
ATOM     12  N   UNL A   1      32.670  29.084  27.626  1.00  0.00    -0.322 N 
ATOM     13  C   UNL A   1      32.090  28.267  26.668  1.00  0.00     0.255 C 
ATOM     14  H   UNL A   1      32.363  28.927  28.549  1.00  0.00     0.170 HD
ATOM     15  O   UNL A   1      31.119  27.586  27.004  1.00  0.00    -0.269 OA
BRANCH  13  16
ATOM     16  C   UNL A   1      32.643  28.074  25.282  1.00  0.00     0.040 A 
ATOM     17  C   UNL A   1      32.446  29.103  24.353  1.00  0.00     0.014 A 
ATOM     18  C   UNL A   1      33.206  26.869  24.829  1.00  0.00     0.022 A 
ATOM     19  C   UNL A   1      32.848  28.953  23.023  1.00  0.00     0.001 A 
ATOM     20  C   UNL A   1      33.625  26.705  23.491  1.00  0.00    -0.010 A 
ATOM     21  C   UNL A   1      33.447  27.767  22.598  1.00  0.00     0.009 A 
BRANCH  20  22
ATOM     22  C   UNL A   1      34.012  25.383  22.906  1.00  0.00     0.068 A 
ATOM     23  C   UNL A   1      34.486  24.373  23.670  1.00  0.00     0.028 A 
ATOM     24  C   UNL A   1      32.915  24.865  22.018  1.00  0.00     0.344 A 
ATOM     25  C   UNL A   1      33.472  23.437  24.196  1.00  0.00     0.018 A 
ATOM     26  O   UNL A   1      31.805  24.449  22.742  1.00  0.00    -0.422 OA
ATOM     27  O   UNL A   1      32.961  24.936  20.798  1.00  0.00    -0.246 OA
ATOM     28  C   UNL A   1      33.775  22.396  25.059  1.00  0.00     0.012 A 
ATOM     29  C   UNL A   1      32.132  23.654  23.851  1.00  0.00     0.138 A 
ATOM     30  C   UNL A   1      32.728  21.670  25.636  1.00  0.00     0.001 A 
ATOM     31  C   UNL A   1      31.091  23.046  24.539  1.00  0.00     0.048 A 
ATOM     32  C   UNL A   1      31.399  22.057  25.463  1.00  0.00     0.004 A 
ENDBRANCH  20  22
ENDBRANCH  13  16
ENDBRANCH   8  12
ENDBRANCH   3   5
ENDBRANCH   2   3
ENDBRANCH   1   2
BRANCH   1  33
ATOM     33  C   UNL A   1      33.310  35.832  30.989  1.00  0.00     0.275 C 
BRANCH  33  34
ATOM     34  O   UNL A   1      34.339  35.148  31.788  1.00  0.00    -0.458 OA
BRANCH  34  35
ATOM     35  C   UNL A   1      34.324  33.857  32.248  1.00  0.00     0.338 C 
ATOM     36  O   UNL A   1      33.467  33.361  32.919  1.00  0.00    -0.246 OA
BRANCH  35  37
ATOM     37  C   UNL A   1      35.616  33.197  32.001  1.00  0.00     0.060 A 
ATOM     38  C   UNL A   1      36.573  33.767  31.149  1.00  0.00     0.016 A 
ATOM     39  C   UNL A   1      35.890  32.080  32.772  1.00  0.00     0.016 A 
ATOM     40  C   UNL A   1      37.875  33.287  31.183  1.00  0.00     0.010 A 
ATOM     41  C   UNL A   1      37.192  31.733  32.957  1.00  0.00     0.010 A 
ATOM     42  C   UNL A   1      38.161  32.283  32.107  1.00  0.00    -0.014 A 
BRANCH  42  43
ATOM     43  C   UNL A   1      39.251  31.349  31.947  1.00  0.00     0.031 A 
ATOM     44  C   UNL A   1      39.151  30.203  31.048  1.00  0.00     0.074 A 
ATOM     45  C   UNL A   1      40.376  31.919  32.435  1.00  0.00     0.049 A 
ATOM     46  N   UNL A   1      39.912  29.173  31.114  1.00  0.00    -0.248 NA
ATOM     47  C   UNL A   1      38.141  30.098  30.000  1.00  0.00     0.031 C 
ATOM     48  C   UNL A   1      41.779  31.694  32.176  1.00  0.00     0.029 A 
ATOM     49  N   UNL A   1      40.377  32.924  33.419  1.00  0.00    -0.354 N 
ATOM     50  C   UNL A   1      39.765  28.487  29.926  1.00  0.00     0.074 A 
ATOM     51  C   UNL A   1      38.534  28.987  29.363  1.00  0.00     0.031 C 
ATOM     52  C   UNL A   1      42.483  32.267  33.177  1.00  0.00     0.029 A 
ATOM     53  C   UNL A   1      41.531  32.770  34.170  1.00  0.00     0.049 A 
ATOM     54  H   UNL A   1      39.685  33.611  33.550  1.00  0.00     0.167 HD
ATOM     55  C   UNL A   1      40.826  27.752  29.472  1.00  0.00     0.037 A 
ATOM     56  C   UNL A   1      41.344  32.290  35.436  1.00  0.00     0.037 A 
ATOM     57  C   UNL A   1      41.945  27.908  30.413  1.00  0.00     0.049 A 
ATOM     58  C   UNL A   1      41.826  30.861  35.506  1.00  0.00     0.074 A 
ATOM     59  C   UNL A   1      43.036  28.764  30.392  1.00  0.00     0.029 A 
ATOM     60  N   UNL A   1      41.827  27.456  31.725  1.00  0.00    -0.354 N 
ATOM     61  N   UNL A   1      41.821  30.030  34.495  1.00  0.00    -0.248 NA
ATOM     62  C   UNL A   1      42.435  30.298  36.702  1.00  0.00     0.031 C 
ATOM     63  C   UNL A   1      43.497  28.913  31.727  1.00  0.00     0.029 A 
ATOM     64  C   UNL A   1      42.697  28.143  32.557  1.00  0.00     0.049 A 
ATOM     65  H   UNL A   1      41.211  26.748  32.022  1.00  0.00     0.167 HD
ATOM     66  C   UNL A   1      42.482  28.890  34.850  1.00  0.00     0.074 A 
ATOM     67  C   UNL A   1      42.826  29.095  36.248  1.00  0.00     0.031 C 
ATOM     68  C   UNL A   1      42.736  27.863  33.986  1.00  0.00     0.037 A 
BRANCH  55  69
ATOM     69  C   UNL A   1      41.011  27.202  28.066  1.00  0.00     0.057 A 
ATOM     70  C   UNL A   1      40.530  25.914  27.738  1.00  0.00     0.134 A 
ATOM     71  C   UNL A   1      41.657  27.849  26.997  1.00  0.00     0.134 A 
ATOM     72  F   UNL A   1      39.806  25.192  28.604  1.00  0.00    -0.206 F 
ATOM     73  C   UNL A   1      40.750  25.296  26.498  1.00  0.00     0.040 A 
ATOM     74  C   UNL A   1      41.909  27.233  25.757  1.00  0.00     0.040 A 
ATOM     75  F   UNL A   1      42.035  29.129  27.066  1.00  0.00    -0.206 F 
ATOM     76  C   UNL A   1      41.463  25.946  25.506  1.00  0.00     0.006 A 
ENDBRANCH  55  69
BRANCH  56  77
ATOM     77  C   UNL A   1      40.127  32.846  36.137  1.00  0.00     0.057 A 
ATOM     78  C   UNL A   1      38.982  32.026  36.275  1.00  0.00     0.134 A 
ATOM     79  C   UNL A   1      40.115  34.033  36.877  1.00  0.00     0.134 A 
ATOM     80  F   UNL A   1      38.899  30.865  35.606  1.00  0.00    -0.206 F 
ATOM     81  C   UNL A   1      37.935  32.323  37.159  1.00  0.00     0.040 A 
ATOM     82  C   UNL A   1      39.058  34.354  37.751  1.00  0.00     0.040 A 
ATOM     83  F   UNL A   1      41.153  34.880  36.831  1.00  0.00    -0.206 F 
ATOM     84  C   UNL A   1      37.977  33.488  37.912  1.00  0.00     0.006 A 
ENDBRANCH  56  77
BRANCH  68  85
ATOM     85  C   UNL A   1      43.142  26.489  34.432  1.00  0.00     0.057 A 
ATOM     86  C   UNL A   1      42.263  25.603  35.068  1.00  0.00     0.134 A 
ATOM     87  C   UNL A   1      44.392  25.950  34.062  1.00  0.00     0.134 A 
ATOM     88  F   UNL A   1      41.002  25.951  35.361  1.00  0.00    -0.206 F 
ATOM     89  C   UNL A   1      42.625  24.291  35.380  1.00  0.00     0.040 A 
ATOM     90  C   UNL A   1      44.737  24.622  34.306  1.00  0.00     0.040 A 
ATOM     91  F   UNL A   1      45.314  26.680  33.417  1.00  0.00    -0.206 F 
ATOM     92  C   UNL A   1      43.859  23.792  34.986  1.00  0.00     0.006 A 
ENDBRANCH  68  85
ENDBRANCH  42  43
ENDBRANCH  35  37
ENDBRANCH  34  35
ENDBRANCH  33  34
ENDBRANCH   1  33
TORSDOF 14
ENDMDL
