MODEL 1
REMARK VINA RESULT:     -12.5      0.000      0.000
REMARK SMILES C[C@]12CCC[C@](C)(C(=O)OCCOC(=O)c3ccc(-c4c5nc(c(-c6c(F)cccc6F)c6ccc([nH]6)c(-c6c(F)cccc6F)c6nc(c(-c7c(F)cccc7F)c7ccc4[nH]7)C=C6)C=C5)cc3)[C@@H]1CC[C@]13C=C(CO)[C@H](CC[C@@H]12)C3
REMARK SMILES IDX 11 1 10 2 8 3 9 4 6 5 1 6 2 7 3 8 70 9 81 10 4 11 71 12
REMARK SMILES IDX 73 13 80 14 5 15 7 16 72 17 74 18 82 19 79 20 75 21 78 22
REMARK SMILES IDX 76 23 77 24 12 26 13 27 14 28 15 29 16 30 17 31 69 32 18 33
REMARK SMILES IDX 68 34 19 35 20 36 21 37 62 38 22 39 67 40 61 41 63 42 23 43
REMARK SMILES IDX 66 44 60 45 59 46 24 48 50 49 33 50 49 51 34 52 37 53 48 54
REMARK SMILES IDX 64 55 35 56 36 57 47 59 65 60 38 61 25 62 26 63 31 64 27 65
REMARK SMILES IDX 28 66 30 67 32 68 29 69 51 70 52 71 57 72 53 73 54 74 56 75
REMARK SMILES IDX 58 76 55 77 39 78 40 79 45 80 41 81 42 82 44 83 46 84 43 85
REMARK H PARENT 77 25 63 47 37 58
REMARK Flexibility Score: inf
ROOT
ATOM      1  C   UNL A   1      35.744  22.665  23.466  1.00  0.00     0.274 C 
ENDROOT
BRANCH   1   2
ATOM      2  O   UNL A   1      34.738  23.761  23.461  1.00  0.00    -0.462 OA
BRANCH   2   3
ATOM      3  C   UNL A   1      33.536  23.794  22.756  1.00  0.00     0.312 C 
ATOM      4  O   UNL A   1      33.457  23.814  21.535  1.00  0.00    -0.252 OA
BRANCH   3   5
ATOM      5  C   UNL A   1      32.314  23.592  23.740  1.00  0.00     0.069 C 
ATOM      6  C   UNL A   1      33.452  25.408  26.182  1.00  0.00     0.012 C 
ATOM      7  C   UNL A   1      32.010  25.478  25.640  1.00  0.00    -0.025 C 
ATOM      8  C   UNL A   1      31.144  24.479  26.412  1.00  0.00     0.007 C 
ATOM      9  C   UNL A   1      31.860  25.054  24.153  1.00  0.00     0.012 C 
ATOM     10  C   UNL A   1      31.475  26.958  25.682  1.00  0.00     0.005 C 
ATOM     11  C   UNL A   1      31.733  23.070  26.324  1.00  0.00     0.002 C 
ATOM     12  C   UNL A   1      32.505  26.151  23.295  1.00  0.00     0.006 C 
ATOM     13  C   UNL A   1      32.351  27.978  24.852  1.00  0.00    -0.008 C 
ATOM     14  C   UNL A   1      30.968  27.525  27.009  1.00  0.00     0.006 C 
ATOM     15  C   UNL A   1      32.462  22.671  25.004  1.00  0.00     0.019 C 
ATOM     16  C   UNL A   1      31.335  22.772  22.841  1.00  0.00     0.024 C 
ATOM     17  C   UNL A   1      32.207  27.623  23.417  1.00  0.00     0.012 C 
ATOM     18  C   UNL A   1      33.796  28.145  25.226  1.00  0.00    -0.018 C 
ATOM     19  C   UNL A   1      31.931  29.394  25.172  1.00  0.00     0.019 C 
ATOM     20  C   UNL A   1      31.882  28.569  27.626  1.00  0.00     0.008 C 
ATOM     21  C   UNL A   1      33.903  28.976  26.266  1.00  0.00    -0.045 C 
ATOM     22  C   UNL A   1      32.534  29.516  26.593  1.00  0.00     0.018 C 
BRANCH  21  23
ATOM     23  C   UNL A   1      35.152  29.326  26.977  1.00  0.00     0.187 C 
BRANCH  23  24
ATOM     24  O   UNL A   1      35.193  30.718  27.251  1.00  0.00    -0.392 OA
ATOM     25  H   UNL A   1      36.085  30.963  27.545  1.00  0.00     0.211 HD
ENDBRANCH  23  24
ENDBRANCH  21  23
ENDBRANCH   3   5
ENDBRANCH   2   3
ENDBRANCH   1   2
BRANCH   1  26
ATOM     26  C   UNL A   1      35.375  21.467  24.507  1.00  0.00     0.275 C 
BRANCH  26  27
ATOM     27  O   UNL A   1      36.265  21.156  25.694  1.00  0.00    -0.458 OA
BRANCH  27  28
ATOM     28  C   UNL A   1      37.608  20.833  25.528  1.00  0.00     0.338 C 
ATOM     29  O   UNL A   1      37.986  19.820  24.991  1.00  0.00    -0.246 OA
BRANCH  28  30
ATOM     30  C   UNL A   1      38.625  21.948  25.907  1.00  0.00     0.060 A 
ATOM     31  C   UNL A   1      38.242  23.299  25.768  1.00  0.00     0.016 A 
ATOM     32  C   UNL A   1      39.907  21.746  26.439  1.00  0.00     0.016 A 
ATOM     33  C   UNL A   1      39.038  24.383  26.276  1.00  0.00     0.010 A 
ATOM     34  C   UNL A   1      40.723  22.839  26.913  1.00  0.00     0.010 A 
ATOM     35  C   UNL A   1      40.294  24.182  26.894  1.00  0.00    -0.014 A 
BRANCH  35  36
ATOM     36  C   UNL A   1      41.219  25.368  27.264  1.00  0.00     0.031 A 
ATOM     37  C   UNL A   1      40.672  26.351  28.259  1.00  0.00     0.074 A 
ATOM     38  C   UNL A   1      42.444  25.704  26.766  1.00  0.00     0.049 A 
ATOM     39  N   UNL A   1      41.093  27.559  28.534  1.00  0.00    -0.248 NA
ATOM     40  C   UNL A   1      39.431  25.965  28.934  1.00  0.00     0.031 C 
ATOM     41  C   UNL A   1      43.108  25.023  25.689  1.00  0.00     0.029 A 
ATOM     42  N   UNL A   1      43.379  26.695  27.068  1.00  0.00    -0.354 N 
ATOM     43  C   UNL A   1      40.112  28.112  29.336  1.00  0.00     0.074 A 
ATOM     44  C   UNL A   1      39.079  27.110  29.489  1.00  0.00     0.031 C 
ATOM     45  C   UNL A   1      44.360  25.459  25.504  1.00  0.00     0.029 A 
ATOM     46  C   UNL A   1      44.578  26.603  26.361  1.00  0.00     0.049 A 
ATOM     47  H   UNL A   1      43.206  27.404  27.729  1.00  0.00     0.167 HD
ATOM     48  C   UNL A   1      40.059  29.348  29.885  1.00  0.00     0.037 A 
ATOM     49  C   UNL A   1      45.702  27.362  26.317  1.00  0.00     0.037 A 
ATOM     50  C   UNL A   1      41.081  30.349  29.755  1.00  0.00     0.049 A 
ATOM     51  C   UNL A   1      45.653  28.702  27.000  1.00  0.00     0.074 A 
ATOM     52  C   UNL A   1      41.088  31.639  30.252  1.00  0.00     0.029 A 
ATOM     53  N   UNL A   1      42.290  30.163  29.100  1.00  0.00    -0.354 N 
ATOM     54  N   UNL A   1      44.678  29.219  27.704  1.00  0.00    -0.248 NA
ATOM     55  C   UNL A   1      46.803  29.604  26.815  1.00  0.00     0.031 C 
ATOM     56  C   UNL A   1      42.309  32.231  29.912  1.00  0.00     0.029 A 
ATOM     57  C   UNL A   1      43.073  31.299  29.230  1.00  0.00     0.049 A 
ATOM     58  H   UNL A   1      42.552  29.347  28.615  1.00  0.00     0.167 HD
ATOM     59  C   UNL A   1      45.096  30.494  28.050  1.00  0.00     0.074 A 
ATOM     60  C   UNL A   1      46.424  30.672  27.504  1.00  0.00     0.031 C 
ATOM     61  C   UNL A   1      44.419  31.440  28.739  1.00  0.00     0.037 A 
BRANCH  48  62
ATOM     62  C   UNL A   1      38.809  29.648  30.651  1.00  0.00     0.057 A 
ATOM     63  C   UNL A   1      37.761  30.375  30.069  1.00  0.00     0.134 A 
ATOM     64  C   UNL A   1      38.717  29.348  32.015  1.00  0.00     0.134 A 
ATOM     65  F   UNL A   1      37.816  30.725  28.775  1.00  0.00    -0.206 F 
ATOM     66  C   UNL A   1      36.710  30.871  30.837  1.00  0.00     0.040 A 
ATOM     67  C   UNL A   1      37.646  29.803  32.784  1.00  0.00     0.040 A 
ATOM     68  F   UNL A   1      39.685  28.653  32.630  1.00  0.00    -0.206 F 
ATOM     69  C   UNL A   1      36.653  30.589  32.200  1.00  0.00     0.006 A 
ENDBRANCH  48  62
BRANCH  49  70
ATOM     70  C   UNL A   1      46.943  26.982  25.548  1.00  0.00     0.057 A 
ATOM     71  C   UNL A   1      47.958  26.218  26.154  1.00  0.00     0.134 A 
ATOM     72  C   UNL A   1      47.215  27.442  24.251  1.00  0.00     0.134 A 
ATOM     73  F   UNL A   1      47.807  25.775  27.412  1.00  0.00    -0.206 F 
ATOM     74  C   UNL A   1      49.181  25.954  25.522  1.00  0.00     0.040 A 
ATOM     75  C   UNL A   1      48.416  27.147  23.590  1.00  0.00     0.040 A 
ATOM     76  F   UNL A   1      46.324  28.202  23.601  1.00  0.00    -0.206 F 
ATOM     77  C   UNL A   1      49.410  26.414  24.230  1.00  0.00     0.006 A 
ENDBRANCH  49  70
BRANCH  61  78
ATOM     78  C   UNL A   1      45.136  32.715  29.047  1.00  0.00     0.057 A 
ATOM     79  C   UNL A   1      45.031  33.849  28.236  1.00  0.00     0.134 A 
ATOM     80  C   UNL A   1      45.869  32.826  30.236  1.00  0.00     0.134 A 
ATOM     81  F   UNL A   1      44.361  33.796  27.075  1.00  0.00    -0.206 F 
ATOM     82  C   UNL A   1      45.621  35.059  28.605  1.00  0.00     0.040 A 
ATOM     83  C   UNL A   1      46.445  34.033  30.624  1.00  0.00     0.040 A 
ATOM     84  F   UNL A   1      46.008  31.767  31.049  1.00  0.00    -0.206 F 
ATOM     85  C   UNL A   1      46.318  35.156  29.808  1.00  0.00     0.006 A 
ENDBRANCH  61  78
ENDBRANCH  35  36
ENDBRANCH  28  30
ENDBRANCH  27  28
ENDBRANCH  26  27
ENDBRANCH   1  26
TORSDOF 13
ENDMDL
MODEL 2
REMARK VINA RESULT:     -12.3      3.989      8.971
REMARK SMILES C[C@]12CCC[C@](C)(C(=O)OCCOC(=O)c3ccc(-c4c5nc(c(-c6c(F)cccc6F)c6ccc([nH]6)c(-c6c(F)cccc6F)c6nc(c(-c7c(F)cccc7F)c7ccc4[nH]7)C=C6)C=C5)cc3)[C@@H]1CC[C@]13C=C(CO)[C@H](CC[C@@H]12)C3
REMARK SMILES IDX 11 1 10 2 8 3 9 4 6 5 1 6 2 7 3 8 70 9 81 10 4 11 71 12
REMARK SMILES IDX 73 13 80 14 5 15 7 16 72 17 74 18 82 19 79 20 75 21 78 22
REMARK SMILES IDX 76 23 77 24 12 26 13 27 14 28 15 29 16 30 17 31 69 32 18 33
REMARK SMILES IDX 68 34 19 35 20 36 21 37 62 38 22 39 67 40 61 41 63 42 23 43
REMARK SMILES IDX 66 44 60 45 59 46 24 48 50 49 33 50 49 51 34 52 37 53 48 54
REMARK SMILES IDX 64 55 35 56 36 57 47 59 65 60 38 61 25 62 26 63 31 64 27 65
REMARK SMILES IDX 28 66 30 67 32 68 29 69 51 70 52 71 57 72 53 73 54 74 56 75
REMARK SMILES IDX 58 76 55 77 39 78 40 79 45 80 41 81 42 82 44 83 46 84 43 85
REMARK H PARENT 77 25 63 47 37 58
REMARK Flexibility Score: inf
ROOT
ATOM      1  C   UNL A   1      29.966  30.431  23.830  1.00  0.00     0.274 C 
ENDROOT
BRANCH   1   2
ATOM      2  O   UNL A   1      30.574  29.091  24.046  1.00  0.00    -0.462 OA
BRANCH   2   3
ATOM      3  C   UNL A   1      31.239  28.309  23.101  1.00  0.00     0.312 C 
ATOM      4  O   UNL A   1      30.787  28.034  21.998  1.00  0.00    -0.252 OA
BRANCH   3   5
ATOM      5  C   UNL A   1      32.719  28.013  23.574  1.00  0.00     0.069 C 
ATOM      6  C   UNL A   1      31.965  26.216  26.175  1.00  0.00     0.012 C 
ATOM      7  C   UNL A   1      33.043  25.842  25.136  1.00  0.00    -0.025 C 
ATOM      8  C   UNL A   1      34.383  26.433  25.581  1.00  0.00     0.007 C 
ATOM      9  C   UNL A   1      32.806  26.437  23.720  1.00  0.00     0.012 C 
ATOM     10  C   UNL A   1      33.071  24.284  24.908  1.00  0.00     0.005 C 
ATOM     11  C   UNL A   1      34.269  27.944  25.784  1.00  0.00     0.002 C 
ATOM     12  C   UNL A   1      31.604  25.706  23.110  1.00  0.00     0.006 C 
ATOM     13  C   UNL A   1      31.696  23.685  24.411  1.00  0.00    -0.008 C 
ATOM     14  C   UNL A   1      33.793  23.399  25.926  1.00  0.00     0.006 C 
ATOM     15  C   UNL A   1      33.300  28.729  24.846  1.00  0.00     0.019 C 
ATOM     16  C   UNL A   1      33.541  28.665  22.417  1.00  0.00     0.024 C 
ATOM     17  C   UNL A   1      31.451  24.208  23.043  1.00  0.00     0.012 C 
ATOM     18  C   UNL A   1      30.486  23.863  25.284  1.00  0.00    -0.018 C 
ATOM     19  C   UNL A   1      31.736  22.177  24.487  1.00  0.00     0.019 C 
ATOM     20  C   UNL A   1      32.864  22.561  26.786  1.00  0.00     0.008 C 
ATOM     21  C   UNL A   1      30.483  22.940  26.249  1.00  0.00    -0.045 C 
ATOM     22  C   UNL A   1      31.641  22.002  26.023  1.00  0.00     0.018 C 
BRANCH  21  23
ATOM     23  C   UNL A   1      29.503  22.836  27.353  1.00  0.00     0.187 C 
BRANCH  23  24
ATOM     24  O   UNL A   1      28.570  21.800  27.093  1.00  0.00    -0.392 OA
ATOM     25  H   UNL A   1      28.389  21.760  26.140  1.00  0.00     0.211 HD
ENDBRANCH  23  24
ENDBRANCH  21  23
ENDBRANCH   3   5
ENDBRANCH   2   3
ENDBRANCH   1   2
BRANCH   1  26
ATOM     26  C   UNL A   1      30.290  31.480  25.034  1.00  0.00     0.275 C 
BRANCH  26  27
ATOM     27  O   UNL A   1      31.403  31.215  26.028  1.00  0.00    -0.458 OA
BRANCH  27  28
ATOM     28  C   UNL A   1      32.016  32.253  26.723  1.00  0.00     0.338 C 
ATOM     29  O   UNL A   1      31.524  33.347  26.852  1.00  0.00    -0.246 OA
BRANCH  28  30
ATOM     30  C   UNL A   1      33.309  31.876  27.502  1.00  0.00     0.060 A 
ATOM     31  C   UNL A   1      34.080  32.903  28.085  1.00  0.00     0.016 A 
ATOM     32  C   UNL A   1      33.777  30.574  27.738  1.00  0.00     0.016 A 
ATOM     33  C   UNL A   1      35.171  32.635  28.981  1.00  0.00     0.010 A 
ATOM     34  C   UNL A   1      34.899  30.308  28.607  1.00  0.00     0.010 A 
ATOM     35  C   UNL A   1      35.596  31.323  29.295  1.00  0.00    -0.014 A 
BRANCH  35  36
ATOM     36  C   UNL A   1      36.886  31.057  30.109  1.00  0.00     0.031 A 
ATOM     37  C   UNL A   1      38.004  30.372  29.376  1.00  0.00     0.074 A 
ATOM     38  C   UNL A   1      37.145  31.286  31.428  1.00  0.00     0.049 A 
ATOM     39  N   UNL A   1      39.064  29.781  29.865  1.00  0.00    -0.248 NA
ATOM     40  C   UNL A   1      37.839  30.236  27.927  1.00  0.00     0.031 C 
ATOM     41  C   UNL A   1      36.187  31.775  32.381  1.00  0.00     0.029 A 
ATOM     42  N   UNL A   1      38.274  31.147  32.237  1.00  0.00    -0.354 N 
ATOM     43  C   UNL A   1      39.637  29.118  28.795  1.00  0.00     0.074 A 
ATOM     44  C   UNL A   1      38.799  29.375  27.643  1.00  0.00     0.031 C 
ATOM     45  C   UNL A   1      36.743  32.055  33.566  1.00  0.00     0.029 A 
ATOM     46  C   UNL A   1      38.119  31.613  33.543  1.00  0.00     0.049 A 
ATOM     47  H   UNL A   1      39.116  30.754  31.911  1.00  0.00     0.167 HD
ATOM     48  C   UNL A   1      40.750  28.348  28.769  1.00  0.00     0.037 A 
ATOM     49  C   UNL A   1      38.924  31.629  34.635  1.00  0.00     0.037 A 
ATOM     50  C   UNL A   1      41.600  28.095  29.898  1.00  0.00     0.049 A 
ATOM     51  C   UNL A   1      40.197  30.831  34.563  1.00  0.00     0.074 A 
ATOM     52  C   UNL A   1      42.728  27.298  29.963  1.00  0.00     0.029 A 
ATOM     53  N   UNL A   1      41.430  28.655  31.156  1.00  0.00    -0.354 N 
ATOM     54  N   UNL A   1      40.680  30.163  33.545  1.00  0.00    -0.248 NA
ATOM     55  C   UNL A   1      40.993  30.702  35.795  1.00  0.00     0.031 C 
ATOM     56  C   UNL A   1      43.252  27.386  31.257  1.00  0.00     0.029 A 
ATOM     57  C   UNL A   1      42.467  28.263  31.988  1.00  0.00     0.049 A 
ATOM     58  H   UNL A   1      40.685  29.242  31.419  1.00  0.00     0.167 HD
ATOM     59  C   UNL A   1      41.830  29.546  34.008  1.00  0.00     0.074 A 
ATOM     60  C   UNL A   1      41.996  29.933  35.392  1.00  0.00     0.031 C 
ATOM     61  C   UNL A   1      42.657  28.708  33.344  1.00  0.00     0.037 A 
BRANCH  48  62
ATOM     62  C   UNL A   1      41.054  27.719  27.445  1.00  0.00     0.057 A 
ATOM     63  C   UNL A   1      40.634  26.414  27.151  1.00  0.00     0.134 A 
ATOM     64  C   UNL A   1      41.899  28.355  26.528  1.00  0.00     0.134 A 
ATOM     65  F   UNL A   1      39.856  25.743  28.014  1.00  0.00    -0.206 F 
ATOM     66  C   UNL A   1      41.115  25.732  26.036  1.00  0.00     0.040 A 
ATOM     67  C   UNL A   1      42.353  27.696  25.386  1.00  0.00     0.040 A 
ATOM     68  F   UNL A   1      42.334  29.604  26.751  1.00  0.00    -0.206 F 
ATOM     69  C   UNL A   1      41.982  26.372  25.152  1.00  0.00     0.006 A 
ENDBRANCH  48  62
BRANCH  49  70
ATOM     70  C   UNL A   1      38.568  32.312  35.932  1.00  0.00     0.057 A 
ATOM     71  C   UNL A   1      38.900  33.664  36.146  1.00  0.00     0.134 A 
ATOM     72  C   UNL A   1      37.996  31.642  37.023  1.00  0.00     0.134 A 
ATOM     73  F   UNL A   1      39.494  34.373  35.175  1.00  0.00    -0.206 F 
ATOM     74  C   UNL A   1      38.705  34.300  37.381  1.00  0.00     0.040 A 
ATOM     75  C   UNL A   1      37.754  32.279  38.249  1.00  0.00     0.040 A 
ATOM     76  F   UNL A   1      37.672  30.345  36.928  1.00  0.00    -0.206 F 
ATOM     77  C   UNL A   1      38.123  33.608  38.437  1.00  0.00     0.006 A 
ENDBRANCH  49  70
BRANCH  61  78
ATOM     78  C   UNL A   1      43.884  28.239  34.058  1.00  0.00     0.057 A 
ATOM     79  C   UNL A   1      45.055  29.001  34.116  1.00  0.00     0.134 A 
ATOM     80  C   UNL A   1      43.848  27.038  34.778  1.00  0.00     0.134 A 
ATOM     81  F   UNL A   1      45.156  30.148  33.427  1.00  0.00    -0.206 F 
ATOM     82  C   UNL A   1      46.148  28.590  34.880  1.00  0.00     0.040 A 
ATOM     83  C   UNL A   1      44.925  26.628  35.561  1.00  0.00     0.040 A 
ATOM     84  F   UNL A   1      42.752  26.264  34.753  1.00  0.00    -0.206 F 
ATOM     85  C   UNL A   1      46.079  27.408  35.616  1.00  0.00     0.006 A 
ENDBRANCH  61  78
ENDBRANCH  35  36
ENDBRANCH  28  30
ENDBRANCH  27  28
ENDBRANCH  26  27
ENDBRANCH   1  26
TORSDOF 13
ENDMDL
MODEL 3
REMARK VINA RESULT:     -12.3      2.246      6.859
REMARK SMILES C[C@]12CCC[C@](C)(C(=O)OCCOC(=O)c3ccc(-c4c5nc(c(-c6c(F)cccc6F)c6ccc([nH]6)c(-c6c(F)cccc6F)c6nc(c(-c7c(F)cccc7F)c7ccc4[nH]7)C=C6)C=C5)cc3)[C@@H]1CC[C@]13C=C(CO)[C@H](CC[C@@H]12)C3
REMARK SMILES IDX 11 1 10 2 8 3 9 4 6 5 1 6 2 7 3 8 70 9 81 10 4 11 71 12
REMARK SMILES IDX 73 13 80 14 5 15 7 16 72 17 74 18 82 19 79 20 75 21 78 22
REMARK SMILES IDX 76 23 77 24 12 26 13 27 14 28 15 29 16 30 17 31 69 32 18 33
REMARK SMILES IDX 68 34 19 35 20 36 21 37 62 38 22 39 67 40 61 41 63 42 23 43
REMARK SMILES IDX 66 44 60 45 59 46 24 48 50 49 33 50 49 51 34 52 37 53 48 54
REMARK SMILES IDX 64 55 35 56 36 57 47 59 65 60 38 61 25 62 26 63 31 64 27 65
REMARK SMILES IDX 28 66 30 67 32 68 29 69 51 70 52 71 57 72 53 73 54 74 56 75
REMARK SMILES IDX 58 76 55 77 39 78 40 79 45 80 41 81 42 82 44 83 46 84 43 85
REMARK H PARENT 77 25 63 47 37 58
REMARK Flexibility Score: inf
ROOT
ATOM      1  C   UNL A   1      34.127  28.118  26.290  1.00  0.00     0.274 C 
ENDROOT
BRANCH   1   2
ATOM      2  O   UNL A   1      33.525  28.695  25.058  1.00  0.00    -0.462 OA
BRANCH   2   3
ATOM      3  C   UNL A   1      32.176  28.695  24.705  1.00  0.00     0.312 C 
ATOM      4  O   UNL A   1      31.318  29.360  25.271  1.00  0.00    -0.252 OA
BRANCH   3   5
ATOM      5  C   UNL A   1      31.958  27.890  23.360  1.00  0.00     0.069 C 
ATOM      6  C   UNL A   1      33.644  25.240  24.194  1.00  0.00     0.012 C 
ATOM      7  C   UNL A   1      32.252  25.218  23.529  1.00  0.00    -0.025 C 
ATOM      8  C   UNL A   1      32.432  25.199  22.009  1.00  0.00     0.007 C 
ATOM      9  C   UNL A   1      31.387  26.479  23.803  1.00  0.00     0.012 C 
ATOM     10  C   UNL A   1      31.392  24.023  24.089  1.00  0.00     0.005 C 
ATOM     11  C   UNL A   1      33.278  26.386  21.549  1.00  0.00     0.002 C 
ATOM     12  C   UNL A   1      30.963  26.434  25.277  1.00  0.00     0.006 C 
ATOM     13  C   UNL A   1      31.177  24.068  25.654  1.00  0.00    -0.008 C 
ATOM     14  C   UNL A   1      31.638  22.614  23.545  1.00  0.00     0.006 C 
ATOM     15  C   UNL A   1      33.140  27.724  22.340  1.00  0.00     0.019 C 
ATOM     16  C   UNL A   1      30.984  28.841  22.594  1.00  0.00     0.024 C 
ATOM     17  C   UNL A   1      30.325  25.248  25.952  1.00  0.00     0.012 C 
ATOM     18  C   UNL A   1      32.390  24.038  26.540  1.00  0.00    -0.018 C 
ATOM     19  C   UNL A   1      30.591  22.760  26.129  1.00  0.00     0.019 C 
ATOM     20  C   UNL A   1      32.318  21.681  24.529  1.00  0.00     0.008 C 
ATOM     21  C   UNL A   1      32.816  22.781  26.684  1.00  0.00    -0.045 C 
ATOM     22  C   UNL A   1      31.844  21.860  25.990  1.00  0.00     0.018 C 
BRANCH  21  23
ATOM     23  C   UNL A   1      34.029  22.349  27.414  1.00  0.00     0.187 C 
BRANCH  23  24
ATOM     24  O   UNL A   1      35.184  22.953  26.855  1.00  0.00    -0.392 OA
ATOM     25  H   UNL A   1      35.091  22.998  25.890  1.00  0.00     0.211 HD
ENDBRANCH  23  24
ENDBRANCH  21  23
ENDBRANCH   3   5
ENDBRANCH   2   3
ENDBRANCH   1   2
BRANCH   1  26
ATOM     26  C   UNL A   1      33.765  28.965  27.634  1.00  0.00     0.275 C 
BRANCH  26  27
ATOM     27  O   UNL A   1      34.115  30.435  27.754  1.00  0.00    -0.458 OA
BRANCH  27  28
ATOM     28  C   UNL A   1      35.041  30.885  28.690  1.00  0.00     0.338 C 
ATOM     29  O   UNL A   1      34.776  31.686  29.554  1.00  0.00    -0.246 OA
BRANCH  28  30
ATOM     30  C   UNL A   1      36.415  30.155  28.689  1.00  0.00     0.060 A 
ATOM     31  C   UNL A   1      37.200  30.178  27.517  1.00  0.00     0.016 A 
ATOM     32  C   UNL A   1      36.999  29.501  29.783  1.00  0.00     0.016 A 
ATOM     33  C   UNL A   1      38.557  29.703  27.488  1.00  0.00     0.010 A 
ATOM     34  C   UNL A   1      38.349  28.989  29.741  1.00  0.00     0.010 A 
ATOM     35  C   UNL A   1      39.185  29.120  28.613  1.00  0.00    -0.014 A 
BRANCH  35  36
ATOM     36  C   UNL A   1      40.576  28.446  28.512  1.00  0.00     0.031 A 
ATOM     37  C   UNL A   1      41.757  29.310  28.851  1.00  0.00     0.074 A 
ATOM     38  C   UNL A   1      40.907  27.193  28.087  1.00  0.00     0.049 A 
ATOM     39  N   UNL A   1      43.023  29.107  28.588  1.00  0.00    -0.248 NA
ATOM     40  C   UNL A   1      41.456  30.610  29.454  1.00  0.00     0.031 C 
ATOM     41  C   UNL A   1      39.979  26.236  27.551  1.00  0.00     0.029 A 
ATOM     42  N   UNL A   1      42.100  26.473  28.018  1.00  0.00    -0.354 N 
ATOM     43  C   UNL A   1      43.654  30.297  28.900  1.00  0.00     0.074 A 
ATOM     44  C   UNL A   1      42.629  31.210  29.359  1.00  0.00     0.031 C 
ATOM     45  C   UNL A   1      40.540  25.036  27.356  1.00  0.00     0.029 A 
ATOM     46  C   UNL A   1      41.960  25.147  27.605  1.00  0.00     0.049 A 
ATOM     47  H   UNL A   1      42.973  26.868  28.244  1.00  0.00     0.167 HD
ATOM     48  C   UNL A   1      44.966  30.616  28.799  1.00  0.00     0.037 A 
ATOM     49  C   UNL A   1      42.838  24.141  27.367  1.00  0.00     0.037 A 
ATOM     50  C   UNL A   1      45.997  29.719  28.360  1.00  0.00     0.049 A 
ATOM     51  C   UNL A   1      44.299  24.497  27.336  1.00  0.00     0.074 A 
ATOM     52  C   UNL A   1      47.346  29.976  28.197  1.00  0.00     0.029 A 
ATOM     53  N   UNL A   1      45.799  28.385  28.037  1.00  0.00    -0.354 N 
ATOM     54  N   UNL A   1      44.858  25.656  27.579  1.00  0.00    -0.248 NA
ATOM     55  C   UNL A   1      45.247  23.452  26.912  1.00  0.00     0.031 C 
ATOM     56  C   UNL A   1      47.970  28.792  27.790  1.00  0.00     0.029 A 
ATOM     57  C   UNL A   1      47.013  27.791  27.731  1.00  0.00     0.049 A 
ATOM     58  H   UNL A   1      44.928  27.927  28.028  1.00  0.00     0.167 HD
ATOM     59  C   UNL A   1      46.212  25.479  27.347  1.00  0.00     0.074 A 
ATOM     60  C   UNL A   1      46.405  24.097  26.967  1.00  0.00     0.031 C 
ATOM     61  C   UNL A   1      47.201  26.398  27.418  1.00  0.00     0.037 A 
BRANCH  48  62
ATOM     62  C   UNL A   1      45.303  32.029  29.161  1.00  0.00     0.057 A 
ATOM     63  C   UNL A   1      45.317  33.040  28.190  1.00  0.00     0.134 A 
ATOM     64  C   UNL A   1      45.767  32.348  30.442  1.00  0.00     0.134 A 
ATOM     65  F   UNL A   1      44.921  32.779  26.934  1.00  0.00    -0.206 F 
ATOM     66  C   UNL A   1      45.864  34.293  28.456  1.00  0.00     0.040 A 
ATOM     67  C   UNL A   1      46.277  33.613  30.732  1.00  0.00     0.040 A 
ATOM     68  F   UNL A   1      45.777  31.425  31.416  1.00  0.00    -0.206 F 
ATOM     69  C   UNL A   1      46.350  34.581  29.730  1.00  0.00     0.006 A 
ENDBRANCH  48  62
BRANCH  49  70
ATOM     70  C   UNL A   1      42.427  22.727  27.039  1.00  0.00     0.057 A 
ATOM     71  C   UNL A   1      42.052  21.833  28.060  1.00  0.00     0.134 A 
ATOM     72  C   UNL A   1      42.492  22.187  25.746  1.00  0.00     0.134 A 
ATOM     73  F   UNL A   1      42.009  22.247  29.335  1.00  0.00    -0.206 F 
ATOM     74  C   UNL A   1      41.790  20.477  27.815  1.00  0.00     0.040 A 
ATOM     75  C   UNL A   1      42.188  20.844  25.480  1.00  0.00     0.040 A 
ATOM     76  F   UNL A   1      42.867  22.951  24.711  1.00  0.00    -0.206 F 
ATOM     77  C   UNL A   1      41.850  19.980  26.517  1.00  0.00     0.006 A 
ENDBRANCH  49  70
BRANCH  61  78
ATOM     78  C   UNL A   1      48.601  25.925  27.194  1.00  0.00     0.057 A 
ATOM     79  C   UNL A   1      49.208  25.949  25.934  1.00  0.00     0.134 A 
ATOM     80  C   UNL A   1      49.380  25.525  28.288  1.00  0.00     0.134 A 
ATOM     81  F   UNL A   1      48.505  26.300  24.846  1.00  0.00    -0.206 F 
ATOM     82  C   UNL A   1      50.550  25.605  25.771  1.00  0.00     0.040 A 
ATOM     83  C   UNL A   1      50.726  25.199  28.141  1.00  0.00     0.040 A 
ATOM     84  F   UNL A   1      48.847  25.477  29.519  1.00  0.00    -0.206 F 
ATOM     85  C   UNL A   1      51.316  25.243  26.879  1.00  0.00     0.006 A 
ENDBRANCH  61  78
ENDBRANCH  35  36
ENDBRANCH  28  30
ENDBRANCH  27  28
ENDBRANCH  26  27
ENDBRANCH   1  26
TORSDOF 13
ENDMDL
