MODEL 1
REMARK VINA RESULT:     -12.0      0.000      0.000
REMARK SMILES C[C@@H](C(=O)OCCOC(=O)c1ccc(-c2c3nc(c(-c4c(F)cccc4F)c4ccc([nH]4)c(-c4c(F)cccc4F)c4nc(c(-c5c(F)cccc5F)c5ccc2[nH]5)C=C4)C=C3)cc1)c1ccccc1-c1ccn(C(F)F)c(=O)c1
REMARK SMILES IDX 6 1 5 2 3 3 4 4 2 5 1 6 65 7 66 8 70 9 67 10 69 11 68 12
REMARK SMILES IDX 71 13 72 14 80 15 73 16 78 17 74 18 79 19 75 20 76 21 77 22
REMARK SMILES IDX 7 23 8 24 9 25 10 26 11 27 12 28 64 29 13 30 63 31 14 32
REMARK SMILES IDX 15 33 16 34 57 35 17 36 62 37 56 38 58 39 18 40 61 41 55 42
REMARK SMILES IDX 54 43 19 45 45 46 28 47 44 48 29 49 32 50 43 51 59 52 30 53
REMARK SMILES IDX 31 54 42 56 60 57 33 58 20 59 21 60 26 61 22 62 23 63 25 64
REMARK SMILES IDX 27 65 24 66 46 67 47 68 52 69 48 70 49 71 51 72 53 73 50 74
REMARK SMILES IDX 34 75 35 76 40 77 36 78 37 79 39 80 41 81 38 82
REMARK H PARENT 58 44 32 55
REMARK Flexibility Score: inf
ROOT
ATOM      1  C   UNL A   1      31.258  31.660  26.244  1.00  0.00     0.274 C 
ENDROOT
BRANCH   1   2
ATOM      2  O   UNL A   1      32.233  30.668  26.627  1.00  0.00    -0.462 OA
BRANCH   2   3
ATOM      3  C   UNL A   1      32.398  29.594  25.802  1.00  0.00     0.313 C 
ATOM      4  O   UNL A   1      33.114  29.628  24.807  1.00  0.00    -0.252 OA
BRANCH   3   5
ATOM      5  C   UNL A   1      31.505  28.388  26.212  1.00  0.00     0.127 C 
ATOM      6  C   UNL A   1      31.639  28.129  27.716  1.00  0.00     0.025 C 
BRANCH   5   7
ATOM      7  C   UNL A   1      31.638  27.181  25.242  1.00  0.00    -0.026 A 
ATOM      8  C   UNL A   1      32.535  26.160  25.650  1.00  0.00     0.005 A 
ATOM      9  C   UNL A   1      30.959  26.969  24.013  1.00  0.00    -0.014 A 
ATOM     10  C   UNL A   1      32.687  24.961  24.948  1.00  0.00     0.000 A 
ATOM     11  C   UNL A   1      31.131  25.752  23.310  1.00  0.00     0.009 A 
ATOM     12  C   UNL A   1      31.974  24.750  23.781  1.00  0.00     0.001 A 
BRANCH   9  13
ATOM     13  C   UNL A   1      30.108  27.956  23.321  1.00  0.00    -0.011 A 
ATOM     14  C   UNL A   1      30.674  28.928  22.401  1.00  0.00     0.027 A 
ATOM     15  C   UNL A   1      28.778  27.940  23.518  1.00  0.00     0.080 A 
ATOM     16  C   UNL A   1      29.916  29.912  21.908  1.00  0.00     0.095 A 
ATOM     17  C   UNL A   1      27.906  28.981  22.901  1.00  0.00     0.255 A 
ATOM     18  N   UNL A   1      28.566  29.977  22.194  1.00  0.00    -0.258 N 
ATOM     19  O   UNL A   1      26.694  28.912  23.069  1.00  0.00    -0.269 OA
BRANCH  18  20
ATOM     20  C   UNL A   1      27.775  31.083  21.721  1.00  0.00     0.451 C 
ATOM     21  F   UNL A   1      27.475  31.938  22.727  1.00  0.00    -0.185 F 
ATOM     22  F   UNL A   1      28.427  31.778  20.757  1.00  0.00    -0.185 F 
ENDBRANCH  18  20
ENDBRANCH   9  13
ENDBRANCH   5   7
ENDBRANCH   3   5
ENDBRANCH   2   3
ENDBRANCH   1   2
BRANCH   1  23
ATOM     23  C   UNL A   1      31.752  33.077  26.545  1.00  0.00     0.275 C 
BRANCH  23  24
ATOM     24  O   UNL A   1      32.104  33.215  27.934  1.00  0.00    -0.458 OA
BRANCH  24  25
ATOM     25  C   UNL A   1      33.015  34.177  28.205  1.00  0.00     0.338 C 
ATOM     26  O   UNL A   1      32.833  35.380  28.254  1.00  0.00    -0.246 OA
BRANCH  25  27
ATOM     27  C   UNL A   1      34.260  33.540  28.658  1.00  0.00     0.060 A 
ATOM     28  C   UNL A   1      34.162  32.216  29.072  1.00  0.00     0.016 A 
ATOM     29  C   UNL A   1      35.475  34.219  28.748  1.00  0.00     0.016 A 
ATOM     30  C   UNL A   1      35.266  31.548  29.579  1.00  0.00     0.010 A 
ATOM     31  C   UNL A   1      36.596  33.544  29.258  1.00  0.00     0.010 A 
ATOM     32  C   UNL A   1      36.495  32.206  29.683  1.00  0.00    -0.014 A 
BRANCH  32  33
ATOM     33  C   UNL A   1      37.627  31.490  30.316  1.00  0.00     0.031 A 
ATOM     34  C   UNL A   1      37.914  31.699  31.774  1.00  0.00     0.074 A 
ATOM     35  C   UNL A   1      38.330  30.576  29.619  1.00  0.00     0.049 A 
ATOM     36  N   UNL A   1      38.896  31.229  32.499  1.00  0.00    -0.248 NA
ATOM     37  C   UNL A   1      36.960  32.537  32.516  1.00  0.00     0.031 C 
ATOM     38  C   UNL A   1      38.076  30.192  28.230  1.00  0.00     0.029 A 
ATOM     39  N   UNL A   1      39.390  29.790  29.996  1.00  0.00    -0.354 N 
ATOM     40  C   UNL A   1      38.697  31.738  33.775  1.00  0.00     0.074 A 
ATOM     41  C   UNL A   1      37.498  32.549  33.727  1.00  0.00     0.031 C 
ATOM     42  C   UNL A   1      38.949  29.234  27.876  1.00  0.00     0.029 A 
ATOM     43  C   UNL A   1      39.859  28.981  28.990  1.00  0.00     0.049 A 
ATOM     44  H   UNL A   1      39.777  29.805  30.901  1.00  0.00     0.167 HD
ATOM     45  C   UNL A   1      39.450  31.549  34.885  1.00  0.00     0.037 A 
ATOM     46  C   UNL A   1      40.922  28.156  28.961  1.00  0.00     0.037 A 
ATOM     47  C   UNL A   1      40.627  30.724  34.939  1.00  0.00     0.049 A 
ATOM     48  C   UNL A   1      41.799  28.041  30.178  1.00  0.00     0.074 A 
ATOM     49  C   UNL A   1      41.471  30.494  36.011  1.00  0.00     0.029 A 
ATOM     50  N   UNL A   1      41.122  29.986  33.876  1.00  0.00    -0.354 N 
ATOM     51  N   UNL A   1      41.647  28.582  31.362  1.00  0.00    -0.248 NA
ATOM     52  C   UNL A   1      43.012  27.218  30.046  1.00  0.00     0.031 C 
ATOM     53  C   UNL A   1      42.497  29.643  35.586  1.00  0.00     0.029 A 
ATOM     54  C   UNL A   1      42.270  29.314  34.260  1.00  0.00     0.049 A 
ATOM     55  H   UNL A   1      40.717  29.945  32.979  1.00  0.00     0.167 HD
ATOM     56  C   UNL A   1      42.732  28.157  32.118  1.00  0.00     0.074 A 
ATOM     57  C   UNL A   1      43.527  27.299  31.264  1.00  0.00     0.031 C 
ATOM     58  C   UNL A   1      43.046  28.459  33.401  1.00  0.00     0.037 A 
BRANCH  45  59
ATOM     59  C   UNL A   1      39.046  32.293  36.119  1.00  0.00     0.057 A 
ATOM     60  C   UNL A   1      39.490  33.595  36.381  1.00  0.00     0.134 A 
ATOM     61  C   UNL A   1      38.185  31.700  37.050  1.00  0.00     0.134 A 
ATOM     62  F   UNL A   1      40.330  34.209  35.535  1.00  0.00    -0.206 F 
ATOM     63  C   UNL A   1      39.104  34.275  37.537  1.00  0.00     0.040 A 
ATOM     64  C   UNL A   1      37.775  32.377  38.199  1.00  0.00     0.040 A 
ATOM     65  F   UNL A   1      37.724  30.455  36.855  1.00  0.00    -0.206 F 
ATOM     66  C   UNL A   1      38.240  33.668  38.447  1.00  0.00     0.006 A 
ENDBRANCH  45  59
BRANCH  46  67
ATOM     67  C   UNL A   1      41.257  27.409  27.723  1.00  0.00     0.057 A 
ATOM     68  C   UNL A   1      42.068  27.975  26.733  1.00  0.00     0.134 A 
ATOM     69  C   UNL A   1      40.747  26.127  27.486  1.00  0.00     0.134 A 
ATOM     70  F   UNL A   1      42.563  29.211  26.889  1.00  0.00    -0.206 F 
ATOM     71  C   UNL A   1      42.350  27.297  25.545  1.00  0.00     0.040 A 
ATOM     72  C   UNL A   1      41.040  25.429  26.315  1.00  0.00     0.040 A 
ATOM     73  F   UNL A   1      39.957  25.533  28.393  1.00  0.00    -0.206 F 
ATOM     74  C   UNL A   1      41.839  26.017  25.336  1.00  0.00     0.006 A 
ENDBRANCH  46  67
BRANCH  58  75
ATOM     75  C   UNL A   1      44.286  27.836  33.967  1.00  0.00     0.057 A 
ATOM     76  C   UNL A   1      44.273  26.555  34.533  1.00  0.00     0.134 A 
ATOM     77  C   UNL A   1      45.513  28.508  33.911  1.00  0.00     0.134 A 
ATOM     78  F   UNL A   1      43.125  25.867  34.630  1.00  0.00    -0.206 F 
ATOM     79  C   UNL A   1      45.435  25.970  35.037  1.00  0.00     0.040 A 
ATOM     80  C   UNL A   1      46.686  27.925  34.393  1.00  0.00     0.040 A 
ATOM     81  F   UNL A   1      45.594  29.736  33.377  1.00  0.00    -0.206 F 
ATOM     82  C   UNL A   1      46.648  26.653  34.963  1.00  0.00     0.006 A 
ENDBRANCH  58  75
ENDBRANCH  32  33
ENDBRANCH  25  27
ENDBRANCH  24  25
ENDBRANCH  23  24
ENDBRANCH   1  23
TORSDOF 14
ENDMDL
MODEL 2
REMARK VINA RESULT:     -11.8      5.056      9.878
REMARK SMILES C[C@@H](C(=O)OCCOC(=O)c1ccc(-c2c3nc(c(-c4c(F)cccc4F)c4ccc([nH]4)c(-c4c(F)cccc4F)c4nc(c(-c5c(F)cccc5F)c5ccc2[nH]5)C=C4)C=C3)cc1)c1ccccc1-c1ccn(C(F)F)c(=O)c1
REMARK SMILES IDX 6 1 5 2 3 3 4 4 2 5 1 6 65 7 66 8 70 9 67 10 69 11 68 12
REMARK SMILES IDX 71 13 72 14 80 15 73 16 78 17 74 18 79 19 75 20 76 21 77 22
REMARK SMILES IDX 7 23 8 24 9 25 10 26 11 27 12 28 64 29 13 30 63 31 14 32
REMARK SMILES IDX 15 33 16 34 57 35 17 36 62 37 56 38 58 39 18 40 61 41 55 42
REMARK SMILES IDX 54 43 19 45 45 46 28 47 44 48 29 49 32 50 43 51 59 52 30 53
REMARK SMILES IDX 31 54 42 56 60 57 33 58 20 59 21 60 26 61 22 62 23 63 25 64
REMARK SMILES IDX 27 65 24 66 46 67 47 68 52 69 48 70 49 71 51 72 53 73 50 74
REMARK SMILES IDX 34 75 35 76 40 77 36 78 37 79 39 80 41 81 38 82
REMARK H PARENT 58 44 32 55
REMARK Flexibility Score: inf
ROOT
ATOM      1  C   UNL A   1      38.086  20.038  24.945  1.00  0.00     0.274 C 
ENDROOT
BRANCH   1   2
ATOM      2  O   UNL A   1      38.016  21.419  25.358  1.00  0.00    -0.462 OA
BRANCH   2   3
ATOM      3  C   UNL A   1      37.200  22.249  24.648  1.00  0.00     0.313 C 
ATOM      4  O   UNL A   1      36.989  22.103  23.449  1.00  0.00    -0.252 OA
BRANCH   3   5
ATOM      5  C   UNL A   1      36.669  23.436  25.504  1.00  0.00     0.127 C 
ATOM      6  C   UNL A   1      37.761  23.909  26.469  1.00  0.00     0.025 C 
BRANCH   5   7
ATOM      7  C   UNL A   1      35.245  23.181  26.071  1.00  0.00    -0.026 A 
ATOM      8  C   UNL A   1      35.095  22.007  26.853  1.00  0.00     0.005 A 
ATOM      9  C   UNL A   1      34.087  23.989  25.918  1.00  0.00    -0.014 A 
ATOM     10  C   UNL A   1      33.910  21.690  27.524  1.00  0.00     0.000 A 
ATOM     11  C   UNL A   1      32.892  23.650  26.598  1.00  0.00     0.009 A 
ATOM     12  C   UNL A   1      32.810  22.520  27.407  1.00  0.00     0.001 A 
BRANCH   9  13
ATOM     13  C   UNL A   1      33.969  25.160  25.028  1.00  0.00    -0.011 A 
ATOM     14  C   UNL A   1      33.963  26.513  25.557  1.00  0.00     0.027 A 
ATOM     15  C   UNL A   1      33.895  24.977  23.698  1.00  0.00     0.080 A 
ATOM     16  C   UNL A   1      33.696  27.549  24.756  1.00  0.00     0.095 A 
ATOM     17  C   UNL A   1      33.685  26.136  22.783  1.00  0.00     0.255 A 
ATOM     18  N   UNL A   1      33.502  27.365  23.401  1.00  0.00    -0.258 N 
ATOM     19  O   UNL A   1      33.663  25.937  21.573  1.00  0.00    -0.269 OA
BRANCH  18  20
ATOM     20  C   UNL A   1      33.140  28.477  22.561  1.00  0.00     0.451 C 
ATOM     21  F   UNL A   1      31.868  28.877  22.798  1.00  0.00    -0.185 F 
ATOM     22  F   UNL A   1      33.960  29.536  22.764  1.00  0.00    -0.185 F 
ENDBRANCH  18  20
ENDBRANCH   9  13
ENDBRANCH   5   7
ENDBRANCH   3   5
ENDBRANCH   2   3
ENDBRANCH   1   2
BRANCH   1  23
ATOM     23  C   UNL A   1      39.129  19.263  25.754  1.00  0.00     0.275 C 
BRANCH  23  24
ATOM     24  O   UNL A   1      40.459  19.550  25.288  1.00  0.00    -0.458 OA
BRANCH  24  25
ATOM     25  C   UNL A   1      41.416  19.562  26.244  1.00  0.00     0.338 C 
ATOM     26  O   UNL A   1      42.124  18.636  26.598  1.00  0.00    -0.246 OA
BRANCH  25  27
ATOM     27  C   UNL A   1      41.643  20.948  26.674  1.00  0.00     0.060 A 
ATOM     28  C   UNL A   1      41.361  21.939  25.739  1.00  0.00     0.016 A 
ATOM     29  C   UNL A   1      42.177  21.285  27.918  1.00  0.00     0.016 A 
ATOM     30  C   UNL A   1      41.605  23.274  26.026  1.00  0.00     0.010 A 
ATOM     31  C   UNL A   1      42.423  22.635  28.211  1.00  0.00     0.010 A 
ATOM     32  C   UNL A   1      42.143  23.637  27.263  1.00  0.00    -0.014 A 
BRANCH  32  33
ATOM     33  C   UNL A   1      42.477  25.062  27.496  1.00  0.00     0.031 A 
ATOM     34  C   UNL A   1      43.769  25.616  26.971  1.00  0.00     0.074 A 
ATOM     35  C   UNL A   1      41.584  25.883  28.081  1.00  0.00     0.049 A 
ATOM     36  N   UNL A   1      44.282  26.808  27.130  1.00  0.00    -0.248 NA
ATOM     37  C   UNL A   1      44.583  24.710  26.146  1.00  0.00     0.031 C 
ATOM     38  C   UNL A   1      40.246  25.498  28.528  1.00  0.00     0.029 A 
ATOM     39  N   UNL A   1      41.665  27.221  28.378  1.00  0.00    -0.354 N 
ATOM     40  C   UNL A   1      45.493  26.789  26.452  1.00  0.00     0.074 A 
ATOM     41  C   UNL A   1      45.637  25.468  25.876  1.00  0.00     0.031 C 
ATOM     42  C   UNL A   1      39.626  26.578  29.033  1.00  0.00     0.029 A 
ATOM     43  C   UNL A   1      40.543  27.714  28.998  1.00  0.00     0.049 A 
ATOM     44  H   UNL A   1      42.452  27.773  28.167  1.00  0.00     0.167 HD
ATOM     45  C   UNL A   1      46.405  27.782  26.325  1.00  0.00     0.037 A 
ATOM     46  C   UNL A   1      40.298  28.935  29.511  1.00  0.00     0.037 A 
ATOM     47  C   UNL A   1      46.252  29.102  26.877  1.00  0.00     0.049 A 
ATOM     48  C   UNL A   1      41.367  29.991  29.445  1.00  0.00     0.074 A 
ATOM     49  C   UNL A   1      47.135  30.167  26.825  1.00  0.00     0.029 A 
ATOM     50  N   UNL A   1      45.138  29.541  27.574  1.00  0.00    -0.354 N 
ATOM     51  N   UNL A   1      42.542  29.944  28.864  1.00  0.00    -0.248 NA
ATOM     52  C   UNL A   1      41.086  31.263  30.127  1.00  0.00     0.031 C 
ATOM     53  C   UNL A   1      46.568  31.240  27.521  1.00  0.00     0.029 A 
ATOM     54  C   UNL A   1      45.317  30.854  27.974  1.00  0.00     0.049 A 
ATOM     55  H   UNL A   1      44.337  28.998  27.758  1.00  0.00     0.167 HD
ATOM     56  C   UNL A   1      43.133  31.178  29.099  1.00  0.00     0.074 A 
ATOM     57  C   UNL A   1      42.181  31.961  29.860  1.00  0.00     0.031 C 
ATOM     58  C   UNL A   1      44.358  31.621  28.725  1.00  0.00     0.037 A 
BRANCH  45  59
ATOM     59  C   UNL A   1      47.675  27.457  25.602  1.00  0.00     0.057 A 
ATOM     60  C   UNL A   1      47.786  27.565  24.211  1.00  0.00     0.134 A 
ATOM     61  C   UNL A   1      48.806  27.044  26.316  1.00  0.00     0.134 A 
ATOM     62  F   UNL A   1      46.732  27.938  23.471  1.00  0.00    -0.206 F 
ATOM     63  C   UNL A   1      48.978  27.257  23.552  1.00  0.00     0.040 A 
ATOM     64  C   UNL A   1      50.009  26.754  25.671  1.00  0.00     0.040 A 
ATOM     65  F   UNL A   1      48.762  26.922  27.651  1.00  0.00    -0.206 F 
ATOM     66  C   UNL A   1      50.095  26.854  24.284  1.00  0.00     0.006 A 
ENDBRANCH  45  59
BRANCH  46  67
ATOM     67  C   UNL A   1      39.006  29.219  30.184  1.00  0.00     0.057 A 
ATOM     68  C   UNL A   1      37.946  29.817  29.495  1.00  0.00     0.134 A 
ATOM     69  C   UNL A   1      38.813  28.927  31.540  1.00  0.00     0.134 A 
ATOM     70  F   UNL A   1      38.080  30.146  28.202  1.00  0.00    -0.206 F 
ATOM     71  C   UNL A   1      36.744  30.129  30.133  1.00  0.00     0.040 A 
ATOM     72  C   UNL A   1      37.609  29.211  32.184  1.00  0.00     0.040 A 
ATOM     73  F   UNL A   1      39.794  28.360  32.258  1.00  0.00    -0.206 F 
ATOM     74  C   UNL A   1      36.571  29.820  31.481  1.00  0.00     0.006 A 
ENDBRANCH  46  67
BRANCH  58  75
ATOM     75  C   UNL A   1      44.727  33.022  29.110  1.00  0.00     0.057 A 
ATOM     76  C   UNL A   1      44.372  34.119  28.317  1.00  0.00     0.134 A 
ATOM     77  C   UNL A   1      45.411  33.278  30.305  1.00  0.00     0.134 A 
ATOM     78  F   UNL A   1      43.729  33.938  27.153  1.00  0.00    -0.206 F 
ATOM     79  C   UNL A   1      44.697  35.424  28.692  1.00  0.00     0.040 A 
ATOM     80  C   UNL A   1      45.724  34.579  30.700  1.00  0.00     0.040 A 
ATOM     81  F   UNL A   1      45.775  32.269  31.111  1.00  0.00    -0.206 F 
ATOM     82  C   UNL A   1      45.370  35.657  29.890  1.00  0.00     0.006 A 
ENDBRANCH  58  75
ENDBRANCH  32  33
ENDBRANCH  25  27
ENDBRANCH  24  25
ENDBRANCH  23  24
ENDBRANCH   1  23
TORSDOF 14
ENDMDL
MODEL 3
REMARK VINA RESULT:     -11.6      5.475     10.175
REMARK SMILES C[C@@H](C(=O)OCCOC(=O)c1ccc(-c2c3nc(c(-c4c(F)cccc4F)c4ccc([nH]4)c(-c4c(F)cccc4F)c4nc(c(-c5c(F)cccc5F)c5ccc2[nH]5)C=C4)C=C3)cc1)c1ccccc1-c1ccn(C(F)F)c(=O)c1
REMARK SMILES IDX 6 1 5 2 3 3 4 4 2 5 1 6 65 7 66 8 70 9 67 10 69 11 68 12
REMARK SMILES IDX 71 13 72 14 80 15 73 16 78 17 74 18 79 19 75 20 76 21 77 22
REMARK SMILES IDX 7 23 8 24 9 25 10 26 11 27 12 28 64 29 13 30 63 31 14 32
REMARK SMILES IDX 15 33 16 34 57 35 17 36 62 37 56 38 58 39 18 40 61 41 55 42
REMARK SMILES IDX 54 43 19 45 45 46 28 47 44 48 29 49 32 50 43 51 59 52 30 53
REMARK SMILES IDX 31 54 42 56 60 57 33 58 20 59 21 60 26 61 22 62 23 63 25 64
REMARK SMILES IDX 27 65 24 66 46 67 47 68 52 69 48 70 49 71 51 72 53 73 50 74
REMARK SMILES IDX 34 75 35 76 40 77 36 78 37 79 39 80 41 81 38 82
REMARK H PARENT 58 44 32 55
REMARK Flexibility Score: inf
ROOT
ATOM      1  C   UNL A   1      36.273  20.114  25.001  1.00  0.00     0.274 C 
ENDROOT
BRANCH   1   2
ATOM      2  O   UNL A   1      35.993  21.162  25.953  1.00  0.00    -0.462 OA
BRANCH   2   3
ATOM      3  C   UNL A   1      35.841  22.428  25.469  1.00  0.00     0.313 C 
ATOM      4  O   UNL A   1      35.943  23.424  26.177  1.00  0.00    -0.252 OA
BRANCH   3   5
ATOM      5  C   UNL A   1      35.427  22.445  23.969  1.00  0.00     0.127 C 
ATOM      6  C   UNL A   1      36.552  23.056  23.126  1.00  0.00     0.025 C 
BRANCH   5   7
ATOM      7  C   UNL A   1      33.978  22.962  23.748  1.00  0.00    -0.026 A 
ATOM      8  C   UNL A   1      33.837  24.369  23.633  1.00  0.00     0.005 A 
ATOM      9  C   UNL A   1      32.788  22.197  23.628  1.00  0.00    -0.014 A 
ATOM     10  C   UNL A   1      32.621  24.985  23.325  1.00  0.00     0.000 A 
ATOM     11  C   UNL A   1      31.562  22.837  23.324  1.00  0.00     0.009 A 
ATOM     12  C   UNL A   1      31.483  24.217  23.156  1.00  0.00     0.001 A 
BRANCH   9  13
ATOM     13  C   UNL A   1      32.671  20.746  23.869  1.00  0.00    -0.011 A 
ATOM     14  C   UNL A   1      32.675  20.201  25.216  1.00  0.00     0.027 A 
ATOM     15  C   UNL A   1      32.527  19.910  22.826  1.00  0.00     0.080 A 
ATOM     16  C   UNL A   1      32.729  18.880  25.409  1.00  0.00     0.095 A 
ATOM     17  C   UNL A   1      32.496  18.433  23.035  1.00  0.00     0.255 A 
ATOM     18  N   UNL A   1      32.699  18.006  24.340  1.00  0.00    -0.258 N 
ATOM     19  O   UNL A   1      32.324  17.703  22.065  1.00  0.00    -0.269 OA
BRANCH  18  20
ATOM     20  C   UNL A   1      32.835  16.589  24.555  1.00  0.00     0.451 C 
ATOM     21  F   UNL A   1      34.023  16.134  24.092  1.00  0.00    -0.185 F 
ATOM     22  F   UNL A   1      32.748  16.280  25.872  1.00  0.00    -0.185 F 
ENDBRANCH  18  20
ENDBRANCH   9  13
ENDBRANCH   5   7
ENDBRANCH   3   5
ENDBRANCH   2   3
ENDBRANCH   1   2
BRANCH   1  23
ATOM     23  C   UNL A   1      37.757  19.742  24.996  1.00  0.00     0.275 C 
BRANCH  23  24
ATOM     24  O   UNL A   1      38.574  20.883  25.316  1.00  0.00    -0.458 OA
BRANCH  24  25
ATOM     25  C   UNL A   1      39.587  20.643  26.180  1.00  0.00     0.338 C 
ATOM     26  O   UNL A   1      40.141  19.581  26.399  1.00  0.00    -0.246 OA
BRANCH  25  27
ATOM     27  C   UNL A   1      40.093  21.925  26.689  1.00  0.00     0.060 A 
ATOM     28  C   UNL A   1      39.548  23.073  26.124  1.00  0.00     0.016 A 
ATOM     29  C   UNL A   1      41.113  22.022  27.636  1.00  0.00     0.016 A 
ATOM     30  C   UNL A   1      40.007  24.330  26.490  1.00  0.00     0.010 A 
ATOM     31  C   UNL A   1      41.577  23.293  28.010  1.00  0.00     0.010 A 
ATOM     32  C   UNL A   1      41.030  24.454  27.433  1.00  0.00    -0.014 A 
BRANCH  32  33
ATOM     33  C   UNL A   1      41.557  25.807  27.728  1.00  0.00     0.031 A 
ATOM     34  C   UNL A   1      42.918  26.197  27.232  1.00  0.00     0.074 A 
ATOM     35  C   UNL A   1      40.782  26.720  28.344  1.00  0.00     0.049 A 
ATOM     36  N   UNL A   1      43.591  27.298  27.442  1.00  0.00    -0.248 NA
ATOM     37  C   UNL A   1      43.606  25.221  26.371  1.00  0.00     0.031 C 
ATOM     38  C   UNL A   1      39.399  26.507  28.771  1.00  0.00     0.029 A 
ATOM     39  N   UNL A   1      41.046  28.020  28.699  1.00  0.00    -0.354 N 
ATOM     40  C   UNL A   1      44.793  27.138  26.768  1.00  0.00     0.074 A 
ATOM     41  C   UNL A   1      44.757  25.835  26.137  1.00  0.00     0.031 C 
ATOM     42  C   UNL A   1      38.931  27.641  29.319  1.00  0.00     0.029 A 
ATOM     43  C   UNL A   1      39.998  28.638  29.336  1.00  0.00     0.049 A 
ATOM     44  H   UNL A   1      41.904  28.465  28.514  1.00  0.00     0.167 HD
ATOM     45  C   UNL A   1      45.836  27.999  26.687  1.00  0.00     0.037 A 
ATOM     46  C   UNL A   1      39.921  29.859  29.899  1.00  0.00     0.037 A 
ATOM     47  C   UNL A   1      45.864  29.303  27.294  1.00  0.00     0.049 A 
ATOM     48  C   UNL A   1      41.128  30.757  29.882  1.00  0.00     0.074 A 
ATOM     49  C   UNL A   1      46.887  30.235  27.290  1.00  0.00     0.029 A 
ATOM     50  N   UNL A   1      44.815  29.863  28.005  1.00  0.00    -0.354 N 
ATOM     51  N   UNL A   1      42.290  30.571  29.303  1.00  0.00    -0.248 NA
ATOM     52  C   UNL A   1      41.020  32.027  30.617  1.00  0.00     0.031 C 
ATOM     53  C   UNL A   1      46.469  31.347  28.030  1.00  0.00     0.029 A 
ATOM     54  C   UNL A   1      45.172  31.121  28.462  1.00  0.00     0.049 A 
ATOM     55  H   UNL A   1      43.944  29.431  28.164  1.00  0.00     0.167 HD
ATOM     56  C   UNL A   1      43.044  31.700  29.592  1.00  0.00     0.074 A 
ATOM     57  C   UNL A   1      42.204  32.575  30.383  1.00  0.00     0.031 C 
ATOM     58  C   UNL A   1      44.323  31.983  29.242  1.00  0.00     0.037 A 
BRANCH  45  59
ATOM     59  C   UNL A   1      47.055  27.529  25.955  1.00  0.00     0.057 A 
ATOM     60  C   UNL A   1      47.187  27.667  24.568  1.00  0.00     0.134 A 
ATOM     61  C   UNL A   1      48.117  26.945  26.656  1.00  0.00     0.134 A 
ATOM     62  F   UNL A   1      46.197  28.203  23.840  1.00  0.00    -0.206 F 
ATOM     63  C   UNL A   1      48.331  27.224  23.901  1.00  0.00     0.040 A 
ATOM     64  C   UNL A   1      49.273  26.517  26.002  1.00  0.00     0.040 A 
ATOM     65  F   UNL A   1      48.049  26.787  27.986  1.00  0.00    -0.206 F 
ATOM     66  C   UNL A   1      49.379  26.651  24.619  1.00  0.00     0.006 A 
ENDBRANCH  45  59
BRANCH  46  67
ATOM     67  C   UNL A   1      38.674  30.292  30.580  1.00  0.00     0.057 A 
ATOM     68  C   UNL A   1      38.419  29.948  31.911  1.00  0.00     0.134 A 
ATOM     69  C   UNL A   1      37.697  31.032  29.904  1.00  0.00     0.134 A 
ATOM     70  F   UNL A   1      39.305  29.216  32.602  1.00  0.00    -0.206 F 
ATOM     71  C   UNL A   1      37.228  30.312  32.544  1.00  0.00     0.040 A 
ATOM     72  C   UNL A   1      36.514  31.424  30.531  1.00  0.00     0.040 A 
ATOM     73  F   UNL A   1      37.879  31.387  28.623  1.00  0.00    -0.206 F 
ATOM     74  C   UNL A   1      36.274  31.057  31.854  1.00  0.00     0.006 A 
ENDBRANCH  46  67
BRANCH  58  75
ATOM     75  C   UNL A   1      44.880  33.300  29.687  1.00  0.00     0.057 A 
ATOM     76  C   UNL A   1      45.592  33.429  30.886  1.00  0.00     0.134 A 
ATOM     77  C   UNL A   1      44.735  34.443  28.892  1.00  0.00     0.134 A 
ATOM     78  F   UNL A   1      45.751  32.373  31.699  1.00  0.00    -0.206 F 
ATOM     79  C   UNL A   1      46.129  34.654  31.285  1.00  0.00     0.040 A 
ATOM     80  C   UNL A   1      45.285  35.669  29.271  1.00  0.00     0.040 A 
ATOM     81  F   UNL A   1      44.067  34.385  27.730  1.00  0.00    -0.206 F 
ATOM     82  C   UNL A   1      45.981  35.777  30.473  1.00  0.00     0.006 A 
ENDBRANCH  58  75
ENDBRANCH  32  33
ENDBRANCH  25  27
ENDBRANCH  24  25
ENDBRANCH  23  24
ENDBRANCH   1  23
TORSDOF 14
ENDMDL
