MODEL 1
REMARK VINA RESULT:     -10.3      0.000      0.000
REMARK SMILES Cc1ccc(C)c(S(=O)(=O)[C@H](C)C(=O)OCCOC(=O)c2ccc(-c3c4nc(c(-c5c(F)cccc5F)c5ccc([nH]5)c(-c5c(F)cccc5F)c5nc(c(-c6c(F)cccc6F)c6ccc3[nH]6)C=C5)C=C4)cc2)c1
REMARK SMILES IDX 16 1 15 2 13 3 14 4 11 5 12 6 8 7 9 8 10 9 7 10 1 11 2 12
REMARK SMILES IDX 3 13 75 14 4 15 5 16 6 17 17 18 18 19 19 20 20 21 21 22
REMARK SMILES IDX 22 23 74 24 23 25 73 26 24 27 25 28 26 29 67 30 27 31 72 32
REMARK SMILES IDX 66 33 68 34 28 35 71 36 65 37 64 38 29 40 55 41 38 42 54 43
REMARK SMILES IDX 39 44 42 45 53 46 69 47 40 48 41 49 52 51 70 52 43 53 30 54
REMARK SMILES IDX 31 55 36 56 32 57 33 58 35 59 37 60 34 61 56 62 57 63 62 64
REMARK SMILES IDX 58 65 59 66 61 67 63 68 60 69 44 70 45 71 50 72 46 73 47 74
REMARK SMILES IDX 49 75 51 76 48 77
REMARK H PARENT 68 39 42 50
REMARK Flexibility Score: inf
ROOT
ATOM      1  C   UNL A   1      34.476  34.130  30.024  1.00  0.00     0.274 C 
ENDROOT
BRANCH   1   2
ATOM      2  O   UNL A   1      34.436  33.031  30.939  1.00  0.00    -0.461 OA
BRANCH   2   3
ATOM      3  C   UNL A   1      34.285  33.305  32.271  1.00  0.00     0.324 C 
ATOM      4  O   UNL A   1      33.288  33.844  32.731  1.00  0.00    -0.251 OA
BRANCH   3   5
ATOM      5  C   UNL A   1      35.411  32.696  33.062  1.00  0.00     0.219 C 
ATOM      6  C   UNL A   1      35.977  31.492  32.303  1.00  0.00     0.038 C 
BRANCH   5   7
ATOM      7  S   UNL A   1      36.702  33.891  33.378  1.00  0.00     0.192 S 
ATOM      8  O   UNL A   1      37.041  33.806  34.787  1.00  0.00    -0.223 OA
ATOM      9  O   UNL A   1      36.251  35.165  32.841  1.00  0.00    -0.223 OA
BRANCH   7  10
ATOM     10  C   UNL A   1      38.171  33.528  32.389  1.00  0.00     0.071 A 
ATOM     11  C   UNL A   1      39.876  34.948  29.251  1.00  0.00     0.044 C 
ATOM     12  C   UNL A   1      39.600  34.134  30.482  1.00  0.00    -0.050 A 
ATOM     13  C   UNL A   1      40.570  33.242  30.932  1.00  0.00     0.004 A 
ATOM     14  C   UNL A   1      38.416  34.291  31.227  1.00  0.00     0.024 A 
ATOM     15  C   UNL A   1      40.356  32.508  32.094  1.00  0.00     0.005 A 
ATOM     16  C   UNL A   1      39.167  32.636  32.845  1.00  0.00    -0.032 A 
ATOM     17  C   UNL A   1      39.150  31.851  34.129  1.00  0.00     0.046 C 
ENDBRANCH   7  10
ENDBRANCH   5   7
ENDBRANCH   3   5
ENDBRANCH   2   3
ENDBRANCH   1   2
BRANCH   1  18
ATOM     18  C   UNL A   1      33.963  33.688  28.645  1.00  0.00     0.275 C 
BRANCH  18  19
ATOM     19  O   UNL A   1      34.855  32.908  27.781  1.00  0.00    -0.458 OA
BRANCH  19  20
ATOM     20  C   UNL A   1      35.011  31.561  27.705  1.00  0.00     0.338 C 
ATOM     21  O   UNL A   1      34.302  30.865  26.990  1.00  0.00    -0.246 OA
BRANCH  20  22
ATOM     22  C   UNL A   1      36.109  30.952  28.477  1.00  0.00     0.060 A 
ATOM     23  C   UNL A   1      36.176  29.552  28.611  1.00  0.00     0.016 A 
ATOM     24  C   UNL A   1      37.150  31.753  28.906  1.00  0.00     0.016 A 
ATOM     25  C   UNL A   1      37.374  28.949  28.987  1.00  0.00     0.010 A 
ATOM     26  C   UNL A   1      38.369  31.163  29.095  1.00  0.00     0.010 A 
ATOM     27  C   UNL A   1      38.485  29.767  29.167  1.00  0.00    -0.014 A 
BRANCH  27  28
ATOM     28  C   UNL A   1      39.812  29.250  29.467  1.00  0.00     0.031 A 
ATOM     29  C   UNL A   1      40.182  28.932  30.892  1.00  0.00     0.074 A 
ATOM     30  C   UNL A   1      40.493  28.724  28.427  1.00  0.00     0.049 A 
ATOM     31  N   UNL A   1      41.171  29.397  31.590  1.00  0.00    -0.248 NA
ATOM     32  C   UNL A   1      39.333  28.008  31.657  1.00  0.00     0.031 C 
ATOM     33  C   UNL A   1      40.116  28.642  27.004  1.00  0.00     0.029 A 
ATOM     34  N   UNL A   1      41.619  27.981  28.476  1.00  0.00    -0.354 N 
ATOM     35  C   UNL A   1      41.162  28.727  32.825  1.00  0.00     0.074 A 
ATOM     36  C   UNL A   1      39.923  27.998  32.856  1.00  0.00     0.031 C 
ATOM     37  C   UNL A   1      40.832  27.667  26.404  1.00  0.00     0.029 A 
ATOM     38  C   UNL A   1      41.857  27.237  27.330  1.00  0.00     0.049 A 
ATOM     39  H   UNL A   1      42.219  27.969  29.257  1.00  0.00     0.167 HD
ATOM     40  C   UNL A   1      42.260  28.692  33.647  1.00  0.00     0.037 A 
ATOM     41  C   UNL A   1      42.821  26.297  27.212  1.00  0.00     0.037 A 
ATOM     42  C   UNL A   1      43.256  29.628  33.191  1.00  0.00     0.049 A 
ATOM     43  C   UNL A   1      43.832  26.608  28.266  1.00  0.00     0.074 A 
ATOM     44  C   UNL A   1      43.309  31.000  33.049  1.00  0.00     0.029 A 
ATOM     45  N   UNL A   1      44.283  29.139  32.418  1.00  0.00    -0.354 N 
ATOM     46  N   UNL A   1      44.516  27.727  28.282  1.00  0.00    -0.248 NA
ATOM     47  C   UNL A   1      43.673  25.960  29.563  1.00  0.00     0.031 C 
ATOM     48  C   UNL A   1      43.949  31.193  31.788  1.00  0.00     0.029 A 
ATOM     49  C   UNL A   1      44.332  29.939  31.305  1.00  0.00     0.049 A 
ATOM     50  H   UNL A   1      44.863  28.371  32.622  1.00  0.00     0.167 HD
ATOM     51  C   UNL A   1      44.539  28.129  29.614  1.00  0.00     0.074 A 
ATOM     52  C   UNL A   1      44.038  26.970  30.361  1.00  0.00     0.031 C 
ATOM     53  C   UNL A   1      44.652  29.444  29.982  1.00  0.00     0.037 A 
BRANCH  40  54
ATOM     54  C   UNL A   1      42.633  27.630  34.669  1.00  0.00     0.057 A 
ATOM     55  C   UNL A   1      43.043  26.355  34.212  1.00  0.00     0.134 A 
ATOM     56  C   UNL A   1      42.337  27.688  36.042  1.00  0.00     0.134 A 
ATOM     57  F   UNL A   1      43.394  26.155  32.931  1.00  0.00    -0.206 F 
ATOM     58  C   UNL A   1      43.033  25.212  35.024  1.00  0.00     0.040 A 
ATOM     59  C   UNL A   1      42.369  26.559  36.874  1.00  0.00     0.040 A 
ATOM     60  F   UNL A   1      41.915  28.806  36.636  1.00  0.00    -0.206 F 
ATOM     61  C   UNL A   1      42.676  25.308  36.359  1.00  0.00     0.006 A 
ENDBRANCH  40  54
BRANCH  41  62
ATOM     62  C   UNL A   1      42.662  24.998  26.527  1.00  0.00     0.057 A 
ATOM     63  C   UNL A   1      43.459  24.640  25.438  1.00  0.00     0.134 A 
ATOM     64  C   UNL A   1      41.847  23.977  27.061  1.00  0.00     0.134 A 
ATOM     65  F   UNL A   1      44.295  25.533  24.890  1.00  0.00    -0.206 F 
ATOM     66  C   UNL A   1      43.448  23.342  24.905  1.00  0.00     0.040 A 
ATOM     67  C   UNL A   1      41.823  22.681  26.539  1.00  0.00     0.040 A 
ATOM     68  F   UNL A   1      41.096  24.189  28.153  1.00  0.00    -0.206 F 
ATOM     69  C   UNL A   1      42.634  22.356  25.459  1.00  0.00     0.006 A 
ENDBRANCH  41  62
BRANCH  53  70
ATOM     70  C   UNL A   1      44.866  30.504  28.927  1.00  0.00     0.057 A 
ATOM     71  C   UNL A   1      43.845  31.318  28.411  1.00  0.00     0.134 A 
ATOM     72  C   UNL A   1      46.171  30.892  28.612  1.00  0.00     0.134 A 
ATOM     73  F   UNL A   1      42.568  31.108  28.727  1.00  0.00    -0.206 F 
ATOM     74  C   UNL A   1      44.098  32.438  27.612  1.00  0.00     0.040 A 
ATOM     75  C   UNL A   1      46.444  32.024  27.836  1.00  0.00     0.040 A 
ATOM     76  F   UNL A   1      47.215  30.217  29.119  1.00  0.00    -0.206 F 
ATOM     77  C   UNL A   1      45.406  32.802  27.329  1.00  0.00     0.006 A 
ENDBRANCH  53  70
ENDBRANCH  27  28
ENDBRANCH  20  22
ENDBRANCH  19  20
ENDBRANCH  18  19
ENDBRANCH   1  18
TORSDOF 13
ENDMDL
MODEL 2
REMARK VINA RESULT:     -10.1      1.063      1.713
REMARK SMILES Cc1ccc(C)c(S(=O)(=O)[C@H](C)C(=O)OCCOC(=O)c2ccc(-c3c4nc(c(-c5c(F)cccc5F)c5ccc([nH]5)c(-c5c(F)cccc5F)c5nc(c(-c6c(F)cccc6F)c6ccc3[nH]6)C=C5)C=C4)cc2)c1
REMARK SMILES IDX 16 1 15 2 13 3 14 4 11 5 12 6 8 7 9 8 10 9 7 10 1 11 2 12
REMARK SMILES IDX 3 13 75 14 4 15 5 16 6 17 17 18 18 19 19 20 20 21 21 22
REMARK SMILES IDX 22 23 74 24 23 25 73 26 24 27 25 28 26 29 67 30 27 31 72 32
REMARK SMILES IDX 66 33 68 34 28 35 71 36 65 37 64 38 29 40 55 41 38 42 54 43
REMARK SMILES IDX 39 44 42 45 53 46 69 47 40 48 41 49 52 51 70 52 43 53 30 54
REMARK SMILES IDX 31 55 36 56 32 57 33 58 35 59 37 60 34 61 56 62 57 63 62 64
REMARK SMILES IDX 58 65 59 66 61 67 63 68 60 69 44 70 45 71 50 72 46 73 47 74
REMARK SMILES IDX 49 75 51 76 48 77
REMARK H PARENT 68 39 42 50
REMARK Flexibility Score: inf
ROOT
ATOM      1  C   UNL A   1      33.270  34.602  28.945  1.00  0.00     0.274 C 
ENDROOT
BRANCH   1   2
ATOM      2  O   UNL A   1      34.114  35.159  29.957  1.00  0.00    -0.461 OA
BRANCH   2   3
ATOM      3  C   UNL A   1      33.659  35.162  31.248  1.00  0.00     0.324 C 
ATOM      4  O   UNL A   1      32.470  35.146  31.535  1.00  0.00    -0.251 OA
BRANCH   3   5
ATOM      5  C   UNL A   1      34.808  35.007  32.207  1.00  0.00     0.219 C 
ATOM      6  C   UNL A   1      34.528  35.819  33.476  1.00  0.00     0.038 C 
BRANCH   5   7
ATOM      7  S   UNL A   1      35.083  33.290  32.619  1.00  0.00     0.192 S 
ATOM      8  O   UNL A   1      34.565  32.490  31.525  1.00  0.00    -0.223 OA
ATOM      9  O   UNL A   1      34.554  33.076  33.956  1.00  0.00    -0.223 OA
BRANCH   7  10
ATOM     10  C   UNL A   1      36.848  32.952  32.820  1.00  0.00     0.071 A 
ATOM     11  C   UNL A   1      39.974  34.880  33.954  1.00  0.00     0.044 C 
ATOM     12  C   UNL A   1      39.060  33.774  33.511  1.00  0.00    -0.050 A 
ATOM     13  C   UNL A   1      39.559  32.475  33.438  1.00  0.00     0.004 A 
ATOM     14  C   UNL A   1      37.701  34.001  33.226  1.00  0.00     0.024 A 
ATOM     15  C   UNL A   1      38.721  31.427  33.072  1.00  0.00     0.005 A 
ATOM     16  C   UNL A   1      37.360  31.637  32.762  1.00  0.00    -0.032 A 
ATOM     17  C   UNL A   1      36.578  30.380  32.494  1.00  0.00     0.046 C 
ENDBRANCH   7  10
ENDBRANCH   5   7
ENDBRANCH   3   5
ENDBRANCH   2   3
ENDBRANCH   1   2
BRANCH   1  18
ATOM     18  C   UNL A   1      34.111  34.172  27.734  1.00  0.00     0.275 C 
BRANCH  18  19
ATOM     19  O   UNL A   1      35.235  33.255  27.948  1.00  0.00    -0.458 OA
BRANCH  19  20
ATOM     20  C   UNL A   1      35.250  31.898  27.921  1.00  0.00     0.338 C 
ATOM     21  O   UNL A   1      34.437  31.253  27.272  1.00  0.00    -0.246 OA
BRANCH  20  22
ATOM     22  C   UNL A   1      36.319  31.206  28.662  1.00  0.00     0.060 A 
ATOM     23  C   UNL A   1      36.349  29.799  28.698  1.00  0.00     0.016 A 
ATOM     24  C   UNL A   1      37.374  31.947  29.161  1.00  0.00     0.016 A 
ATOM     25  C   UNL A   1      37.525  29.139  29.046  1.00  0.00     0.010 A 
ATOM     26  C   UNL A   1      38.574  31.312  29.324  1.00  0.00     0.010 A 
ATOM     27  C   UNL A   1      38.654  29.912  29.299  1.00  0.00    -0.014 A 
BRANCH  27  28
ATOM     28  C   UNL A   1      39.962  29.340  29.579  1.00  0.00     0.031 A 
ATOM     29  C   UNL A   1      40.319  28.958  30.992  1.00  0.00     0.074 A 
ATOM     30  C   UNL A   1      40.626  28.830  28.520  1.00  0.00     0.049 A 
ATOM     31  N   UNL A   1      41.323  29.364  31.706  1.00  0.00    -0.248 NA
ATOM     32  C   UNL A   1      39.439  28.036  31.723  1.00  0.00     0.031 C 
ATOM     33  C   UNL A   1      40.247  28.812  27.096  1.00  0.00     0.029 A 
ATOM     34  N   UNL A   1      41.725  28.048  28.543  1.00  0.00    -0.354 N 
ATOM     35  C   UNL A   1      41.291  28.649  32.916  1.00  0.00     0.074 A 
ATOM     36  C   UNL A   1      40.027  27.963  32.920  1.00  0.00     0.031 C 
ATOM     37  C   UNL A   1      40.930  27.836  26.461  1.00  0.00     0.029 A 
ATOM     38  C   UNL A   1      41.939  27.338  27.370  1.00  0.00     0.049 A 
ATOM     39  H   UNL A   1      42.324  27.987  29.322  1.00  0.00     0.167 HD
ATOM     40  C   UNL A   1      42.385  28.548  33.735  1.00  0.00     0.037 A 
ATOM     41  C   UNL A   1      42.871  26.371  27.218  1.00  0.00     0.037 A 
ATOM     42  C   UNL A   1      43.413  29.465  33.314  1.00  0.00     0.049 A 
ATOM     43  C   UNL A   1      43.890  26.609  28.282  1.00  0.00     0.074 A 
ATOM     44  C   UNL A   1      43.513  30.838  33.222  1.00  0.00     0.029 A 
ATOM     45  N   UNL A   1      44.423  28.970  32.523  1.00  0.00    -0.354 N 
ATOM     46  N   UNL A   1      44.612  27.703  28.338  1.00  0.00    -0.248 NA
ATOM     47  C   UNL A   1      43.709  25.920  29.554  1.00  0.00     0.031 C 
ATOM     48  C   UNL A   1      44.160  31.056  31.968  1.00  0.00     0.029 A 
ATOM     49  C   UNL A   1      44.501  29.808  31.440  1.00  0.00     0.049 A 
ATOM     50  H   UNL A   1      44.977  28.175  32.698  1.00  0.00     0.167 HD
ATOM     51  C   UNL A   1      44.648  28.054  29.683  1.00  0.00     0.074 A 
ATOM     52  C   UNL A   1      44.108  26.887  30.388  1.00  0.00     0.031 C 
ATOM     53  C   UNL A   1      44.805  29.351  30.100  1.00  0.00     0.037 A 
BRANCH  40  54
ATOM     54  C   UNL A   1      42.721  27.437  34.718  1.00  0.00     0.057 A 
ATOM     55  C   UNL A   1      42.523  27.661  36.101  1.00  0.00     0.134 A 
ATOM     56  C   UNL A   1      43.486  26.296  34.418  1.00  0.00     0.134 A 
ATOM     57  F   UNL A   1      41.781  28.693  36.537  1.00  0.00    -0.206 F 
ATOM     58  C   UNL A   1      43.141  26.893  37.096  1.00  0.00     0.040 A 
ATOM     59  C   UNL A   1      44.070  25.492  35.409  1.00  0.00     0.040 A 
ATOM     60  F   UNL A   1      43.788  25.945  33.166  1.00  0.00    -0.206 F 
ATOM     61  C   UNL A   1      43.935  25.812  36.751  1.00  0.00     0.006 A 
ENDBRANCH  40  54
BRANCH  41  62
ATOM     62  C   UNL A   1      42.668  25.103  26.486  1.00  0.00     0.057 A 
ATOM     63  C   UNL A   1      43.479  24.740  25.408  1.00  0.00     0.134 A 
ATOM     64  C   UNL A   1      41.789  24.108  26.963  1.00  0.00     0.134 A 
ATOM     65  F   UNL A   1      44.374  25.608  24.913  1.00  0.00    -0.206 F 
ATOM     66  C   UNL A   1      43.420  23.463  24.832  1.00  0.00     0.040 A 
ATOM     67  C   UNL A   1      41.717  22.832  26.398  1.00  0.00     0.040 A 
ATOM     68  F   UNL A   1      41.017  24.322  28.040  1.00  0.00    -0.206 F 
ATOM     69  C   UNL A   1      42.542  22.502  25.331  1.00  0.00     0.006 A 
ENDBRANCH  41  62
BRANCH  53  70
ATOM     70  C   UNL A   1      45.056  30.441  29.084  1.00  0.00     0.057 A 
ATOM     71  C   UNL A   1      44.052  31.266  28.552  1.00  0.00     0.134 A 
ATOM     72  C   UNL A   1      46.371  30.840  28.830  1.00  0.00     0.134 A 
ATOM     73  F   UNL A   1      42.765  31.045  28.813  1.00  0.00    -0.206 F 
ATOM     74  C   UNL A   1      44.332  32.409  27.795  1.00  0.00     0.040 A 
ATOM     75  C   UNL A   1      46.669  31.995  28.097  1.00  0.00     0.040 A 
ATOM     76  F   UNL A   1      47.396  30.153  29.357  1.00  0.00    -0.206 F 
ATOM     77  C   UNL A   1      45.649  32.783  27.573  1.00  0.00     0.006 A 
ENDBRANCH  53  70
ENDBRANCH  27  28
ENDBRANCH  20  22
ENDBRANCH  19  20
ENDBRANCH  18  19
ENDBRANCH   1  18
TORSDOF 13
ENDMDL
MODEL 3
REMARK VINA RESULT:      -9.8      4.438     10.043
REMARK SMILES Cc1ccc(C)c(S(=O)(=O)[C@H](C)C(=O)OCCOC(=O)c2ccc(-c3c4nc(c(-c5c(F)cccc5F)c5ccc([nH]5)c(-c5c(F)cccc5F)c5nc(c(-c6c(F)cccc6F)c6ccc3[nH]6)C=C5)C=C4)cc2)c1
REMARK SMILES IDX 16 1 15 2 13 3 14 4 11 5 12 6 8 7 9 8 10 9 7 10 1 11 2 12
REMARK SMILES IDX 3 13 75 14 4 15 5 16 6 17 17 18 18 19 19 20 20 21 21 22
REMARK SMILES IDX 22 23 74 24 23 25 73 26 24 27 25 28 26 29 67 30 27 31 72 32
REMARK SMILES IDX 66 33 68 34 28 35 71 36 65 37 64 38 29 40 55 41 38 42 54 43
REMARK SMILES IDX 39 44 42 45 53 46 69 47 40 48 41 49 52 51 70 52 43 53 30 54
REMARK SMILES IDX 31 55 36 56 32 57 33 58 35 59 37 60 34 61 56 62 57 63 62 64
REMARK SMILES IDX 58 65 59 66 61 67 63 68 60 69 44 70 45 71 50 72 46 73 47 74
REMARK SMILES IDX 49 75 51 76 48 77
REMARK H PARENT 68 39 42 50
REMARK Flexibility Score: inf
ROOT
ATOM      1  C   UNL A   1      41.891  19.711  26.343  1.00  0.00     0.274 C 
ENDROOT
BRANCH   1   2
ATOM      2  O   UNL A   1      43.022  20.588  26.318  1.00  0.00    -0.461 OA
BRANCH   2   3
ATOM      3  C   UNL A   1      43.933  20.439  25.309  1.00  0.00     0.324 C 
ATOM      4  O   UNL A   1      43.746  19.709  24.345  1.00  0.00    -0.251 OA
BRANCH   3   5
ATOM      5  C   UNL A   1      45.066  21.415  25.479  1.00  0.00     0.219 C 
ATOM      6  C   UNL A   1      46.243  20.992  24.595  1.00  0.00     0.038 C 
BRANCH   5   7
ATOM      7  S   UNL A   1      44.555  23.080  25.076  1.00  0.00     0.192 S 
ATOM      8  O   UNL A   1      43.251  22.996  24.444  1.00  0.00    -0.223 OA
ATOM      9  O   UNL A   1      45.648  23.702  24.347  1.00  0.00    -0.223 OA
BRANCH   7  10
ATOM     10  C   UNL A   1      44.429  24.092  26.568  1.00  0.00     0.071 A 
ATOM     11  C   UNL A   1      44.561  23.537  30.369  1.00  0.00     0.044 C 
ATOM     12  C   UNL A   1      44.500  24.201  29.023  1.00  0.00    -0.050 A 
ATOM     13  C   UNL A   1      44.529  25.592  28.957  1.00  0.00     0.004 A 
ATOM     14  C   UNL A   1      44.476  23.458  27.829  1.00  0.00     0.024 A 
ATOM     15  C   UNL A   1      44.518  26.229  27.720  1.00  0.00     0.005 A 
ATOM     16  C   UNL A   1      44.473  25.503  26.510  1.00  0.00    -0.032 A 
ATOM     17  C   UNL A   1      44.578  26.348  25.269  1.00  0.00     0.046 C 
ENDBRANCH   7  10
ENDBRANCH   5   7
ENDBRANCH   3   5
ENDBRANCH   2   3
ENDBRANCH   1   2
BRANCH   1  18
ATOM     18  C   UNL A   1      40.594  20.525  26.447  1.00  0.00     0.275 C 
BRANCH  18  19
ATOM     19  O   UNL A   1      40.602  21.922  25.999  1.00  0.00    -0.458 OA
BRANCH  19  20
ATOM     20  C   UNL A   1      39.809  22.951  26.393  1.00  0.00     0.338 C 
ATOM     21  O   UNL A   1      38.588  22.867  26.395  1.00  0.00    -0.246 OA
BRANCH  20  22
ATOM     22  C   UNL A   1      40.466  24.178  26.877  1.00  0.00     0.060 A 
ATOM     23  C   UNL A   1      40.402  25.356  26.109  1.00  0.00     0.016 A 
ATOM     24  C   UNL A   1      40.981  24.199  28.160  1.00  0.00     0.016 A 
ATOM     25  C   UNL A   1      40.665  26.587  26.705  1.00  0.00     0.010 A 
ATOM     26  C   UNL A   1      41.061  25.410  28.792  1.00  0.00     0.010 A 
ATOM     27  C   UNL A   1      40.935  26.605  28.069  1.00  0.00    -0.014 A 
BRANCH  27  28
ATOM     28  C   UNL A   1      41.132  27.833  28.825  1.00  0.00     0.031 A 
ATOM     29  C   UNL A   1      42.206  28.801  28.402  1.00  0.00     0.074 A 
ATOM     30  C   UNL A   1      40.105  28.217  29.612  1.00  0.00     0.049 A 
ATOM     31  N   UNL A   1      43.200  29.256  29.100  1.00  0.00    -0.248 NA
ATOM     32  C   UNL A   1      42.203  29.308  27.023  1.00  0.00     0.031 C 
ATOM     33  C   UNL A   1      38.819  27.545  29.870  1.00  0.00     0.029 A 
ATOM     34  N   UNL A   1      39.941  29.411  30.219  1.00  0.00    -0.354 N 
ATOM     35  C   UNL A   1      43.864  30.209  28.310  1.00  0.00     0.074 A 
ATOM     36  C   UNL A   1      43.291  30.084  26.998  1.00  0.00     0.031 C 
ATOM     37  C   UNL A   1      37.923  28.447  30.324  1.00  0.00     0.029 A 
ATOM     38  C   UNL A   1      38.634  29.676  30.603  1.00  0.00     0.049 A 
ATOM     39  H   UNL A   1      40.683  30.039  30.377  1.00  0.00     0.167 HD
ATOM     40  C   UNL A   1      44.713  31.142  28.848  1.00  0.00     0.037 A 
ATOM     41  C   UNL A   1      38.198  30.866  31.071  1.00  0.00     0.037 A 
ATOM     42  C   UNL A   1      45.004  30.822  30.223  1.00  0.00     0.049 A 
ATOM     43  C   UNL A   1      39.409  31.579  31.577  1.00  0.00     0.074 A 
ATOM     44  C   UNL A   1      45.627  29.772  30.865  1.00  0.00     0.029 A 
ATOM     45  N   UNL A   1      44.276  31.467  31.195  1.00  0.00    -0.354 N 
ATOM     46  N   UNL A   1      40.135  31.124  32.570  1.00  0.00    -0.248 NA
ATOM     47  C   UNL A   1      40.111  32.456  30.647  1.00  0.00     0.031 C 
ATOM     48  C   UNL A   1      44.793  29.513  31.994  1.00  0.00     0.029 A 
ATOM     49  C   UNL A   1      43.789  30.485  32.018  1.00  0.00     0.049 A 
ATOM     50  H   UNL A   1      44.133  32.437  31.281  1.00  0.00     0.167 HD
ATOM     51  C   UNL A   1      41.457  31.328  32.186  1.00  0.00     0.074 A 
ATOM     52  C   UNL A   1      41.373  32.196  31.007  1.00  0.00     0.031 C 
ATOM     53  C   UNL A   1      42.483  30.542  32.641  1.00  0.00     0.037 A 
BRANCH  40  54
ATOM     54  C   UNL A   1      45.055  32.521  28.305  1.00  0.00     0.057 A 
ATOM     55  C   UNL A   1      44.020  33.474  28.152  1.00  0.00     0.134 A 
ATOM     56  C   UNL A   1      46.259  32.862  27.663  1.00  0.00     0.134 A 
ATOM     57  F   UNL A   1      42.825  33.302  28.741  1.00  0.00    -0.206 F 
ATOM     58  C   UNL A   1      44.134  34.600  27.325  1.00  0.00     0.040 A 
ATOM     59  C   UNL A   1      46.397  34.011  26.871  1.00  0.00     0.040 A 
ATOM     60  F   UNL A   1      47.332  32.068  27.686  1.00  0.00    -0.206 F 
ATOM     61  C   UNL A   1      45.323  34.863  26.664  1.00  0.00     0.006 A 
ENDBRANCH  40  54
BRANCH  41  62
ATOM     62  C   UNL A   1      36.911  31.498  30.718  1.00  0.00     0.057 A 
ATOM     63  C   UNL A   1      35.955  31.810  31.689  1.00  0.00     0.134 A 
ATOM     64  C   UNL A   1      36.667  32.004  29.423  1.00  0.00     0.134 A 
ATOM     65  F   UNL A   1      36.122  31.406  32.956  1.00  0.00    -0.206 F 
ATOM     66  C   UNL A   1      34.820  32.578  31.392  1.00  0.00     0.040 A 
ATOM     67  C   UNL A   1      35.539  32.769  29.113  1.00  0.00     0.040 A 
ATOM     68  F   UNL A   1      37.554  31.829  28.432  1.00  0.00    -0.206 F 
ATOM     69  C   UNL A   1      34.612  33.066  30.103  1.00  0.00     0.006 A 
ENDBRANCH  41  62
BRANCH  53  70
ATOM     70  C   UNL A   1      42.211  29.476  33.677  1.00  0.00     0.057 A 
ATOM     71  C   UNL A   1      42.016  28.119  33.376  1.00  0.00     0.134 A 
ATOM     72  C   UNL A   1      42.407  29.778  35.027  1.00  0.00     0.134 A 
ATOM     73  F   UNL A   1      41.919  27.697  32.116  1.00  0.00    -0.206 F 
ATOM     74  C   UNL A   1      41.995  27.120  34.355  1.00  0.00     0.040 A 
ATOM     75  C   UNL A   1      42.415  28.789  36.017  1.00  0.00     0.040 A 
ATOM     76  F   UNL A   1      42.673  31.039  35.403  1.00  0.00    -0.206 F 
ATOM     77  C   UNL A   1      42.206  27.453  35.684  1.00  0.00     0.006 A 
ENDBRANCH  53  70
ENDBRANCH  27  28
ENDBRANCH  20  22
ENDBRANCH  19  20
ENDBRANCH  18  19
ENDBRANCH   1  18
TORSDOF 13
ENDMDL
