MODEL 1
REMARK VINA RESULT:     -11.2      0.000      0.000
REMARK SMILES [NH3+]C[C@H]1CC[C@@H](C(=O)N[C@H](C(=O)OCCOC(=O)c2ccc(-c3c4nc(c(-c5c(F)cccc5F)c5ccc([nH]5)c(-c5c(F)cccc5F)c5nc(c(-c6c(F)cccc6F)c6ccc3[nH]6)C=C5)C=C4)cc2)C2CCCCC2)O1
REMARK SMILES IDX 14 1 13 2 11 3 12 4 10 5 9 6 7 7 8 8 6 10 3 11 4 12 79 13
REMARK SMILES IDX 5 14 2 15 1 16 73 20 74 21 78 22 75 23 77 24 76 25 15 26
REMARK SMILES IDX 16 27 17 28 18 29 19 30 20 31 72 32 21 33 71 34 22 35 23 36
REMARK SMILES IDX 24 37 65 38 25 39 70 40 64 41 66 42 26 43 69 44 63 45 62 46
REMARK SMILES IDX 27 48 53 49 36 50 52 51 37 52 40 53 51 54 67 55 38 56 39 57
REMARK SMILES IDX 50 59 68 60 41 61 28 62 29 63 34 64 30 65 31 66 33 67 35 68
REMARK SMILES IDX 32 69 54 70 55 71 60 72 56 73 57 74 59 75 61 76 58 77 42 78
REMARK SMILES IDX 43 79 48 80 44 81 45 82 47 83 49 84 46 85
REMARK H PARENT 9 9 1 17 1 18 1 19 66 47 40 58
REMARK Flexibility Score: inf
ROOT
ATOM      1  C   UNL A   1      32.569  30.108  26.878  1.00  0.00     0.274 C 
ENDROOT
BRANCH   1   2
ATOM      2  O   UNL A   1      32.919  28.709  26.822  1.00  0.00    -0.461 OA
BRANCH   2   3
ATOM      3  C   UNL A   1      31.879  27.848  27.011  1.00  0.00     0.329 C 
ATOM      4  O   UNL A   1      31.044  27.970  27.901  1.00  0.00    -0.250 OA
BRANCH   3   5
ATOM      5  C   UNL A   1      31.911  26.661  26.023  1.00  0.00     0.195 C 
BRANCH   5   6
ATOM      6  N   UNL A   1      31.467  25.493  26.804  1.00  0.00    -0.340 N 
ATOM      7  C   UNL A   1      31.857  24.187  26.707  1.00  0.00     0.249 C 
ATOM      8  O   UNL A   1      31.512  23.420  27.611  1.00  0.00    -0.272 OA
ATOM      9  H   UNL A   1      30.791  25.680  27.495  1.00  0.00     0.164 HD
BRANCH   7  10
ATOM     10  C   UNL A   1      32.738  23.684  25.543  1.00  0.00     0.207 C 
ATOM     11  C   UNL A   1      33.621  21.687  24.716  1.00  0.00     0.174 C 
ATOM     12  C   UNL A   1      32.426  22.003  23.834  1.00  0.00     0.041 C 
ATOM     13  O   UNL A   1      33.536  22.547  25.858  1.00  0.00    -0.359 OA
ATOM     14  C   UNL A   1      31.962  23.375  24.271  1.00  0.00     0.045 C 
BRANCH  11  15
ATOM     15  C   UNL A   1      33.686  20.226  25.203  1.00  0.00     0.291 C 
BRANCH  15  16
ATOM     16  N   UNL A   1      33.380  20.021  26.613  1.00  0.00    -0.355 N 
ATOM     17  H   UNL A   1      33.972  19.278  26.986  1.00  0.00     0.344 HD
ATOM     18  H   UNL A   1      32.399  19.757  26.713  1.00  0.00     0.344 HD
ATOM     19  H   UNL A   1      33.554  20.885  27.127  1.00  0.00     0.344 HD
ENDBRANCH  15  16
ENDBRANCH  11  15
ENDBRANCH   7  10
ENDBRANCH   5   6
BRANCH   5  20
ATOM     20  C   UNL A   1      31.053  26.823  24.740  1.00  0.00     0.023 C 
ATOM     21  C   UNL A   1      29.626  26.266  24.904  1.00  0.00     0.006 C 
ATOM     22  C   UNL A   1      30.988  28.312  24.330  1.00  0.00     0.006 C 
ATOM     23  C   UNL A   1      28.753  26.512  23.675  1.00  0.00     0.000 C 
ATOM     24  C   UNL A   1      30.103  28.549  23.106  1.00  0.00     0.000 C 
ATOM     25  C   UNL A   1      28.701  27.988  23.308  1.00  0.00     0.000 C 
ENDBRANCH   5  20
ENDBRANCH   3   5
ENDBRANCH   2   3
ENDBRANCH   1   2
BRANCH   1  26
ATOM     26  C   UNL A   1      33.717  30.967  27.400  1.00  0.00     0.275 C 
BRANCH  26  27
ATOM     27  O   UNL A   1      34.770  30.123  27.888  1.00  0.00    -0.458 OA
BRANCH  27  28
ATOM     28  C   UNL A   1      35.563  30.650  28.845  1.00  0.00     0.338 C 
ATOM     29  O   UNL A   1      35.276  31.518  29.654  1.00  0.00    -0.246 OA
BRANCH  28  30
ATOM     30  C   UNL A   1      36.880  29.995  28.799  1.00  0.00     0.060 A 
ATOM     31  C   UNL A   1      37.444  29.471  29.964  1.00  0.00     0.016 A 
ATOM     32  C   UNL A   1      37.603  29.988  27.611  1.00  0.00     0.016 A 
ATOM     33  C   UNL A   1      38.738  28.971  29.969  1.00  0.00     0.010 A 
ATOM     34  C   UNL A   1      38.883  29.434  27.597  1.00  0.00     0.010 A 
ATOM     35  C   UNL A   1      39.464  28.940  28.778  1.00  0.00    -0.014 A 
BRANCH  35  36
ATOM     36  C   UNL A   1      40.857  28.447  28.765  1.00  0.00     0.031 A 
ATOM     37  C   UNL A   1      41.972  29.418  29.004  1.00  0.00     0.074 A 
ATOM     38  C   UNL A   1      41.116  27.150  28.520  1.00  0.00     0.049 A 
ATOM     39  N   UNL A   1      43.250  29.286  28.774  1.00  0.00    -0.248 NA
ATOM     40  C   UNL A   1      41.590  30.720  29.576  1.00  0.00     0.031 C 
ATOM     41  C   UNL A   1      40.112  26.096  28.369  1.00  0.00     0.029 A 
ATOM     42  N   UNL A   1      42.311  26.504  28.336  1.00  0.00    -0.354 N 
ATOM     43  C   UNL A   1      43.820  30.502  29.123  1.00  0.00     0.074 A 
ATOM     44  C   UNL A   1      42.751  31.358  29.588  1.00  0.00     0.031 C 
ATOM     45  C   UNL A   1      40.733  24.936  28.102  1.00  0.00     0.029 A 
ATOM     46  C   UNL A   1      42.165  25.184  27.988  1.00  0.00     0.049 A 
ATOM     47  H   UNL A   1      43.185  26.943  28.443  1.00  0.00     0.167 HD
ATOM     48  C   UNL A   1      45.122  30.866  29.045  1.00  0.00     0.037 A 
ATOM     49  C   UNL A   1      43.081  24.295  27.562  1.00  0.00     0.037 A 
ATOM     50  C   UNL A   1      46.170  29.989  28.597  1.00  0.00     0.049 A 
ATOM     51  C   UNL A   1      44.507  24.744  27.408  1.00  0.00     0.074 A 
ATOM     52  C   UNL A   1      47.520  30.255  28.453  1.00  0.00     0.029 A 
ATOM     53  N   UNL A   1      45.980  28.664  28.231  1.00  0.00    -0.354 N 
ATOM     54  N   UNL A   1      45.036  25.917  27.659  1.00  0.00    -0.248 NA
ATOM     55  C   UNL A   1      45.458  23.752  26.888  1.00  0.00     0.031 C 
ATOM     56  C   UNL A   1      48.143  29.097  27.972  1.00  0.00     0.029 A 
ATOM     57  C   UNL A   1      47.186  28.100  27.853  1.00  0.00     0.049 A 
ATOM     58  H   UNL A   1      45.115  28.195  28.238  1.00  0.00     0.167 HD
ATOM     59  C   UNL A   1      46.383  25.802  27.347  1.00  0.00     0.074 A 
ATOM     60  C   UNL A   1      46.592  24.439  26.900  1.00  0.00     0.031 C 
ATOM     61  C   UNL A   1      47.362  26.738  27.422  1.00  0.00     0.037 A 
BRANCH  48  62
ATOM     62  C   UNL A   1      45.462  32.280  29.406  1.00  0.00     0.057 A 
ATOM     63  C   UNL A   1      45.875  32.640  30.694  1.00  0.00     0.134 A 
ATOM     64  C   UNL A   1      45.379  33.295  28.445  1.00  0.00     0.134 A 
ATOM     65  F   UNL A   1      45.953  31.718  31.667  1.00  0.00    -0.206 F 
ATOM     66  C   UNL A   1      46.175  33.964  31.019  1.00  0.00     0.040 A 
ATOM     67  C   UNL A   1      45.697  34.619  28.752  1.00  0.00     0.040 A 
ATOM     68  F   UNL A   1      44.988  33.018  27.193  1.00  0.00    -0.206 F 
ATOM     69  C   UNL A   1      46.092  34.958  30.045  1.00  0.00     0.006 A 
ENDBRANCH  48  62
BRANCH  49  70
ATOM     70  C   UNL A   1      42.668  22.917  27.198  1.00  0.00     0.057 A 
ATOM     71  C   UNL A   1      42.517  22.540  25.860  1.00  0.00     0.134 A 
ATOM     72  C   UNL A   1      42.414  21.946  28.175  1.00  0.00     0.134 A 
ATOM     73  F   UNL A   1      42.723  23.433  24.880  1.00  0.00    -0.206 F 
ATOM     74  C   UNL A   1      42.119  21.250  25.504  1.00  0.00     0.040 A 
ATOM     75  C   UNL A   1      42.039  20.646  27.833  1.00  0.00     0.040 A 
ATOM     76  F   UNL A   1      42.539  22.245  29.476  1.00  0.00    -0.206 F 
ATOM     77  C   UNL A   1      41.886  20.296  26.494  1.00  0.00     0.006 A 
ENDBRANCH  49  70
BRANCH  61  78
ATOM     78  C   UNL A   1      48.744  26.299  27.048  1.00  0.00     0.057 A 
ATOM     79  C   UNL A   1      49.238  26.447  25.748  1.00  0.00     0.134 A 
ATOM     80  C   UNL A   1      49.600  25.754  28.013  1.00  0.00     0.134 A 
ATOM     81  F   UNL A   1      48.459  26.949  24.777  1.00  0.00    -0.206 F 
ATOM     82  C   UNL A   1      50.532  26.049  25.413  1.00  0.00     0.040 A 
ATOM     83  C   UNL A   1      50.904  25.374  27.696  1.00  0.00     0.040 A 
ATOM     84  F   UNL A   1      49.185  25.595  29.279  1.00  0.00    -0.206 F 
ATOM     85  C   UNL A   1      51.371  25.516  26.392  1.00  0.00     0.006 A 
ENDBRANCH  61  78
ENDBRANCH  35  36
ENDBRANCH  28  30
ENDBRANCH  27  28
ENDBRANCH  26  27
ENDBRANCH   1  26
TORSDOF 16
ENDMDL
MODEL 2
REMARK VINA RESULT:     -11.2      4.038      7.198
REMARK SMILES [NH3+]C[C@H]1CC[C@@H](C(=O)N[C@H](C(=O)OCCOC(=O)c2ccc(-c3c4nc(c(-c5c(F)cccc5F)c5ccc([nH]5)c(-c5c(F)cccc5F)c5nc(c(-c6c(F)cccc6F)c6ccc3[nH]6)C=C5)C=C4)cc2)C2CCCCC2)O1
REMARK SMILES IDX 14 1 13 2 11 3 12 4 10 5 9 6 7 7 8 8 6 10 3 11 4 12 79 13
REMARK SMILES IDX 5 14 2 15 1 16 73 20 74 21 78 22 75 23 77 24 76 25 15 26
REMARK SMILES IDX 16 27 17 28 18 29 19 30 20 31 72 32 21 33 71 34 22 35 23 36
REMARK SMILES IDX 24 37 65 38 25 39 70 40 64 41 66 42 26 43 69 44 63 45 62 46
REMARK SMILES IDX 27 48 53 49 36 50 52 51 37 52 40 53 51 54 67 55 38 56 39 57
REMARK SMILES IDX 50 59 68 60 41 61 28 62 29 63 34 64 30 65 31 66 33 67 35 68
REMARK SMILES IDX 32 69 54 70 55 71 60 72 56 73 57 74 59 75 61 76 58 77 42 78
REMARK SMILES IDX 43 79 48 80 44 81 45 82 47 83 49 84 46 85
REMARK H PARENT 9 9 1 17 1 18 1 19 66 47 40 58
REMARK Flexibility Score: inf
ROOT
ATOM      1  C   UNL A   1      35.574  33.618  28.000  1.00  0.00     0.274 C 
ENDROOT
BRANCH   1   2
ATOM      2  O   UNL A   1      36.218  34.284  29.107  1.00  0.00    -0.461 OA
BRANCH   2   3
ATOM      3  C   UNL A   1      37.228  33.581  29.693  1.00  0.00     0.329 C 
ATOM      4  O   UNL A   1      37.979  32.827  29.082  1.00  0.00    -0.250 OA
BRANCH   3   5
ATOM      5  C   UNL A   1      37.275  33.783  31.223  1.00  0.00     0.195 C 
BRANCH   5   6
ATOM      6  N   UNL A   1      36.137  33.010  31.753  1.00  0.00    -0.340 N 
ATOM      7  C   UNL A   1      34.837  33.394  31.931  1.00  0.00     0.249 C 
ATOM      8  O   UNL A   1      34.012  32.511  32.185  1.00  0.00    -0.272 OA
ATOM      9  H   UNL A   1      36.342  32.085  32.017  1.00  0.00     0.164 HD
BRANCH   7  10
ATOM     10  C   UNL A   1      34.393  34.864  31.777  1.00  0.00     0.207 C 
ATOM     11  C   UNL A   1      32.513  36.201  32.139  1.00  0.00     0.174 C 
ATOM     12  C   UNL A   1      33.444  36.479  33.305  1.00  0.00     0.041 C 
ATOM     13  O   UNL A   1      33.011  35.033  31.476  1.00  0.00    -0.359 OA
ATOM     14  C   UNL A   1      34.722  35.738  32.979  1.00  0.00     0.045 C 
BRANCH  11  15
ATOM     15  C   UNL A   1      31.045  35.953  32.539  1.00  0.00     0.291 C 
BRANCH  15  16
ATOM     16  N   UNL A   1      30.643  36.511  33.824  1.00  0.00    -0.355 N 
ATOM     17  H   UNL A   1      29.794  36.046  34.146  1.00  0.00     0.344 HD
ATOM     18  H   UNL A   1      30.463  37.511  33.718  1.00  0.00     0.344 HD
ATOM     19  H   UNL A   1      31.389  36.370  34.505  1.00  0.00     0.344 HD
ENDBRANCH  15  16
ENDBRANCH  11  15
ENDBRANCH   7  10
ENDBRANCH   5   6
BRANCH   5  20
ATOM     20  C   UNL A   1      38.596  33.365  31.923  1.00  0.00     0.023 C 
ATOM     21  C   UNL A   1      39.408  34.571  32.431  1.00  0.00     0.006 C 
ATOM     22  C   UNL A   1      38.291  32.409  33.100  1.00  0.00     0.006 C 
ATOM     23  C   UNL A   1      40.658  34.155  33.203  1.00  0.00     0.000 C 
ATOM     24  C   UNL A   1      39.547  32.008  33.873  1.00  0.00     0.000 C 
ATOM     25  C   UNL A   1      40.321  33.226  34.361  1.00  0.00     0.000 C 
ENDBRANCH   5  20
ENDBRANCH   3   5
ENDBRANCH   2   3
ENDBRANCH   1   2
BRANCH   1  26
ATOM     26  C   UNL A   1      34.284  32.919  28.420  1.00  0.00     0.275 C 
BRANCH  26  27
ATOM     27  O   UNL A   1      34.591  31.637  28.988  1.00  0.00    -0.458 OA
BRANCH  27  28
ATOM     28  C   UNL A   1      34.784  30.628  28.113  1.00  0.00     0.338 C 
ATOM     29  O   UNL A   1      34.023  30.245  27.238  1.00  0.00    -0.246 OA
BRANCH  28  30
ATOM     30  C   UNL A   1      36.108  30.030  28.346  1.00  0.00     0.060 A 
ATOM     31  C   UNL A   1      36.442  29.536  29.609  1.00  0.00     0.016 A 
ATOM     32  C   UNL A   1      37.060  30.050  27.332  1.00  0.00     0.016 A 
ATOM     33  C   UNL A   1      37.727  29.092  29.885  1.00  0.00     0.010 A 
ATOM     34  C   UNL A   1      38.337  29.552  27.588  1.00  0.00     0.010 A 
ATOM     35  C   UNL A   1      38.683  29.087  28.870  1.00  0.00    -0.014 A 
BRANCH  35  36
ATOM     36  C   UNL A   1      40.068  28.655  29.148  1.00  0.00     0.031 A 
ATOM     37  C   UNL A   1      41.019  29.627  29.774  1.00  0.00     0.074 A 
ATOM     38  C   UNL A   1      40.470  27.412  28.824  1.00  0.00     0.049 A 
ATOM     39  N   UNL A   1      42.321  29.576  29.858  1.00  0.00    -0.248 NA
ATOM     40  C   UNL A   1      40.419  30.827  30.382  1.00  0.00     0.031 C 
ATOM     41  C   UNL A   1      39.610  26.350  28.301  1.00  0.00     0.029 A 
ATOM     42  N   UNL A   1      41.716  26.843  28.871  1.00  0.00    -0.354 N 
ATOM     43  C   UNL A   1      42.701  30.756  30.482  1.00  0.00     0.074 A 
ATOM     44  C   UNL A   1      41.494  31.501  30.761  1.00  0.00     0.031 C 
ATOM     45  C   UNL A   1      40.357  25.260  28.063  1.00  0.00     0.029 A 
ATOM     46  C   UNL A   1      41.753  25.576  28.343  1.00  0.00     0.049 A 
ATOM     47  H   UNL A   1      42.504  27.297  29.246  1.00  0.00     0.167 HD
ATOM     48  C   UNL A   1      43.954  31.177  30.777  1.00  0.00     0.037 A 
ATOM     49  C   UNL A   1      42.805  24.788  28.059  1.00  0.00     0.037 A 
ATOM     50  C   UNL A   1      45.139  30.408  30.507  1.00  0.00     0.049 A 
ATOM     51  C   UNL A   1      44.190  25.307  28.322  1.00  0.00     0.074 A 
ATOM     52  C   UNL A   1      46.461  30.743  30.740  1.00  0.00     0.029 A 
ATOM     53  N   UNL A   1      45.138  29.137  29.950  1.00  0.00    -0.354 N 
ATOM     54  N   UNL A   1      44.558  26.457  28.836  1.00  0.00    -0.248 NA
ATOM     55  C   UNL A   1      45.307  24.431  27.945  1.00  0.00     0.031 C 
ATOM     56  C   UNL A   1      47.262  29.684  30.297  1.00  0.00     0.029 A 
ATOM     57  C   UNL A   1      46.437  28.676  29.823  1.00  0.00     0.049 A 
ATOM     58  H   UNL A   1      44.333  28.639  29.683  1.00  0.00     0.167 HD
ATOM     59  C   UNL A   1      45.945  26.436  28.862  1.00  0.00     0.074 A 
ATOM     60  C   UNL A   1      46.353  25.153  28.323  1.00  0.00     0.031 C 
ATOM     61  C   UNL A   1      46.807  27.390  29.291  1.00  0.00     0.037 A 
BRANCH  48  62
ATOM     62  C   UNL A   1      44.095  32.543  31.378  1.00  0.00     0.057 A 
ATOM     63  C   UNL A   1      44.104  32.750  32.763  1.00  0.00     0.134 A 
ATOM     64  C   UNL A   1      44.231  33.667  30.555  1.00  0.00     0.134 A 
ATOM     65  F   UNL A   1      43.955  31.716  33.606  1.00  0.00    -0.206 F 
ATOM     66  C   UNL A   1      44.222  34.030  33.307  1.00  0.00     0.040 A 
ATOM     67  C   UNL A   1      44.371  34.950  31.087  1.00  0.00     0.040 A 
ATOM     68  F   UNL A   1      44.228  33.539  29.220  1.00  0.00    -0.206 F 
ATOM     69  C   UNL A   1      44.362  35.134  32.469  1.00  0.00     0.006 A 
ENDBRANCH  48  62
BRANCH  49  70
ATOM     70  C   UNL A   1      42.592  23.455  27.441  1.00  0.00     0.057 A 
ATOM     71  C   UNL A   1      42.319  22.332  28.229  1.00  0.00     0.134 A 
ATOM     72  C   UNL A   1      42.654  23.271  26.054  1.00  0.00     0.134 A 
ATOM     73  F   UNL A   1      42.271  22.440  29.565  1.00  0.00    -0.206 F 
ATOM     74  C   UNL A   1      42.127  21.071  27.662  1.00  0.00     0.040 A 
ATOM     75  C   UNL A   1      42.440  22.022  25.472  1.00  0.00     0.040 A 
ATOM     76  F   UNL A   1      42.913  24.309  25.244  1.00  0.00    -0.206 F 
ATOM     77  C   UNL A   1      42.180  20.915  26.277  1.00  0.00     0.006 A 
ENDBRANCH  49  70
BRANCH  61  78
ATOM     78  C   UNL A   1      48.267  27.059  29.228  1.00  0.00     0.057 A 
ATOM     79  C   UNL A   1      48.913  26.377  30.264  1.00  0.00     0.134 A 
ATOM     80  C   UNL A   1      49.023  27.398  28.100  1.00  0.00     0.134 A 
ATOM     81  F   UNL A   1      48.243  26.038  31.378  1.00  0.00    -0.206 F 
ATOM     82  C   UNL A   1      50.269  26.059  30.190  1.00  0.00     0.040 A 
ATOM     83  C   UNL A   1      50.374  27.067  28.004  1.00  0.00     0.040 A 
ATOM     84  F   UNL A   1      48.457  28.047  27.070  1.00  0.00    -0.206 F 
ATOM     85  C   UNL A   1      51.001  26.399  29.053  1.00  0.00     0.006 A 
ENDBRANCH  61  78
ENDBRANCH  35  36
ENDBRANCH  28  30
ENDBRANCH  27  28
ENDBRANCH  26  27
ENDBRANCH   1  26
TORSDOF 16
ENDMDL
MODEL 3
REMARK VINA RESULT:     -11.1      4.188      7.788
REMARK SMILES [NH3+]C[C@H]1CC[C@@H](C(=O)N[C@H](C(=O)OCCOC(=O)c2ccc(-c3c4nc(c(-c5c(F)cccc5F)c5ccc([nH]5)c(-c5c(F)cccc5F)c5nc(c(-c6c(F)cccc6F)c6ccc3[nH]6)C=C5)C=C4)cc2)C2CCCCC2)O1
REMARK SMILES IDX 14 1 13 2 11 3 12 4 10 5 9 6 7 7 8 8 6 10 3 11 4 12 79 13
REMARK SMILES IDX 5 14 2 15 1 16 73 20 74 21 78 22 75 23 77 24 76 25 15 26
REMARK SMILES IDX 16 27 17 28 18 29 19 30 20 31 72 32 21 33 71 34 22 35 23 36
REMARK SMILES IDX 24 37 65 38 25 39 70 40 64 41 66 42 26 43 69 44 63 45 62 46
REMARK SMILES IDX 27 48 53 49 36 50 52 51 37 52 40 53 51 54 67 55 38 56 39 57
REMARK SMILES IDX 50 59 68 60 41 61 28 62 29 63 34 64 30 65 31 66 33 67 35 68
REMARK SMILES IDX 32 69 54 70 55 71 60 72 56 73 57 74 59 75 61 76 58 77 42 78
REMARK SMILES IDX 43 79 48 80 44 81 45 82 47 83 49 84 46 85
REMARK H PARENT 9 9 1 17 1 18 1 19 66 47 40 58
REMARK Flexibility Score: inf
ROOT
ATOM      1  C   UNL A   1      31.550  28.656  27.278  1.00  0.00     0.274 C 
ENDROOT
BRANCH   1   2
ATOM      2  O   UNL A   1      32.431  27.519  27.161  1.00  0.00    -0.461 OA
BRANCH   2   3
ATOM      3  C   UNL A   1      31.957  26.501  26.389  1.00  0.00     0.329 C 
ATOM      4  O   UNL A   1      30.811  26.068  26.458  1.00  0.00    -0.250 OA
BRANCH   3   5
ATOM      5  C   UNL A   1      33.044  25.905  25.468  1.00  0.00     0.195 C 
BRANCH   5   6
ATOM      6  N   UNL A   1      33.781  27.066  24.936  1.00  0.00    -0.340 N 
ATOM      7  C   UNL A   1      33.822  27.555  23.660  1.00  0.00     0.249 C 
ATOM      8  O   UNL A   1      34.332  28.667  23.492  1.00  0.00    -0.272 OA
ATOM      9  H   UNL A   1      34.322  27.560  25.593  1.00  0.00     0.164 HD
BRANCH   7  10
ATOM     10  C   UNL A   1      33.213  26.781  22.471  1.00  0.00     0.207 C 
ATOM     11  C   UNL A   1      32.822  24.581  21.793  1.00  0.00     0.174 C 
ATOM     12  C   UNL A   1      31.486  25.100  22.295  1.00  0.00     0.041 C 
ATOM     13  O   UNL A   1      33.819  25.517  22.219  1.00  0.00    -0.359 OA
ATOM     14  C   UNL A   1      31.710  26.569  22.577  1.00  0.00     0.045 C 
BRANCH  11  15
ATOM     15  C   UNL A   1      33.202  23.183  22.319  1.00  0.00     0.291 C 
BRANCH  15  16
ATOM     16  N   UNL A   1      32.271  22.112  21.983  1.00  0.00    -0.355 N 
ATOM     17  H   UNL A   1      31.329  22.380  22.267  1.00  0.00     0.344 HD
ATOM     18  H   UNL A   1      32.545  21.259  22.472  1.00  0.00     0.344 HD
ATOM     19  H   UNL A   1      32.290  21.948  20.977  1.00  0.00     0.344 HD
ENDBRANCH  15  16
ENDBRANCH  11  15
ENDBRANCH   7  10
ENDBRANCH   5   6
BRANCH   5  20
ATOM     20  C   UNL A   1      34.018  24.895  26.132  1.00  0.00     0.023 C 
ATOM     21  C   UNL A   1      33.329  23.574  26.522  1.00  0.00     0.006 C 
ATOM     22  C   UNL A   1      35.206  24.605  25.185  1.00  0.00     0.006 C 
ATOM     23  C   UNL A   1      34.308  22.545  27.087  1.00  0.00     0.000 C 
ATOM     24  C   UNL A   1      36.172  23.566  25.754  1.00  0.00     0.000 C 
ATOM     25  C   UNL A   1      35.456  22.274  26.125  1.00  0.00     0.000 C 
ENDBRANCH   5  20
ENDBRANCH   3   5
ENDBRANCH   2   3
ENDBRANCH   1   2
BRANCH   1  26
ATOM     26  C   UNL A   1      31.723  29.639  26.122  1.00  0.00     0.275 C 
BRANCH  26  27
ATOM     27  O   UNL A   1      33.068  30.139  26.110  1.00  0.00    -0.458 OA
BRANCH  27  28
ATOM     28  C   UNL A   1      33.340  31.140  26.974  1.00  0.00     0.338 C 
ATOM     29  O   UNL A   1      32.627  32.088  27.264  1.00  0.00    -0.246 OA
BRANCH  28  30
ATOM     30  C   UNL A   1      34.669  30.920  27.567  1.00  0.00     0.060 A 
ATOM     31  C   UNL A   1      35.067  29.635  27.940  1.00  0.00     0.016 A 
ATOM     32  C   UNL A   1      35.485  32.011  27.848  1.00  0.00     0.016 A 
ATOM     33  C   UNL A   1      36.257  29.426  28.622  1.00  0.00     0.010 A 
ATOM     34  C   UNL A   1      36.709  31.800  28.482  1.00  0.00     0.010 A 
ATOM     35  C   UNL A   1      37.093  30.509  28.889  1.00  0.00    -0.014 A 
BRANCH  35  36
ATOM     36  C   UNL A   1      38.347  30.318  29.647  1.00  0.00     0.031 A 
ATOM     37  C   UNL A   1      39.431  29.472  29.053  1.00  0.00     0.074 A 
ATOM     38  C   UNL A   1      38.501  30.881  30.858  1.00  0.00     0.049 A 
ATOM     39  N   UNL A   1      40.477  28.943  29.627  1.00  0.00    -0.248 NA
ATOM     40  C   UNL A   1      39.311  29.173  27.616  1.00  0.00     0.031 C 
ATOM     41  C   UNL A   1      37.557  31.802  31.494  1.00  0.00     0.029 A 
ATOM     42  N   UNL A   1      39.505  30.740  31.780  1.00  0.00    -0.354 N 
ATOM     43  C   UNL A   1      41.115  28.210  28.637  1.00  0.00     0.074 A 
ATOM     44  C   UNL A   1      40.343  28.365  27.424  1.00  0.00     0.031 C 
ATOM     45  C   UNL A   1      38.022  32.135  32.709  1.00  0.00     0.029 A 
ATOM     46  C   UNL A   1      39.250  31.390  32.963  1.00  0.00     0.049 A 
ATOM     47  H   UNL A   1      40.327  30.226  31.611  1.00  0.00     0.167 HD
ATOM     48  C   UNL A   1      42.240  27.463  28.746  1.00  0.00     0.037 A 
ATOM     49  C   UNL A   1      39.904  31.337  34.138  1.00  0.00     0.037 A 
ATOM     50  C   UNL A   1      43.002  27.340  29.959  1.00  0.00     0.049 A 
ATOM     51  C   UNL A   1      41.103  30.440  34.258  1.00  0.00     0.074 A 
ATOM     52  C   UNL A   1      44.143  26.593  30.195  1.00  0.00     0.029 A 
ATOM     53  N   UNL A   1      42.700  27.996  31.144  1.00  0.00    -0.354 N 
ATOM     54  N   UNL A   1      41.662  29.681  33.346  1.00  0.00    -0.248 NA
ATOM     55  C   UNL A   1      41.749  30.375  35.576  1.00  0.00     0.031 C 
ATOM     56  C   UNL A   1      44.514  26.777  31.531  1.00  0.00     0.029 A 
ATOM     57  C   UNL A   1      43.627  27.666  32.117  1.00  0.00     0.049 A 
ATOM     58  H   UNL A   1      41.938  28.606  31.273  1.00  0.00     0.167 HD
ATOM     59  C   UNL A   1      42.735  29.061  33.972  1.00  0.00     0.074 A 
ATOM     60  C   UNL A   1      42.755  29.545  35.339  1.00  0.00     0.031 C 
ATOM     61  C   UNL A   1      43.624  28.172  33.465  1.00  0.00     0.037 A 
BRANCH  48  62
ATOM     62  C   UNL A   1      42.673  26.694  27.535  1.00  0.00     0.057 A 
ATOM     63  C   UNL A   1      42.227  25.391  27.281  1.00  0.00     0.134 A 
ATOM     64  C   UNL A   1      43.547  27.272  26.605  1.00  0.00     0.134 A 
ATOM     65  F   UNL A   1      41.406  24.773  28.144  1.00  0.00    -0.206 F 
ATOM     66  C   UNL A   1      42.650  24.683  26.155  1.00  0.00     0.040 A 
ATOM     67  C   UNL A   1      43.960  26.581  25.465  1.00  0.00     0.040 A 
ATOM     68  F   UNL A   1      44.013  28.516  26.789  1.00  0.00    -0.206 F 
ATOM     69  C   UNL A   1      43.516  25.279  25.240  1.00  0.00     0.006 A 
ENDBRANCH  48  62
BRANCH  49  70
ATOM     70  C   UNL A   1      39.403  32.108  35.303  1.00  0.00     0.057 A 
ATOM     71  C   UNL A   1      39.824  33.422  35.532  1.00  0.00     0.134 A 
ATOM     72  C   UNL A   1      38.496  31.552  36.214  1.00  0.00     0.134 A 
ATOM     73  F   UNL A   1      40.711  34.000  34.707  1.00  0.00    -0.206 F 
ATOM     74  C   UNL A   1      39.370  34.154  36.630  1.00  0.00     0.040 A 
ATOM     75  C   UNL A   1      38.015  32.281  37.302  1.00  0.00     0.040 A 
ATOM     76  F   UNL A   1      38.055  30.296  36.052  1.00  0.00    -0.206 F 
ATOM     77  C   UNL A   1      38.456  33.585  37.515  1.00  0.00     0.006 A 
ENDBRANCH  49  70
BRANCH  61  78
ATOM     78  C   UNL A   1      44.708  27.703  34.386  1.00  0.00     0.057 A 
ATOM     79  C   UNL A   1      44.570  26.544  35.157  1.00  0.00     0.134 A 
ATOM     80  C   UNL A   1      45.917  28.404  34.473  1.00  0.00     0.134 A 
ATOM     81  F   UNL A   1      43.429  25.838  35.126  1.00  0.00    -0.206 F 
ATOM     82  C   UNL A   1      45.592  26.107  36.000  1.00  0.00     0.040 A 
ATOM     83  C   UNL A   1      46.954  27.965  35.296  1.00  0.00     0.040 A 
ATOM     84  F   UNL A   1      46.111  29.520  33.752  1.00  0.00    -0.206 F 
ATOM     85  C   UNL A   1      46.791  26.816  36.065  1.00  0.00     0.006 A 
ENDBRANCH  61  78
ENDBRANCH  35  36
ENDBRANCH  28  30
ENDBRANCH  27  28
ENDBRANCH  26  27
ENDBRANCH   1  26
TORSDOF 16
ENDMDL
