MODEL 1
REMARK VINA RESULT:     -11.6      0.000      0.000
REMARK SMILES O=C(CCCNC(=O)[C@@H]1CCCN(S(=O)(=O)c2ccc(F)cc2)C1)OCCOC(=O)c1ccc(-c2c3nc(c(-c4c(F)cccc4F)c4ccc([nH]4)c(-c4c(F)cccc4F)c4nc(c(-c5c(F)cccc5F)c5ccc2[nH]5)C=C4)C=C3)cc1
REMARK SMILES IDX 1 1 2 2 3 3 4 4 5 5 6 6 7 7 8 9 9 10 10 11 24 12 11 13 13 14
REMARK SMILES IDX 12 15 14 16 15 17 16 18 17 19 18 20 23 21 19 22 22 23 20 24
REMARK SMILES IDX 21 25 25 26 26 27 27 28 28 29 29 30 30 31 31 32 32 33 84 34
REMARK SMILES IDX 33 35 83 36 34 37 35 38 36 39 77 40 37 41 82 42 76 43 78 44
REMARK SMILES IDX 38 45 81 46 75 47 74 48 39 50 65 51 48 52 64 53 49 54 52 55
REMARK SMILES IDX 63 56 79 57 50 58 51 59 62 61 80 62 53 63 40 64 41 65 46 66
REMARK SMILES IDX 42 67 43 68 45 69 47 70 44 71 66 72 67 73 72 74 68 75 69 76
REMARK SMILES IDX 71 77 73 78 70 79 54 80 55 81 60 82 56 83 57 84 59 85 61 86
REMARK SMILES IDX 58 87
REMARK H PARENT 6 8 78 49 52 60
REMARK Flexibility Score: inf
ROOT
ATOM      1  O   UNL A   1      42.280  19.597  26.886  1.00  0.00    -0.252 OA
ATOM      2  C   UNL A   1      42.414  20.551  26.129  1.00  0.00     0.305 C 
ENDROOT
BRANCH   2   3
ATOM      3  C   UNL A   1      41.412  21.681  26.079  1.00  0.00     0.124 C 
BRANCH   3   4
ATOM      4  C   UNL A   1      39.985  21.280  26.457  1.00  0.00     0.033 C 
BRANCH   4   5
ATOM      5  C   UNL A   1      38.933  22.373  26.267  1.00  0.00     0.116 C 
BRANCH   5   6
ATOM      6  N   UNL A   1      38.201  22.228  25.019  1.00  0.00    -0.356 N 
ATOM      7  C   UNL A   1      37.045  22.851  24.652  1.00  0.00     0.224 C 
ATOM      8  H   UNL A   1      38.585  21.605  24.360  1.00  0.00     0.163 HD
ATOM      9  O   UNL A   1      36.916  23.108  23.456  1.00  0.00    -0.275 OA
BRANCH   7  10
ATOM     10  C   UNL A   1      35.993  23.150  25.710  1.00  0.00     0.093 C 
ATOM     11  C   UNL A   1      35.240  21.874  26.103  1.00  0.00     0.016 C 
ATOM     12  C   UNL A   1      34.994  24.205  25.215  1.00  0.00     0.116 C 
ATOM     13  C   UNL A   1      34.405  21.366  24.936  1.00  0.00     0.018 C 
ATOM     14  N   UNL A   1      34.129  23.693  24.100  1.00  0.00    -0.197 NA
ATOM     15  C   UNL A   1      33.428  22.427  24.445  1.00  0.00     0.102 C 
BRANCH  14  16
ATOM     16  S   UNL A   1      33.117  24.925  23.450  1.00  0.00     0.243 S 
ATOM     17  O   UNL A   1      33.862  25.591  22.402  1.00  0.00    -0.207 OA
ATOM     18  O   UNL A   1      31.818  24.345  23.176  1.00  0.00    -0.207 OA
BRANCH  16  19
ATOM     19  C   UNL A   1      32.909  26.085  24.789  1.00  0.00     0.082 A 
ATOM     20  C   UNL A   1      33.808  27.151  24.930  1.00  0.00     0.025 A 
ATOM     21  C   UNL A   1      31.782  25.996  25.616  1.00  0.00     0.025 A 
ATOM     22  C   UNL A   1      33.614  28.090  25.943  1.00  0.00     0.040 A 
ATOM     23  C   UNL A   1      31.578  26.958  26.610  1.00  0.00     0.040 A 
ATOM     24  C   UNL A   1      32.500  27.987  26.771  1.00  0.00     0.123 A 
ATOM     25  F   UNL A   1      32.306  28.904  27.727  1.00  0.00    -0.207 F 
ENDBRANCH  16  19
ENDBRANCH  14  16
ENDBRANCH   7  10
ENDBRANCH   5   6
ENDBRANCH   4   5
ENDBRANCH   3   4
ENDBRANCH   2   3
BRANCH   2  26
ATOM     26  O   UNL A   1      43.374  20.580  25.168  1.00  0.00    -0.462 OA
BRANCH  26  27
ATOM     27  C   UNL A   1      44.510  21.443  25.370  1.00  0.00     0.274 C 
BRANCH  27  28
ATOM     28  C   UNL A   1      44.666  22.483  24.257  1.00  0.00     0.275 C 
BRANCH  28  29
ATOM     29  O   UNL A   1      43.845  23.635  24.511  1.00  0.00    -0.458 OA
BRANCH  29  30
ATOM     30  C   UNL A   1      44.529  24.699  25.008  1.00  0.00     0.338 C 
ATOM     31  O   UNL A   1      45.625  25.093  24.661  1.00  0.00    -0.246 OA
BRANCH  30  32
ATOM     32  C   UNL A   1      43.670  25.453  25.946  1.00  0.00     0.060 A 
ATOM     33  C   UNL A   1      44.044  26.770  26.235  1.00  0.00     0.016 A 
ATOM     34  C   UNL A   1      42.545  24.886  26.555  1.00  0.00     0.016 A 
ATOM     35  C   UNL A   1      43.331  27.504  27.180  1.00  0.00     0.010 A 
ATOM     36  C   UNL A   1      41.832  25.625  27.505  1.00  0.00     0.010 A 
ATOM     37  C   UNL A   1      42.249  26.922  27.851  1.00  0.00    -0.014 A 
BRANCH  37  38
ATOM     38  C   UNL A   1      41.682  27.620  29.029  1.00  0.00     0.031 A 
ATOM     39  C   UNL A   1      42.400  27.517  30.346  1.00  0.00     0.074 A 
ATOM     40  C   UNL A   1      40.595  28.403  28.916  1.00  0.00     0.049 A 
ATOM     41  N   UNL A   1      42.150  28.129  31.476  1.00  0.00    -0.248 NA
ATOM     42  C   UNL A   1      43.559  26.612  30.393  1.00  0.00     0.031 C 
ATOM     43  C   UNL A   1      39.828  28.611  27.689  1.00  0.00     0.029 A 
ATOM     44  N   UNL A   1      39.960  29.183  29.849  1.00  0.00    -0.354 N 
ATOM     45  C   UNL A   1      43.134  27.703  32.358  1.00  0.00     0.074 A 
ATOM     46  C   UNL A   1      43.952  26.740  31.651  1.00  0.00     0.031 C 
ATOM     47  C   UNL A   1      38.830  29.476  27.943  1.00  0.00     0.029 A 
ATOM     48  C   UNL A   1      38.884  29.872  29.350  1.00  0.00     0.049 A 
ATOM     49  H   UNL A   1      40.250  29.242  30.788  1.00  0.00     0.167 HD
ATOM     50  C   UNL A   1      43.355  28.094  33.635  1.00  0.00     0.037 A 
ATOM     51  C   UNL A   1      38.043  30.732  29.958  1.00  0.00     0.037 A 
ATOM     52  C   UNL A   1      42.536  29.035  34.349  1.00  0.00     0.049 A 
ATOM     53  C   UNL A   1      38.257  31.090  31.404  1.00  0.00     0.074 A 
ATOM     54  C   UNL A   1      42.679  29.487  35.649  1.00  0.00     0.029 A 
ATOM     55  N   UNL A   1      41.416  29.661  33.826  1.00  0.00    -0.354 N 
ATOM     56  N   UNL A   1      39.207  30.703  32.220  1.00  0.00    -0.248 NA
ATOM     57  C   UNL A   1      37.285  32.012  32.011  1.00  0.00     0.031 C 
ATOM     58  C   UNL A   1      41.619  30.356  35.927  1.00  0.00     0.029 A 
ATOM     59  C   UNL A   1      40.843  30.481  34.785  1.00  0.00     0.049 A 
ATOM     60  H   UNL A   1      41.078  29.543  32.910  1.00  0.00     0.167 HD
ATOM     61  C   UNL A   1      38.965  31.353  33.425  1.00  0.00     0.074 A 
ATOM     62  C   UNL A   1      37.781  32.163  33.233  1.00  0.00     0.031 C 
ATOM     63  C   UNL A   1      39.666  31.286  34.583  1.00  0.00     0.037 A 
BRANCH  50  64
ATOM     64  C   UNL A   1      44.534  27.496  34.340  1.00  0.00     0.057 A 
ATOM     65  C   UNL A   1      44.412  26.301  35.056  1.00  0.00     0.134 A 
ATOM     66  C   UNL A   1      45.787  28.122  34.330  1.00  0.00     0.134 A 
ATOM     67  F   UNL A   1      43.239  25.653  35.106  1.00  0.00    -0.206 F 
ATOM     68  C   UNL A   1      45.496  25.750  35.743  1.00  0.00     0.040 A 
ATOM     69  C   UNL A   1      46.884  27.571  34.994  1.00  0.00     0.040 A 
ATOM     70  F   UNL A   1      45.972  29.263  33.647  1.00  0.00    -0.206 F 
ATOM     71  C   UNL A   1      46.737  26.384  35.709  1.00  0.00     0.006 A 
ENDBRANCH  50  64
BRANCH  51  72
ATOM     72  C   UNL A   1      36.934  31.342  29.185  1.00  0.00     0.057 A 
ATOM     73  C   UNL A   1      35.791  30.605  28.849  1.00  0.00     0.134 A 
ATOM     74  C   UNL A   1      36.996  32.671  28.756  1.00  0.00     0.134 A 
ATOM     75  F   UNL A   1      35.673  29.325  29.231  1.00  0.00    -0.206 F 
ATOM     76  C   UNL A   1      34.756  31.167  28.101  1.00  0.00     0.040 A 
ATOM     77  C   UNL A   1      35.960  33.252  28.022  1.00  0.00     0.040 A 
ATOM     78  F   UNL A   1      38.057  33.431  29.066  1.00  0.00    -0.206 F 
ATOM     79  C   UNL A   1      34.837  32.496  27.688  1.00  0.00     0.006 A 
ENDBRANCH  51  72
BRANCH  63  80
ATOM     80  C   UNL A   1      39.193  32.122  35.736  1.00  0.00     0.057 A 
ATOM     81  C   UNL A   1      38.295  31.599  36.675  1.00  0.00     0.134 A 
ATOM     82  C   UNL A   1      39.560  33.467  35.869  1.00  0.00     0.134 A 
ATOM     83  F   UNL A   1      37.894  30.321  36.597  1.00  0.00    -0.206 F 
ATOM     84  C   UNL A   1      37.768  32.387  37.699  1.00  0.00     0.040 A 
ATOM     85  C   UNL A   1      39.058  34.259  36.904  1.00  0.00     0.040 A 
ATOM     86  F   UNL A   1      40.424  34.024  35.007  1.00  0.00    -0.206 F 
ATOM     87  C   UNL A   1      38.152  33.721  37.817  1.00  0.00     0.006 A 
ENDBRANCH  63  80
ENDBRANCH  37  38
ENDBRANCH  30  32
ENDBRANCH  29  30
ENDBRANCH  28  29
ENDBRANCH  27  28
ENDBRANCH  26  27
ENDBRANCH   2  26
TORSDOF 17
ENDMDL
MODEL 2
REMARK VINA RESULT:     -11.5      1.021      6.284
REMARK SMILES O=C(CCCNC(=O)[C@@H]1CCCN(S(=O)(=O)c2ccc(F)cc2)C1)OCCOC(=O)c1ccc(-c2c3nc(c(-c4c(F)cccc4F)c4ccc([nH]4)c(-c4c(F)cccc4F)c4nc(c(-c5c(F)cccc5F)c5ccc2[nH]5)C=C4)C=C3)cc1
REMARK SMILES IDX 1 1 2 2 3 3 4 4 5 5 6 6 7 7 8 9 9 10 10 11 24 12 11 13 13 14
REMARK SMILES IDX 12 15 14 16 15 17 16 18 17 19 18 20 23 21 19 22 22 23 20 24
REMARK SMILES IDX 21 25 25 26 26 27 27 28 28 29 29 30 30 31 31 32 32 33 84 34
REMARK SMILES IDX 33 35 83 36 34 37 35 38 36 39 77 40 37 41 82 42 76 43 78 44
REMARK SMILES IDX 38 45 81 46 75 47 74 48 39 50 65 51 48 52 64 53 49 54 52 55
REMARK SMILES IDX 63 56 79 57 50 58 51 59 62 61 80 62 53 63 40 64 41 65 46 66
REMARK SMILES IDX 42 67 43 68 45 69 47 70 44 71 66 72 67 73 72 74 68 75 69 76
REMARK SMILES IDX 71 77 73 78 70 79 54 80 55 81 60 82 56 83 57 84 59 85 61 86
REMARK SMILES IDX 58 87
REMARK H PARENT 6 8 78 49 52 60
REMARK Flexibility Score: inf
ROOT
ATOM      1  O   UNL A   1      40.606  19.178  25.634  1.00  0.00    -0.252 OA
ATOM      2  C   UNL A   1      41.187  20.019  26.310  1.00  0.00     0.305 C 
ENDROOT
BRANCH   2   3
ATOM      3  C   UNL A   1      40.443  21.120  27.030  1.00  0.00     0.124 C 
BRANCH   3   4
ATOM      4  C   UNL A   1      39.705  22.093  26.109  1.00  0.00     0.033 C 
BRANCH   4   5
ATOM      5  C   UNL A   1      38.301  21.652  25.694  1.00  0.00     0.116 C 
BRANCH   5   6
ATOM      6  N   UNL A   1      37.493  22.758  25.205  1.00  0.00    -0.356 N 
ATOM      7  C   UNL A   1      36.295  23.193  25.687  1.00  0.00     0.224 C 
ATOM      8  H   UNL A   1      37.853  23.250  24.433  1.00  0.00     0.163 HD
ATOM      9  O   UNL A   1      36.077  24.401  25.608  1.00  0.00    -0.275 OA
BRANCH   7  10
ATOM     10  C   UNL A   1      35.304  22.181  26.245  1.00  0.00     0.093 C 
ATOM     11  C   UNL A   1      34.988  21.100  25.205  1.00  0.00     0.016 C 
ATOM     12  C   UNL A   1      34.004  22.865  26.690  1.00  0.00     0.116 C 
ATOM     13  C   UNL A   1      34.227  21.698  24.029  1.00  0.00     0.018 C 
ATOM     14  N   UNL A   1      33.220  23.409  25.530  1.00  0.00    -0.197 NA
ATOM     15  C   UNL A   1      32.946  22.386  24.486  1.00  0.00     0.102 C 
BRANCH  14  16
ATOM     16  S   UNL A   1      31.843  24.303  26.045  1.00  0.00     0.243 S 
ATOM     17  O   UNL A   1      30.783  24.056  25.089  1.00  0.00    -0.207 OA
ATOM     18  O   UNL A   1      31.637  24.045  27.455  1.00  0.00    -0.207 OA
BRANCH  16  19
ATOM     19  C   UNL A   1      32.332  26.011  25.883  1.00  0.00     0.082 A 
ATOM     20  C   UNL A   1      33.251  26.379  24.892  1.00  0.00     0.025 A 
ATOM     21  C   UNL A   1      31.705  26.989  26.665  1.00  0.00     0.025 A 
ATOM     22  C   UNL A   1      33.594  27.721  24.729  1.00  0.00     0.040 A 
ATOM     23  C   UNL A   1      32.030  28.336  26.476  1.00  0.00     0.040 A 
ATOM     24  C   UNL A   1      32.978  28.687  25.519  1.00  0.00     0.123 A 
ATOM     25  F   UNL A   1      33.291  29.977  25.343  1.00  0.00    -0.207 F 
ENDBRANCH  16  19
ENDBRANCH  14  16
ENDBRANCH   7  10
ENDBRANCH   5   6
ENDBRANCH   4   5
ENDBRANCH   3   4
ENDBRANCH   2   3
BRANCH   2  26
ATOM     26  O   UNL A   1      42.541  20.123  26.325  1.00  0.00    -0.462 OA
BRANCH  26  27
ATOM     27  C   UNL A   1      43.118  21.439  26.433  1.00  0.00     0.274 C 
BRANCH  27  28
ATOM     28  C   UNL A   1      43.449  22.051  25.069  1.00  0.00     0.275 C 
BRANCH  28  29
ATOM     29  O   UNL A   1      42.831  23.341  24.921  1.00  0.00    -0.458 OA
BRANCH  29  30
ATOM     30  C   UNL A   1      43.647  24.381  25.234  1.00  0.00     0.338 C 
ATOM     31  O   UNL A   1      44.709  24.662  24.713  1.00  0.00    -0.246 OA
BRANCH  30  32
ATOM     32  C   UNL A   1      42.979  25.265  26.212  1.00  0.00     0.060 A 
ATOM     33  C   UNL A   1      43.358  26.612  26.219  1.00  0.00     0.016 A 
ATOM     34  C   UNL A   1      42.029  24.793  27.125  1.00  0.00     0.016 A 
ATOM     35  C   UNL A   1      42.835  27.479  27.175  1.00  0.00     0.010 A 
ATOM     36  C   UNL A   1      41.506  25.664  28.086  1.00  0.00     0.010 A 
ATOM     37  C   UNL A   1      41.940  27.001  28.141  1.00  0.00    -0.014 A 
BRANCH  37  38
ATOM     38  C   UNL A   1      41.610  27.867  29.297  1.00  0.00     0.031 A 
ATOM     39  C   UNL A   1      40.414  28.774  29.203  1.00  0.00     0.074 A 
ATOM     40  C   UNL A   1      42.307  27.791  30.443  1.00  0.00     0.049 A 
ATOM     41  N   UNL A   1      39.876  29.532  30.124  1.00  0.00    -0.248 NA
ATOM     42  C   UNL A   1      39.728  28.825  27.902  1.00  0.00     0.031 C 
ATOM     43  C   UNL A   1      43.466  26.929  30.672  1.00  0.00     0.029 A 
ATOM     44  N   UNL A   1      42.126  28.439  31.639  1.00  0.00    -0.354 N 
ATOM     45  C   UNL A   1      38.776  30.129  29.522  1.00  0.00     0.074 A 
ATOM     46  C   UNL A   1      38.754  29.689  28.143  1.00  0.00     0.031 C 
ATOM     47  C   UNL A   1      43.886  27.094  31.938  1.00  0.00     0.029 A 
ATOM     48  C   UNL A   1      43.032  28.078  32.604  1.00  0.00     0.049 A 
ATOM     49  H   UNL A   1      41.413  29.101  31.789  1.00  0.00     0.167 HD
ATOM     50  C   UNL A   1      37.852  30.951  30.071  1.00  0.00     0.037 A 
ATOM     51  C   UNL A   1      43.154  28.488  33.881  1.00  0.00     0.037 A 
ATOM     52  C   UNL A   1      37.877  31.408  31.434  1.00  0.00     0.049 A 
ATOM     53  C   UNL A   1      42.162  29.469  34.449  1.00  0.00     0.074 A 
ATOM     54  C   UNL A   1      36.986  32.248  32.077  1.00  0.00     0.029 A 
ATOM     55  N   UNL A   1      38.850  31.068  32.360  1.00  0.00    -0.354 N 
ATOM     56  N   UNL A   1      41.110  30.004  33.879  1.00  0.00    -0.248 NA
ATOM     57  C   UNL A   1      42.371  29.895  35.840  1.00  0.00     0.031 C 
ATOM     58  C   UNL A   1      37.443  32.451  33.383  1.00  0.00     0.029 A 
ATOM     59  C   UNL A   1      38.594  31.700  33.566  1.00  0.00     0.049 A 
ATOM     60  H   UNL A   1      39.610  30.467  32.188  1.00  0.00     0.167 HD
ATOM     61  C   UNL A   1      40.517  30.806  34.847  1.00  0.00     0.074 A 
ATOM     62  C   UNL A   1      41.324  30.684  36.043  1.00  0.00     0.031 C 
ATOM     63  C   UNL A   1      39.402  31.571  34.751  1.00  0.00     0.037 A 
BRANCH  50  64
ATOM     64  C   UNL A   1      36.733  31.410  29.186  1.00  0.00     0.057 A 
ATOM     65  C   UNL A   1      36.705  32.715  28.682  1.00  0.00     0.134 A 
ATOM     66  C   UNL A   1      35.666  30.563  28.856  1.00  0.00     0.134 A 
ATOM     67  F   UNL A   1      37.695  33.575  28.963  1.00  0.00    -0.206 F 
ATOM     68  C   UNL A   1      35.652  33.164  27.883  1.00  0.00     0.040 A 
ATOM     69  C   UNL A   1      34.619  30.993  28.040  1.00  0.00     0.040 A 
ATOM     70  F   UNL A   1      35.644  29.295  29.296  1.00  0.00    -0.206 F 
ATOM     71  C   UNL A   1      34.607  32.301  27.557  1.00  0.00     0.006 A 
ENDBRANCH  50  64
BRANCH  51  72
ATOM     72  C   UNL A   1      44.245  27.944  34.725  1.00  0.00     0.057 A 
ATOM     73  C   UNL A   1      45.436  28.654  34.920  1.00  0.00     0.134 A 
ATOM     74  C   UNL A   1      44.125  26.697  35.346  1.00  0.00     0.134 A 
ATOM     75  F   UNL A   1      45.610  29.854  34.350  1.00  0.00    -0.206 F 
ATOM     76  C   UNL A   1      46.476  28.135  35.693  1.00  0.00     0.040 A 
ATOM     77  C   UNL A   1      45.150  26.174  36.138  1.00  0.00     0.040 A 
ATOM     78  F   UNL A   1      42.999  25.981  35.213  1.00  0.00    -0.206 F 
ATOM     79  C   UNL A   1      46.332  26.892  36.308  1.00  0.00     0.006 A 
ENDBRANCH  51  72
BRANCH  63  80
ATOM     80  C   UNL A   1      38.964  32.324  35.974  1.00  0.00     0.057 A 
ATOM     81  C   UNL A   1      39.366  33.651  36.175  1.00  0.00     0.134 A 
ATOM     82  C   UNL A   1      38.217  31.713  36.987  1.00  0.00     0.134 A 
ATOM     83  F   UNL A   1      40.094  34.291  35.246  1.00  0.00    -0.206 F 
ATOM     84  C   UNL A   1      39.051  34.339  37.347  1.00  0.00     0.040 A 
ATOM     85  C   UNL A   1      37.876  32.399  38.154  1.00  0.00     0.040 A 
ATOM     86  F   UNL A   1      37.794  30.447  36.851  1.00  0.00    -0.206 F 
ATOM     87  C   UNL A   1      38.302  33.714  38.340  1.00  0.00     0.006 A 
ENDBRANCH  63  80
ENDBRANCH  37  38
ENDBRANCH  30  32
ENDBRANCH  29  30
ENDBRANCH  28  29
ENDBRANCH  27  28
ENDBRANCH  26  27
ENDBRANCH   2  26
TORSDOF 17
ENDMDL
MODEL 3
REMARK VINA RESULT:     -11.3      2.010      3.155
REMARK SMILES O=C(CCCNC(=O)[C@@H]1CCCN(S(=O)(=O)c2ccc(F)cc2)C1)OCCOC(=O)c1ccc(-c2c3nc(c(-c4c(F)cccc4F)c4ccc([nH]4)c(-c4c(F)cccc4F)c4nc(c(-c5c(F)cccc5F)c5ccc2[nH]5)C=C4)C=C3)cc1
REMARK SMILES IDX 1 1 2 2 3 3 4 4 5 5 6 6 7 7 8 9 9 10 10 11 24 12 11 13 13 14
REMARK SMILES IDX 12 15 14 16 15 17 16 18 17 19 18 20 23 21 19 22 22 23 20 24
REMARK SMILES IDX 21 25 25 26 26 27 27 28 28 29 29 30 30 31 31 32 32 33 84 34
REMARK SMILES IDX 33 35 83 36 34 37 35 38 36 39 77 40 37 41 82 42 76 43 78 44
REMARK SMILES IDX 38 45 81 46 75 47 74 48 39 50 65 51 48 52 64 53 49 54 52 55
REMARK SMILES IDX 63 56 79 57 50 58 51 59 62 61 80 62 53 63 40 64 41 65 46 66
REMARK SMILES IDX 42 67 43 68 45 69 47 70 44 71 66 72 67 73 72 74 68 75 69 76
REMARK SMILES IDX 71 77 73 78 70 79 54 80 55 81 60 82 56 83 57 84 59 85 61 86
REMARK SMILES IDX 58 87
REMARK H PARENT 6 8 78 49 52 60
REMARK Flexibility Score: inf
ROOT
ATOM      1  O   UNL A   1      42.850  22.200  28.595  1.00  0.00    -0.252 OA
ATOM      2  C   UNL A   1      42.891  21.991  27.389  1.00  0.00     0.305 C 
ENDROOT
BRANCH   2   3
ATOM      3  C   UNL A   1      41.698  21.460  26.627  1.00  0.00     0.124 C 
BRANCH   3   4
ATOM      4  C   UNL A   1      40.355  22.051  27.061  1.00  0.00     0.033 C 
BRANCH   4   5
ATOM      5  C   UNL A   1      39.187  21.762  26.119  1.00  0.00     0.116 C 
BRANCH   5   6
ATOM      6  N   UNL A   1      38.156  22.786  26.181  1.00  0.00    -0.356 N 
ATOM      7  C   UNL A   1      36.849  22.679  25.810  1.00  0.00     0.224 C 
ATOM      8  H   UNL A   1      38.436  23.662  26.532  1.00  0.00     0.163 HD
ATOM      9  O   UNL A   1      36.038  23.337  26.460  1.00  0.00    -0.275 OA
BRANCH   7  10
ATOM     10  C   UNL A   1      36.483  21.805  24.619  1.00  0.00     0.093 C 
ATOM     11  C   UNL A   1      36.627  22.584  23.308  1.00  0.00     0.016 C 
ATOM     12  C   UNL A   1      35.050  21.269  24.745  1.00  0.00     0.116 C 
ATOM     13  C   UNL A   1      35.592  23.700  23.233  1.00  0.00     0.018 C 
ATOM     14  N   UNL A   1      34.021  22.356  24.618  1.00  0.00    -0.197 NA
ATOM     15  C   UNL A   1      34.176  23.156  23.374  1.00  0.00     0.102 C 
BRANCH  14  16
ATOM     16  S   UNL A   1      32.428  21.774  24.909  1.00  0.00     0.243 S 
ATOM     17  O   UNL A   1      32.153  21.948  26.321  1.00  0.00    -0.207 OA
ATOM     18  O   UNL A   1      31.548  22.347  23.912  1.00  0.00    -0.207 OA
BRANCH  16  19
ATOM     19  C   UNL A   1      32.526  20.022  24.588  1.00  0.00     0.082 A 
ATOM     20  C   UNL A   1      32.456  19.553  23.269  1.00  0.00     0.025 A 
ATOM     21  C   UNL A   1      32.793  19.137  25.640  1.00  0.00     0.025 A 
ATOM     22  C   UNL A   1      32.587  18.189  23.012  1.00  0.00     0.040 A 
ATOM     23  C   UNL A   1      32.954  17.774  25.371  1.00  0.00     0.040 A 
ATOM     24  C   UNL A   1      32.838  17.313  24.064  1.00  0.00     0.123 A 
ATOM     25  F   UNL A   1      32.987  16.007  23.809  1.00  0.00    -0.207 F 
ENDBRANCH  16  19
ENDBRANCH  14  16
ENDBRANCH   7  10
ENDBRANCH   5   6
ENDBRANCH   4   5
ENDBRANCH   3   4
ENDBRANCH   2   3
BRANCH   2  26
ATOM     26  O   UNL A   1      44.050  22.059  26.684  1.00  0.00    -0.462 OA
BRANCH  26  27
ATOM     27  C   UNL A   1      44.046  21.579  25.326  1.00  0.00     0.274 C 
BRANCH  27  28
ATOM     28  C   UNL A   1      44.472  22.652  24.320  1.00  0.00     0.275 C 
BRANCH  28  29
ATOM     29  O   UNL A   1      43.712  23.859  24.502  1.00  0.00    -0.458 OA
BRANCH  29  30
ATOM     30  C   UNL A   1      44.430  24.888  25.026  1.00  0.00     0.338 C 
ATOM     31  O   UNL A   1      45.546  25.244  24.700  1.00  0.00    -0.246 OA
BRANCH  30  32
ATOM     32  C   UNL A   1      43.588  25.659  25.965  1.00  0.00     0.060 A 
ATOM     33  C   UNL A   1      44.057  26.919  26.355  1.00  0.00     0.016 A 
ATOM     34  C   UNL A   1      42.387  25.161  26.480  1.00  0.00     0.016 A 
ATOM     35  C   UNL A   1      43.359  27.658  27.306  1.00  0.00     0.010 A 
ATOM     36  C   UNL A   1      41.688  25.904  27.437  1.00  0.00     0.010 A 
ATOM     37  C   UNL A   1      42.194  27.136  27.884  1.00  0.00    -0.014 A 
BRANCH  37  38
ATOM     38  C   UNL A   1      41.625  27.813  29.073  1.00  0.00     0.031 A 
ATOM     39  C   UNL A   1      42.329  27.670  30.394  1.00  0.00     0.074 A 
ATOM     40  C   UNL A   1      40.549  28.612  28.969  1.00  0.00     0.049 A 
ATOM     41  N   UNL A   1      42.076  28.257  31.536  1.00  0.00    -0.248 NA
ATOM     42  C   UNL A   1      43.476  26.749  30.430  1.00  0.00     0.031 C 
ATOM     43  C   UNL A   1      39.796  28.859  27.741  1.00  0.00     0.029 A 
ATOM     44  N   UNL A   1      39.915  29.377  29.915  1.00  0.00    -0.354 N 
ATOM     45  C   UNL A   1      43.046  27.797  32.416  1.00  0.00     0.074 A 
ATOM     46  C   UNL A   1      43.859  26.842  31.694  1.00  0.00     0.031 C 
ATOM     47  C   UNL A   1      38.806  29.730  28.007  1.00  0.00     0.029 A 
ATOM     48  C   UNL A   1      38.852  30.091  29.423  1.00  0.00     0.049 A 
ATOM     49  H   UNL A   1      40.196  29.410  30.858  1.00  0.00     0.167 HD
ATOM     50  C   UNL A   1      43.259  28.155  33.704  1.00  0.00     0.037 A 
ATOM     51  C   UNL A   1      38.015  30.947  30.043  1.00  0.00     0.037 A 
ATOM     52  C   UNL A   1      42.445  29.089  34.434  1.00  0.00     0.049 A 
ATOM     53  C   UNL A   1      38.219  31.267  31.500  1.00  0.00     0.074 A 
ATOM     54  C   UNL A   1      42.581  29.508  35.745  1.00  0.00     0.029 A 
ATOM     55  N   UNL A   1      41.338  29.741  33.915  1.00  0.00    -0.354 N 
ATOM     56  N   UNL A   1      39.157  30.849  32.315  1.00  0.00    -0.248 NA
ATOM     57  C   UNL A   1      37.253  32.186  32.120  1.00  0.00     0.031 C 
ATOM     58  C   UNL A   1      41.530  30.383  36.034  1.00  0.00     0.029 A 
ATOM     59  C   UNL A   1      40.766  30.545  34.888  1.00  0.00     0.049 A 
ATOM     60  H   UNL A   1      41.007  29.649  32.993  1.00  0.00     0.167 HD
ATOM     61  C   UNL A   1      38.912  31.472  33.533  1.00  0.00     0.074 A 
ATOM     62  C   UNL A   1      37.739  32.301  33.349  1.00  0.00     0.031 C 
ATOM     63  C   UNL A   1      39.601  31.368  34.695  1.00  0.00     0.037 A 
BRANCH  50  64
ATOM     64  C   UNL A   1      44.424  27.526  34.405  1.00  0.00     0.057 A 
ATOM     65  C   UNL A   1      44.280  26.320  35.099  1.00  0.00     0.134 A 
ATOM     66  C   UNL A   1      45.688  28.133  34.415  1.00  0.00     0.134 A 
ATOM     67  F   UNL A   1      43.096  25.689  35.129  1.00  0.00    -0.206 F 
ATOM     68  C   UNL A   1      45.350  25.740  35.782  1.00  0.00     0.040 A 
ATOM     69  C   UNL A   1      46.771  27.552  35.076  1.00  0.00     0.040 A 
ATOM     70  F   UNL A   1      45.894  29.283  33.754  1.00  0.00    -0.206 F 
ATOM     71  C   UNL A   1      46.600  26.354  35.768  1.00  0.00     0.006 A 
ENDBRANCH  50  64
BRANCH  51  72
ATOM     72  C   UNL A   1      36.921  31.588  29.275  1.00  0.00     0.057 A 
ATOM     73  C   UNL A   1      37.028  32.908  28.821  1.00  0.00     0.134 A 
ATOM     74  C   UNL A   1      35.740  30.899  28.986  1.00  0.00     0.134 A 
ATOM     75  F   UNL A   1      38.137  33.621  29.068  1.00  0.00    -0.206 F 
ATOM     76  C   UNL A   1      35.992  33.525  28.119  1.00  0.00     0.040 A 
ATOM     77  C   UNL A   1      34.701  31.497  28.269  1.00  0.00     0.040 A 
ATOM     78  F   UNL A   1      35.588  29.625  29.377  1.00  0.00    -0.206 F 
ATOM     79  C   UNL A   1      34.825  32.817  27.838  1.00  0.00     0.006 A 
ENDBRANCH  51  72
BRANCH  63  80
ATOM     80  C   UNL A   1      39.127  32.183  35.864  1.00  0.00     0.057 A 
ATOM     81  C   UNL A   1      38.210  31.650  36.779  1.00  0.00     0.134 A 
ATOM     82  C   UNL A   1      39.512  33.518  36.035  1.00  0.00     0.134 A 
ATOM     83  F   UNL A   1      37.792  30.380  36.664  1.00  0.00    -0.206 F 
ATOM     84  C   UNL A   1      37.684  32.420  37.817  1.00  0.00     0.040 A 
ATOM     85  C   UNL A   1      39.011  34.291  37.084  1.00  0.00     0.040 A 
ATOM     86  F   UNL A   1      40.394  34.084  35.197  1.00  0.00    -0.206 F 
ATOM     87  C   UNL A   1      38.086  33.745  37.973  1.00  0.00     0.006 A 
ENDBRANCH  63  80
ENDBRANCH  37  38
ENDBRANCH  30  32
ENDBRANCH  29  30
ENDBRANCH  28  29
ENDBRANCH  27  28
ENDBRANCH  26  27
ENDBRANCH   2  26
TORSDOF 17
ENDMDL
