MODEL 1
REMARK VINA RESULT:     -11.7      0.000      0.000
REMARK SMILES COc1ccc2c(CC(=O)OCCOC(=O)c3ccc(-c4c5nc(c(-c6c(F)cccc6F)c6ccc([nH]6)c(-c6c(F)cccc6F)c6nc(c(-c7c(F)cccc7F)c7ccc4[nH]7)C=C6)C=C5)cc3)c(C(=O)c3cc(C)ccn3)[nH]c2c1
REMARK SMILES IDX 12 1 11 2 9 3 10 4 8 5 7 6 3 7 4 8 83 9 5 10 82 11 6 12
REMARK SMILES IDX 81 13 71 14 2 16 1 17 72 18 73 19 74 20 75 21 80 22 76 23
REMARK SMILES IDX 79 24 77 25 78 26 13 27 14 28 15 29 16 30 17 31 18 32 70 33
REMARK SMILES IDX 19 34 69 35 20 36 21 37 22 38 63 39 23 40 68 41 62 42 64 43
REMARK SMILES IDX 24 44 67 45 61 46 60 47 25 49 51 50 34 51 50 52 35 53 38 54
REMARK SMILES IDX 49 55 65 56 36 57 37 58 48 60 66 61 39 62 26 63 27 64 32 65
REMARK SMILES IDX 28 66 29 67 31 68 33 69 30 70 52 71 53 72 58 73 54 74 55 75
REMARK SMILES IDX 57 76 59 77 56 78 40 79 41 80 46 81 42 82 43 83 45 84 47 85
REMARK SMILES IDX 44 86
REMARK H PARENT 81 15 64 48 38 59
REMARK Flexibility Score: inf
ROOT
ATOM      1  C   UNL A   1      32.122  27.771  25.940  1.00  0.00     0.274 C 
ENDROOT
BRANCH   1   2
ATOM      2  O   UNL A   1      33.310  27.144  25.412  1.00  0.00    -0.462 OA
BRANCH   2   3
ATOM      3  C   UNL A   1      33.420  25.811  25.654  1.00  0.00     0.310 C 
ATOM      4  O   UNL A   1      32.805  25.217  26.538  1.00  0.00    -0.252 OA
BRANCH   3   5
ATOM      5  C   UNL A   1      34.351  25.065  24.725  1.00  0.00     0.161 C 
BRANCH   5   6
ATOM      6  C   UNL A   1      33.748  24.012  23.844  1.00  0.00     0.000 A 
ATOM      7  C   UNL A   1      32.616  20.045  24.543  1.00  0.00     0.120 A 
ATOM      8  C   UNL A   1      33.416  20.610  25.533  1.00  0.00     0.047 A 
ATOM      9  C   UNL A   1      32.388  20.701  23.330  1.00  0.00     0.073 A 
ATOM     10  C   UNL A   1      33.922  21.904  25.378  1.00  0.00     0.014 A 
ATOM     11  C   UNL A   1      32.870  22.009  23.213  1.00  0.00     0.050 A 
ATOM     12  C   UNL A   1      33.592  22.639  24.220  1.00  0.00     0.004 A 
ATOM     13  N   UNL A   1      32.731  22.921  22.194  1.00  0.00    -0.351 N 
ATOM     14  C   UNL A   1      33.049  24.185  22.647  1.00  0.00     0.093 A 
ATOM     15  H   UNL A   1      32.447  22.705  21.276  1.00  0.00     0.167 HD
BRANCH   7  16
ATOM     16  O   UNL A   1      32.025  18.818  24.705  1.00  0.00    -0.497 OA
ATOM     17  C   UNL A   1      32.719  18.036  25.681  1.00  0.00     0.278 C 
ENDBRANCH   7  16
BRANCH  14  18
ATOM     18  C   UNL A   1      32.600  25.415  22.015  1.00  0.00     0.227 C 
ATOM     19  O   UNL A   1      33.221  25.968  21.111  1.00  0.00    -0.285 OA
BRANCH  18  20
ATOM     20  C   UNL A   1      31.423  26.131  22.564  1.00  0.00     0.113 A 
ATOM     21  C   UNL A   1      31.174  27.440  22.166  1.00  0.00     0.036 A 
ATOM     22  N   UNL A   1      30.633  25.430  23.407  1.00  0.00    -0.253 NA
ATOM     23  C   UNL A   1      30.031  28.073  22.658  1.00  0.00    -0.047 A 
ATOM     24  C   UNL A   1      29.500  26.039  23.813  1.00  0.00     0.112 A 
ATOM     25  C   UNL A   1      29.715  29.496  22.306  1.00  0.00     0.044 C 
ATOM     26  C   UNL A   1      29.164  27.342  23.475  1.00  0.00     0.023 A 
ENDBRANCH  18  20
ENDBRANCH  14  18
ENDBRANCH   5   6
ENDBRANCH   3   5
ENDBRANCH   2   3
ENDBRANCH   1   2
BRANCH   1  27
ATOM     27  C   UNL A   1      31.984  29.199  25.416  1.00  0.00     0.275 C 
BRANCH  27  28
ATOM     28  O   UNL A   1      33.194  29.929  25.677  1.00  0.00    -0.458 OA
BRANCH  28  29
ATOM     29  C   UNL A   1      33.120  30.827  26.685  1.00  0.00     0.338 C 
ATOM     30  O   UNL A   1      32.225  31.638  26.879  1.00  0.00    -0.246 OA
BRANCH  29  31
ATOM     31  C   UNL A   1      34.330  30.758  27.524  1.00  0.00     0.060 A 
ATOM     32  C   UNL A   1      35.124  31.882  27.754  1.00  0.00     0.016 A 
ATOM     33  C   UNL A   1      34.728  29.514  28.016  1.00  0.00     0.016 A 
ATOM     34  C   UNL A   1      36.358  31.744  28.390  1.00  0.00     0.010 A 
ATOM     35  C   UNL A   1      35.915  29.396  28.742  1.00  0.00     0.010 A 
ATOM     36  C   UNL A   1      36.760  30.505  28.911  1.00  0.00    -0.014 A 
BRANCH  36  37
ATOM     37  C   UNL A   1      38.051  30.370  29.640  1.00  0.00     0.031 A 
ATOM     38  C   UNL A   1      39.227  29.671  29.008  1.00  0.00     0.074 A 
ATOM     39  C   UNL A   1      38.168  30.866  30.886  1.00  0.00     0.049 A 
ATOM     40  N   UNL A   1      40.370  29.327  29.547  1.00  0.00    -0.248 NA
ATOM     41  C   UNL A   1      39.096  29.296  27.591  1.00  0.00     0.031 C 
ATOM     42  C   UNL A   1      37.118  31.579  31.616  1.00  0.00     0.029 A 
ATOM     43  N   UNL A   1      39.225  30.849  31.761  1.00  0.00    -0.354 N 
ATOM     44  C   UNL A   1      41.072  28.652  28.556  1.00  0.00     0.074 A 
ATOM     45  C   UNL A   1      40.227  28.634  27.381  1.00  0.00     0.031 C 
ATOM     46  C   UNL A   1      37.596  31.968  32.807  1.00  0.00     0.029 A 
ATOM     47  C   UNL A   1      38.958  31.470  32.956  1.00  0.00     0.049 A 
ATOM     48  H   UNL A   1      40.092  30.433  31.553  1.00  0.00     0.167 HD
ATOM     49  C   UNL A   1      42.308  28.100  28.624  1.00  0.00     0.037 A 
ATOM     50  C   UNL A   1      39.708  31.602  34.065  1.00  0.00     0.037 A 
ATOM     51  C   UNL A   1      43.174  28.165  29.774  1.00  0.00     0.049 A 
ATOM     52  C   UNL A   1      41.077  30.992  34.109  1.00  0.00     0.074 A 
ATOM     53  C   UNL A   1      44.451  27.647  29.925  1.00  0.00     0.029 A 
ATOM     54  N   UNL A   1      42.861  28.802  30.964  1.00  0.00    -0.354 N 
ATOM     55  N   UNL A   1      41.707  30.316  33.181  1.00  0.00    -0.248 NA
ATOM     56  C   UNL A   1      41.831  31.151  35.359  1.00  0.00     0.031 C 
ATOM     57  C   UNL A   1      44.901  27.955  31.213  1.00  0.00     0.029 A 
ATOM     58  C   UNL A   1      43.918  28.690  31.854  1.00  0.00     0.049 A 
ATOM     59  H   UNL A   1      42.013  29.267  31.151  1.00  0.00     0.167 HD
ATOM     60  C   UNL A   1      42.934  29.973  33.730  1.00  0.00     0.074 A 
ATOM     61  C   UNL A   1      42.967  30.533  35.066  1.00  0.00     0.031 C 
ATOM     62  C   UNL A   1      43.939  29.251  33.179  1.00  0.00     0.037 A 
BRANCH  49  63
ATOM     63  C   UNL A   1      42.800  27.350  27.422  1.00  0.00     0.057 A 
ATOM     64  C   UNL A   1      43.564  27.965  26.424  1.00  0.00     0.134 A 
ATOM     65  C   UNL A   1      42.554  25.976  27.295  1.00  0.00     0.134 A 
ATOM     66  F   UNL A   1      43.825  29.280  26.481  1.00  0.00    -0.206 F 
ATOM     67  C   UNL A   1      44.058  27.244  25.335  1.00  0.00     0.040 A 
ATOM     68  C   UNL A   1      43.058  25.240  26.221  1.00  0.00     0.040 A 
ATOM     69  F   UNL A   1      41.835  25.323  28.220  1.00  0.00    -0.206 F 
ATOM     70  C   UNL A   1      43.812  25.875  25.236  1.00  0.00     0.006 A 
ENDBRANCH  49  63
BRANCH  50  71
ATOM     71  C   UNL A   1      39.164  32.334  35.233  1.00  0.00     0.057 A 
ATOM     72  C   UNL A   1      39.392  33.705  35.392  1.00  0.00     0.134 A 
ATOM     73  C   UNL A   1      38.384  31.689  36.200  1.00  0.00     0.134 A 
ATOM     74  F   UNL A   1      40.150  34.371  34.508  1.00  0.00    -0.206 F 
ATOM     75  C   UNL A   1      38.865  34.409  36.474  1.00  0.00     0.040 A 
ATOM     76  C   UNL A   1      37.832  32.385  37.274  1.00  0.00     0.040 A 
ATOM     77  F   UNL A   1      38.128  30.376  36.097  1.00  0.00    -0.206 F 
ATOM     78  C   UNL A   1      38.075  33.750  37.415  1.00  0.00     0.006 A 
ENDBRANCH  50  71
BRANCH  62  79
ATOM     79  C   UNL A   1      45.162  29.049  34.018  1.00  0.00     0.057 A 
ATOM     80  C   UNL A   1      45.299  27.940  34.862  1.00  0.00     0.134 A 
ATOM     81  C   UNL A   1      46.217  29.970  33.976  1.00  0.00     0.134 A 
ATOM     82  F   UNL A   1      44.315  27.032  34.956  1.00  0.00    -0.206 F 
ATOM     83  C   UNL A   1      46.435  27.765  35.654  1.00  0.00     0.040 A 
ATOM     84  C   UNL A   1      47.365  29.795  34.750  1.00  0.00     0.040 A 
ATOM     85  F   UNL A   1      46.147  31.050  33.185  1.00  0.00    -0.206 F 
ATOM     86  C   UNL A   1      47.473  28.693  35.597  1.00  0.00     0.006 A 
ENDBRANCH  62  79
ENDBRANCH  36  37
ENDBRANCH  29  31
ENDBRANCH  28  29
ENDBRANCH  27  28
ENDBRANCH   1  27
TORSDOF 15
ENDMDL
MODEL 2
REMARK VINA RESULT:     -11.6      3.843      7.966
REMARK SMILES COc1ccc2c(CC(=O)OCCOC(=O)c3ccc(-c4c5nc(c(-c6c(F)cccc6F)c6ccc([nH]6)c(-c6c(F)cccc6F)c6nc(c(-c7c(F)cccc7F)c7ccc4[nH]7)C=C6)C=C5)cc3)c(C(=O)c3cc(C)ccn3)[nH]c2c1
REMARK SMILES IDX 12 1 11 2 9 3 10 4 8 5 7 6 3 7 4 8 83 9 5 10 82 11 6 12
REMARK SMILES IDX 81 13 71 14 2 16 1 17 72 18 73 19 74 20 75 21 80 22 76 23
REMARK SMILES IDX 79 24 77 25 78 26 13 27 14 28 15 29 16 30 17 31 18 32 70 33
REMARK SMILES IDX 19 34 69 35 20 36 21 37 22 38 63 39 23 40 68 41 62 42 64 43
REMARK SMILES IDX 24 44 67 45 61 46 60 47 25 49 51 50 34 51 50 52 35 53 38 54
REMARK SMILES IDX 49 55 65 56 36 57 37 58 48 60 66 61 39 62 26 63 27 64 32 65
REMARK SMILES IDX 28 66 29 67 31 68 33 69 30 70 52 71 53 72 58 73 54 74 55 75
REMARK SMILES IDX 57 76 59 77 56 78 40 79 41 80 46 81 42 82 43 83 45 84 47 85
REMARK SMILES IDX 44 86
REMARK H PARENT 81 15 64 48 38 59
REMARK Flexibility Score: inf
ROOT
ATOM      1  C   UNL A   1      38.136  21.200  25.401  1.00  0.00     0.274 C 
ENDROOT
BRANCH   1   2
ATOM      2  O   UNL A   1      37.456  21.701  24.231  1.00  0.00    -0.462 OA
BRANCH   2   3
ATOM      3  C   UNL A   1      36.301  22.377  24.473  1.00  0.00     0.310 C 
ATOM      4  O   UNL A   1      35.832  23.231  23.723  1.00  0.00    -0.252 OA
BRANCH   3   5
ATOM      5  C   UNL A   1      35.584  21.985  25.745  1.00  0.00     0.161 C 
BRANCH   5   6
ATOM      6  C   UNL A   1      34.290  21.239  25.606  1.00  0.00     0.000 A 
ATOM      7  C   UNL A   1      33.400  17.280  24.589  1.00  0.00     0.120 A 
ATOM      8  C   UNL A   1      34.708  17.675  24.320  1.00  0.00     0.047 A 
ATOM      9  C   UNL A   1      32.427  18.204  24.980  1.00  0.00     0.073 A 
ATOM     10  C   UNL A   1      35.106  18.996  24.545  1.00  0.00     0.014 A 
ATOM     11  C   UNL A   1      32.856  19.511  25.237  1.00  0.00     0.050 A 
ATOM     12  C   UNL A   1      34.176  19.916  25.070  1.00  0.00     0.004 A 
ATOM     13  N   UNL A   1      32.163  20.600  25.708  1.00  0.00    -0.351 N 
ATOM     14  C   UNL A   1      33.045  21.565  26.148  1.00  0.00     0.093 A 
ATOM     15  H   UNL A   1      31.181  20.679  25.729  1.00  0.00     0.167 HD
BRANCH   7  16
ATOM     16  O   UNL A   1      33.001  15.973  24.472  1.00  0.00    -0.497 OA
ATOM     17  C   UNL A   1      32.502  15.473  25.716  1.00  0.00     0.278 C 
ENDBRANCH   7  16
BRANCH  14  18
ATOM     18  C   UNL A   1      32.700  22.616  27.093  1.00  0.00     0.227 C 
ATOM     19  O   UNL A   1      32.649  22.433  28.307  1.00  0.00    -0.285 OA
BRANCH  18  20
ATOM     20  C   UNL A   1      32.243  23.932  26.586  1.00  0.00     0.113 A 
ATOM     21  C   UNL A   1      33.176  24.823  26.067  1.00  0.00     0.036 A 
ATOM     22  N   UNL A   1      30.913  24.165  26.630  1.00  0.00    -0.253 NA
ATOM     23  C   UNL A   1      32.713  26.035  25.549  1.00  0.00    -0.047 A 
ATOM     24  C   UNL A   1      30.485  25.310  26.061  1.00  0.00     0.112 A 
ATOM     25  C   UNL A   1      33.660  27.064  25.008  1.00  0.00     0.044 C 
ATOM     26  C   UNL A   1      31.335  26.265  25.521  1.00  0.00     0.023 A 
ENDBRANCH  18  20
ENDBRANCH  14  18
ENDBRANCH   5   6
ENDBRANCH   3   5
ENDBRANCH   2   3
ENDBRANCH   1   2
BRANCH   1  27
ATOM     27  C   UNL A   1      38.950  19.953  25.063  1.00  0.00     0.275 C 
BRANCH  27  28
ATOM     28  O   UNL A   1      39.758  19.583  26.192  1.00  0.00    -0.458 OA
BRANCH  28  29
ATOM     29  C   UNL A   1      41.093  19.687  26.005  1.00  0.00     0.338 C 
ATOM     30  O   UNL A   1      41.824  18.864  25.471  1.00  0.00    -0.246 OA
BRANCH  29  31
ATOM     31  C   UNL A   1      41.601  20.935  26.603  1.00  0.00     0.060 A 
ATOM     32  C   UNL A   1      41.695  21.096  27.985  1.00  0.00     0.016 A 
ATOM     33  C   UNL A   1      41.901  22.003  25.756  1.00  0.00     0.016 A 
ATOM     34  C   UNL A   1      41.996  22.350  28.520  1.00  0.00     0.010 A 
ATOM     35  C   UNL A   1      42.303  23.229  26.292  1.00  0.00     0.010 A 
ATOM     36  C   UNL A   1      42.324  23.426  27.682  1.00  0.00    -0.014 A 
BRANCH  36  37
ATOM     37  C   UNL A   1      42.700  24.747  28.256  1.00  0.00     0.031 A 
ATOM     38  C   UNL A   1      41.659  25.806  28.507  1.00  0.00     0.074 A 
ATOM     39  C   UNL A   1      43.991  25.007  28.540  1.00  0.00     0.049 A 
ATOM     40  N   UNL A   1      41.822  27.059  28.853  1.00  0.00    -0.248 NA
ATOM     41  C   UNL A   1      40.252  25.412  28.332  1.00  0.00     0.031 C 
ATOM     42  C   UNL A   1      45.103  24.072  28.362  1.00  0.00     0.029 A 
ATOM     43  N   UNL A   1      44.586  26.137  29.043  1.00  0.00    -0.354 N 
ATOM     44  C   UNL A   1      40.549  27.615  28.887  1.00  0.00     0.074 A 
ATOM     45  C   UNL A   1      39.622  26.564  28.527  1.00  0.00     0.031 C 
ATOM     46  C   UNL A   1      46.236  24.648  28.789  1.00  0.00     0.029 A 
ATOM     47  C   UNL A   1      45.945  26.017  29.201  1.00  0.00     0.049 A 
ATOM     48  H   UNL A   1      44.088  26.955  29.271  1.00  0.00     0.167 HD
ATOM     49  C   UNL A   1      40.191  28.886  29.192  1.00  0.00     0.037 A 
ATOM     50  C   UNL A   1      46.866  26.911  29.603  1.00  0.00     0.037 A 
ATOM     51  C   UNL A   1      41.106  29.921  29.605  1.00  0.00     0.049 A 
ATOM     52  C   UNL A   1      46.440  28.307  29.946  1.00  0.00     0.074 A 
ATOM     53  C   UNL A   1      40.827  31.233  29.950  1.00  0.00     0.029 A 
ATOM     54  N   UNL A   1      42.474  29.754  29.749  1.00  0.00    -0.354 N 
ATOM     55  N   UNL A   1      45.240  28.830  29.928  1.00  0.00    -0.248 NA
ATOM     56  C   UNL A   1      47.500  29.240  30.351  1.00  0.00     0.031 C 
ATOM     57  C   UNL A   1      42.030  31.866  30.283  1.00  0.00     0.029 A 
ATOM     58  C   UNL A   1      43.054  30.939  30.175  1.00  0.00     0.049 A 
ATOM     59  H   UNL A   1      42.963  28.917  29.574  1.00  0.00     0.167 HD
ATOM     60  C   UNL A   1      45.397  30.150  30.323  1.00  0.00     0.074 A 
ATOM     61  C   UNL A   1      46.806  30.343  30.595  1.00  0.00     0.031 C 
ATOM     62  C   UNL A   1      44.457  31.117  30.442  1.00  0.00     0.037 A 
BRANCH  49  63
ATOM     63  C   UNL A   1      38.740  29.247  29.070  1.00  0.00     0.057 A 
ATOM     64  C   UNL A   1      38.163  29.603  27.846  1.00  0.00     0.134 A 
ATOM     65  C   UNL A   1      37.897  29.179  30.188  1.00  0.00     0.134 A 
ATOM     66  F   UNL A   1      38.918  29.698  26.741  1.00  0.00    -0.206 F 
ATOM     67  C   UNL A   1      36.801  29.889  27.738  1.00  0.00     0.040 A 
ATOM     68  C   UNL A   1      36.530  29.444  30.088  1.00  0.00     0.040 A 
ATOM     69  F   UNL A   1      38.385  28.837  31.389  1.00  0.00    -0.206 F 
ATOM     70  C   UNL A   1      35.978  29.802  28.860  1.00  0.00     0.006 A 
ENDBRANCH  49  63
BRANCH  50  71
ATOM     71  C   UNL A   1      48.290  26.508  29.684  1.00  0.00     0.057 A 
ATOM     72  C   UNL A   1      49.167  26.746  28.621  1.00  0.00     0.134 A 
ATOM     73  C   UNL A   1      48.811  25.902  30.833  1.00  0.00     0.134 A 
ATOM     74  F   UNL A   1      48.718  27.304  27.487  1.00  0.00    -0.206 F 
ATOM     75  C   UNL A   1      50.514  26.392  28.696  1.00  0.00     0.040 A 
ATOM     76  C   UNL A   1      50.160  25.564  30.930  1.00  0.00     0.040 A 
ATOM     77  F   UNL A   1      48.019  25.654  31.887  1.00  0.00    -0.206 F 
ATOM     78  C   UNL A   1      51.016  25.807  29.857  1.00  0.00     0.006 A 
ENDBRANCH  50  71
BRANCH  62  79
ATOM     79  C   UNL A   1      44.926  32.461  30.906  1.00  0.00     0.057 A 
ATOM     80  C   UNL A   1      45.350  33.443  30.002  1.00  0.00     0.134 A 
ATOM     81  C   UNL A   1      44.949  32.778  32.270  1.00  0.00     0.134 A 
ATOM     82  F   UNL A   1      45.366  33.192  28.684  1.00  0.00    -0.206 F 
ATOM     83  C   UNL A   1      45.804  34.688  30.441  1.00  0.00     0.040 A 
ATOM     84  C   UNL A   1      45.383  34.027  32.719  1.00  0.00     0.040 A 
ATOM     85  F   UNL A   1      44.552  31.881  33.184  1.00  0.00    -0.206 F 
ATOM     86  C   UNL A   1      45.817  34.984  31.803  1.00  0.00     0.006 A 
ENDBRANCH  62  79
ENDBRANCH  36  37
ENDBRANCH  29  31
ENDBRANCH  28  29
ENDBRANCH  27  28
ENDBRANCH   1  27
TORSDOF 15
ENDMDL
MODEL 3
REMARK VINA RESULT:     -11.6      1.555      3.973
REMARK SMILES COc1ccc2c(CC(=O)OCCOC(=O)c3ccc(-c4c5nc(c(-c6c(F)cccc6F)c6ccc([nH]6)c(-c6c(F)cccc6F)c6nc(c(-c7c(F)cccc7F)c7ccc4[nH]7)C=C6)C=C5)cc3)c(C(=O)c3cc(C)ccn3)[nH]c2c1
REMARK SMILES IDX 12 1 11 2 9 3 10 4 8 5 7 6 3 7 4 8 83 9 5 10 82 11 6 12
REMARK SMILES IDX 81 13 71 14 2 16 1 17 72 18 73 19 74 20 75 21 80 22 76 23
REMARK SMILES IDX 79 24 77 25 78 26 13 27 14 28 15 29 16 30 17 31 18 32 70 33
REMARK SMILES IDX 19 34 69 35 20 36 21 37 22 38 63 39 23 40 68 41 62 42 64 43
REMARK SMILES IDX 24 44 67 45 61 46 60 47 25 49 51 50 34 51 50 52 35 53 38 54
REMARK SMILES IDX 49 55 65 56 36 57 37 58 48 60 66 61 39 62 26 63 27 64 32 65
REMARK SMILES IDX 28 66 29 67 31 68 33 69 30 70 52 71 53 72 58 73 54 74 55 75
REMARK SMILES IDX 57 76 59 77 56 78 40 79 41 80 46 81 42 82 43 83 45 84 47 85
REMARK SMILES IDX 44 86
REMARK H PARENT 81 15 64 48 38 59
REMARK Flexibility Score: inf
ROOT
ATOM      1  C   UNL A   1      31.814  28.184  26.839  1.00  0.00     0.274 C 
ENDROOT
BRANCH   1   2
ATOM      2  O   UNL A   1      30.654  27.373  26.558  1.00  0.00    -0.462 OA
BRANCH   2   3
ATOM      3  C   UNL A   1      30.917  26.102  26.154  1.00  0.00     0.310 C 
ATOM      4  O   UNL A   1      31.413  25.238  26.876  1.00  0.00    -0.252 OA
BRANCH   3   5
ATOM      5  C   UNL A   1      30.523  25.787  24.729  1.00  0.00     0.161 C 
BRANCH   5   6
ATOM      6  C   UNL A   1      30.731  26.860  23.702  1.00  0.00     0.000 A 
ATOM      7  C   UNL A   1      28.278  29.942  22.293  1.00  0.00     0.120 A 
ATOM      8  C   UNL A   1      27.621  28.964  23.036  1.00  0.00     0.047 A 
ATOM      9  C   UNL A   1      29.607  29.783  21.893  1.00  0.00     0.073 A 
ATOM     10  C   UNL A   1      28.319  27.844  23.497  1.00  0.00     0.014 A 
ATOM     11  C   UNL A   1      30.296  28.675  22.399  1.00  0.00     0.050 A 
ATOM     12  C   UNL A   1      29.697  27.728  23.223  1.00  0.00     0.004 A 
ATOM     13  N   UNL A   1      31.612  28.302  22.257  1.00  0.00    -0.351 N 
ATOM     14  C   UNL A   1      31.938  27.357  23.207  1.00  0.00     0.093 A 
ATOM     15  H   UNL A   1      32.229  28.658  21.577  1.00  0.00     0.167 HD
BRANCH   7  16
ATOM     16  O   UNL A   1      27.650  31.099  21.907  1.00  0.00    -0.497 OA
ATOM     17  C   UNL A   1      28.231  32.239  22.546  1.00  0.00     0.278 C 
ENDBRANCH   7  16
BRANCH  14  18
ATOM     18  C   UNL A   1      33.297  27.077  23.645  1.00  0.00     0.227 C 
ATOM     19  O   UNL A   1      34.126  27.958  23.856  1.00  0.00    -0.285 OA
BRANCH  18  20
ATOM     20  C   UNL A   1      33.768  25.673  23.706  1.00  0.00     0.113 A 
ATOM     21  C   UNL A   1      34.366  25.204  24.871  1.00  0.00     0.036 A 
ATOM     22  N   UNL A   1      33.544  24.915  22.609  1.00  0.00    -0.253 NA
ATOM     23  C   UNL A   1      34.755  23.864  24.920  1.00  0.00    -0.047 A 
ATOM     24  C   UNL A   1      33.865  23.609  22.707  1.00  0.00     0.112 A 
ATOM     25  C   UNL A   1      35.441  23.295  26.125  1.00  0.00     0.044 C 
ATOM     26  C   UNL A   1      34.468  23.046  23.823  1.00  0.00     0.023 A 
ENDBRANCH  18  20
ENDBRANCH  14  18
ENDBRANCH   5   6
ENDBRANCH   3   5
ENDBRANCH   2   3
ENDBRANCH   1   2
BRANCH   1  27
ATOM     27  C   UNL A   1      31.688  29.557  26.182  1.00  0.00     0.275 C 
BRANCH  27  28
ATOM     28  O   UNL A   1      32.990  30.154  26.058  1.00  0.00    -0.458 OA
BRANCH  28  29
ATOM     29  C   UNL A   1      33.277  31.107  26.974  1.00  0.00     0.338 C 
ATOM     30  O   UNL A   1      32.622  32.112  27.216  1.00  0.00    -0.246 OA
BRANCH  29  31
ATOM     31  C   UNL A   1      34.562  30.815  27.634  1.00  0.00     0.060 A 
ATOM     32  C   UNL A   1      34.927  29.513  27.978  1.00  0.00     0.016 A 
ATOM     33  C   UNL A   1      35.379  31.886  28.001  1.00  0.00     0.016 A 
ATOM     34  C   UNL A   1      36.056  29.294  28.769  1.00  0.00     0.010 A 
ATOM     35  C   UNL A   1      36.563  31.653  28.704  1.00  0.00     0.010 A 
ATOM     36  C   UNL A   1      36.899  30.357  29.124  1.00  0.00    -0.014 A 
BRANCH  36  37
ATOM     37  C   UNL A   1      38.134  30.113  29.920  1.00  0.00     0.031 A 
ATOM     38  C   UNL A   1      39.266  29.292  29.360  1.00  0.00     0.074 A 
ATOM     39  C   UNL A   1      38.236  30.621  31.163  1.00  0.00     0.049 A 
ATOM     40  N   UNL A   1      40.342  28.850  29.963  1.00  0.00    -0.248 NA
ATOM     41  C   UNL A   1      39.170  28.902  27.945  1.00  0.00     0.031 C 
ATOM     42  C   UNL A   1      37.225  31.446  31.827  1.00  0.00     0.029 A 
ATOM     43  N   UNL A   1      39.242  30.520  32.091  1.00  0.00    -0.354 N 
ATOM     44  C   UNL A   1      41.024  28.091  29.020  1.00  0.00     0.074 A 
ATOM     45  C   UNL A   1      40.240  28.131  27.803  1.00  0.00     0.031 C 
ATOM     46  C   UNL A   1      37.679  31.812  33.035  1.00  0.00     0.029 A 
ATOM     47  C   UNL A   1      38.977  31.187  33.262  1.00  0.00     0.049 A 
ATOM     48  H   UNL A   1      40.074  30.018  31.934  1.00  0.00     0.167 HD
ATOM     49  C   UNL A   1      42.195  27.424  29.159  1.00  0.00     0.037 A 
ATOM     50  C   UNL A   1      39.681  31.269  34.406  1.00  0.00     0.037 A 
ATOM     51  C   UNL A   1      43.005  27.428  30.351  1.00  0.00     0.049 A 
ATOM     52  C   UNL A   1      40.980  30.531  34.528  1.00  0.00     0.074 A 
ATOM     53  C   UNL A   1      44.217  26.794  30.575  1.00  0.00     0.029 A 
ATOM     54  N   UNL A   1      42.697  28.117  31.514  1.00  0.00    -0.354 N 
ATOM     55  N   UNL A   1      41.587  29.779  33.645  1.00  0.00    -0.248 NA
ATOM     56  C   UNL A   1      41.683  30.642  35.814  1.00  0.00     0.031 C 
ATOM     57  C   UNL A   1      44.630  27.083  31.881  1.00  0.00     0.029 A 
ATOM     58  C   UNL A   1      43.692  27.922  32.459  1.00  0.00     0.049 A 
ATOM     59  H   UNL A   1      41.889  28.665  31.649  1.00  0.00     0.167 HD
ATOM     60  C   UNL A   1      42.746  29.331  34.262  1.00  0.00     0.074 A 
ATOM     61  C   UNL A   1      42.766  29.912  35.588  1.00  0.00     0.031 C 
ATOM     62  C   UNL A   1      43.702  28.505  33.774  1.00  0.00     0.037 A 
BRANCH  49  63
ATOM     63  C   UNL A   1      42.672  26.605  27.996  1.00  0.00     0.057 A 
ATOM     64  C   UNL A   1      43.558  27.117  27.041  1.00  0.00     0.134 A 
ATOM     65  C   UNL A   1      42.281  25.266  27.865  1.00  0.00     0.134 A 
ATOM     66  F   UNL A   1      43.960  28.395  27.103  1.00  0.00    -0.206 F 
ATOM     67  C   UNL A   1      44.032  26.329  25.991  1.00  0.00     0.040 A 
ATOM     68  C   UNL A   1      42.764  24.462  26.830  1.00  0.00     0.040 A 
ATOM     69  F   UNL A   1      41.440  24.711  28.751  1.00  0.00    -0.206 F 
ATOM     70  C   UNL A   1      43.640  24.995  25.888  1.00  0.00     0.006 A 
ENDBRANCH  49  63
BRANCH  50  71
ATOM     71  C   UNL A   1      39.153  32.074  35.532  1.00  0.00     0.057 A 
ATOM     72  C   UNL A   1      39.457  33.434  35.649  1.00  0.00     0.134 A 
ATOM     73  C   UNL A   1      38.313  31.510  36.501  1.00  0.00     0.134 A 
ATOM     74  F   UNL A   1      40.273  34.022  34.762  1.00  0.00    -0.206 F 
ATOM     75  C   UNL A   1      38.946  34.207  36.692  1.00  0.00     0.040 A 
ATOM     76  C   UNL A   1      37.778  32.276  37.535  1.00  0.00     0.040 A 
ATOM     77  F   UNL A   1      37.983  30.212  36.438  1.00  0.00    -0.206 F 
ATOM     78  C   UNL A   1      38.097  33.629  37.634  1.00  0.00     0.006 A 
ENDBRANCH  50  71
BRANCH  62  79
ATOM     79  C   UNL A   1      44.857  28.203  34.678  1.00  0.00     0.057 A 
ATOM     80  C   UNL A   1      44.844  27.101  35.542  1.00  0.00     0.134 A 
ATOM     81  C   UNL A   1      45.995  29.019  34.679  1.00  0.00     0.134 A 
ATOM     82  F   UNL A   1      43.775  26.292  35.597  1.00  0.00    -0.206 F 
ATOM     83  C   UNL A   1      45.917  26.834  36.394  1.00  0.00     0.040 A 
ATOM     84  C   UNL A   1      47.081  28.751  35.513  1.00  0.00     0.040 A 
ATOM     85  F   UNL A   1      46.068  30.087  33.871  1.00  0.00    -0.206 F 
ATOM     86  C   UNL A   1      47.041  27.659  36.379  1.00  0.00     0.006 A 
ENDBRANCH  62  79
ENDBRANCH  36  37
ENDBRANCH  29  31
ENDBRANCH  28  29
ENDBRANCH  27  28
ENDBRANCH   1  27
TORSDOF 15
ENDMDL
