MODEL 1
REMARK VINA RESULT:     -12.0      0.000      0.000
REMARK SMILES COc1ccc2c(c1)c(CC(=O)OCCOC(=O)c1ccc(-c3c4nc(c(-c5c(F)cccc5F)c5ccc([nH]5)c(-c5c(F)cccc5F)c5nc(c(-c6c(F)cccc6F)c6ccc3[nH]6)C=C5)C=C4)cc1)c(C)n2C(=O)c1ccc(Cl)cc1
REMARK SMILES IDX 14 1 13 2 11 3 12 4 10 5 9 6 3 7 4 8 8 9 5 10 7 11 6 12
REMARK SMILES IDX 75 13 73 14 74 15 2 16 1 17 76 18 77 19 78 20 79 21 84 22
REMARK SMILES IDX 80 23 83 24 81 25 82 26 15 27 16 28 17 29 18 30 19 31 20 32
REMARK SMILES IDX 72 33 21 34 71 35 22 36 23 37 24 38 65 39 25 40 70 41 64 42
REMARK SMILES IDX 66 43 26 44 69 45 63 46 62 47 27 49 53 50 36 51 52 52 37 53
REMARK SMILES IDX 40 54 51 55 67 56 38 57 39 58 50 60 68 61 41 62 28 63 29 64
REMARK SMILES IDX 34 65 30 66 31 67 33 68 35 69 32 70 54 71 55 72 60 73 56 74
REMARK SMILES IDX 57 75 59 76 61 77 58 78 42 79 43 80 48 81 44 82 45 83 47 84
REMARK SMILES IDX 49 85 46 86
REMARK H PARENT 66 48 40 59
REMARK Flexibility Score: inf
ROOT
ATOM      1  C   UNL A   1      34.097  29.002  26.405  1.00  0.00     0.274 C 
ENDROOT
BRANCH   1   2
ATOM      2  O   UNL A   1      33.541  27.718  26.764  1.00  0.00    -0.462 OA
BRANCH   2   3
ATOM      3  C   UNL A   1      33.487  26.807  25.765  1.00  0.00     0.310 C 
ATOM      4  O   UNL A   1      33.822  27.033  24.604  1.00  0.00    -0.252 OA
BRANCH   3   5
ATOM      5  C   UNL A   1      32.900  25.478  26.142  1.00  0.00     0.160 C 
BRANCH   5   6
ATOM      6  C   UNL A   1      33.346  24.190  25.500  1.00  0.00    -0.008 A 
ATOM      7  C   UNL A   1      37.051  23.079  25.677  1.00  0.00     0.119 A 
ATOM      8  C   UNL A   1      36.950  22.091  24.719  1.00  0.00     0.048 A 
ATOM      9  C   UNL A   1      35.888  23.763  26.074  1.00  0.00     0.057 A 
ATOM     10  C   UNL A   1      35.711  21.795  24.144  1.00  0.00     0.031 A 
ATOM     11  C   UNL A   1      34.630  23.546  25.462  1.00  0.00     0.008 A 
ATOM     12  C   UNL A   1      34.549  22.508  24.524  1.00  0.00     0.057 A 
ATOM     13  N   UNL A   1      33.203  22.379  24.144  1.00  0.00    -0.280 N 
ATOM     14  C   UNL A   1      32.540  23.521  24.584  1.00  0.00     0.028 A 
ATOM     15  C   UNL A   1      31.174  23.947  24.135  1.00  0.00     0.065 C 
BRANCH   7  16
ATOM     16  O   UNL A   1      38.210  23.469  26.292  1.00  0.00    -0.497 OA
ATOM     17  C   UNL A   1      39.284  22.531  26.326  1.00  0.00     0.278 C 
ENDBRANCH   7  16
BRANCH  13  18
ATOM     18  C   UNL A   1      32.629  21.294  23.429  1.00  0.00     0.262 C 
ATOM     19  O   UNL A   1      32.115  21.490  22.331  1.00  0.00    -0.268 OA
BRANCH  18  20
ATOM     20  C   UNL A   1      32.580  19.915  23.923  1.00  0.00     0.040 A 
ATOM     21  C   UNL A   1      32.650  19.662  25.297  1.00  0.00     0.015 A 
ATOM     22  C   UNL A   1      32.540  18.875  22.990  1.00  0.00     0.015 A 
ATOM     23  C   UNL A   1      32.749  18.343  25.736  1.00  0.00     0.021 A 
ATOM     24  C   UNL A   1      32.636  17.560  23.437  1.00  0.00     0.021 A 
ATOM     25  C   UNL A   1      32.754  17.301  24.805  1.00  0.00     0.041 A 
ATOM     26  Cl  UNL A   1      32.939  15.680  25.347  1.00  0.00    -0.084 Cl
ENDBRANCH  18  20
ENDBRANCH  13  18
ENDBRANCH   5   6
ENDBRANCH   3   5
ENDBRANCH   2   3
ENDBRANCH   1   2
BRANCH   1  27
ATOM     27  C   UNL A   1      34.630  29.724  27.646  1.00  0.00     0.275 C 
BRANCH  27  28
ATOM     28  O   UNL A   1      35.990  29.320  27.858  1.00  0.00    -0.458 OA
BRANCH  28  29
ATOM     29  C   UNL A   1      36.482  29.456  29.119  1.00  0.00     0.338 C 
ATOM     30  O   UNL A   1      35.883  29.372  30.162  1.00  0.00    -0.246 OA
BRANCH  29  31
ATOM     31  C   UNL A   1      37.947  29.367  28.958  1.00  0.00     0.060 A 
ATOM     32  C   UNL A   1      38.543  29.630  27.727  1.00  0.00     0.016 A 
ATOM     33  C   UNL A   1      38.671  28.772  29.993  1.00  0.00     0.016 A 
ATOM     34  C   UNL A   1      39.832  29.168  27.495  1.00  0.00     0.010 A 
ATOM     35  C   UNL A   1      39.926  28.251  29.738  1.00  0.00     0.010 A 
ATOM     36  C   UNL A   1      40.487  28.411  28.478  1.00  0.00    -0.014 A 
BRANCH  36  37
ATOM     37  C   UNL A   1      41.890  28.080  28.304  1.00  0.00     0.031 A 
ATOM     38  C   UNL A   1      42.039  26.816  27.554  1.00  0.00     0.074 A 
ATOM     39  C   UNL A   1      42.969  28.831  28.597  1.00  0.00     0.049 A 
ATOM     40  N   UNL A   1      42.207  25.641  28.058  1.00  0.00    -0.248 NA
ATOM     41  C   UNL A   1      41.758  26.820  26.111  1.00  0.00     0.031 C 
ATOM     42  C   UNL A   1      43.016  30.242  28.973  1.00  0.00     0.029 A 
ATOM     43  N   UNL A   1      44.290  28.472  28.548  1.00  0.00    -0.354 N 
ATOM     44  C   UNL A   1      42.318  24.794  26.965  1.00  0.00     0.074 A 
ATOM     45  C   UNL A   1      41.782  25.514  25.842  1.00  0.00     0.031 C 
ATOM     46  C   UNL A   1      44.304  30.667  28.948  1.00  0.00     0.029 A 
ATOM     47  C   UNL A   1      45.178  29.526  28.707  1.00  0.00     0.049 A 
ATOM     48  H   UNL A   1      44.584  27.542  28.411  1.00  0.00     0.167 HD
ATOM     49  C   UNL A   1      43.174  23.739  27.017  1.00  0.00     0.037 A 
ATOM     50  C   UNL A   1      46.533  29.465  28.647  1.00  0.00     0.037 A 
ATOM     51  C   UNL A   1      43.623  23.521  28.374  1.00  0.00     0.049 A 
ATOM     52  C   UNL A   1      46.945  28.066  28.912  1.00  0.00     0.074 A 
ATOM     53  C   UNL A   1      43.106  23.038  29.555  1.00  0.00     0.029 A 
ATOM     54  N   UNL A   1      44.755  24.225  28.684  1.00  0.00    -0.354 N 
ATOM     55  N   UNL A   1      46.849  27.492  30.077  1.00  0.00    -0.248 NA
ATOM     56  C   UNL A   1      47.219  27.166  27.796  1.00  0.00     0.031 C 
ATOM     57  C   UNL A   1      43.903  23.597  30.600  1.00  0.00     0.029 A 
ATOM     58  C   UNL A   1      44.892  24.395  30.033  1.00  0.00     0.049 A 
ATOM     59  H   UNL A   1      45.392  24.567  28.017  1.00  0.00     0.167 HD
ATOM     60  C   UNL A   1      46.605  26.166  29.783  1.00  0.00     0.074 A 
ATOM     61  C   UNL A   1      47.040  25.991  28.405  1.00  0.00     0.031 C 
ATOM     62  C   UNL A   1      45.756  25.430  30.556  1.00  0.00     0.037 A 
BRANCH  49  63
ATOM     63  C   UNL A   1      44.049  23.283  25.862  1.00  0.00     0.057 A 
ATOM     64  C   UNL A   1      45.060  24.055  25.253  1.00  0.00     0.134 A 
ATOM     65  C   UNL A   1      44.128  21.899  25.613  1.00  0.00     0.134 A 
ATOM     66  F   UNL A   1      45.157  25.380  25.398  1.00  0.00    -0.206 F 
ATOM     67  C   UNL A   1      46.111  23.487  24.527  1.00  0.00     0.040 A 
ATOM     68  C   UNL A   1      45.202  21.318  24.930  1.00  0.00     0.040 A 
ATOM     69  F   UNL A   1      43.214  21.057  26.117  1.00  0.00    -0.206 F 
ATOM     70  C   UNL A   1      46.210  22.113  24.399  1.00  0.00     0.006 A 
ENDBRANCH  49  63
BRANCH  50  71
ATOM     71  C   UNL A   1      47.532  30.493  28.284  1.00  0.00     0.057 A 
ATOM     72  C   UNL A   1      48.387  31.042  29.251  1.00  0.00     0.134 A 
ATOM     73  C   UNL A   1      47.479  31.165  27.052  1.00  0.00     0.134 A 
ATOM     74  F   UNL A   1      48.462  30.514  30.481  1.00  0.00    -0.206 F 
ATOM     75  C   UNL A   1      49.125  32.208  29.019  1.00  0.00     0.040 A 
ATOM     76  C   UNL A   1      48.208  32.336  26.809  1.00  0.00     0.040 A 
ATOM     77  F   UNL A   1      46.666  30.739  26.074  1.00  0.00    -0.206 F 
ATOM     78  C   UNL A   1      49.024  32.869  27.799  1.00  0.00     0.006 A 
ENDBRANCH  50  71
BRANCH  62  79
ATOM     79  C   UNL A   1      45.596  25.847  31.982  1.00  0.00     0.057 A 
ATOM     80  C   UNL A   1      44.495  26.647  32.312  1.00  0.00     0.134 A 
ATOM     81  C   UNL A   1      46.489  25.528  33.014  1.00  0.00     0.134 A 
ATOM     82  F   UNL A   1      43.621  27.020  31.364  1.00  0.00    -0.206 F 
ATOM     83  C   UNL A   1      44.280  27.102  33.613  1.00  0.00     0.040 A 
ATOM     84  C   UNL A   1      46.264  25.947  34.328  1.00  0.00     0.040 A 
ATOM     85  F   UNL A   1      47.608  24.830  32.773  1.00  0.00    -0.206 F 
ATOM     86  C   UNL A   1      45.158  26.738  34.629  1.00  0.00     0.006 A 
ENDBRANCH  62  79
ENDBRANCH  36  37
ENDBRANCH  29  31
ENDBRANCH  28  29
ENDBRANCH  27  28
ENDBRANCH   1  27
TORSDOF 15
ENDMDL
MODEL 2
REMARK VINA RESULT:     -11.7      1.352      2.703
REMARK SMILES COc1ccc2c(c1)c(CC(=O)OCCOC(=O)c1ccc(-c3c4nc(c(-c5c(F)cccc5F)c5ccc([nH]5)c(-c5c(F)cccc5F)c5nc(c(-c6c(F)cccc6F)c6ccc3[nH]6)C=C5)C=C4)cc1)c(C)n2C(=O)c1ccc(Cl)cc1
REMARK SMILES IDX 14 1 13 2 11 3 12 4 10 5 9 6 3 7 4 8 8 9 5 10 7 11 6 12
REMARK SMILES IDX 75 13 73 14 74 15 2 16 1 17 76 18 77 19 78 20 79 21 84 22
REMARK SMILES IDX 80 23 83 24 81 25 82 26 15 27 16 28 17 29 18 30 19 31 20 32
REMARK SMILES IDX 72 33 21 34 71 35 22 36 23 37 24 38 65 39 25 40 70 41 64 42
REMARK SMILES IDX 66 43 26 44 69 45 63 46 62 47 27 49 53 50 36 51 52 52 37 53
REMARK SMILES IDX 40 54 51 55 67 56 38 57 39 58 50 60 68 61 41 62 28 63 29 64
REMARK SMILES IDX 34 65 30 66 31 67 33 68 35 69 32 70 54 71 55 72 60 73 56 74
REMARK SMILES IDX 57 75 59 76 61 77 58 78 42 79 43 80 48 81 44 82 45 83 47 84
REMARK SMILES IDX 49 85 46 86
REMARK H PARENT 66 48 40 59
REMARK Flexibility Score: inf
ROOT
ATOM      1  C   UNL A   1      33.920  29.948  26.784  1.00  0.00     0.274 C 
ENDROOT
BRANCH   1   2
ATOM      2  O   UNL A   1      32.666  29.403  27.251  1.00  0.00    -0.462 OA
BRANCH   2   3
ATOM      3  C   UNL A   1      32.494  28.077  27.042  1.00  0.00     0.310 C 
ATOM      4  O   UNL A   1      31.481  27.454  27.351  1.00  0.00    -0.252 OA
BRANCH   3   5
ATOM      5  C   UNL A   1      33.680  27.362  26.463  1.00  0.00     0.160 C 
BRANCH   5   6
ATOM      6  C   UNL A   1      33.576  26.496  25.235  1.00  0.00    -0.008 A 
ATOM      7  C   UNL A   1      31.131  27.412  22.377  1.00  0.00     0.119 A 
ATOM      8  C   UNL A   1      31.208  26.198  21.727  1.00  0.00     0.048 A 
ATOM      9  C   UNL A   1      31.954  27.641  23.493  1.00  0.00     0.057 A 
ATOM     10  C   UNL A   1      32.079  25.208  22.190  1.00  0.00     0.031 A 
ATOM     11  C   UNL A   1      32.793  26.638  24.039  1.00  0.00     0.008 A 
ATOM     12  C   UNL A   1      32.883  25.431  23.334  1.00  0.00     0.057 A 
ATOM     13  N   UNL A   1      33.855  24.638  23.965  1.00  0.00    -0.280 N 
ATOM     14  C   UNL A   1      34.106  25.209  25.210  1.00  0.00     0.028 A 
ATOM     15  C   UNL A   1      34.837  24.535  26.332  1.00  0.00     0.065 C 
BRANCH   7  16
ATOM     16  O   UNL A   1      30.302  28.444  22.028  1.00  0.00    -0.497 OA
ATOM     17  C   UNL A   1      30.087  29.471  22.994  1.00  0.00     0.278 C 
ENDBRANCH   7  16
BRANCH  13  18
ATOM     18  C   UNL A   1      34.457  23.463  23.441  1.00  0.00     0.262 C 
ATOM     19  O   UNL A   1      35.386  23.557  22.643  1.00  0.00    -0.268 OA
BRANCH  18  20
ATOM     20  C   UNL A   1      34.028  22.100  23.770  1.00  0.00     0.040 A 
ATOM     21  C   UNL A   1      32.735  21.677  23.447  1.00  0.00     0.015 A 
ATOM     22  C   UNL A   1      34.912  21.278  24.474  1.00  0.00     0.015 A 
ATOM     23  C   UNL A   1      32.300  20.431  23.898  1.00  0.00     0.021 A 
ATOM     24  C   UNL A   1      34.471  20.034  24.918  1.00  0.00     0.021 A 
ATOM     25  C   UNL A   1      33.165  19.623  24.640  1.00  0.00     0.041 A 
ATOM     26  Cl  UNL A   1      32.604  18.115  25.247  1.00  0.00    -0.084 Cl
ENDBRANCH  18  20
ENDBRANCH  13  18
ENDBRANCH   5   6
ENDBRANCH   3   5
ENDBRANCH   2   3
ENDBRANCH   1   2
BRANCH   1  27
ATOM     27  C   UNL A   1      34.749  30.475  27.959  1.00  0.00     0.275 C 
BRANCH  27  28
ATOM     28  O   UNL A   1      35.882  29.614  28.139  1.00  0.00    -0.458 OA
BRANCH  28  29
ATOM     29  C   UNL A   1      36.419  29.557  29.388  1.00  0.00     0.338 C 
ATOM     30  O   UNL A   1      35.853  29.333  30.429  1.00  0.00    -0.246 OA
BRANCH  29  31
ATOM     31  C   UNL A   1      37.875  29.467  29.162  1.00  0.00     0.060 A 
ATOM     32  C   UNL A   1      38.414  29.705  27.899  1.00  0.00     0.016 A 
ATOM     33  C   UNL A   1      38.648  28.897  30.175  1.00  0.00     0.016 A 
ATOM     34  C   UNL A   1      39.693  29.242  27.619  1.00  0.00     0.010 A 
ATOM     35  C   UNL A   1      39.892  28.374  29.875  1.00  0.00     0.010 A 
ATOM     36  C   UNL A   1      40.394  28.507  28.587  1.00  0.00    -0.014 A 
BRANCH  36  37
ATOM     37  C   UNL A   1      41.789  28.176  28.357  1.00  0.00     0.031 A 
ATOM     38  C   UNL A   1      41.907  26.919  27.589  1.00  0.00     0.074 A 
ATOM     39  C   UNL A   1      42.880  28.922  28.617  1.00  0.00     0.049 A 
ATOM     40  N   UNL A   1      42.092  25.740  28.074  1.00  0.00    -0.248 NA
ATOM     41  C   UNL A   1      41.571  26.938  26.158  1.00  0.00     0.031 C 
ATOM     42  C   UNL A   1      42.944  30.329  29.005  1.00  0.00     0.029 A 
ATOM     43  N   UNL A   1      44.197  28.561  28.513  1.00  0.00    -0.354 N 
ATOM     44  C   UNL A   1      42.159  24.904  26.969  1.00  0.00     0.074 A 
ATOM     45  C   UNL A   1      41.583  25.635  25.875  1.00  0.00     0.031 C 
ATOM     46  C   UNL A   1      44.231  30.752  28.935  1.00  0.00     0.029 A 
ATOM     47  C   UNL A   1      45.093  29.612  28.649  1.00  0.00     0.049 A 
ATOM     48  H   UNL A   1      44.484  27.633  28.356  1.00  0.00     0.167 HD
ATOM     49  C   UNL A   1      43.014  23.846  26.978  1.00  0.00     0.037 A 
ATOM     50  C   UNL A   1      46.444  29.550  28.537  1.00  0.00     0.037 A 
ATOM     51  C   UNL A   1      43.514  23.614  28.314  1.00  0.00     0.049 A 
ATOM     52  C   UNL A   1      46.863  28.147  28.772  1.00  0.00     0.074 A 
ATOM     53  C   UNL A   1      43.041  23.119  29.509  1.00  0.00     0.029 A 
ATOM     54  N   UNL A   1      44.658  24.312  28.589  1.00  0.00    -0.354 N 
ATOM     55  N   UNL A   1      46.811  27.562  29.934  1.00  0.00    -0.248 NA
ATOM     56  C   UNL A   1      47.093  27.258  27.637  1.00  0.00     0.031 C 
ATOM     57  C   UNL A   1      43.878  23.667  30.530  1.00  0.00     0.029 A 
ATOM     58  C   UNL A   1      44.847  24.469  29.933  1.00  0.00     0.049 A 
ATOM     59  H   UNL A   1      45.270  24.661  27.902  1.00  0.00     0.167 HD
ATOM     60  C   UNL A   1      46.553  26.240  29.637  1.00  0.00     0.074 A 
ATOM     61  C   UNL A   1      46.934  26.078  28.241  1.00  0.00     0.031 C 
ATOM     62  C   UNL A   1      45.733  25.496  30.433  1.00  0.00     0.037 A 
BRANCH  49  63
ATOM     63  C   UNL A   1      43.844  23.401  25.786  1.00  0.00     0.057 A 
ATOM     64  C   UNL A   1      44.852  24.166  25.164  1.00  0.00     0.134 A 
ATOM     65  C   UNL A   1      43.886  22.021  25.502  1.00  0.00     0.134 A 
ATOM     66  F   UNL A   1      44.981  25.485  25.337  1.00  0.00    -0.206 F 
ATOM     67  C   UNL A   1      45.868  23.595  24.393  1.00  0.00     0.040 A 
ATOM     68  C   UNL A   1      44.926  21.436  24.772  1.00  0.00     0.040 A 
ATOM     69  F   UNL A   1      42.970  21.186  26.014  1.00  0.00    -0.206 F 
ATOM     70  C   UNL A   1      45.934  22.222  24.230  1.00  0.00     0.006 A 
ENDBRANCH  49  63
BRANCH  50  71
ATOM     71  C   UNL A   1      47.431  30.580  28.147  1.00  0.00     0.057 A 
ATOM     72  C   UNL A   1      48.368  31.069  29.070  1.00  0.00     0.134 A 
ATOM     73  C   UNL A   1      47.295  31.311  26.956  1.00  0.00     0.134 A 
ATOM     74  F   UNL A   1      48.527  30.480  30.264  1.00  0.00    -0.206 F 
ATOM     75  C   UNL A   1      49.106  32.234  28.836  1.00  0.00     0.040 A 
ATOM     76  C   UNL A   1      48.024  32.483  26.713  1.00  0.00     0.040 A 
ATOM     77  F   UNL A   1      46.402  30.946  26.025  1.00  0.00    -0.206 F 
ATOM     78  C   UNL A   1      48.924  32.955  27.661  1.00  0.00     0.006 A 
ENDBRANCH  50  71
BRANCH  62  79
ATOM     79  C   UNL A   1      45.628  25.900  31.869  1.00  0.00     0.057 A 
ATOM     80  C   UNL A   1      44.491  26.613  32.269  1.00  0.00     0.134 A 
ATOM     81  C   UNL A   1      46.602  25.649  32.843  1.00  0.00     0.134 A 
ATOM     82  F   UNL A   1      43.535  26.919  31.377  1.00  0.00    -0.206 F 
ATOM     83  C   UNL A   1      44.320  27.049  33.582  1.00  0.00     0.040 A 
ATOM     84  C   UNL A   1      46.426  26.049  34.170  1.00  0.00     0.040 A 
ATOM     85  F   UNL A   1      47.755  25.038  32.532  1.00  0.00    -0.206 F 
ATOM     86  C   UNL A   1      45.284  26.753  34.542  1.00  0.00     0.006 A 
ENDBRANCH  62  79
ENDBRANCH  36  37
ENDBRANCH  29  31
ENDBRANCH  28  29
ENDBRANCH  27  28
ENDBRANCH   1  27
TORSDOF 15
ENDMDL
MODEL 3
REMARK VINA RESULT:     -11.7      1.974      6.135
REMARK SMILES COc1ccc2c(c1)c(CC(=O)OCCOC(=O)c1ccc(-c3c4nc(c(-c5c(F)cccc5F)c5ccc([nH]5)c(-c5c(F)cccc5F)c5nc(c(-c6c(F)cccc6F)c6ccc3[nH]6)C=C5)C=C4)cc1)c(C)n2C(=O)c1ccc(Cl)cc1
REMARK SMILES IDX 14 1 13 2 11 3 12 4 10 5 9 6 3 7 4 8 8 9 5 10 7 11 6 12
REMARK SMILES IDX 75 13 73 14 74 15 2 16 1 17 76 18 77 19 78 20 79 21 84 22
REMARK SMILES IDX 80 23 83 24 81 25 82 26 15 27 16 28 17 29 18 30 19 31 20 32
REMARK SMILES IDX 72 33 21 34 71 35 22 36 23 37 24 38 65 39 25 40 70 41 64 42
REMARK SMILES IDX 66 43 26 44 69 45 63 46 62 47 27 49 53 50 36 51 52 52 37 53
REMARK SMILES IDX 40 54 51 55 67 56 38 57 39 58 50 60 68 61 41 62 28 63 29 64
REMARK SMILES IDX 34 65 30 66 31 67 33 68 35 69 32 70 54 71 55 72 60 73 56 74
REMARK SMILES IDX 57 75 59 76 61 77 58 78 42 79 43 80 48 81 44 82 45 83 47 84
REMARK SMILES IDX 49 85 46 86
REMARK H PARENT 66 48 40 59
REMARK Flexibility Score: inf
ROOT
ATOM      1  C   UNL A   1      32.510  29.259  26.119  1.00  0.00     0.274 C 
ENDROOT
BRANCH   1   2
ATOM      2  O   UNL A   1      33.298  28.124  26.542  1.00  0.00    -0.462 OA
BRANCH   2   3
ATOM      3  C   UNL A   1      33.413  27.126  25.636  1.00  0.00     0.310 C 
ATOM      4  O   UNL A   1      33.810  27.281  24.483  1.00  0.00    -0.252 OA
BRANCH   3   5
ATOM      5  C   UNL A   1      32.938  25.781  26.102  1.00  0.00     0.160 C 
BRANCH   5   6
ATOM      6  C   UNL A   1      33.378  24.500  25.444  1.00  0.00    -0.008 A 
ATOM      7  C   UNL A   1      37.106  23.453  25.466  1.00  0.00     0.119 A 
ATOM      8  C   UNL A   1      36.982  22.462  24.515  1.00  0.00     0.048 A 
ATOM      9  C   UNL A   1      35.950  24.118  25.911  1.00  0.00     0.057 A 
ATOM     10  C   UNL A   1      35.725  22.142  23.993  1.00  0.00     0.031 A 
ATOM     11  C   UNL A   1      34.670  23.878  25.353  1.00  0.00     0.008 A 
ATOM     12  C   UNL A   1      34.568  22.836  24.421  1.00  0.00     0.057 A 
ATOM     13  N   UNL A   1      33.210  22.682  24.099  1.00  0.00    -0.280 N 
ATOM     14  C   UNL A   1      32.546  23.814  24.564  1.00  0.00     0.028 A 
ATOM     15  C   UNL A   1      31.155  24.215  24.173  1.00  0.00     0.065 C 
BRANCH   7  16
ATOM     16  O   UNL A   1      38.283  23.865  26.030  1.00  0.00    -0.497 OA
ATOM     17  C   UNL A   1      39.221  22.858  26.405  1.00  0.00     0.278 C 
ENDBRANCH   7  16
BRANCH  13  18
ATOM     18  C   UNL A   1      32.625  21.586  23.411  1.00  0.00     0.262 C 
ATOM     19  O   UNL A   1      32.087  21.766  22.321  1.00  0.00    -0.268 OA
BRANCH  18  20
ATOM     20  C   UNL A   1      32.592  20.214  23.924  1.00  0.00     0.040 A 
ATOM     21  C   UNL A   1      32.795  19.972  25.287  1.00  0.00     0.015 A 
ATOM     22  C   UNL A   1      32.433  19.166  23.012  1.00  0.00     0.015 A 
ATOM     23  C   UNL A   1      32.906  18.655  25.730  1.00  0.00     0.021 A 
ATOM     24  C   UNL A   1      32.542  17.853  23.464  1.00  0.00     0.021 A 
ATOM     25  C   UNL A   1      32.791  17.604  24.816  1.00  0.00     0.041 A 
ATOM     26  Cl  UNL A   1      32.991  15.984  25.356  1.00  0.00    -0.084 Cl
ENDBRANCH  18  20
ENDBRANCH  13  18
ENDBRANCH   5   6
ENDBRANCH   3   5
ENDBRANCH   2   3
ENDBRANCH   1   2
BRANCH   1  27
ATOM     27  C   UNL A   1      32.772  30.465  27.026  1.00  0.00     0.275 C 
BRANCH  27  28
ATOM     28  O   UNL A   1      34.180  30.739  27.024  1.00  0.00    -0.458 OA
BRANCH  28  29
ATOM     29  C   UNL A   1      34.638  31.612  27.962  1.00  0.00     0.338 C 
ATOM     30  O   UNL A   1      34.057  32.549  28.448  1.00  0.00    -0.246 OA
BRANCH  29  31
ATOM     31  C   UNL A   1      35.842  30.961  28.517  1.00  0.00     0.060 A 
ATOM     32  C   UNL A   1      36.959  31.715  28.867  1.00  0.00     0.016 A 
ATOM     33  C   UNL A   1      35.912  29.568  28.439  1.00  0.00     0.016 A 
ATOM     34  C   UNL A   1      38.183  31.074  29.006  1.00  0.00     0.010 A 
ATOM     35  C   UNL A   1      37.141  28.941  28.507  1.00  0.00     0.010 A 
ATOM     36  C   UNL A   1      38.280  29.698  28.746  1.00  0.00    -0.014 A 
BRANCH  36  37
ATOM     37  C   UNL A   1      39.516  29.001  29.059  1.00  0.00     0.031 A 
ATOM     38  C   UNL A   1      39.753  28.989  30.517  1.00  0.00     0.074 A 
ATOM     39  C   UNL A   1      40.309  28.293  28.233  1.00  0.00     0.049 A 
ATOM     40  N   UNL A   1      40.485  29.815  31.182  1.00  0.00    -0.248 NA
ATOM     41  C   UNL A   1      38.925  28.107  31.354  1.00  0.00     0.031 C 
ATOM     42  C   UNL A   1      40.039  27.868  26.861  1.00  0.00     0.029 A 
ATOM     43  N   UNL A   1      41.533  27.740  28.501  1.00  0.00    -0.354 N 
ATOM     44  C   UNL A   1      40.414  29.381  32.497  1.00  0.00     0.074 A 
ATOM     45  C   UNL A   1      39.265  28.522  32.576  1.00  0.00     0.031 C 
ATOM     46  C   UNL A   1      40.988  26.979  26.476  1.00  0.00     0.029 A 
ATOM     47  C   UNL A   1      42.010  26.892  27.512  1.00  0.00     0.049 A 
ATOM     48  H   UNL A   1      42.033  27.930  29.328  1.00  0.00     0.167 HD
ATOM     49  C   UNL A   1      41.511  29.473  33.295  1.00  0.00     0.037 A 
ATOM     50  C   UNL A   1      43.161  26.174  27.541  1.00  0.00     0.037 A 
ATOM     51  C   UNL A   1      42.516  30.306  32.677  1.00  0.00     0.049 A 
ATOM     52  C   UNL A   1      44.079  26.810  28.516  1.00  0.00     0.074 A 
ATOM     53  C   UNL A   1      42.714  31.644  32.414  1.00  0.00     0.029 A 
ATOM     54  N   UNL A   1      43.377  29.605  31.877  1.00  0.00    -0.354 N 
ATOM     55  N   UNL A   1      44.659  27.960  28.320  1.00  0.00    -0.248 NA
ATOM     56  C   UNL A   1      44.154  26.299  29.881  1.00  0.00     0.031 C 
ATOM     57  C   UNL A   1      43.634  31.708  31.324  1.00  0.00     0.029 A 
ATOM     58  C   UNL A   1      43.986  30.411  30.957  1.00  0.00     0.049 A 
ATOM     59  H   UNL A   1      43.537  28.637  31.953  1.00  0.00     0.167 HD
ATOM     60  C   UNL A   1      44.765  28.505  29.582  1.00  0.00     0.074 A 
ATOM     61  C   UNL A   1      44.634  27.382  30.499  1.00  0.00     0.031 C 
ATOM     62  C   UNL A   1      44.597  29.844  29.776  1.00  0.00     0.037 A 
BRANCH  49  63
ATOM     63  C   UNL A   1      41.938  28.412  34.296  1.00  0.00     0.057 A 
ATOM     64  C   UNL A   1      42.588  27.203  33.973  1.00  0.00     0.134 A 
ATOM     65  C   UNL A   1      42.035  28.795  35.648  1.00  0.00     0.134 A 
ATOM     66  F   UNL A   1      42.622  26.698  32.736  1.00  0.00    -0.206 F 
ATOM     67  C   UNL A   1      43.344  26.480  34.899  1.00  0.00     0.040 A 
ATOM     68  C   UNL A   1      42.828  28.103  36.570  1.00  0.00     0.040 A 
ATOM     69  F   UNL A   1      41.441  29.913  36.090  1.00  0.00    -0.206 F 
ATOM     70  C   UNL A   1      43.503  26.950  36.191  1.00  0.00     0.006 A 
ENDBRANCH  49  63
BRANCH  50  71
ATOM     71  C   UNL A   1      43.529  24.910  26.867  1.00  0.00     0.057 A 
ATOM     72  C   UNL A   1      43.991  24.904  25.543  1.00  0.00     0.134 A 
ATOM     73  C   UNL A   1      43.166  23.662  27.401  1.00  0.00     0.134 A 
ATOM     74  F   UNL A   1      44.302  26.050  24.919  1.00  0.00    -0.206 F 
ATOM     75  C   UNL A   1      44.063  23.732  24.782  1.00  0.00     0.040 A 
ATOM     76  C   UNL A   1      43.227  22.482  26.648  1.00  0.00     0.040 A 
ATOM     77  F   UNL A   1      42.679  23.565  28.646  1.00  0.00    -0.206 F 
ATOM     78  C   UNL A   1      43.664  22.518  25.329  1.00  0.00     0.006 A 
ENDBRANCH  50  71
BRANCH  62  79
ATOM     79  C   UNL A   1      44.902  30.744  28.622  1.00  0.00     0.057 A 
ATOM     80  C   UNL A   1      46.137  31.404  28.613  1.00  0.00     0.134 A 
ATOM     81  C   UNL A   1      44.028  31.007  27.559  1.00  0.00     0.134 A 
ATOM     82  F   UNL A   1      47.008  31.225  29.620  1.00  0.00    -0.206 F 
ATOM     83  C   UNL A   1      46.497  32.279  27.589  1.00  0.00     0.040 A 
ATOM     84  C   UNL A   1      44.391  31.853  26.508  1.00  0.00     0.040 A 
ATOM     85  F   UNL A   1      42.797  30.476  27.525  1.00  0.00    -0.206 F 
ATOM     86  C   UNL A   1      45.628  32.494  26.523  1.00  0.00     0.006 A 
ENDBRANCH  62  79
ENDBRANCH  36  37
ENDBRANCH  29  31
ENDBRANCH  28  29
ENDBRANCH  27  28
ENDBRANCH   1  27
TORSDOF 15
ENDMDL
