MODEL 1
REMARK VINA RESULT:     -11.6      0.000      0.000
REMARK SMILES O=C(CC1CC[NH+](C[C@H]2COc3ccccc3O2)CC1)OCCOC(=O)c1ccc(-c2c3nc(c(-c4c(F)cccc4F)c4ccc([nH]4)c(-c4c(F)cccc4F)c4nc(c(-c5c(F)cccc5F)c5ccc2[nH]5)C=C4)C=C3)cc1
REMARK SMILES IDX 22 1 21 2 2 3 1 4 3 5 4 6 5 7 20 8 6 9 19 10 7 11 8 13 9 14
REMARK SMILES IDX 10 15 18 16 11 17 17 18 12 19 16 20 13 21 15 22 14 23 23 24
REMARK SMILES IDX 24 25 25 26 26 27 27 28 28 29 80 30 29 31 79 32 30 33 31 34
REMARK SMILES IDX 32 35 73 36 33 37 78 38 72 39 74 40 34 41 77 42 71 43 70 44
REMARK SMILES IDX 35 46 61 47 44 48 60 49 45 50 48 51 59 52 75 53 46 54 47 55
REMARK SMILES IDX 58 57 76 58 49 59 36 60 37 61 42 62 38 63 39 64 41 65 43 66
REMARK SMILES IDX 40 67 62 68 63 69 68 70 64 71 65 72 67 73 69 74 66 75 50 76
REMARK SMILES IDX 51 77 56 78 52 79 53 80 55 81 57 82 54 83
REMARK H PARENT 7 12 74 45 48 56
REMARK Flexibility Score: inf
ROOT
ATOM      1  C   UNL A   1      31.307  31.324  26.251  1.00  0.00     0.274 C 
ENDROOT
BRANCH   1   2
ATOM      2  O   UNL A   1      32.566  30.624  26.339  1.00  0.00    -0.462 OA
BRANCH   2   3
ATOM      3  C   UNL A   1      32.814  29.386  25.854  1.00  0.00     0.306 C 
ATOM      4  O   UNL A   1      33.874  28.829  26.127  1.00  0.00    -0.252 OA
BRANCH   3   5
ATOM      5  C   UNL A   1      31.773  28.694  25.006  1.00  0.00     0.126 C 
BRANCH   5   6
ATOM      6  C   UNL A   1      31.778  28.964  23.490  1.00  0.00     0.011 C 
ATOM      7  C   UNL A   1      30.704  28.233  22.683  1.00  0.00     0.066 C 
ATOM      8  C   UNL A   1      33.137  28.766  22.810  1.00  0.00     0.066 C 
ATOM      9  C   UNL A   1      31.047  26.775  22.375  1.00  0.00     0.262 C 
ATOM     10  C   UNL A   1      33.468  27.309  22.487  1.00  0.00     0.262 C 
ATOM     11  N   UNL A   1      32.383  26.583  21.827  1.00  0.00    -0.332 N 
ATOM     12  H   UNL A   1      32.305  27.039  20.918  1.00  0.00     0.348 HD
BRANCH  11  13
ATOM     13  C   UNL A   1      32.728  25.165  21.570  1.00  0.00     0.311 C 
BRANCH  13  14
ATOM     14  C   UNL A   1      33.205  24.227  22.718  1.00  0.00     0.265 C 
ATOM     15  C   UNL A   1      32.480  22.886  22.770  1.00  0.00     0.281 C 
ATOM     16  O   UNL A   1      34.617  23.978  22.500  1.00  0.00    -0.477 OA
ATOM     17  O   UNL A   1      32.909  22.096  23.886  1.00  0.00    -0.486 OA
ATOM     18  C   UNL A   1      35.096  23.007  23.342  1.00  0.00     0.162 A 
ATOM     19  C   UNL A   1      34.268  22.111  24.023  1.00  0.00     0.161 A 
ATOM     20  C   UNL A   1      36.478  22.923  23.496  1.00  0.00     0.050 A 
ATOM     21  C   UNL A   1      34.812  21.170  24.896  1.00  0.00     0.050 A 
ATOM     22  C   UNL A   1      37.027  21.968  24.355  1.00  0.00     0.004 A 
ATOM     23  C   UNL A   1      36.194  21.098  25.062  1.00  0.00     0.004 A 
ENDBRANCH  13  14
ENDBRANCH  11  13
ENDBRANCH   5   6
ENDBRANCH   3   5
ENDBRANCH   2   3
ENDBRANCH   1   2
BRANCH   1  24
ATOM     24  C   UNL A   1      31.408  32.721  26.866  1.00  0.00     0.275 C 
BRANCH  24  25
ATOM     25  O   UNL A   1      32.781  33.139  26.891  1.00  0.00    -0.458 OA
BRANCH  25  26
ATOM     26  C   UNL A   1      33.158  33.832  27.999  1.00  0.00     0.338 C 
ATOM     27  O   UNL A   1      32.528  34.697  28.576  1.00  0.00    -0.246 OA
BRANCH  26  28
ATOM     28  C   UNL A   1      34.410  33.236  28.512  1.00  0.00     0.060 A 
ATOM     29  C   UNL A   1      34.364  31.937  29.037  1.00  0.00     0.016 A 
ATOM     30  C   UNL A   1      35.621  33.931  28.445  1.00  0.00     0.016 A 
ATOM     31  C   UNL A   1      35.528  31.336  29.517  1.00  0.00     0.010 A 
ATOM     32  C   UNL A   1      36.780  33.336  28.938  1.00  0.00     0.010 A 
ATOM     33  C   UNL A   1      36.733  32.049  29.500  1.00  0.00    -0.014 A 
BRANCH  33  34
ATOM     34  C   UNL A   1      37.914  31.562  30.243  1.00  0.00     0.031 A 
ATOM     35  C   UNL A   1      38.786  30.535  29.582  1.00  0.00     0.074 A 
ATOM     36  C   UNL A   1      38.157  31.953  31.505  1.00  0.00     0.049 A 
ATOM     37  N   UNL A   1      39.768  29.833  30.080  1.00  0.00    -0.248 NA
ATOM     38  C   UNL A   1      38.489  30.249  28.168  1.00  0.00     0.031 C 
ATOM     39  C   UNL A   1      37.393  32.954  32.244  1.00  0.00     0.029 A 
ATOM     40  N   UNL A   1      39.102  31.516  32.398  1.00  0.00    -0.354 N 
ATOM     41  C   UNL A   1      40.199  29.012  29.047  1.00  0.00     0.074 A 
ATOM     42  C   UNL A   1      39.361  29.289  27.902  1.00  0.00     0.031 C 
ATOM     43  C   UNL A   1      37.876  33.027  33.498  1.00  0.00     0.029 A 
ATOM     44  C   UNL A   1      38.961  32.059  33.651  1.00  0.00     0.049 A 
ATOM     45  H   UNL A   1      39.813  30.875  32.163  1.00  0.00     0.167 HD
ATOM     46  C   UNL A   1      41.203  28.105  29.053  1.00  0.00     0.037 A 
ATOM     47  C   UNL A   1      39.612  31.774  34.795  1.00  0.00     0.037 A 
ATOM     48  C   UNL A   1      42.026  27.820  30.195  1.00  0.00     0.049 A 
ATOM     49  C   UNL A   1      40.692  30.726  34.797  1.00  0.00     0.074 A 
ATOM     50  C   UNL A   1      43.087  26.939  30.297  1.00  0.00     0.029 A 
ATOM     51  N   UNL A   1      41.866  28.405  31.441  1.00  0.00    -0.354 N 
ATOM     52  N   UNL A   1      41.123  29.980  33.807  1.00  0.00    -0.248 NA
ATOM     53  C   UNL A   1      41.376  30.476  36.075  1.00  0.00     0.031 C 
ATOM     54  C   UNL A   1      43.543  26.961  31.619  1.00  0.00     0.029 A 
ATOM     55  C   UNL A   1      42.793  27.886  32.328  1.00  0.00     0.049 A 
ATOM     56  H   UNL A   1      41.193  29.089  31.663  1.00  0.00     0.167 HD
ATOM     57  C   UNL A   1      42.141  29.195  34.333  1.00  0.00     0.074 A 
ATOM     58  C   UNL A   1      42.266  29.554  35.731  1.00  0.00     0.031 C 
ATOM     59  C   UNL A   1      42.907  28.264  33.714  1.00  0.00     0.037 A 
BRANCH  46  60
ATOM     60  C   UNL A   1      41.424  27.335  27.787  1.00  0.00     0.057 A 
ATOM     61  C   UNL A   1      42.254  27.816  26.766  1.00  0.00     0.134 A 
ATOM     62  C   UNL A   1      40.776  26.112  27.577  1.00  0.00     0.134 A 
ATOM     63  F   UNL A   1      42.883  28.993  26.900  1.00  0.00    -0.206 F 
ATOM     64  C   UNL A   1      42.409  27.120  25.566  1.00  0.00     0.040 A 
ATOM     65  C   UNL A   1      40.941  25.396  26.391  1.00  0.00     0.040 A 
ATOM     66  F   UNL A   1      39.965  25.600  28.514  1.00  0.00    -0.206 F 
ATOM     67  C   UNL A   1      41.753  25.905  25.377  1.00  0.00     0.006 A 
ENDBRANCH  46  60
BRANCH  47  68
ATOM     68  C   UNL A   1      39.241  32.482  36.045  1.00  0.00     0.057 A 
ATOM     69  C   UNL A   1      39.788  33.730  36.358  1.00  0.00     0.134 A 
ATOM     70  C   UNL A   1      38.331  31.927  36.953  1.00  0.00     0.134 A 
ATOM     71  F   UNL A   1      40.683  34.299  35.539  1.00  0.00    -0.206 F 
ATOM     72  C   UNL A   1      39.448  34.402  37.534  1.00  0.00     0.040 A 
ATOM     73  C   UNL A   1      37.968  32.594  38.123  1.00  0.00     0.040 A 
ATOM     74  F   UNL A   1      37.773  30.732  36.708  1.00  0.00    -0.206 F 
ATOM     75  C   UNL A   1      38.530  33.835  38.418  1.00  0.00     0.006 A 
ENDBRANCH  47  68
BRANCH  59  76
ATOM     76  C   UNL A   1      43.972  27.589  34.525  1.00  0.00     0.057 A 
ATOM     77  C   UNL A   1      45.242  28.152  34.688  1.00  0.00     0.134 A 
ATOM     78  C   UNL A   1      43.692  26.402  35.215  1.00  0.00     0.134 A 
ATOM     79  F   UNL A   1      45.572  29.283  34.047  1.00  0.00    -0.206 F 
ATOM     80  C   UNL A   1      46.203  27.553  35.505  1.00  0.00     0.040 A 
ATOM     81  C   UNL A   1      44.638  25.805  36.049  1.00  0.00     0.040 A 
ATOM     82  F   UNL A   1      42.490  25.818  35.107  1.00  0.00    -0.206 F 
ATOM     83  C   UNL A   1      45.898  26.380  36.195  1.00  0.00     0.006 A 
ENDBRANCH  59  76
ENDBRANCH  33  34
ENDBRANCH  26  28
ENDBRANCH  25  26
ENDBRANCH  24  25
ENDBRANCH   1  24
TORSDOF 14
ENDMDL
MODEL 2
REMARK VINA RESULT:     -11.5      2.567      8.438
REMARK SMILES O=C(CC1CC[NH+](C[C@H]2COc3ccccc3O2)CC1)OCCOC(=O)c1ccc(-c2c3nc(c(-c4c(F)cccc4F)c4ccc([nH]4)c(-c4c(F)cccc4F)c4nc(c(-c5c(F)cccc5F)c5ccc2[nH]5)C=C4)C=C3)cc1
REMARK SMILES IDX 22 1 21 2 2 3 1 4 3 5 4 6 5 7 20 8 6 9 19 10 7 11 8 13 9 14
REMARK SMILES IDX 10 15 18 16 11 17 17 18 12 19 16 20 13 21 15 22 14 23 23 24
REMARK SMILES IDX 24 25 25 26 26 27 27 28 28 29 80 30 29 31 79 32 30 33 31 34
REMARK SMILES IDX 32 35 73 36 33 37 78 38 72 39 74 40 34 41 77 42 71 43 70 44
REMARK SMILES IDX 35 46 61 47 44 48 60 49 45 50 48 51 59 52 75 53 46 54 47 55
REMARK SMILES IDX 58 57 76 58 49 59 36 60 37 61 42 62 38 63 39 64 41 65 43 66
REMARK SMILES IDX 40 67 62 68 63 69 68 70 64 71 65 72 67 73 69 74 66 75 50 76
REMARK SMILES IDX 51 77 56 78 52 79 53 80 55 81 57 82 54 83
REMARK H PARENT 7 12 74 45 48 56
REMARK Flexibility Score: inf
ROOT
ATOM      1  C   UNL A   1      41.004  20.673  26.850  1.00  0.00     0.274 C 
ENDROOT
BRANCH   1   2
ATOM      2  O   UNL A   1      39.858  21.163  26.123  1.00  0.00    -0.462 OA
BRANCH   2   3
ATOM      3  C   UNL A   1      38.904  20.397  25.548  1.00  0.00     0.306 C 
ATOM      4  O   UNL A   1      39.121  19.204  25.351  1.00  0.00    -0.252 OA
BRANCH   3   5
ATOM      5  C   UNL A   1      37.574  21.012  25.179  1.00  0.00     0.126 C 
BRANCH   5   6
ATOM      6  C   UNL A   1      37.560  22.477  24.705  1.00  0.00     0.011 C 
ATOM      7  C   UNL A   1      37.279  23.520  25.789  1.00  0.00     0.066 C 
ATOM      8  C   UNL A   1      36.656  22.751  23.499  1.00  0.00     0.066 C 
ATOM      9  C   UNL A   1      35.796  23.668  26.134  1.00  0.00     0.262 C 
ATOM     10  C   UNL A   1      35.178  22.918  23.851  1.00  0.00     0.262 C 
ATOM     11  N   UNL A   1      34.929  23.822  24.972  1.00  0.00    -0.332 N 
ATOM     12  H   UNL A   1      35.216  24.734  24.615  1.00  0.00     0.348 HD
BRANCH  11  13
ATOM     13  C   UNL A   1      33.490  23.922  25.308  1.00  0.00     0.311 C 
BRANCH  13  14
ATOM     14  C   UNL A   1      32.776  25.302  25.411  1.00  0.00     0.265 C 
ATOM     15  C   UNL A   1      33.727  26.490  25.524  1.00  0.00     0.281 C 
ATOM     16  O   UNL A   1      31.987  25.459  24.203  1.00  0.00    -0.477 OA
ATOM     17  O   UNL A   1      33.015  27.723  25.686  1.00  0.00    -0.486 OA
ATOM     18  C   UNL A   1      31.469  26.725  24.098  1.00  0.00     0.162 A 
ATOM     19  C   UNL A   1      31.956  27.812  24.828  1.00  0.00     0.161 A 
ATOM     20  C   UNL A   1      30.418  26.910  23.203  1.00  0.00     0.050 A 
ATOM     21  C   UNL A   1      31.362  29.067  24.707  1.00  0.00     0.050 A 
ATOM     22  C   UNL A   1      29.834  28.171  23.065  1.00  0.00     0.004 A 
ATOM     23  C   UNL A   1      30.299  29.247  23.823  1.00  0.00     0.004 A 
ENDBRANCH  13  14
ENDBRANCH  11  13
ENDBRANCH   5   6
ENDBRANCH   3   5
ENDBRANCH   2   3
ENDBRANCH   1   2
BRANCH   1  24
ATOM     24  C   UNL A   1      42.296  20.903  26.066  1.00  0.00     0.275 C 
BRANCH  24  25
ATOM     25  O   UNL A   1      42.992  22.038  26.603  1.00  0.00    -0.458 OA
BRANCH  25  26
ATOM     26  C   UNL A   1      42.990  23.148  25.817  1.00  0.00     0.338 C 
ATOM     27  O   UNL A   1      43.184  23.201  24.618  1.00  0.00    -0.246 OA
BRANCH  26  28
ATOM     28  C   UNL A   1      42.532  24.291  26.635  1.00  0.00     0.060 A 
ATOM     29  C   UNL A   1      43.258  25.488  26.574  1.00  0.00     0.016 A 
ATOM     30  C   UNL A   1      41.382  24.199  27.424  1.00  0.00     0.016 A 
ATOM     31  C   UNL A   1      42.849  26.593  27.321  1.00  0.00     0.010 A 
ATOM     32  C   UNL A   1      40.982  25.298  28.181  1.00  0.00     0.010 A 
ATOM     33  C   UNL A   1      41.728  26.489  28.153  1.00  0.00    -0.014 A 
BRANCH  33  34
ATOM     34  C   UNL A   1      41.427  27.530  29.158  1.00  0.00     0.031 A 
ATOM     35  C   UNL A   1      42.187  27.497  30.452  1.00  0.00     0.074 A 
ATOM     36  C   UNL A   1      40.444  28.424  28.966  1.00  0.00     0.049 A 
ATOM     37  N   UNL A   1      41.995  28.183  31.547  1.00  0.00    -0.248 NA
ATOM     38  C   UNL A   1      43.306  26.542  30.520  1.00  0.00     0.031 C 
ATOM     39  C   UNL A   1      39.650  28.563  27.748  1.00  0.00     0.029 A 
ATOM     40  N   UNL A   1      39.924  29.362  29.822  1.00  0.00    -0.354 N 
ATOM     41  C   UNL A   1      42.957  27.734  32.440  1.00  0.00     0.074 A 
ATOM     42  C   UNL A   1      43.719  26.705  31.768  1.00  0.00     0.031 C 
ATOM     43  C   UNL A   1      38.713  29.508  27.949  1.00  0.00     0.029 A 
ATOM     44  C   UNL A   1      38.827  30.014  29.317  1.00  0.00     0.049 A 
ATOM     45  H   UNL A   1      40.302  29.550  30.712  1.00  0.00     0.167 HD
ATOM     46  C   UNL A   1      43.184  28.140  33.711  1.00  0.00     0.037 A 
ATOM     47  C   UNL A   1      37.993  30.890  29.908  1.00  0.00     0.037 A 
ATOM     48  C   UNL A   1      42.419  29.152  34.383  1.00  0.00     0.049 A 
ATOM     49  C   UNL A   1      38.229  31.294  31.339  1.00  0.00     0.074 A 
ATOM     50  C   UNL A   1      42.585  29.656  35.660  1.00  0.00     0.029 A 
ATOM     51  N   UNL A   1      41.327  29.804  33.830  1.00  0.00    -0.354 N 
ATOM     52  N   UNL A   1      39.165  30.895  32.167  1.00  0.00    -0.248 NA
ATOM     53  C   UNL A   1      37.292  32.268  31.919  1.00  0.00     0.031 C 
ATOM     54  C   UNL A   1      41.567  30.586  35.895  1.00  0.00     0.029 A 
ATOM     55  C   UNL A   1      40.793  30.690  34.750  1.00  0.00     0.049 A 
ATOM     56  H   UNL A   1      40.983  29.660  32.919  1.00  0.00     0.167 HD
ATOM     57  C   UNL A   1      38.947  31.586  33.353  1.00  0.00     0.074 A 
ATOM     58  C   UNL A   1      37.790  32.430  33.139  1.00  0.00     0.031 C 
ATOM     59  C   UNL A   1      39.645  31.528  34.514  1.00  0.00     0.037 A 
BRANCH  46  60
ATOM     60  C   UNL A   1      44.286  27.448  34.453  1.00  0.00     0.057 A 
ATOM     61  C   UNL A   1      44.061  26.271  35.179  1.00  0.00     0.134 A 
ATOM     62  C   UNL A   1      45.580  27.982  34.463  1.00  0.00     0.134 A 
ATOM     63  F   UNL A   1      42.837  25.725  35.226  1.00  0.00    -0.206 F 
ATOM     64  C   UNL A   1      45.080  25.665  35.916  1.00  0.00     0.040 A 
ATOM     65  C   UNL A   1      46.613  27.372  35.177  1.00  0.00     0.040 A 
ATOM     66  F   UNL A   1      45.859  29.109  33.792  1.00  0.00    -0.206 F 
ATOM     67  C   UNL A   1      46.361  26.215  35.914  1.00  0.00     0.006 A 
ENDBRANCH  46  60
BRANCH  47  68
ATOM     68  C   UNL A   1      36.838  31.430  29.149  1.00  0.00     0.057 A 
ATOM     69  C   UNL A   1      36.834  32.745  28.679  1.00  0.00     0.134 A 
ATOM     70  C   UNL A   1      35.713  30.640  28.878  1.00  0.00     0.134 A 
ATOM     71  F   UNL A   1      37.872  33.555  28.930  1.00  0.00    -0.206 F 
ATOM     72  C   UNL A   1      35.750  33.263  27.967  1.00  0.00     0.040 A 
ATOM     73  C   UNL A   1      34.631  31.138  28.153  1.00  0.00     0.040 A 
ATOM     74  F   UNL A   1      35.659  29.370  29.304  1.00  0.00    -0.206 F 
ATOM     75  C   UNL A   1      34.646  32.455  27.697  1.00  0.00     0.006 A 
ENDBRANCH  47  68
BRANCH  59  76
ATOM     76  C   UNL A   1      39.205  32.424  35.633  1.00  0.00     0.057 A 
ATOM     77  C   UNL A   1      38.342  31.977  36.639  1.00  0.00     0.134 A 
ATOM     78  C   UNL A   1      39.716  33.724  35.743  1.00  0.00     0.134 A 
ATOM     79  F   UNL A   1      37.813  30.745  36.584  1.00  0.00    -0.206 F 
ATOM     80  C   UNL A   1      37.996  32.795  37.716  1.00  0.00     0.040 A 
ATOM     81  C   UNL A   1      39.392  34.544  36.825  1.00  0.00     0.040 A 
ATOM     82  F   UNL A   1      40.555  34.208  34.815  1.00  0.00    -0.206 F 
ATOM     83  C   UNL A   1      38.529  34.080  37.815  1.00  0.00     0.006 A 
ENDBRANCH  59  76
ENDBRANCH  33  34
ENDBRANCH  26  28
ENDBRANCH  25  26
ENDBRANCH  24  25
ENDBRANCH   1  24
TORSDOF 14
ENDMDL
MODEL 3
REMARK VINA RESULT:     -11.5      0.841      1.410
REMARK SMILES O=C(CC1CC[NH+](C[C@H]2COc3ccccc3O2)CC1)OCCOC(=O)c1ccc(-c2c3nc(c(-c4c(F)cccc4F)c4ccc([nH]4)c(-c4c(F)cccc4F)c4nc(c(-c5c(F)cccc5F)c5ccc2[nH]5)C=C4)C=C3)cc1
REMARK SMILES IDX 22 1 21 2 2 3 1 4 3 5 4 6 5 7 20 8 6 9 19 10 7 11 8 13 9 14
REMARK SMILES IDX 10 15 18 16 11 17 17 18 12 19 16 20 13 21 15 22 14 23 23 24
REMARK SMILES IDX 24 25 25 26 26 27 27 28 28 29 80 30 29 31 79 32 30 33 31 34
REMARK SMILES IDX 32 35 73 36 33 37 78 38 72 39 74 40 34 41 77 42 71 43 70 44
REMARK SMILES IDX 35 46 61 47 44 48 60 49 45 50 48 51 59 52 75 53 46 54 47 55
REMARK SMILES IDX 58 57 76 58 49 59 36 60 37 61 42 62 38 63 39 64 41 65 43 66
REMARK SMILES IDX 40 67 62 68 63 69 68 70 64 71 65 72 67 73 69 74 66 75 50 76
REMARK SMILES IDX 51 77 56 78 52 79 53 80 55 81 57 82 54 83
REMARK H PARENT 7 12 74 45 48 56
REMARK Flexibility Score: inf
ROOT
ATOM      1  C   UNL A   1      31.358  31.447  26.370  1.00  0.00     0.274 C 
ENDROOT
BRANCH   1   2
ATOM      2  O   UNL A   1      32.568  30.700  26.122  1.00  0.00    -0.462 OA
BRANCH   2   3
ATOM      3  C   UNL A   1      32.643  29.363  25.936  1.00  0.00     0.306 C 
ATOM      4  O   UNL A   1      33.565  28.730  26.446  1.00  0.00    -0.252 OA
BRANCH   3   5
ATOM      5  C   UNL A   1      31.579  28.659  25.126  1.00  0.00     0.126 C 
BRANCH   5   6
ATOM      6  C   UNL A   1      31.507  28.952  23.616  1.00  0.00     0.011 C 
ATOM      7  C   UNL A   1      30.516  28.099  22.823  1.00  0.00     0.066 C 
ATOM      8  C   UNL A   1      32.861  28.944  22.899  1.00  0.00     0.066 C 
ATOM      9  C   UNL A   1      31.038  26.703  22.479  1.00  0.00     0.262 C 
ATOM     10  C   UNL A   1      33.371  27.548  22.540  1.00  0.00     0.262 C 
ATOM     11  N   UNL A   1      32.373  26.697  21.893  1.00  0.00    -0.332 N 
ATOM     12  H   UNL A   1      32.211  27.153  20.996  1.00  0.00     0.348 HD
BRANCH  11  13
ATOM     13  C   UNL A   1      32.893  25.341  21.602  1.00  0.00     0.311 C 
BRANCH  13  14
ATOM     14  C   UNL A   1      33.322  24.375  22.745  1.00  0.00     0.265 C 
ATOM     15  C   UNL A   1      32.526  23.074  22.795  1.00  0.00     0.281 C 
ATOM     16  O   UNL A   1      34.718  24.050  22.520  1.00  0.00    -0.477 OA
ATOM     17  O   UNL A   1      32.916  22.259  23.907  1.00  0.00    -0.486 OA
ATOM     18  C   UNL A   1      35.147  23.051  23.357  1.00  0.00     0.162 A 
ATOM     19  C   UNL A   1      34.275  22.199  24.039  1.00  0.00     0.161 A 
ATOM     20  C   UNL A   1      36.523  22.892  23.505  1.00  0.00     0.050 A 
ATOM     21  C   UNL A   1      34.770  21.228  24.907  1.00  0.00     0.050 A 
ATOM     22  C   UNL A   1      37.022  21.906  24.359  1.00  0.00     0.004 A 
ATOM     23  C   UNL A   1      36.147  21.080  25.066  1.00  0.00     0.004 A 
ENDBRANCH  13  14
ENDBRANCH  11  13
ENDBRANCH   5   6
ENDBRANCH   3   5
ENDBRANCH   2   3
ENDBRANCH   1   2
BRANCH   1  24
ATOM     24  C   UNL A   1      31.673  32.855  26.876  1.00  0.00     0.275 C 
BRANCH  24  25
ATOM     25  O   UNL A   1      33.009  32.892  27.400  1.00  0.00    -0.458 OA
BRANCH  25  26
ATOM     26  C   UNL A   1      33.277  33.928  28.240  1.00  0.00     0.338 C 
ATOM     27  O   UNL A   1      32.602  34.923  28.419  1.00  0.00    -0.246 OA
BRANCH  26  28
ATOM     28  C   UNL A   1      34.458  33.569  29.053  1.00  0.00     0.060 A 
ATOM     29  C   UNL A   1      35.688  34.163  28.741  1.00  0.00     0.016 A 
ATOM     30  C   UNL A   1      34.349  32.687  30.133  1.00  0.00     0.016 A 
ATOM     31  C   UNL A   1      36.822  33.859  29.496  1.00  0.00     0.010 A 
ATOM     32  C   UNL A   1      35.485  32.373  30.876  1.00  0.00     0.010 A 
ATOM     33  C   UNL A   1      36.729  32.936  30.544  1.00  0.00    -0.014 A 
BRANCH  33  34
ATOM     34  C   UNL A   1      37.943  32.383  31.180  1.00  0.00     0.031 A 
ATOM     35  C   UNL A   1      38.655  31.264  30.479  1.00  0.00     0.074 A 
ATOM     36  C   UNL A   1      38.351  32.800  32.390  1.00  0.00     0.049 A 
ATOM     37  N   UNL A   1      39.629  30.503  30.902  1.00  0.00    -0.248 NA
ATOM     38  C   UNL A   1      38.186  30.951  29.119  1.00  0.00     0.031 C 
ATOM     39  C   UNL A   1      37.751  33.887  33.159  1.00  0.00     0.029 A 
ATOM     40  N   UNL A   1      39.351  32.321  33.198  1.00  0.00    -0.354 N 
ATOM     41  C   UNL A   1      39.880  29.611  29.869  1.00  0.00     0.074 A 
ATOM     42  C   UNL A   1      38.946  29.912  28.807  1.00  0.00     0.031 C 
ATOM     43  C   UNL A   1      38.372  33.968  34.350  1.00  0.00     0.029 A 
ATOM     44  C   UNL A   1      39.389  32.920  34.432  1.00  0.00     0.049 A 
ATOM     45  H   UNL A   1      39.981  31.616  32.919  1.00  0.00     0.167 HD
ATOM     46  C   UNL A   1      40.805  28.626  29.811  1.00  0.00     0.037 A 
ATOM     47  C   UNL A   1      40.137  32.627  35.513  1.00  0.00     0.037 A 
ATOM     48  C   UNL A   1      41.723  28.318  30.871  1.00  0.00     0.049 A 
ATOM     49  C   UNL A   1      41.127  31.494  35.450  1.00  0.00     0.074 A 
ATOM     50  C   UNL A   1      42.718  27.358  30.902  1.00  0.00     0.029 A 
ATOM     51  N   UNL A   1      41.746  28.961  32.099  1.00  0.00    -0.354 N 
ATOM     52  N   UNL A   1      41.388  30.679  34.455  1.00  0.00    -0.248 NA
ATOM     53  C   UNL A   1      41.924  31.238  36.658  1.00  0.00     0.031 C 
ATOM     54  C   UNL A   1      43.316  27.393  32.166  1.00  0.00     0.029 A 
ATOM     55  C   UNL A   1      42.721  28.402  32.906  1.00  0.00     0.049 A 
ATOM     56  H   UNL A   1      41.156  29.706  32.359  1.00  0.00     0.167 HD
ATOM     57  C   UNL A   1      42.394  29.834  34.907  1.00  0.00     0.074 A 
ATOM     58  C   UNL A   1      42.698  30.234  36.266  1.00  0.00     0.031 C 
ATOM     59  C   UNL A   1      43.013  28.821  34.254  1.00  0.00     0.037 A 
BRANCH  46  60
ATOM     60  C   UNL A   1      40.827  27.794  28.566  1.00  0.00     0.057 A 
ATOM     61  C   UNL A   1      41.601  28.150  27.453  1.00  0.00     0.134 A 
ATOM     62  C   UNL A   1      40.044  26.637  28.470  1.00  0.00     0.134 A 
ATOM     63  F   UNL A   1      42.354  29.259  27.476  1.00  0.00    -0.206 F 
ATOM     64  C   UNL A   1      41.570  27.401  26.276  1.00  0.00     0.040 A 
ATOM     65  C   UNL A   1      40.023  25.867  27.307  1.00  0.00     0.040 A 
ATOM     66  F   UNL A   1      39.278  26.245  29.499  1.00  0.00    -0.206 F 
ATOM     67  C   UNL A   1      40.782  26.254  26.202  1.00  0.00     0.006 A 
ENDBRANCH  46  60
BRANCH  47  68
ATOM     68  C   UNL A   1      39.960  33.409  36.761  1.00  0.00     0.057 A 
ATOM     69  C   UNL A   1      39.000  33.048  37.710  1.00  0.00     0.134 A 
ATOM     70  C   UNL A   1      40.749  34.534  37.032  1.00  0.00     0.134 A 
ATOM     71  F   UNL A   1      38.199  31.995  37.494  1.00  0.00    -0.206 F 
ATOM     72  C   UNL A   1      38.824  33.781  38.886  1.00  0.00     0.040 A 
ATOM     73  C   UNL A   1      40.596  35.265  38.210  1.00  0.00     0.040 A 
ATOM     74  F   UNL A   1      41.687  34.930  36.159  1.00  0.00    -0.206 F 
ATOM     75  C   UNL A   1      39.628  34.891  39.141  1.00  0.00     0.006 A 
ENDBRANCH  47  68
BRANCH  59  76
ATOM     76  C   UNL A   1      44.105  28.092  34.979  1.00  0.00     0.057 A 
ATOM     77  C   UNL A   1      45.425  28.554  34.980  1.00  0.00     0.134 A 
ATOM     78  C   UNL A   1      43.811  26.959  35.749  1.00  0.00     0.134 A 
ATOM     79  F   UNL A   1      45.770  29.629  34.254  1.00  0.00    -0.206 F 
ATOM     80  C   UNL A   1      46.420  27.910  35.718  1.00  0.00     0.040 A 
ATOM     81  C   UNL A   1      44.794  26.319  36.506  1.00  0.00     0.040 A 
ATOM     82  F   UNL A   1      42.562  26.473  35.796  1.00  0.00    -0.206 F 
ATOM     83  C   UNL A   1      46.103  26.794  36.490  1.00  0.00     0.006 A 
ENDBRANCH  59  76
ENDBRANCH  33  34
ENDBRANCH  26  28
ENDBRANCH  25  26
ENDBRANCH  24  25
ENDBRANCH   1  24
TORSDOF 14
ENDMDL
