MODEL 1
REMARK VINA RESULT:     -11.4      0.000      0.000
REMARK SMILES CC(=O)O[C@H]1C[C@@H](C(=O)OCCOC(=O)c2ccc(-c3c4nc(c(-c5c(F)cccc5F)c5ccc([nH]5)c(-c5c(F)cccc5F)c5nc(c(-c6c(F)cccc6F)c6ccc3[nH]6)C=C5)C=C4)cc2)N(S(=O)(=O)c2ccc(F)cc2)C1
REMARK SMILES IDX 11 1 10 2 8 3 9 4 7 5 5 6 6 7 81 8 70 9 4 10 2 11 1 12 3 13
REMARK SMILES IDX 71 14 72 15 73 16 74 17 75 18 80 19 76 20 79 21 77 22 78 23
REMARK SMILES IDX 12 24 13 25 14 26 15 27 16 28 17 29 69 30 18 31 68 32 19 33
REMARK SMILES IDX 20 34 21 35 62 36 22 37 67 38 61 39 63 40 23 41 66 42 60 43
REMARK SMILES IDX 59 44 24 46 50 47 33 48 49 49 34 50 37 51 48 52 64 53 35 54
REMARK SMILES IDX 36 55 47 57 65 58 38 59 25 60 26 61 31 62 27 63 28 64 30 65
REMARK SMILES IDX 32 66 29 67 51 68 52 69 57 70 53 71 54 72 56 73 58 74 55 75
REMARK SMILES IDX 39 76 40 77 45 78 41 79 42 80 44 81 46 82 43 83
REMARK H PARENT 63 45 37 56
REMARK Flexibility Score: inf
ROOT
ATOM      1  C   UNL A   1      31.958  28.047  27.153  1.00  0.00     0.274 C 
ENDROOT
BRANCH   1   2
ATOM      2  O   UNL A   1      30.943  27.061  26.857  1.00  0.00    -0.461 OA
BRANCH   2   3
ATOM      3  C   UNL A   1      31.411  25.930  26.250  1.00  0.00     0.324 C 
ATOM      4  O   UNL A   1      32.529  25.491  26.462  1.00  0.00    -0.250 OA
BRANCH   3   5
ATOM      5  C   UNL A   1      30.363  25.275  25.366  1.00  0.00     0.187 C 
ATOM      6  C   UNL A   1      31.455  23.403  24.325  1.00  0.00     0.194 C 
ATOM      7  C   UNL A   1      30.562  23.775  25.522  1.00  0.00     0.079 C 
ATOM      8  C   UNL A   1      30.583  24.074  23.263  1.00  0.00     0.148 C 
ATOM      9  N   UNL A   1      30.278  25.429  23.871  1.00  0.00    -0.180 NA
BRANCH   6  10
ATOM     10  O   UNL A   1      32.803  24.017  24.048  1.00  0.00    -0.461 OA
BRANCH  10  11
ATOM     11  C   UNL A   1      34.025  24.502  23.856  1.00  0.00     0.302 C 
ATOM     12  C   UNL A   1      35.116  24.309  24.860  1.00  0.00     0.139 C 
ATOM     13  O   UNL A   1      34.321  24.972  22.755  1.00  0.00    -0.253 OA
ENDBRANCH  10  11
ENDBRANCH   6  10
BRANCH   9  14
ATOM     14  S   UNL A   1      31.055  26.691  23.040  1.00  0.00     0.243 S 
ATOM     15  O   UNL A   1      32.156  27.206  23.809  1.00  0.00    -0.207 OA
ATOM     16  O   UNL A   1      31.257  26.220  21.686  1.00  0.00    -0.207 OA
BRANCH  14  17
ATOM     17  C   UNL A   1      29.874  27.999  22.985  1.00  0.00     0.082 A 
ATOM     18  C   UNL A   1      30.313  29.319  22.947  1.00  0.00     0.025 A 
ATOM     19  C   UNL A   1      28.518  27.697  23.168  1.00  0.00     0.025 A 
ATOM     20  C   UNL A   1      29.370  30.341  23.028  1.00  0.00     0.040 A 
ATOM     21  C   UNL A   1      27.577  28.716  23.189  1.00  0.00     0.040 A 
ATOM     22  C   UNL A   1      28.014  30.031  23.122  1.00  0.00     0.123 A 
ATOM     23  F   UNL A   1      27.115  31.019  23.181  1.00  0.00    -0.207 F 
ENDBRANCH  14  17
ENDBRANCH   9  14
ENDBRANCH   3   5
ENDBRANCH   2   3
ENDBRANCH   1   2
BRANCH   1  24
ATOM     24  C   UNL A   1      31.815  29.385  26.407  1.00  0.00     0.275 C 
BRANCH  24  25
ATOM     25  O   UNL A   1      33.064  30.079  26.174  1.00  0.00    -0.458 OA
BRANCH  25  26
ATOM     26  C   UNL A   1      33.254  31.224  26.882  1.00  0.00     0.338 C 
ATOM     27  O   UNL A   1      32.402  32.062  27.133  1.00  0.00    -0.246 OA
BRANCH  26  28
ATOM     28  C   UNL A   1      34.556  31.203  27.602  1.00  0.00     0.060 A 
ATOM     29  C   UNL A   1      34.900  29.960  28.100  1.00  0.00     0.016 A 
ATOM     30  C   UNL A   1      35.411  32.251  27.881  1.00  0.00     0.016 A 
ATOM     31  C   UNL A   1      36.024  29.686  28.864  1.00  0.00     0.010 A 
ATOM     32  C   UNL A   1      36.627  31.977  28.573  1.00  0.00     0.010 A 
ATOM     33  C   UNL A   1      36.960  30.676  29.045  1.00  0.00    -0.014 A 
BRANCH  33  34
ATOM     34  C   UNL A   1      38.174  30.360  29.858  1.00  0.00     0.031 A 
ATOM     35  C   UNL A   1      39.166  29.453  29.227  1.00  0.00     0.074 A 
ATOM     36  C   UNL A   1      38.542  30.955  31.019  1.00  0.00     0.049 A 
ATOM     37  N   UNL A   1      40.202  28.868  29.751  1.00  0.00    -0.248 NA
ATOM     38  C   UNL A   1      38.986  29.228  27.785  1.00  0.00     0.031 C 
ATOM     39  C   UNL A   1      37.974  32.167  31.576  1.00  0.00     0.029 A 
ATOM     40  N   UNL A   1      39.485  30.618  31.966  1.00  0.00    -0.354 N 
ATOM     41  C   UNL A   1      40.799  28.197  28.704  1.00  0.00     0.074 A 
ATOM     42  C   UNL A   1      39.975  28.390  27.531  1.00  0.00     0.031 C 
ATOM     43  C   UNL A   1      38.406  32.377  32.828  1.00  0.00     0.029 A 
ATOM     44  C   UNL A   1      39.357  31.331  33.149  1.00  0.00     0.049 A 
ATOM     45  H   UNL A   1      40.181  29.939  31.818  1.00  0.00     0.167 HD
ATOM     46  C   UNL A   1      41.954  27.502  28.718  1.00  0.00     0.037 A 
ATOM     47  C   UNL A   1      39.939  31.160  34.352  1.00  0.00     0.037 A 
ATOM     48  C   UNL A   1      42.756  27.314  29.891  1.00  0.00     0.049 A 
ATOM     49  C   UNL A   1      41.039  30.144  34.437  1.00  0.00     0.074 A 
ATOM     50  C   UNL A   1      43.880  26.529  30.045  1.00  0.00     0.029 A 
ATOM     51  N   UNL A   1      42.507  27.915  31.119  1.00  0.00    -0.354 N 
ATOM     52  N   UNL A   1      41.544  29.413  33.475  1.00  0.00    -0.248 NA
ATOM     53  C   UNL A   1      41.692  29.964  35.740  1.00  0.00     0.031 C 
ATOM     54  C   UNL A   1      44.269  26.594  31.387  1.00  0.00     0.029 A 
ATOM     55  C   UNL A   1      43.434  27.481  32.051  1.00  0.00     0.049 A 
ATOM     56  H   UNL A   1      41.781  28.554  31.299  1.00  0.00     0.167 HD
ATOM     57  C   UNL A   1      42.621  28.744  34.032  1.00  0.00     0.074 A 
ATOM     58  C   UNL A   1      42.686  29.147  35.423  1.00  0.00     0.031 C 
ATOM     59  C   UNL A   1      43.489  27.895  33.432  1.00  0.00     0.037 A 
BRANCH  46  60
ATOM     60  C   UNL A   1      42.306  26.825  27.434  1.00  0.00     0.057 A 
ATOM     61  C   UNL A   1      41.977  25.485  27.184  1.00  0.00     0.134 A 
ATOM     62  C   UNL A   1      43.122  27.483  26.510  1.00  0.00     0.134 A 
ATOM     63  F   UNL A   1      41.248  24.785  28.068  1.00  0.00    -0.206 F 
ATOM     64  C   UNL A   1      42.498  24.808  26.082  1.00  0.00     0.040 A 
ATOM     65  C   UNL A   1      43.620  26.826  25.387  1.00  0.00     0.040 A 
ATOM     66  F   UNL A   1      43.491  28.757  26.712  1.00  0.00    -0.206 F 
ATOM     67  C   UNL A   1      43.321  25.480  25.180  1.00  0.00     0.006 A 
ENDBRANCH  46  60
BRANCH  47  68
ATOM     68  C   UNL A   1      39.527  31.938  35.558  1.00  0.00     0.057 A 
ATOM     69  C   UNL A   1      38.502  31.499  36.407  1.00  0.00     0.134 A 
ATOM     70  C   UNL A   1      40.071  33.203  35.826  1.00  0.00     0.134 A 
ATOM     71  F   UNL A   1      37.913  30.313  36.193  1.00  0.00    -0.206 F 
ATOM     72  C   UNL A   1      38.008  32.298  37.444  1.00  0.00     0.040 A 
ATOM     73  C   UNL A   1      39.601  34.003  36.873  1.00  0.00     0.040 A 
ATOM     74  F   UNL A   1      41.041  33.701  35.045  1.00  0.00    -0.206 F 
ATOM     75  C   UNL A   1      38.557  33.556  37.678  1.00  0.00     0.006 A 
ENDBRANCH  47  68
BRANCH  59  76
ATOM     76  C   UNL A   1      44.619  27.374  34.263  1.00  0.00     0.057 A 
ATOM     77  C   UNL A   1      44.535  26.160  34.955  1.00  0.00     0.134 A 
ATOM     78  C   UNL A   1      45.836  28.066  34.309  1.00  0.00     0.134 A 
ATOM     79  F   UNL A   1      43.392  25.457  34.962  1.00  0.00    -0.206 F 
ATOM     80  C   UNL A   1      45.619  25.659  35.675  1.00  0.00     0.040 A 
ATOM     81  C   UNL A   1      46.938  27.557  34.994  1.00  0.00     0.040 A 
ATOM     82  F   UNL A   1      45.983  29.233  33.662  1.00  0.00    -0.206 F 
ATOM     83  C   UNL A   1      46.828  26.352  35.684  1.00  0.00     0.006 A 
ENDBRANCH  59  76
ENDBRANCH  33  34
ENDBRANCH  26  28
ENDBRANCH  25  26
ENDBRANCH  24  25
ENDBRANCH   1  24
TORSDOF 15
ENDMDL
MODEL 2
REMARK VINA RESULT:     -11.4      3.707      6.800
REMARK SMILES CC(=O)O[C@H]1C[C@@H](C(=O)OCCOC(=O)c2ccc(-c3c4nc(c(-c5c(F)cccc5F)c5ccc([nH]5)c(-c5c(F)cccc5F)c5nc(c(-c6c(F)cccc6F)c6ccc3[nH]6)C=C5)C=C4)cc2)N(S(=O)(=O)c2ccc(F)cc2)C1
REMARK SMILES IDX 11 1 10 2 8 3 9 4 7 5 5 6 6 7 81 8 70 9 4 10 2 11 1 12 3 13
REMARK SMILES IDX 71 14 72 15 73 16 74 17 75 18 80 19 76 20 79 21 77 22 78 23
REMARK SMILES IDX 12 24 13 25 14 26 15 27 16 28 17 29 69 30 18 31 68 32 19 33
REMARK SMILES IDX 20 34 21 35 62 36 22 37 67 38 61 39 63 40 23 41 66 42 60 43
REMARK SMILES IDX 59 44 24 46 50 47 33 48 49 49 34 50 37 51 48 52 64 53 35 54
REMARK SMILES IDX 36 55 47 57 65 58 38 59 25 60 26 61 31 62 27 63 28 64 30 65
REMARK SMILES IDX 32 66 29 67 51 68 52 69 57 70 53 71 54 72 56 73 58 74 55 75
REMARK SMILES IDX 39 76 40 77 45 78 41 79 42 80 44 81 46 82 43 83
REMARK H PARENT 63 45 37 56
REMARK Flexibility Score: inf
ROOT
ATOM      1  C   UNL A   1      30.436  24.946  23.163  1.00  0.00     0.274 C 
ENDROOT
BRANCH   1   2
ATOM      2  O   UNL A   1      31.273  24.371  24.192  1.00  0.00    -0.461 OA
BRANCH   2   3
ATOM      3  C   UNL A   1      31.424  23.016  24.109  1.00  0.00     0.324 C 
ATOM      4  O   UNL A   1      31.626  22.446  23.049  1.00  0.00    -0.250 OA
BRANCH   3   5
ATOM      5  C   UNL A   1      31.384  22.347  25.472  1.00  0.00     0.187 C 
ATOM      6  C   UNL A   1      32.324  23.936  27.013  1.00  0.00     0.194 C 
ATOM      7  C   UNL A   1      30.979  23.432  26.458  1.00  0.00     0.079 C 
ATOM      8  C   UNL A   1      32.866  22.556  27.388  1.00  0.00     0.148 C 
ATOM      9  N   UNL A   1      32.567  21.719  26.160  1.00  0.00    -0.180 NA
BRANCH   6  10
ATOM     10  O   UNL A   1      33.442  24.483  26.163  1.00  0.00    -0.461 OA
BRANCH  10  11
ATOM     11  C   UNL A   1      34.380  25.034  25.402  1.00  0.00     0.302 C 
ATOM     12  C   UNL A   1      34.091  26.207  24.520  1.00  0.00     0.139 C 
ATOM     13  O   UNL A   1      35.555  24.690  25.548  1.00  0.00    -0.253 OA
ENDBRANCH  10  11
ENDBRANCH   6  10
BRANCH   9  14
ATOM     14  S   UNL A   1      33.981  21.286  25.323  1.00  0.00     0.243 S 
ATOM     15  O   UNL A   1      34.017  21.906  24.026  1.00  0.00    -0.207 OA
ATOM     16  O   UNL A   1      35.074  21.462  26.257  1.00  0.00    -0.207 OA
BRANCH  14  17
ATOM     17  C   UNL A   1      33.816  19.559  25.009  1.00  0.00     0.082 A 
ATOM     18  C   UNL A   1      34.934  18.818  24.639  1.00  0.00     0.025 A 
ATOM     19  C   UNL A   1      32.533  18.999  24.953  1.00  0.00     0.025 A 
ATOM     20  C   UNL A   1      34.765  17.484  24.276  1.00  0.00     0.040 A 
ATOM     21  C   UNL A   1      32.375  17.655  24.648  1.00  0.00     0.040 A 
ATOM     22  C   UNL A   1      33.495  16.910  24.308  1.00  0.00     0.123 A 
ATOM     23  F   UNL A   1      33.345  15.625  23.974  1.00  0.00    -0.207 F 
ENDBRANCH  14  17
ENDBRANCH   9  14
ENDBRANCH   3   5
ENDBRANCH   2   3
ENDBRANCH   1   2
BRANCH   1  24
ATOM     24  C   UNL A   1      29.334  25.896  23.663  1.00  0.00     0.275 C 
BRANCH  24  25
ATOM     25  O   UNL A   1      29.772  26.854  24.655  1.00  0.00    -0.458 OA
BRANCH  25  26
ATOM     26  C   UNL A   1      30.532  27.885  24.197  1.00  0.00     0.338 C 
ATOM     27  O   UNL A   1      30.353  28.501  23.158  1.00  0.00    -0.246 OA
BRANCH  26  28
ATOM     28  C   UNL A   1      31.436  28.401  25.259  1.00  0.00     0.060 A 
ATOM     29  C   UNL A   1      32.240  29.449  24.850  1.00  0.00     0.016 A 
ATOM     30  C   UNL A   1      31.612  27.940  26.550  1.00  0.00     0.016 A 
ATOM     31  C   UNL A   1      33.213  30.062  25.624  1.00  0.00     0.010 A 
ATOM     32  C   UNL A   1      32.531  28.622  27.400  1.00  0.00     0.010 A 
ATOM     33  C   UNL A   1      33.321  29.717  26.950  1.00  0.00    -0.014 A 
BRANCH  33  34
ATOM     34  C   UNL A   1      34.365  30.398  27.775  1.00  0.00     0.031 A 
ATOM     35  C   UNL A   1      35.687  29.725  27.843  1.00  0.00     0.074 A 
ATOM     36  C   UNL A   1      34.283  31.641  28.309  1.00  0.00     0.049 A 
ATOM     37  N   UNL A   1      36.705  29.979  28.611  1.00  0.00    -0.248 NA
ATOM     38  C   UNL A   1      35.901  28.655  26.857  1.00  0.00     0.031 C 
ATOM     39  C   UNL A   1      33.286  32.644  27.991  1.00  0.00     0.029 A 
ATOM     40  N   UNL A   1      35.050  32.288  29.253  1.00  0.00    -0.354 N 
ATOM     41  C   UNL A   1      37.683  29.093  28.208  1.00  0.00     0.074 A 
ATOM     42  C   UNL A   1      37.117  28.253  27.176  1.00  0.00     0.031 C 
ATOM     43  C   UNL A   1      33.355  33.684  28.835  1.00  0.00     0.029 A 
ATOM     44  C   UNL A   1      34.468  33.451  29.733  1.00  0.00     0.049 A 
ATOM     45  H   UNL A   1      35.926  31.958  29.557  1.00  0.00     0.167 HD
ATOM     46  C   UNL A   1      38.956  29.011  28.646  1.00  0.00     0.037 A 
ATOM     47  C   UNL A   1      34.795  34.240  30.776  1.00  0.00     0.037 A 
ATOM     48  C   UNL A   1      39.499  29.847  29.676  1.00  0.00     0.049 A 
ATOM     49  C   UNL A   1      36.092  33.945  31.471  1.00  0.00     0.074 A 
ATOM     50  C   UNL A   1      40.737  29.770  30.279  1.00  0.00     0.029 A 
ATOM     51  N   UNL A   1      38.826  30.913  30.261  1.00  0.00    -0.354 N 
ATOM     52  N   UNL A   1      36.983  33.032  31.172  1.00  0.00    -0.248 NA
ATOM     53  C   UNL A   1      36.465  34.810  32.597  1.00  0.00     0.031 C 
ATOM     54  C   UNL A   1      40.786  30.741  31.285  1.00  0.00     0.029 A 
ATOM     55  C   UNL A   1      39.609  31.474  31.254  1.00  0.00     0.049 A 
ATOM     56  H   UNL A   1      37.926  31.222  30.007  1.00  0.00     0.167 HD
ATOM     57  C   UNL A   1      38.055  33.258  32.018  1.00  0.00     0.074 A 
ATOM     58  C   UNL A   1      37.695  34.387  32.854  1.00  0.00     0.031 C 
ATOM     59  C   UNL A   1      39.239  32.602  32.074  1.00  0.00     0.037 A 
BRANCH  46  60
ATOM     60  C   UNL A   1      39.759  27.894  28.064  1.00  0.00     0.057 A 
ATOM     61  C   UNL A   1      40.464  28.033  26.860  1.00  0.00     0.134 A 
ATOM     62  C   UNL A   1      39.686  26.622  28.639  1.00  0.00     0.134 A 
ATOM     63  F   UNL A   1      40.514  29.217  26.231  1.00  0.00    -0.206 F 
ATOM     64  C   UNL A   1      41.025  26.927  26.222  1.00  0.00     0.040 A 
ATOM     65  C   UNL A   1      40.273  25.517  28.026  1.00  0.00     0.040 A 
ATOM     66  F   UNL A   1      39.001  26.425  29.775  1.00  0.00    -0.206 F 
ATOM     67  C   UNL A   1      40.930  25.666  26.806  1.00  0.00     0.006 A 
ENDBRANCH  46  60
BRANCH  47  68
ATOM     68  C   UNL A   1      33.924  35.362  31.236  1.00  0.00     0.057 A 
ATOM     69  C   UNL A   1      33.783  36.541  30.492  1.00  0.00     0.134 A 
ATOM     70  C   UNL A   1      33.303  35.329  32.493  1.00  0.00     0.134 A 
ATOM     71  F   UNL A   1      34.376  36.657  29.295  1.00  0.00    -0.206 F 
ATOM     72  C   UNL A   1      33.097  37.653  30.993  1.00  0.00     0.040 A 
ATOM     73  C   UNL A   1      32.595  36.426  32.996  1.00  0.00     0.040 A 
ATOM     74  F   UNL A   1      33.411  34.244  33.273  1.00  0.00    -0.206 F 
ATOM     75  C   UNL A   1      32.502  37.598  32.250  1.00  0.00     0.006 A 
ENDBRANCH  47  68
BRANCH  59  76
ATOM     76  C   UNL A   1      40.259  33.114  33.043  1.00  0.00     0.057 A 
ATOM     77  C   UNL A   1      41.156  34.135  32.707  1.00  0.00     0.134 A 
ATOM     78  C   UNL A   1      40.290  32.624  34.355  1.00  0.00     0.134 A 
ATOM     79  F   UNL A   1      41.185  34.636  31.463  1.00  0.00    -0.206 F 
ATOM     80  C   UNL A   1      42.058  34.642  33.641  1.00  0.00     0.040 A 
ATOM     81  C   UNL A   1      41.163  33.149  35.307  1.00  0.00     0.040 A 
ATOM     82  F   UNL A   1      39.452  31.649  34.740  1.00  0.00    -0.206 F 
ATOM     83  C   UNL A   1      42.054  34.157  34.948  1.00  0.00     0.006 A 
ENDBRANCH  59  76
ENDBRANCH  33  34
ENDBRANCH  26  28
ENDBRANCH  25  26
ENDBRANCH  24  25
ENDBRANCH   1  24
TORSDOF 15
ENDMDL
MODEL 3
REMARK VINA RESULT:     -11.2      3.171      6.719
REMARK SMILES CC(=O)O[C@H]1C[C@@H](C(=O)OCCOC(=O)c2ccc(-c3c4nc(c(-c5c(F)cccc5F)c5ccc([nH]5)c(-c5c(F)cccc5F)c5nc(c(-c6c(F)cccc6F)c6ccc3[nH]6)C=C5)C=C4)cc2)N(S(=O)(=O)c2ccc(F)cc2)C1
REMARK SMILES IDX 11 1 10 2 8 3 9 4 7 5 5 6 6 7 81 8 70 9 4 10 2 11 1 12 3 13
REMARK SMILES IDX 71 14 72 15 73 16 74 17 75 18 80 19 76 20 79 21 77 22 78 23
REMARK SMILES IDX 12 24 13 25 14 26 15 27 16 28 17 29 69 30 18 31 68 32 19 33
REMARK SMILES IDX 20 34 21 35 62 36 22 37 67 38 61 39 63 40 23 41 66 42 60 43
REMARK SMILES IDX 59 44 24 46 50 47 33 48 49 49 34 50 37 51 48 52 64 53 35 54
REMARK SMILES IDX 36 55 47 57 65 58 38 59 25 60 26 61 31 62 27 63 28 64 30 65
REMARK SMILES IDX 32 66 29 67 51 68 52 69 57 70 53 71 54 72 56 73 58 74 55 75
REMARK SMILES IDX 39 76 40 77 45 78 41 79 42 80 44 81 46 82 43 83
REMARK H PARENT 63 45 37 56
REMARK Flexibility Score: inf
ROOT
ATOM      1  C   UNL A   1      31.943  28.204  27.507  1.00  0.00     0.274 C 
ENDROOT
BRANCH   1   2
ATOM      2  O   UNL A   1      31.111  27.589  26.498  1.00  0.00    -0.461 OA
BRANCH   2   3
ATOM      3  C   UNL A   1      31.451  26.302  26.189  1.00  0.00     0.324 C 
ATOM      4  O   UNL A   1      32.478  25.784  26.594  1.00  0.00    -0.250 OA
BRANCH   3   5
ATOM      5  C   UNL A   1      30.380  25.605  25.368  1.00  0.00     0.187 C 
ATOM      6  C   UNL A   1      31.413  23.618  24.490  1.00  0.00     0.194 C 
ATOM      7  C   UNL A   1      30.536  24.119  25.652  1.00  0.00     0.079 C 
ATOM      8  C   UNL A   1      30.556  24.221  23.376  1.00  0.00     0.148 C 
ATOM      9  N   UNL A   1      30.292  25.632  23.865  1.00  0.00    -0.180 NA
BRANCH   6  10
ATOM     10  O   UNL A   1      32.777  24.167  24.157  1.00  0.00    -0.461 OA
BRANCH  10  11
ATOM     11  C   UNL A   1      34.012  24.581  23.900  1.00  0.00     0.302 C 
ATOM     12  C   UNL A   1      35.113  24.449  24.904  1.00  0.00     0.139 C 
ATOM     13  O   UNL A   1      34.306  24.924  22.752  1.00  0.00    -0.253 OA
ENDBRANCH  10  11
ENDBRANCH   6  10
BRANCH   9  14
ATOM     14  S   UNL A   1      31.103  26.794  22.927  1.00  0.00     0.243 S 
ATOM     15  O   UNL A   1      32.173  27.397  23.674  1.00  0.00    -0.207 OA
ATOM     16  O   UNL A   1      31.356  26.173  21.643  1.00  0.00    -0.207 OA
BRANCH  14  17
ATOM     17  C   UNL A   1      29.926  28.083  22.678  1.00  0.00     0.082 A 
ATOM     18  C   UNL A   1      30.344  29.304  22.158  1.00  0.00     0.025 A 
ATOM     19  C   UNL A   1      28.627  27.923  23.179  1.00  0.00     0.025 A 
ATOM     20  C   UNL A   1      29.427  30.350  22.083  1.00  0.00     0.040 A 
ATOM     21  C   UNL A   1      27.701  28.947  23.049  1.00  0.00     0.040 A 
ATOM     22  C   UNL A   1      28.113  30.154  22.503  1.00  0.00     0.123 A 
ATOM     23  F   UNL A   1      27.236  31.159  22.411  1.00  0.00    -0.207 F 
ENDBRANCH  14  17
ENDBRANCH   9  14
ENDBRANCH   3   5
ENDBRANCH   2   3
ENDBRANCH   1   2
BRANCH   1  24
ATOM     24  C   UNL A   1      32.488  29.599  27.155  1.00  0.00     0.275 C 
BRANCH  24  25
ATOM     25  O   UNL A   1      33.930  29.675  27.060  1.00  0.00    -0.458 OA
BRANCH  25  26
ATOM     26  C   UNL A   1      34.531  30.624  27.827  1.00  0.00     0.338 C 
ATOM     27  O   UNL A   1      33.994  31.618  28.289  1.00  0.00    -0.246 OA
BRANCH  26  28
ATOM     28  C   UNL A   1      35.857  30.160  28.315  1.00  0.00     0.060 A 
ATOM     29  C   UNL A   1      36.846  30.172  27.349  1.00  0.00     0.016 A 
ATOM     30  C   UNL A   1      36.203  29.677  29.563  1.00  0.00     0.016 A 
ATOM     31  C   UNL A   1      38.147  29.726  27.527  1.00  0.00     0.010 A 
ATOM     32  C   UNL A   1      37.559  29.312  29.804  1.00  0.00     0.010 A 
ATOM     33  C   UNL A   1      38.557  29.364  28.789  1.00  0.00    -0.014 A 
BRANCH  33  34
ATOM     34  C   UNL A   1      39.966  28.902  28.968  1.00  0.00     0.031 A 
ATOM     35  C   UNL A   1      40.914  29.895  29.534  1.00  0.00     0.074 A 
ATOM     36  C   UNL A   1      40.418  27.630  28.839  1.00  0.00     0.049 A 
ATOM     37  N   UNL A   1      42.210  29.840  29.630  1.00  0.00    -0.248 NA
ATOM     38  C   UNL A   1      40.295  31.089  30.130  1.00  0.00     0.031 C 
ATOM     39  C   UNL A   1      39.599  26.437  28.742  1.00  0.00     0.029 A 
ATOM     40  N   UNL A   1      41.692  27.111  28.753  1.00  0.00    -0.354 N 
ATOM     41  C   UNL A   1      42.566  30.998  30.290  1.00  0.00     0.074 A 
ATOM     42  C   UNL A   1      41.361  31.766  30.513  1.00  0.00     0.031 C 
ATOM     43  C   UNL A   1      40.336  25.366  28.415  1.00  0.00     0.029 A 
ATOM     44  C   UNL A   1      41.721  25.787  28.343  1.00  0.00     0.049 A 
ATOM     45  H   UNL A   1      42.502  27.629  28.962  1.00  0.00     0.167 HD
ATOM     46  C   UNL A   1      43.796  31.370  30.700  1.00  0.00     0.037 A 
ATOM     47  C   UNL A   1      42.746  25.003  27.955  1.00  0.00     0.037 A 
ATOM     48  C   UNL A   1      44.981  30.600  30.465  1.00  0.00     0.049 A 
ATOM     49  C   UNL A   1      44.129  25.556  28.130  1.00  0.00     0.074 A 
ATOM     50  C   UNL A   1      46.292  30.940  30.731  1.00  0.00     0.029 A 
ATOM     51  N   UNL A   1      44.996  29.333  29.896  1.00  0.00    -0.354 N 
ATOM     52  N   UNL A   1      44.484  26.704  28.653  1.00  0.00    -0.248 NA
ATOM     53  C   UNL A   1      45.253  24.701  27.727  1.00  0.00     0.031 C 
ATOM     54  C   UNL A   1      47.108  29.911  30.252  1.00  0.00     0.029 A 
ATOM     55  C   UNL A   1      46.302  28.895  29.760  1.00  0.00     0.049 A 
ATOM     56  H   UNL A   1      44.198  28.823  29.629  1.00  0.00     0.167 HD
ATOM     57  C   UNL A   1      45.866  26.681  28.714  1.00  0.00     0.074 A 
ATOM     58  C   UNL A   1      46.287  25.409  28.160  1.00  0.00     0.031 C 
ATOM     59  C   UNL A   1      46.704  27.622  29.211  1.00  0.00     0.037 A 
BRANCH  46  60
ATOM     60  C   UNL A   1      43.873  32.722  31.332  1.00  0.00     0.057 A 
ATOM     61  C   UNL A   1      43.708  32.910  32.712  1.00  0.00     0.134 A 
ATOM     62  C   UNL A   1      43.953  33.857  30.520  1.00  0.00     0.134 A 
ATOM     63  F   UNL A   1      43.562  31.857  33.531  1.00  0.00    -0.206 F 
ATOM     64  C   UNL A   1      43.566  34.187  33.253  1.00  0.00     0.040 A 
ATOM     65  C   UNL A   1      43.847  35.138  31.056  1.00  0.00     0.040 A 
ATOM     66  F   UNL A   1      44.083  33.737  29.191  1.00  0.00    -0.206 F 
ATOM     67  C   UNL A   1      43.636  35.304  32.423  1.00  0.00     0.006 A 
ENDBRANCH  46  60
BRANCH  47  68
ATOM     68  C   UNL A   1      42.539  23.642  27.377  1.00  0.00     0.057 A 
ATOM     69  C   UNL A   1      42.407  22.506  28.187  1.00  0.00     0.134 A 
ATOM     70  C   UNL A   1      42.587  23.428  25.992  1.00  0.00     0.134 A 
ATOM     71  F   UNL A   1      42.385  22.631  29.522  1.00  0.00    -0.206 F 
ATOM     72  C   UNL A   1      42.371  21.215  27.650  1.00  0.00     0.040 A 
ATOM     73  C   UNL A   1      42.530  22.143  25.440  1.00  0.00     0.040 A 
ATOM     74  F   UNL A   1      42.734  24.462  25.152  1.00  0.00    -0.206 F 
ATOM     75  C   UNL A   1      42.435  21.030  26.271  1.00  0.00     0.006 A 
ENDBRANCH  47  68
BRANCH  59  76
ATOM     76  C   UNL A   1      48.166  27.298  29.223  1.00  0.00     0.057 A 
ATOM     77  C   UNL A   1      49.028  27.715  28.202  1.00  0.00     0.134 A 
ATOM     78  C   UNL A   1      48.726  26.620  30.314  1.00  0.00     0.134 A 
ATOM     79  F   UNL A   1      48.550  28.355  27.125  1.00  0.00    -0.206 F 
ATOM     80  C   UNL A   1      50.397  27.457  28.261  1.00  0.00     0.040 A 
ATOM     81  C   UNL A   1      50.098  26.390  30.400  1.00  0.00     0.040 A 
ATOM     82  F   UNL A   1      47.953  26.200  31.327  1.00  0.00    -0.206 F 
ATOM     83  C   UNL A   1      50.936  26.804  29.368  1.00  0.00     0.006 A 
ENDBRANCH  59  76
ENDBRANCH  33  34
ENDBRANCH  26  28
ENDBRANCH  25  26
ENDBRANCH  24  25
ENDBRANCH   1  24
TORSDOF 15
ENDMDL
