MODEL 1
REMARK VINA RESULT:     -11.7      0.000      0.000
REMARK SMILES CC(C)[C@H]1CC[C@@H](C)C/C1=C(\F)C(=O)OCCOC(=O)c1ccc(-c2c3nc(c(-c4c(F)cccc4F)c4ccc([nH]4)c(-c4c(F)cccc4F)c4nc(c(-c5c(F)cccc5F)c5ccc2[nH]5)C=C4)C=C3)cc1
REMARK SMILES IDX 17 1 16 2 15 3 13 4 14 5 11 6 4 7 5 8 10 9 6 10 9 11 7 12
REMARK SMILES IDX 12 13 8 14 2 15 1 16 3 17 18 18 19 19 20 20 21 21 22 22
REMARK SMILES IDX 74 23 23 24 73 25 24 26 25 27 26 28 67 29 27 30 72 31 66 32
REMARK SMILES IDX 68 33 28 34 71 35 65 36 64 37 29 39 55 40 38 41 54 42 39 43
REMARK SMILES IDX 42 44 53 45 69 46 40 47 41 48 52 50 70 51 43 52 30 53 31 54
REMARK SMILES IDX 36 55 32 56 33 57 35 58 37 59 34 60 56 61 57 62 62 63 58 64
REMARK SMILES IDX 59 65 61 66 63 67 60 68 44 69 45 70 50 71 46 72 47 73 49 74
REMARK SMILES IDX 51 75 48 76
REMARK H PARENT 68 38 42 49
REMARK Flexibility Score: inf
ROOT
ATOM      1  C   UNL A   1      32.071  29.206  24.548  1.00  0.00     0.275 C 
ENDROOT
BRANCH   1   2
ATOM      2  C   UNL A   1      33.238  28.837  23.594  1.00  0.00     0.275 C 
BRANCH   2   3
ATOM      3  O   UNL A   1      33.745  27.489  23.783  1.00  0.00    -0.457 OA
BRANCH   3   4
ATOM      4  C   UNL A   1      33.389  26.687  22.754  1.00  0.00     0.367 C 
ATOM      5  O   UNL A   1      33.994  26.679  21.714  1.00  0.00    -0.243 OA
BRANCH   4   6
ATOM      6  C   UNL A   1      32.260  25.784  22.986  1.00  0.00     0.207 C 
ATOM      7  C   UNL A   1      33.450  24.238  24.759  1.00  0.00     0.021 C 
ATOM      8  C   UNL A   1      33.139  24.681  26.209  1.00  0.00     0.009 C 
ATOM      9  C   UNL A   1      32.286  24.786  23.895  1.00  0.00    -0.023 C 
ATOM     10  C   UNL A   1      31.755  24.237  26.720  1.00  0.00     0.004 C 
ATOM     11  C   UNL A   1      30.969  24.138  24.310  1.00  0.00     0.038 C 
ATOM     12  C   UNL A   1      30.598  24.540  25.752  1.00  0.00    -0.010 C 
ATOM     13  F   UNL A   1      31.117  26.101  22.340  1.00  0.00    -0.199 F 
ATOM     14  C   UNL A   1      30.149  26.006  25.839  1.00  0.00     0.008 C 
BRANCH   7  15
ATOM     15  C   UNL A   1      34.977  24.043  24.258  1.00  0.00    -0.010 C 
ATOM     16  C   UNL A   1      35.950  24.053  25.449  1.00  0.00     0.008 C 
ATOM     17  C   UNL A   1      35.571  23.050  23.228  1.00  0.00     0.008 C 
ENDBRANCH   7  15
ENDBRANCH   4   6
ENDBRANCH   3   4
ENDBRANCH   2   3
ENDBRANCH   1   2
BRANCH   1  18
ATOM     18  O   UNL A   1      32.445  29.237  25.957  1.00  0.00    -0.458 OA
BRANCH  18  19
ATOM     19  C   UNL A   1      32.640  30.454  26.545  1.00  0.00     0.338 C 
ATOM     20  O   UNL A   1      31.815  31.347  26.650  1.00  0.00    -0.246 OA
BRANCH  19  21
ATOM     21  C   UNL A   1      33.993  30.539  27.179  1.00  0.00     0.060 A 
ATOM     22  C   UNL A   1      34.593  29.341  27.496  1.00  0.00     0.016 A 
ATOM     23  C   UNL A   1      34.628  31.694  27.631  1.00  0.00     0.016 A 
ATOM     24  C   UNL A   1      35.803  29.258  28.191  1.00  0.00     0.010 A 
ATOM     25  C   UNL A   1      35.879  31.615  28.325  1.00  0.00     0.010 A 
ATOM     26  C   UNL A   1      36.494  30.378  28.608  1.00  0.00    -0.014 A 
BRANCH  26  27
ATOM     27  C   UNL A   1      37.685  30.145  29.503  1.00  0.00     0.031 A 
ATOM     28  C   UNL A   1      38.889  29.462  28.915  1.00  0.00     0.074 A 
ATOM     29  C   UNL A   1      37.859  30.734  30.713  1.00  0.00     0.049 A 
ATOM     30  N   UNL A   1      39.935  28.950  29.510  1.00  0.00    -0.248 NA
ATOM     31  C   UNL A   1      38.925  29.372  27.448  1.00  0.00     0.031 C 
ATOM     32  C   UNL A   1      36.939  31.680  31.346  1.00  0.00     0.029 A 
ATOM     33  N   UNL A   1      38.906  30.669  31.615  1.00  0.00    -0.354 N 
ATOM     34  C   UNL A   1      40.697  28.381  28.499  1.00  0.00     0.074 A 
ATOM     35  C   UNL A   1      40.027  28.666  27.249  1.00  0.00     0.031 C 
ATOM     36  C   UNL A   1      37.480  32.144  32.485  1.00  0.00     0.029 A 
ATOM     37  C   UNL A   1      38.714  31.418  32.758  1.00  0.00     0.049 A 
ATOM     38  H   UNL A   1      39.717  30.133  31.455  1.00  0.00     0.167 HD
ATOM     39  C   UNL A   1      41.833  27.654  28.617  1.00  0.00     0.037 A 
ATOM     40  C   UNL A   1      39.398  31.457  33.924  1.00  0.00     0.037 A 
ATOM     41  C   UNL A   1      42.533  27.454  29.859  1.00  0.00     0.049 A 
ATOM     42  C   UNL A   1      40.577  30.528  34.097  1.00  0.00     0.074 A 
ATOM     43  C   UNL A   1      43.632  26.655  30.117  1.00  0.00     0.029 A 
ATOM     44  N   UNL A   1      42.216  28.094  31.047  1.00  0.00    -0.354 N 
ATOM     45  N   UNL A   1      41.170  29.774  33.202  1.00  0.00    -0.248 NA
ATOM     46  C   UNL A   1      41.145  30.407  35.449  1.00  0.00     0.031 C 
ATOM     47  C   UNL A   1      43.948  26.774  31.475  1.00  0.00     0.029 A 
ATOM     48  C   UNL A   1      43.081  27.691  32.048  1.00  0.00     0.049 A 
ATOM     49  H   UNL A   1      41.482  28.742  31.161  1.00  0.00     0.167 HD
ATOM     50  C   UNL A   1      42.175  29.093  33.881  1.00  0.00     0.074 A 
ATOM     51  C   UNL A   1      42.136  29.547  35.255  1.00  0.00     0.031 C 
ATOM     52  C   UNL A   1      43.038  28.160  33.410  1.00  0.00     0.037 A 
BRANCH  39  53
ATOM     53  C   UNL A   1      42.291  26.911  27.397  1.00  0.00     0.057 A 
ATOM     54  C   UNL A   1      43.223  27.422  26.488  1.00  0.00     0.134 A 
ATOM     55  C   UNL A   1      41.741  25.650  27.117  1.00  0.00     0.134 A 
ATOM     56  F   UNL A   1      43.767  28.632  26.680  1.00  0.00    -0.206 F 
ATOM     57  C   UNL A   1      43.564  26.723  25.327  1.00  0.00     0.040 A 
ATOM     58  C   UNL A   1      42.096  24.930  25.979  1.00  0.00     0.040 A 
ATOM     59  F   UNL A   1      40.840  25.102  27.948  1.00  0.00    -0.206 F 
ATOM     60  C   UNL A   1      43.003  25.472  25.072  1.00  0.00     0.006 A 
ENDBRANCH  39  53
BRANCH  40  61
ATOM     61  C   UNL A   1      38.921  32.276  35.083  1.00  0.00     0.057 A 
ATOM     62  C   UNL A   1      39.268  33.627  35.233  1.00  0.00     0.134 A 
ATOM     63  C   UNL A   1      38.166  31.705  36.119  1.00  0.00     0.134 A 
ATOM     64  F   UNL A   1      40.031  34.235  34.312  1.00  0.00    -0.206 F 
ATOM     65  C   UNL A   1      38.891  34.368  36.360  1.00  0.00     0.040 A 
ATOM     66  C   UNL A   1      37.749  32.443  37.230  1.00  0.00     0.040 A 
ATOM     67  F   UNL A   1      37.821  30.410  36.072  1.00  0.00    -0.206 F 
ATOM     68  C   UNL A   1      38.119  33.777  37.358  1.00  0.00     0.006 A 
ENDBRANCH  40  61
BRANCH  52  69
ATOM     69  C   UNL A   1      44.029  27.582  34.376  1.00  0.00     0.057 A 
ATOM     70  C   UNL A   1      45.255  28.206  34.639  1.00  0.00     0.134 A 
ATOM     71  C   UNL A   1      43.723  26.425  35.104  1.00  0.00     0.134 A 
ATOM     72  F   UNL A   1      45.614  29.310  33.966  1.00  0.00    -0.206 F 
ATOM     73  C   UNL A   1      46.147  27.693  35.582  1.00  0.00     0.040 A 
ATOM     74  C   UNL A   1      44.594  25.918  36.068  1.00  0.00     0.040 A 
ATOM     75  F   UNL A   1      42.560  25.783  34.907  1.00  0.00    -0.206 F 
ATOM     76  C   UNL A   1      45.812  26.551  36.308  1.00  0.00     0.006 A 
ENDBRANCH  52  69
ENDBRANCH  26  27
ENDBRANCH  19  21
ENDBRANCH  18  19
ENDBRANCH   1  18
TORSDOF 12
ENDMDL
MODEL 2
REMARK VINA RESULT:     -11.5      3.900      8.678
REMARK SMILES CC(C)[C@H]1CC[C@@H](C)C/C1=C(\F)C(=O)OCCOC(=O)c1ccc(-c2c3nc(c(-c4c(F)cccc4F)c4ccc([nH]4)c(-c4c(F)cccc4F)c4nc(c(-c5c(F)cccc5F)c5ccc2[nH]5)C=C4)C=C3)cc1
REMARK SMILES IDX 17 1 16 2 15 3 13 4 14 5 11 6 4 7 5 8 10 9 6 10 9 11 7 12
REMARK SMILES IDX 12 13 8 14 2 15 1 16 3 17 18 18 19 19 20 20 21 21 22 22
REMARK SMILES IDX 74 23 23 24 73 25 24 26 25 27 26 28 67 29 27 30 72 31 66 32
REMARK SMILES IDX 68 33 28 34 71 35 65 36 64 37 29 39 55 40 38 41 54 42 39 43
REMARK SMILES IDX 42 44 53 45 69 46 40 47 41 48 52 50 70 51 43 52 30 53 31 54
REMARK SMILES IDX 36 55 32 56 33 57 35 58 37 59 34 60 56 61 57 62 62 63 58 64
REMARK SMILES IDX 59 65 61 66 63 67 60 68 44 69 45 70 50 71 46 72 47 73 49 74
REMARK SMILES IDX 51 75 48 76
REMARK H PARENT 68 38 42 49
REMARK Flexibility Score: inf
ROOT
ATOM      1  C   UNL A   1      35.140  21.464  26.115  1.00  0.00     0.275 C 
ENDROOT
BRANCH   1   2
ATOM      2  C   UNL A   1      33.745  22.086  25.843  1.00  0.00     0.275 C 
BRANCH   2   3
ATOM      3  O   UNL A   1      33.512  23.332  26.552  1.00  0.00    -0.457 OA
BRANCH   3   4
ATOM      4  C   UNL A   1      32.194  23.632  26.587  1.00  0.00     0.367 C 
ATOM      5  O   UNL A   1      31.583  23.703  27.621  1.00  0.00    -0.243 OA
BRANCH   4   6
ATOM      6  C   UNL A   1      31.552  23.921  25.302  1.00  0.00     0.207 C 
ATOM      7  C   UNL A   1      32.673  26.275  24.911  1.00  0.00     0.021 C 
ATOM      8  C   UNL A   1      33.941  26.168  24.030  1.00  0.00     0.009 C 
ATOM      9  C   UNL A   1      31.823  25.024  24.573  1.00  0.00    -0.023 C 
ATOM     10  C   UNL A   1      33.652  26.033  22.523  1.00  0.00     0.004 C 
ATOM     11  C   UNL A   1      31.383  25.063  23.113  1.00  0.00     0.038 C 
ATOM     12  C   UNL A   1      32.604  24.960  22.176  1.00  0.00    -0.010 C 
ATOM     13  F   UNL A   1      30.776  22.934  24.802  1.00  0.00    -0.199 F 
ATOM     14  C   UNL A   1      33.209  23.549  22.177  1.00  0.00     0.008 C 
BRANCH   7  15
ATOM     15  C   UNL A   1      32.719  27.014  26.350  1.00  0.00    -0.010 C 
ATOM     16  C   UNL A   1      33.904  27.991  26.428  1.00  0.00     0.008 C 
ATOM     17  C   UNL A   1      31.578  27.659  27.178  1.00  0.00     0.008 C 
ENDBRANCH   7  15
ENDBRANCH   4   6
ENDBRANCH   3   4
ENDBRANCH   2   3
ENDBRANCH   1   2
BRANCH   1  18
ATOM     18  O   UNL A   1      36.215  22.044  25.317  1.00  0.00    -0.458 OA
BRANCH  18  19
ATOM     19  C   UNL A   1      37.467  21.515  25.441  1.00  0.00     0.338 C 
ATOM     20  O   UNL A   1      37.848  20.447  24.992  1.00  0.00    -0.246 OA
BRANCH  19  21
ATOM     21  C   UNL A   1      38.398  22.476  26.111  1.00  0.00     0.060 A 
ATOM     22  C   UNL A   1      38.046  23.806  26.053  1.00  0.00     0.016 A 
ATOM     23  C   UNL A   1      39.656  22.185  26.637  1.00  0.00     0.016 A 
ATOM     24  C   UNL A   1      38.867  24.831  26.534  1.00  0.00     0.010 A 
ATOM     25  C   UNL A   1      40.491  23.230  27.149  1.00  0.00     0.010 A 
ATOM     26  C   UNL A   1      40.096  24.583  27.113  1.00  0.00    -0.014 A 
BRANCH  26  27
ATOM     27  C   UNL A   1      40.954  25.784  27.419  1.00  0.00     0.031 A 
ATOM     28  C   UNL A   1      40.432  26.794  28.403  1.00  0.00     0.074 A 
ATOM     29  C   UNL A   1      42.264  25.894  27.084  1.00  0.00     0.049 A 
ATOM     30  N   UNL A   1      40.857  28.001  28.669  1.00  0.00    -0.248 NA
ATOM     31  C   UNL A   1      39.286  26.365  29.218  1.00  0.00     0.031 C 
ATOM     32  C   UNL A   1      43.056  24.884  26.380  1.00  0.00     0.029 A 
ATOM     33  N   UNL A   1      43.189  26.890  27.338  1.00  0.00    -0.354 N 
ATOM     34  C   UNL A   1      39.965  28.515  29.601  1.00  0.00     0.074 A 
ATOM     35  C   UNL A   1      39.014  27.467  29.900  1.00  0.00     0.031 C 
ATOM     36  C   UNL A   1      44.338  25.278  26.313  1.00  0.00     0.029 A 
ATOM     37  C   UNL A   1      44.445  26.640  26.824  1.00  0.00     0.049 A 
ATOM     38  H   UNL A   1      42.970  27.707  27.842  1.00  0.00     0.167 HD
ATOM     39  C   UNL A   1      39.928  29.763  30.124  1.00  0.00     0.037 A 
ATOM     40  C   UNL A   1      45.532  27.436  26.697  1.00  0.00     0.037 A 
ATOM     41  C   UNL A   1      40.932  30.765  29.882  1.00  0.00     0.049 A 
ATOM     42  C   UNL A   1      45.426  28.873  27.149  1.00  0.00     0.074 A 
ATOM     43  C   UNL A   1      40.947  32.091  30.273  1.00  0.00     0.029 A 
ATOM     44  N   UNL A   1      42.123  30.533  29.209  1.00  0.00    -0.354 N 
ATOM     45  N   UNL A   1      44.464  29.457  27.823  1.00  0.00    -0.248 NA
ATOM     46  C   UNL A   1      46.525  29.778  26.775  1.00  0.00     0.031 C 
ATOM     47  C   UNL A   1      42.125  32.674  29.792  1.00  0.00     0.029 A 
ATOM     48  C   UNL A   1      42.869  31.696  29.152  1.00  0.00     0.049 A 
ATOM     49  H   UNL A   1      42.396  29.666  28.828  1.00  0.00     0.167 HD
ATOM     50  C   UNL A   1      44.839  30.789  27.951  1.00  0.00     0.074 A 
ATOM     51  C   UNL A   1      46.134  30.924  27.317  1.00  0.00     0.031 C 
ATOM     52  C   UNL A   1      44.162  31.813  28.526  1.00  0.00     0.037 A 
BRANCH  39  53
ATOM     53  C   UNL A   1      38.691  30.143  30.883  1.00  0.00     0.057 A 
ATOM     54  C   UNL A   1      38.560  29.992  32.267  1.00  0.00     0.134 A 
ATOM     55  C   UNL A   1      37.584  30.643  30.179  1.00  0.00     0.134 A 
ATOM     56  F   UNL A   1      39.569  29.494  32.996  1.00  0.00    -0.206 F 
ATOM     57  C   UNL A   1      37.361  30.292  32.920  1.00  0.00     0.040 A 
ATOM     58  C   UNL A   1      36.394  30.975  30.823  1.00  0.00     0.040 A 
ATOM     59  F   UNL A   1      37.643  30.811  28.849  1.00  0.00    -0.206 F 
ATOM     60  C   UNL A   1      36.276  30.789  32.198  1.00  0.00     0.006 A 
ENDBRANCH  39  53
BRANCH  40  61
ATOM     61  C   UNL A   1      46.764  26.968  25.985  1.00  0.00     0.057 A 
ATOM     62  C   UNL A   1      46.953  27.174  24.611  1.00  0.00     0.134 A 
ATOM     63  C   UNL A   1      47.753  26.227  26.649  1.00  0.00     0.134 A 
ATOM     64  F   UNL A   1      46.028  27.829  23.892  1.00  0.00    -0.206 F 
ATOM     65  C   UNL A   1      48.065  26.662  23.931  1.00  0.00     0.040 A 
ATOM     66  C   UNL A   1      48.888  25.744  25.992  1.00  0.00     0.040 A 
ATOM     67  F   UNL A   1      47.633  25.954  27.957  1.00  0.00    -0.206 F 
ATOM     68  C   UNL A   1      49.042  25.953  24.626  1.00  0.00     0.006 A 
ENDBRANCH  40  61
BRANCH  52  69
ATOM     69  C   UNL A   1      44.811  33.165  28.520  1.00  0.00     0.057 A 
ATOM     70  C   UNL A   1      44.596  34.082  27.483  1.00  0.00     0.134 A 
ATOM     71  C   UNL A   1      45.604  33.581  29.597  1.00  0.00     0.134 A 
ATOM     72  F   UNL A   1      43.857  33.742  26.417  1.00  0.00    -0.206 F 
ATOM     73  C   UNL A   1      45.157  35.360  27.513  1.00  0.00     0.040 A 
ATOM     74  C   UNL A   1      46.148  34.864  29.651  1.00  0.00     0.040 A 
ATOM     75  F   UNL A   1      45.842  32.754  30.627  1.00  0.00    -0.206 F 
ATOM     76  C   UNL A   1      45.927  35.757  28.604  1.00  0.00     0.006 A 
ENDBRANCH  52  69
ENDBRANCH  26  27
ENDBRANCH  19  21
ENDBRANCH  18  19
ENDBRANCH   1  18
TORSDOF 12
ENDMDL
MODEL 3
REMARK VINA RESULT:     -11.4      0.986      1.834
REMARK SMILES CC(C)[C@H]1CC[C@@H](C)C/C1=C(\F)C(=O)OCCOC(=O)c1ccc(-c2c3nc(c(-c4c(F)cccc4F)c4ccc([nH]4)c(-c4c(F)cccc4F)c4nc(c(-c5c(F)cccc5F)c5ccc2[nH]5)C=C4)C=C3)cc1
REMARK SMILES IDX 17 1 16 2 15 3 13 4 14 5 11 6 4 7 5 8 10 9 6 10 9 11 7 12
REMARK SMILES IDX 12 13 8 14 2 15 1 16 3 17 18 18 19 19 20 20 21 21 22 22
REMARK SMILES IDX 74 23 23 24 73 25 24 26 25 27 26 28 67 29 27 30 72 31 66 32
REMARK SMILES IDX 68 33 28 34 71 35 65 36 64 37 29 39 55 40 38 41 54 42 39 43
REMARK SMILES IDX 42 44 53 45 69 46 40 47 41 48 52 50 70 51 43 52 30 53 31 54
REMARK SMILES IDX 36 55 32 56 33 57 35 58 37 59 34 60 56 61 57 62 62 63 58 64
REMARK SMILES IDX 59 65 61 66 63 67 60 68 44 69 45 70 50 71 46 72 47 73 49 74
REMARK SMILES IDX 51 75 48 76
REMARK H PARENT 68 38 42 49
REMARK Flexibility Score: inf
ROOT
ATOM      1  C   UNL A   1      31.443  29.078  25.216  1.00  0.00     0.275 C 
ENDROOT
BRANCH   1   2
ATOM      2  C   UNL A   1      32.363  28.350  24.200  1.00  0.00     0.275 C 
BRANCH   2   3
ATOM      3  O   UNL A   1      32.124  26.920  24.115  1.00  0.00    -0.457 OA
BRANCH   3   4
ATOM      4  C   UNL A   1      33.290  26.235  24.062  1.00  0.00     0.367 C 
ATOM      5  O   UNL A   1      34.011  26.279  23.101  1.00  0.00    -0.243 OA
BRANCH   4   6
ATOM      6  C   UNL A   1      33.661  25.477  25.260  1.00  0.00     0.207 C 
ATOM      7  C   UNL A   1      33.464  23.076  24.188  1.00  0.00     0.021 C 
ATOM      8  C   UNL A   1      34.832  22.561  23.679  1.00  0.00     0.009 C 
ATOM      9  C   UNL A   1      33.794  24.134  25.272  1.00  0.00    -0.023 C 
ATOM     10  C   UNL A   1      35.751  22.014  24.787  1.00  0.00     0.004 C 
ATOM     11  C   UNL A   1      34.514  23.480  26.447  1.00  0.00     0.038 C 
ATOM     12  C   UNL A   1      35.891  22.942  26.007  1.00  0.00    -0.010 C 
ATOM     13  F   UNL A   1      34.018  26.218  26.332  1.00  0.00    -0.199 F 
ATOM     14  C   UNL A   1      36.893  24.077  25.749  1.00  0.00     0.008 C 
BRANCH   7  15
ATOM     15  C   UNL A   1      32.170  23.104  23.215  1.00  0.00    -0.010 C 
ATOM     16  C   UNL A   1      31.968  21.741  22.534  1.00  0.00     0.008 C 
ATOM     17  C   UNL A   1      30.751  23.677  23.459  1.00  0.00     0.008 C 
ENDBRANCH   7  15
ENDBRANCH   4   6
ENDBRANCH   3   4
ENDBRANCH   2   3
ENDBRANCH   1   2
BRANCH   1  18
ATOM     18  O   UNL A   1      32.086  29.377  26.491  1.00  0.00    -0.458 OA
BRANCH  18  19
ATOM     19  C   UNL A   1      32.463  30.666  26.735  1.00  0.00     0.338 C 
ATOM     20  O   UNL A   1      31.775  31.662  26.580  1.00  0.00    -0.246 OA
BRANCH  19  21
ATOM     21  C   UNL A   1      33.825  30.725  27.351  1.00  0.00     0.060 A 
ATOM     22  C   UNL A   1      34.415  29.515  27.641  1.00  0.00     0.016 A 
ATOM     23  C   UNL A   1      34.480  31.865  27.813  1.00  0.00     0.016 A 
ATOM     24  C   UNL A   1      35.634  29.407  28.318  1.00  0.00     0.010 A 
ATOM     25  C   UNL A   1      35.739  31.760  28.488  1.00  0.00     0.010 A 
ATOM     26  C   UNL A   1      36.344  30.512  28.743  1.00  0.00    -0.014 A 
BRANCH  26  27
ATOM     27  C   UNL A   1      37.544  30.250  29.617  1.00  0.00     0.031 A 
ATOM     28  C   UNL A   1      38.727  29.552  29.006  1.00  0.00     0.074 A 
ATOM     29  C   UNL A   1      37.747  30.825  30.830  1.00  0.00     0.049 A 
ATOM     30  N   UNL A   1      39.773  29.018  29.580  1.00  0.00    -0.248 NA
ATOM     31  C   UNL A   1      38.739  29.475  27.537  1.00  0.00     0.031 C 
ATOM     32  C   UNL A   1      36.852  31.780  31.485  1.00  0.00     0.029 A 
ATOM     33  N   UNL A   1      38.805  30.734  31.716  1.00  0.00    -0.354 N 
ATOM     34  C   UNL A   1      40.510  28.444  28.552  1.00  0.00     0.074 A 
ATOM     35  C   UNL A   1      39.826  28.752  27.316  1.00  0.00     0.031 C 
ATOM     36  C   UNL A   1      37.418  32.226  32.620  1.00  0.00     0.029 A 
ATOM     37  C   UNL A   1      38.644  31.476  32.868  1.00  0.00     0.049 A 
ATOM     38  H   UNL A   1      39.604  30.186  31.539  1.00  0.00     0.167 HD
ATOM     39  C   UNL A   1      41.635  27.697  28.647  1.00  0.00     0.037 A 
ATOM     40  C   UNL A   1      39.346  31.492  34.024  1.00  0.00     0.037 A 
ATOM     41  C   UNL A   1      42.350  27.474  29.875  1.00  0.00     0.049 A 
ATOM     42  C   UNL A   1      40.511  30.542  34.170  1.00  0.00     0.074 A 
ATOM     43  C   UNL A   1      43.439  26.655  30.110  1.00  0.00     0.029 A 
ATOM     44  N   UNL A   1      42.062  28.109  31.074  1.00  0.00    -0.354 N 
ATOM     45  N   UNL A   1      41.078  29.787  33.260  1.00  0.00    -0.248 NA
ATOM     46  C   UNL A   1      41.098  30.399  35.512  1.00  0.00     0.031 C 
ATOM     47  C   UNL A   1      43.777  26.756  31.464  1.00  0.00     0.029 A 
ATOM     48  C   UNL A   1      42.935  27.682  32.058  1.00  0.00     0.049 A 
ATOM     49  H   UNL A   1      41.341  28.768  31.205  1.00  0.00     0.167 HD
ATOM     50  C   UNL A   1      42.080  29.083  33.917  1.00  0.00     0.074 A 
ATOM     51  C   UNL A   1      42.071  29.525  35.295  1.00  0.00     0.031 C 
ATOM     52  C   UNL A   1      42.920  28.140  33.425  1.00  0.00     0.037 A 
BRANCH  39  53
ATOM     53  C   UNL A   1      42.062  26.958  27.413  1.00  0.00     0.057 A 
ATOM     54  C   UNL A   1      42.919  27.498  26.449  1.00  0.00     0.134 A 
ATOM     55  C   UNL A   1      41.557  25.670  27.179  1.00  0.00     0.134 A 
ATOM     56  F   UNL A   1      43.416  28.734  26.597  1.00  0.00    -0.206 F 
ATOM     57  C   UNL A   1      43.231  26.798  25.281  1.00  0.00     0.040 A 
ATOM     58  C   UNL A   1      41.884  24.949  26.032  1.00  0.00     0.040 A 
ATOM     59  F   UNL A   1      40.728  25.093  28.064  1.00  0.00    -0.206 F 
ATOM     60  C   UNL A   1      42.716  25.519  25.072  1.00  0.00     0.006 A 
ENDBRANCH  39  53
BRANCH  40  61
ATOM     61  C   UNL A   1      38.900  32.309  35.197  1.00  0.00     0.057 A 
ATOM     62  C   UNL A   1      39.274  33.652  35.355  1.00  0.00     0.134 A 
ATOM     63  C   UNL A   1      38.150  31.742  36.239  1.00  0.00     0.134 A 
ATOM     64  F   UNL A   1      40.035  34.255  34.428  1.00  0.00    -0.206 F 
ATOM     65  C   UNL A   1      38.926  34.389  36.493  1.00  0.00     0.040 A 
ATOM     66  C   UNL A   1      37.762  32.477  37.362  1.00  0.00     0.040 A 
ATOM     67  F   UNL A   1      37.780  30.454  36.184  1.00  0.00    -0.206 F 
ATOM     68  C   UNL A   1      38.158  33.803  37.497  1.00  0.00     0.006 A 
ENDBRANCH  40  61
BRANCH  52  69
ATOM     69  C   UNL A   1      43.916  27.535  34.371  1.00  0.00     0.057 A 
ATOM     70  C   UNL A   1      45.165  28.125  34.603  1.00  0.00     0.134 A 
ATOM     71  C   UNL A   1      43.593  26.390  35.109  1.00  0.00     0.134 A 
ATOM     72  F   UNL A   1      45.540  29.216  33.919  1.00  0.00    -0.206 F 
ATOM     73  C   UNL A   1      46.062  27.589  35.529  1.00  0.00     0.040 A 
ATOM     74  C   UNL A   1      44.471  25.861  36.055  1.00  0.00     0.040 A 
ATOM     75  F   UNL A   1      42.409  25.782  34.941  1.00  0.00    -0.206 F 
ATOM     76  C   UNL A   1      45.711  26.459  36.265  1.00  0.00     0.006 A 
ENDBRANCH  52  69
ENDBRANCH  26  27
ENDBRANCH  19  21
ENDBRANCH  18  19
ENDBRANCH   1  18
TORSDOF 12
ENDMDL
