MODEL 1
REMARK VINA RESULT:     -10.6      0.000      0.000
REMARK SMILES Cc1nc(N[C@@H](C(=O)OCCOC(=O)c2ccc(-c3c4nc(c(-c5c(F)cccc5F)c5ccc([nH]5)c(-c5c(F)cccc5F)c5nc(c(-c6c(F)cccc6F)c6ccc3[nH]6)C=C5)C=C4)cc2)C(C)C)c2c3c(sc2n1)CCCC3
REMARK SMILES IDX 10 1 9 2 7 3 8 4 6 5 5 6 4 8 1 9 2 10 3 11 77 12 76 13 72 14
REMARK SMILES IDX 75 15 73 16 74 17 81 18 78 19 80 20 79 21 69 22 70 23 71 24
REMARK SMILES IDX 11 25 12 26 13 27 14 28 15 29 16 30 68 31 17 32 67 33 18 34
REMARK SMILES IDX 19 35 20 36 61 37 21 38 66 39 60 40 62 41 22 42 65 43 59 44
REMARK SMILES IDX 58 45 23 47 49 48 32 49 48 50 33 51 36 52 47 53 63 54 34 55
REMARK SMILES IDX 35 56 46 58 64 59 37 60 24 61 25 62 30 63 26 64 27 65 29 66
REMARK SMILES IDX 31 67 28 68 50 69 51 70 56 71 52 72 53 73 55 74 57 75 54 76
REMARK SMILES IDX 38 77 39 78 44 79 40 80 41 81 43 82 45 83 42 84
REMARK H PARENT 5 7 62 46 36 57
REMARK Flexibility Score: inf
ROOT
ATOM      1  C   UNL A   1      37.413  21.741  25.360  1.00  0.00     0.274 C 
ENDROOT
BRANCH   1   2
ATOM      2  O   UNL A   1      36.793  22.954  24.905  1.00  0.00    -0.461 OA
BRANCH   2   3
ATOM      3  C   UNL A   1      36.203  22.848  23.683  1.00  0.00     0.328 C 
ATOM      4  O   UNL A   1      36.828  22.573  22.659  1.00  0.00    -0.250 OA
BRANCH   3   5
ATOM      5  C   UNL A   1      34.723  23.259  23.671  1.00  0.00     0.193 C 
BRANCH   5   6
ATOM      6  N   UNL A   1      34.497  24.660  23.938  1.00  0.00    -0.356 N 
ATOM      7  H   UNL A   1      35.025  25.050  24.672  1.00  0.00     0.163 HD
BRANCH   6   8
ATOM      8  C   UNL A   1      33.635  25.516  23.294  1.00  0.00     0.139 A 
ATOM      9  C   UNL A   1      32.531  25.332  19.768  1.00  0.00     0.090 C 
ATOM     10  C   UNL A   1      32.621  25.796  21.191  1.00  0.00     0.129 A 
ATOM     11  N   UNL A   1      33.441  25.122  22.008  1.00  0.00    -0.216 NA
ATOM     12  N   UNL A   1      31.913  26.866  21.530  1.00  0.00    -0.222 NA
ATOM     13  C   UNL A   1      32.098  27.249  22.802  1.00  0.00     0.129 A 
ATOM     14  C   UNL A   1      32.945  26.684  23.757  1.00  0.00     0.057 A 
ATOM     15  S   UNL A   1      31.193  28.579  23.361  1.00  0.00    -0.120 S 
ATOM     16  C   UNL A   1      32.858  27.501  24.991  1.00  0.00    -0.021 A 
ATOM     17  C   UNL A   1      31.896  28.492  24.893  1.00  0.00     0.011 A 
ATOM     18  C   UNL A   1      33.611  27.385  26.290  1.00  0.00     0.037 C 
ATOM     19  C   UNL A   1      31.514  29.457  25.980  1.00  0.00     0.047 C 
ATOM     20  C   UNL A   1      33.443  28.539  27.272  1.00  0.00     0.005 C 
ATOM     21  C   UNL A   1      31.984  28.956  27.350  1.00  0.00     0.006 C 
ENDBRANCH   6   8
ENDBRANCH   5   6
BRANCH   5  22
ATOM     22  C   UNL A   1      33.783  22.357  24.509  1.00  0.00     0.017 C 
ATOM     23  C   UNL A   1      34.145  20.864  24.510  1.00  0.00     0.010 C 
ATOM     24  C   UNL A   1      33.671  22.794  25.983  1.00  0.00     0.010 C 
ENDBRANCH   5  22
ENDBRANCH   3   5
ENDBRANCH   2   3
ENDBRANCH   1   2
BRANCH   1  25
ATOM     25  C   UNL A   1      38.903  21.920  25.679  1.00  0.00     0.275 C 
BRANCH  25  26
ATOM     26  O   UNL A   1      39.166  22.517  26.968  1.00  0.00    -0.458 OA
BRANCH  26  27
ATOM     27  C   UNL A   1      40.377  22.179  27.472  1.00  0.00     0.338 C 
ATOM     28  O   UNL A   1      40.754  21.047  27.739  1.00  0.00    -0.246 OA
BRANCH  27  29
ATOM     29  C   UNL A   1      41.300  23.310  27.664  1.00  0.00     0.060 A 
ATOM     30  C   UNL A   1      41.063  24.267  28.649  1.00  0.00     0.016 A 
ATOM     31  C   UNL A   1      42.166  23.594  26.609  1.00  0.00     0.016 A 
ATOM     32  C   UNL A   1      41.536  25.573  28.472  1.00  0.00     0.010 A 
ATOM     33  C   UNL A   1      42.692  24.876  26.469  1.00  0.00     0.010 A 
ATOM     34  C   UNL A   1      42.322  25.896  27.358  1.00  0.00    -0.014 A 
BRANCH  34  35
ATOM     35  C   UNL A   1      42.962  27.232  27.312  1.00  0.00     0.031 A 
ATOM     36  C   UNL A   1      41.913  28.283  27.376  1.00  0.00     0.074 A 
ATOM     37  C   UNL A   1      44.195  27.562  27.760  1.00  0.00     0.049 A 
ATOM     38  N   UNL A   1      41.293  28.507  28.496  1.00  0.00    -0.248 NA
ATOM     39  C   UNL A   1      41.267  28.868  26.206  1.00  0.00     0.031 C 
ATOM     40  C   UNL A   1      45.004  26.737  28.663  1.00  0.00     0.029 A 
ATOM     41  N   UNL A   1      44.886  28.762  27.694  1.00  0.00    -0.354 N 
ATOM     42  C   UNL A   1      40.127  29.164  28.189  1.00  0.00     0.074 A 
ATOM     43  C   UNL A   1      40.168  29.409  26.762  1.00  0.00     0.031 C 
ATOM     44  C   UNL A   1      45.960  27.513  29.218  1.00  0.00     0.029 A 
ATOM     45  C   UNL A   1      45.938  28.846  28.612  1.00  0.00     0.049 A 
ATOM     46  H   UNL A   1      44.658  29.483  27.064  1.00  0.00     0.167 HD
ATOM     47  C   UNL A   1      39.193  29.430  29.137  1.00  0.00     0.037 A 
ATOM     48  C   UNL A   1      46.308  29.974  29.287  1.00  0.00     0.037 A 
ATOM     49  C   UNL A   1      39.491  28.962  30.461  1.00  0.00     0.049 A 
ATOM     50  C   UNL A   1      45.086  30.238  30.132  1.00  0.00     0.074 A 
ATOM     51  C   UNL A   1      39.175  27.889  31.265  1.00  0.00     0.029 A 
ATOM     52  N   UNL A   1      40.385  29.694  31.203  1.00  0.00    -0.354 N 
ATOM     53  N   UNL A   1      44.746  29.626  31.234  1.00  0.00    -0.248 NA
ATOM     54  C   UNL A   1      44.026  31.046  29.528  1.00  0.00     0.031 C 
ATOM     55  C   UNL A   1      40.235  27.804  32.226  1.00  0.00     0.029 A 
ATOM     56  C   UNL A   1      41.152  28.806  31.912  1.00  0.00     0.049 A 
ATOM     57  H   UNL A   1      40.462  30.676  31.223  1.00  0.00     0.167 HD
ATOM     58  C   UNL A   1      43.358  29.760  31.318  1.00  0.00     0.074 A 
ATOM     59  C   UNL A   1      42.988  30.683  30.265  1.00  0.00     0.031 C 
ATOM     60  C   UNL A   1      42.572  28.984  32.119  1.00  0.00     0.037 A 
BRANCH  47  61
ATOM     61  C   UNL A   1      38.066  30.343  28.923  1.00  0.00     0.057 A 
ATOM     62  C   UNL A   1      36.954  29.834  28.239  1.00  0.00     0.134 A 
ATOM     63  C   UNL A   1      38.117  31.711  29.179  1.00  0.00     0.134 A 
ATOM     64  F   UNL A   1      36.873  28.520  27.970  1.00  0.00    -0.206 F 
ATOM     65  C   UNL A   1      35.945  30.665  27.771  1.00  0.00     0.040 A 
ATOM     66  C   UNL A   1      37.103  32.557  28.724  1.00  0.00     0.040 A 
ATOM     67  F   UNL A   1      39.161  32.249  29.827  1.00  0.00    -0.206 F 
ATOM     68  C   UNL A   1      36.026  32.036  28.003  1.00  0.00     0.006 A 
ENDBRANCH  47  61
BRANCH  48  69
ATOM     69  C   UNL A   1      46.979  31.082  28.524  1.00  0.00     0.057 A 
ATOM     70  C   UNL A   1      48.102  31.729  29.068  1.00  0.00     0.134 A 
ATOM     71  C   UNL A   1      46.541  31.586  27.287  1.00  0.00     0.134 A 
ATOM     72  F   UNL A   1      48.522  31.435  30.310  1.00  0.00    -0.206 F 
ATOM     73  C   UNL A   1      48.821  32.707  28.369  1.00  0.00     0.040 A 
ATOM     74  C   UNL A   1      47.270  32.536  26.559  1.00  0.00     0.040 A 
ATOM     75  F   UNL A   1      45.393  31.173  26.733  1.00  0.00    -0.206 F 
ATOM     76  C   UNL A   1      48.428  33.086  27.092  1.00  0.00     0.006 A 
ENDBRANCH  48  69
BRANCH  60  77
ATOM     77  C   UNL A   1      43.293  28.116  33.093  1.00  0.00     0.057 A 
ATOM     78  C   UNL A   1      43.507  28.559  34.402  1.00  0.00     0.134 A 
ATOM     79  C   UNL A   1      43.724  26.823  32.768  1.00  0.00     0.134 A 
ATOM     80  F   UNL A   1      43.107  29.783  34.780  1.00  0.00    -0.206 F 
ATOM     81  C   UNL A   1      44.102  27.738  35.361  1.00  0.00     0.040 A 
ATOM     82  C   UNL A   1      44.303  25.986  33.724  1.00  0.00     0.040 A 
ATOM     83  F   UNL A   1      43.567  26.335  31.527  1.00  0.00    -0.206 F 
ATOM     84  C   UNL A   1      44.489  26.442  35.027  1.00  0.00     0.006 A 
ENDBRANCH  60  77
ENDBRANCH  34  35
ENDBRANCH  27  29
ENDBRANCH  26  27
ENDBRANCH  25  26
ENDBRANCH   1  25
TORSDOF 14
ENDMDL
MODEL 2
REMARK VINA RESULT:     -10.5     12.512     17.573
REMARK SMILES Cc1nc(N[C@@H](C(=O)OCCOC(=O)c2ccc(-c3c4nc(c(-c5c(F)cccc5F)c5ccc([nH]5)c(-c5c(F)cccc5F)c5nc(c(-c6c(F)cccc6F)c6ccc3[nH]6)C=C5)C=C4)cc2)C(C)C)c2c3c(sc2n1)CCCC3
REMARK SMILES IDX 10 1 9 2 7 3 8 4 6 5 5 6 4 8 1 9 2 10 3 11 77 12 76 13 72 14
REMARK SMILES IDX 75 15 73 16 74 17 81 18 78 19 80 20 79 21 69 22 70 23 71 24
REMARK SMILES IDX 11 25 12 26 13 27 14 28 15 29 16 30 68 31 17 32 67 33 18 34
REMARK SMILES IDX 19 35 20 36 61 37 21 38 66 39 60 40 62 41 22 42 65 43 59 44
REMARK SMILES IDX 58 45 23 47 49 48 32 49 48 50 33 51 36 52 47 53 63 54 34 55
REMARK SMILES IDX 35 56 46 58 64 59 37 60 24 61 25 62 30 63 26 64 27 65 29 66
REMARK SMILES IDX 31 67 28 68 50 69 51 70 56 71 52 72 53 73 55 74 57 75 54 76
REMARK SMILES IDX 38 77 39 78 44 79 40 80 41 81 43 82 45 83 42 84
REMARK H PARENT 5 7 62 46 36 57
REMARK Flexibility Score: inf
ROOT
ATOM      1  C   UNL A   1      42.187  43.240  19.198  1.00  0.00     0.274 C 
ENDROOT
BRANCH   1   2
ATOM      2  O   UNL A   1      42.838  44.508  19.019  1.00  0.00    -0.461 OA
BRANCH   2   3
ATOM      3  C   UNL A   1      42.760  44.996  17.751  1.00  0.00     0.328 C 
ATOM      4  O   UNL A   1      42.302  44.347  16.811  1.00  0.00    -0.250 OA
BRANCH   3   5
ATOM      5  C   UNL A   1      43.439  46.362  17.568  1.00  0.00     0.193 C 
BRANCH   5   6
ATOM      6  N   UNL A   1      44.587  46.568  18.419  1.00  0.00    -0.356 N 
ATOM      7  H   UNL A   1      44.394  46.796  19.357  1.00  0.00     0.163 HD
BRANCH   6   8
ATOM      8  C   UNL A   1      45.917  46.485  18.080  1.00  0.00     0.139 A 
ATOM      9  C   UNL A   1      47.750  48.649  15.703  1.00  0.00     0.090 C 
ATOM     10  C   UNL A   1      47.499  47.590  16.735  1.00  0.00     0.129 A 
ATOM     11  N   UNL A   1      46.247  47.463  17.194  1.00  0.00    -0.216 NA
ATOM     12  N   UNL A   1      48.525  46.829  17.091  1.00  0.00    -0.222 NA
ATOM     13  C   UNL A   1      48.201  45.870  17.972  1.00  0.00     0.129 A 
ATOM     14  C   UNL A   1      46.944  45.581  18.505  1.00  0.00     0.057 A 
ATOM     15  S   UNL A   1      49.456  44.870  18.541  1.00  0.00    -0.120 S 
ATOM     16  C   UNL A   1      47.077  44.388  19.375  1.00  0.00    -0.021 A 
ATOM     17  C   UNL A   1      48.394  43.983  19.508  1.00  0.00     0.011 A 
ATOM     18  C   UNL A   1      46.029  43.613  20.131  1.00  0.00     0.037 C 
ATOM     19  C   UNL A   1      48.884  42.847  20.360  1.00  0.00     0.047 C 
ATOM     20  C   UNL A   1      46.480  42.291  20.743  1.00  0.00     0.005 C 
ATOM     21  C   UNL A   1      47.835  42.455  21.409  1.00  0.00     0.006 C 
ENDBRANCH   6   8
ENDBRANCH   5   6
BRANCH   5  22
ATOM     22  C   UNL A   1      42.481  47.580  17.592  1.00  0.00     0.017 C 
ATOM     23  C   UNL A   1      43.130  48.909  18.008  1.00  0.00     0.010 C 
ATOM     24  C   UNL A   1      41.772  47.826  16.246  1.00  0.00     0.010 C 
ENDBRANCH   5  22
ENDBRANCH   3   5
ENDBRANCH   2   3
ENDBRANCH   1   2
BRANCH   1  25
ATOM     25  C   UNL A   1      42.425  42.642  20.591  1.00  0.00     0.275 C 
BRANCH  25  26
ATOM     26  O   UNL A   1      42.847  43.603  21.584  1.00  0.00    -0.458 OA
BRANCH  26  27
ATOM     27  C   UNL A   1      42.355  43.341  22.818  1.00  0.00     0.338 C 
ATOM     28  O   UNL A   1      41.172  43.241  23.114  1.00  0.00    -0.246 OA
BRANCH  27  29
ATOM     29  C   UNL A   1      43.377  43.130  23.856  1.00  0.00     0.060 A 
ATOM     30  C   UNL A   1      44.648  43.688  23.731  1.00  0.00     0.016 A 
ATOM     31  C   UNL A   1      43.164  42.067  24.733  1.00  0.00     0.016 A 
ATOM     32  C   UNL A   1      45.743  43.056  24.335  1.00  0.00     0.010 A 
ATOM     33  C   UNL A   1      44.246  41.481  25.387  1.00  0.00     0.010 A 
ATOM     34  C   UNL A   1      45.552  41.923  25.136  1.00  0.00    -0.014 A 
BRANCH  34  35
ATOM     35  C   UNL A   1      46.706  41.407  25.910  1.00  0.00     0.031 A 
ATOM     36  C   UNL A   1      46.715  42.034  27.258  1.00  0.00     0.074 A 
ATOM     37  C   UNL A   1      47.293  40.194  25.788  1.00  0.00     0.049 A 
ATOM     38  N   UNL A   1      45.832  41.674  28.141  1.00  0.00    -0.248 NA
ATOM     39  C   UNL A   1      47.417  43.271  27.582  1.00  0.00     0.031 C 
ATOM     40  C   UNL A   1      46.701  39.045  25.097  1.00  0.00     0.029 A 
ATOM     41  N   UNL A   1      48.407  39.665  26.422  1.00  0.00    -0.354 N 
ATOM     42  C   UNL A   1      45.773  42.670  29.083  1.00  0.00     0.074 A 
ATOM     43  C   UNL A   1      46.803  43.624  28.725  1.00  0.00     0.031 C 
ATOM     44  C   UNL A   1      47.334  37.923  25.501  1.00  0.00     0.029 A 
ATOM     45  C   UNL A   1      48.468  38.269  26.361  1.00  0.00     0.049 A 
ATOM     46  H   UNL A   1      49.087  40.218  26.871  1.00  0.00     0.167 HD
ATOM     47  C   UNL A   1      44.850  42.652  30.077  1.00  0.00     0.037 A 
ATOM     48  C   UNL A   1      48.917  37.454  27.360  1.00  0.00     0.037 A 
ATOM     49  C   UNL A   1      43.935  41.545  30.064  1.00  0.00     0.049 A 
ATOM     50  C   UNL A   1      47.899  37.712  28.444  1.00  0.00     0.074 A 
ATOM     51  C   UNL A   1      42.650  41.282  29.642  1.00  0.00     0.029 A 
ATOM     52  N   UNL A   1      44.395  40.339  30.532  1.00  0.00    -0.354 N 
ATOM     53  N   UNL A   1      46.691  37.225  28.518  1.00  0.00    -0.248 NA
ATOM     54  C   UNL A   1      48.165  38.831  29.348  1.00  0.00     0.031 C 
ATOM     55  C   UNL A   1      42.590  39.862  29.457  1.00  0.00     0.029 A 
ATOM     56  C   UNL A   1      43.860  39.360  29.734  1.00  0.00     0.049 A 
ATOM     57  H   UNL A   1      44.998  40.201  31.299  1.00  0.00     0.167 HD
ATOM     58  C   UNL A   1      45.969  38.142  29.286  1.00  0.00     0.074 A 
ATOM     59  C   UNL A   1      46.947  39.078  29.802  1.00  0.00     0.031 C 
ATOM     60  C   UNL A   1      44.605  38.195  29.315  1.00  0.00     0.037 A 
BRANCH  47  61
ATOM     61  C   UNL A   1      44.904  43.538  31.245  1.00  0.00     0.057 A 
ATOM     62  C   UNL A   1      45.758  43.164  32.290  1.00  0.00     0.134 A 
ATOM     63  C   UNL A   1      44.024  44.597  31.455  1.00  0.00     0.134 A 
ATOM     64  F   UNL A   1      46.615  42.142  32.126  1.00  0.00    -0.206 F 
ATOM     65  C   UNL A   1      45.706  43.787  33.530  1.00  0.00     0.040 A 
ATOM     66  C   UNL A   1      43.970  45.240  32.693  1.00  0.00     0.040 A 
ATOM     67  F   UNL A   1      43.183  44.992  30.488  1.00  0.00    -0.206 F 
ATOM     68  C   UNL A   1      44.798  44.822  33.738  1.00  0.00     0.006 A 
ENDBRANCH  47  61
BRANCH  48  69
ATOM     69  C   UNL A   1      50.389  37.434  27.665  1.00  0.00     0.057 A 
ATOM     70  C   UNL A   1      51.056  36.207  27.822  1.00  0.00     0.134 A 
ATOM     71  C   UNL A   1      51.184  38.576  27.865  1.00  0.00     0.134 A 
ATOM     72  F   UNL A   1      50.371  35.052  27.802  1.00  0.00    -0.206 F 
ATOM     73  C   UNL A   1      52.440  36.121  28.021  1.00  0.00     0.040 A 
ATOM     74  C   UNL A   1      52.574  38.507  28.027  1.00  0.00     0.040 A 
ATOM     75  F   UNL A   1      50.646  39.802  27.906  1.00  0.00    -0.206 F 
ATOM     76  C   UNL A   1      53.211  37.275  28.085  1.00  0.00     0.006 A 
ENDBRANCH  48  69
BRANCH  60  77
ATOM     77  C   UNL A   1      43.897  37.061  28.655  1.00  0.00     0.057 A 
ATOM     78  C   UNL A   1      43.568  37.135  27.298  1.00  0.00     0.134 A 
ATOM     79  C   UNL A   1      43.591  35.874  29.332  1.00  0.00     0.134 A 
ATOM     80  F   UNL A   1      43.845  38.242  26.589  1.00  0.00    -0.206 F 
ATOM     81  C   UNL A   1      42.982  36.059  26.630  1.00  0.00     0.040 A 
ATOM     82  C   UNL A   1      43.023  34.783  28.669  1.00  0.00     0.040 A 
ATOM     83  F   UNL A   1      43.863  35.735  30.639  1.00  0.00    -0.206 F 
ATOM     84  C   UNL A   1      42.721  34.872  27.313  1.00  0.00     0.006 A 
ENDBRANCH  60  77
ENDBRANCH  34  35
ENDBRANCH  27  29
ENDBRANCH  26  27
ENDBRANCH  25  26
ENDBRANCH   1  25
TORSDOF 14
ENDMDL
MODEL 3
REMARK VINA RESULT:     -10.3      7.224     13.409
REMARK SMILES Cc1nc(N[C@@H](C(=O)OCCOC(=O)c2ccc(-c3c4nc(c(-c5c(F)cccc5F)c5ccc([nH]5)c(-c5c(F)cccc5F)c5nc(c(-c6c(F)cccc6F)c6ccc3[nH]6)C=C5)C=C4)cc2)C(C)C)c2c3c(sc2n1)CCCC3
REMARK SMILES IDX 10 1 9 2 7 3 8 4 6 5 5 6 4 8 1 9 2 10 3 11 77 12 76 13 72 14
REMARK SMILES IDX 75 15 73 16 74 17 81 18 78 19 80 20 79 21 69 22 70 23 71 24
REMARK SMILES IDX 11 25 12 26 13 27 14 28 15 29 16 30 68 31 17 32 67 33 18 34
REMARK SMILES IDX 19 35 20 36 61 37 21 38 66 39 60 40 62 41 22 42 65 43 59 44
REMARK SMILES IDX 58 45 23 47 49 48 32 49 48 50 33 51 36 52 47 53 63 54 34 55
REMARK SMILES IDX 35 56 46 58 64 59 37 60 24 61 25 62 30 63 26 64 27 65 29 66
REMARK SMILES IDX 31 67 28 68 50 69 51 70 56 71 52 72 53 73 55 74 57 75 54 76
REMARK SMILES IDX 38 77 39 78 44 79 40 80 41 81 43 82 45 83 42 84
REMARK H PARENT 5 7 62 46 36 57
REMARK Flexibility Score: inf
ROOT
ATOM      1  C   UNL A   1      46.340  21.281  36.560  1.00  0.00     0.274 C 
ENDROOT
BRANCH   1   2
ATOM      2  O   UNL A   1      45.828  20.700  37.770  1.00  0.00    -0.461 OA
BRANCH   2   3
ATOM      3  C   UNL A   1      46.122  19.379  37.917  1.00  0.00     0.328 C 
ATOM      4  O   UNL A   1      45.691  18.509  37.160  1.00  0.00    -0.250 OA
BRANCH   3   5
ATOM      5  C   UNL A   1      46.904  19.056  39.198  1.00  0.00     0.193 C 
BRANCH   5   6
ATOM      6  N   UNL A   1      46.212  19.406  40.416  1.00  0.00    -0.356 N 
ATOM      7  H   UNL A   1      45.724  20.260  40.405  1.00  0.00     0.163 HD
BRANCH   6   8
ATOM      8  C   UNL A   1      46.150  18.691  41.590  1.00  0.00     0.139 A 
ATOM      9  C   UNL A   1      48.187  19.223  44.632  1.00  0.00     0.090 C 
ATOM     10  C   UNL A   1      47.134  18.660  43.726  1.00  0.00     0.129 A 
ATOM     11  N   UNL A   1      47.032  19.187  42.499  1.00  0.00    -0.216 NA
ATOM     12  N   UNL A   1      46.406  17.652  44.189  1.00  0.00    -0.222 NA
ATOM     13  C   UNL A   1      45.530  17.169  43.294  1.00  0.00     0.129 A 
ATOM     14  C   UNL A   1      45.336  17.576  41.973  1.00  0.00     0.057 A 
ATOM     15  S   UNL A   1      44.503  15.910  43.802  1.00  0.00    -0.120 S 
ATOM     16  C   UNL A   1      44.311  16.694  41.366  1.00  0.00    -0.021 A 
ATOM     17  C   UNL A   1      43.761  15.820  42.289  1.00  0.00     0.011 A 
ATOM     18  C   UNL A   1      43.782  16.643  39.956  1.00  0.00     0.037 C 
ATOM     19  C   UNL A   1      42.661  14.833  42.019  1.00  0.00     0.047 C 
ATOM     20  C   UNL A   1      42.896  15.452  39.611  1.00  0.00     0.005 C 
ATOM     21  C   UNL A   1      41.906  15.190  40.733  1.00  0.00     0.006 C 
ENDBRANCH   6   8
ENDBRANCH   5   6
BRANCH   5  22
ATOM     22  C   UNL A   1      48.373  19.547  39.213  1.00  0.00     0.017 C 
ATOM     23  C   UNL A   1      49.073  19.548  37.846  1.00  0.00     0.010 C 
ATOM     24  C   UNL A   1      48.539  20.961  39.805  1.00  0.00     0.010 C 
ENDBRANCH   5  22
ENDBRANCH   3   5
ENDBRANCH   2   3
ENDBRANCH   1   2
BRANCH   1  25
ATOM     25  C   UNL A   1      45.232  21.661  35.569  1.00  0.00     0.275 C 
BRANCH  25  26
ATOM     26  O   UNL A   1      44.693  22.987  35.763  1.00  0.00    -0.458 OA
BRANCH  26  27
ATOM     27  C   UNL A   1      43.906  23.394  34.738  1.00  0.00     0.338 C 
ATOM     28  O   UNL A   1      42.685  23.328  34.700  1.00  0.00    -0.246 OA
BRANCH  27  29
ATOM     29  C   UNL A   1      44.631  23.997  33.608  1.00  0.00     0.060 A 
ATOM     30  C   UNL A   1      45.614  24.961  33.821  1.00  0.00     0.016 A 
ATOM     31  C   UNL A   1      44.043  23.865  32.350  1.00  0.00     0.016 A 
ATOM     32  C   UNL A   1      45.867  25.921  32.833  1.00  0.00     0.010 A 
ATOM     33  C   UNL A   1      44.346  24.780  31.344  1.00  0.00     0.010 A 
ATOM     34  C   UNL A   1      45.205  25.859  31.601  1.00  0.00    -0.014 A 
BRANCH  34  35
ATOM     35  C   UNL A   1      45.645  26.772  30.519  1.00  0.00     0.031 A 
ATOM     36  C   UNL A   1      45.664  26.034  29.228  1.00  0.00     0.074 A 
ATOM     37  C   UNL A   1      45.472  28.112  30.462  1.00  0.00     0.049 A 
ATOM     38  N   UNL A   1      44.543  25.723  28.649  1.00  0.00    -0.248 NA
ATOM     39  C   UNL A   1      46.826  25.321  28.710  1.00  0.00     0.031 C 
ATOM     40  C   UNL A   1      44.537  28.870  31.299  1.00  0.00     0.029 A 
ATOM     41  N   UNL A   1      45.908  29.038  29.527  1.00  0.00    -0.354 N 
ATOM     42  C   UNL A   1      44.813  24.707  27.766  1.00  0.00     0.074 A 
ATOM     43  C   UNL A   1      46.249  24.515  27.800  1.00  0.00     0.031 C 
ATOM     44  C   UNL A   1      44.319  30.074  30.726  1.00  0.00     0.029 A 
ATOM     45  C   UNL A   1      45.200  30.243  29.568  1.00  0.00     0.049 A 
ATOM     46  H   UNL A   1      46.643  28.863  28.896  1.00  0.00     0.167 HD
ATOM     47  C   UNL A   1      43.822  24.073  27.091  1.00  0.00     0.037 A 
ATOM     48  C   UNL A   1      44.858  30.996  28.481  1.00  0.00     0.037 A 
ATOM     49  C   UNL A   1      42.486  24.514  27.376  1.00  0.00     0.049 A 
ATOM     50  C   UNL A   1      43.922  30.066  27.748  1.00  0.00     0.074 A 
ATOM     51  C   UNL A   1      41.423  24.123  28.162  1.00  0.00     0.029 A 
ATOM     52  N   UNL A   1      42.069  25.685  26.794  1.00  0.00    -0.354 N 
ATOM     53  N   UNL A   1      42.673  29.822  28.038  1.00  0.00    -0.248 NA
ATOM     54  C   UNL A   1      44.528  29.127  26.805  1.00  0.00     0.031 C 
ATOM     55  C   UNL A   1      40.636  25.305  28.358  1.00  0.00     0.029 A 
ATOM     56  C   UNL A   1      41.300  26.349  27.716  1.00  0.00     0.049 A 
ATOM     57  H   UNL A   1      42.282  25.993  25.883  1.00  0.00     0.167 HD
ATOM     58  C   UNL A   1      42.415  28.551  27.519  1.00  0.00     0.074 A 
ATOM     59  C   UNL A   1      43.582  28.203  26.734  1.00  0.00     0.031 C 
ATOM     60  C   UNL A   1      41.353  27.782  27.896  1.00  0.00     0.037 A 
BRANCH  47  61
ATOM     61  C   UNL A   1      44.065  23.172  25.959  1.00  0.00     0.057 A 
ATOM     62  C   UNL A   1      43.774  21.815  26.151  1.00  0.00     0.134 A 
ATOM     63  C   UNL A   1      44.741  23.548  24.801  1.00  0.00     0.134 A 
ATOM     64  F   UNL A   1      43.129  21.415  27.260  1.00  0.00    -0.206 F 
ATOM     65  C   UNL A   1      44.190  20.847  25.246  1.00  0.00     0.040 A 
ATOM     66  C   UNL A   1      45.155  22.586  23.877  1.00  0.00     0.040 A 
ATOM     67  F   UNL A   1      45.047  24.833  24.571  1.00  0.00    -0.206 F 
ATOM     68  C   UNL A   1      44.896  21.232  24.109  1.00  0.00     0.006 A 
ENDBRANCH  47  61
BRANCH  48  69
ATOM     69  C   UNL A   1      45.943  31.741  27.752  1.00  0.00     0.057 A 
ATOM     70  C   UNL A   1      45.700  33.038  27.269  1.00  0.00     0.134 A 
ATOM     71  C   UNL A   1      47.213  31.220  27.454  1.00  0.00     0.134 A 
ATOM     72  F   UNL A   1      44.476  33.581  27.363  1.00  0.00    -0.206 F 
ATOM     73  C   UNL A   1      46.694  33.814  26.660  1.00  0.00     0.040 A 
ATOM     74  C   UNL A   1      48.230  31.996  26.880  1.00  0.00     0.040 A 
ATOM     75  F   UNL A   1      47.522  29.942  27.711  1.00  0.00    -0.206 F 
ATOM     76  C   UNL A   1      47.977  33.306  26.499  1.00  0.00     0.006 A 
ENDBRANCH  48  69
BRANCH  60  77
ATOM     77  C   UNL A   1      40.327  28.461  28.738  1.00  0.00     0.057 A 
ATOM     78  C   UNL A   1      39.274  29.156  28.136  1.00  0.00     0.134 A 
ATOM     79  C   UNL A   1      40.336  28.383  30.137  1.00  0.00     0.134 A 
ATOM     80  F   UNL A   1      39.201  29.257  26.799  1.00  0.00    -0.206 F 
ATOM     81  C   UNL A   1      38.251  29.729  28.894  1.00  0.00     0.040 A 
ATOM     82  C   UNL A   1      39.307  28.935  30.904  1.00  0.00     0.040 A 
ATOM     83  F   UNL A   1      41.323  27.746  30.786  1.00  0.00    -0.206 F 
ATOM     84  C   UNL A   1      38.258  29.607  30.281  1.00  0.00     0.006 A 
ENDBRANCH  60  77
ENDBRANCH  34  35
ENDBRANCH  27  29
ENDBRANCH  26  27
ENDBRANCH  25  26
ENDBRANCH   1  25
TORSDOF 14
ENDMDL
