MODEL 1
REMARK VINA RESULT:     -10.7      0.000      0.000
REMARK SMILES CCCCCCNC(=O)Oc1cccc(-c2ccc([C@@H](C)C(=O)OCCOC(=O)c3ccc(-c4c5nc(c(-c6c(F)cccc6F)c6ccc([nH]6)c(-c6c(F)cccc6F)c6nc(c(-c7c(F)cccc7F)c7ccc4[nH]7)C=C6)C=C5)cc3)cc2C(F)(F)F)c1
REMARK SMILES IDX 20 1 21 2 19 3 16 4 17 5 85 6 18 7 84 8 15 9 11 10 12 11
REMARK SMILES IDX 90 12 13 13 14 14 10 15 8 16 7 17 9 19 6 20 5 21 4 22 3 23
REMARK SMILES IDX 2 24 1 25 86 26 87 27 88 28 89 29 22 30 23 31 24 32 25 33
REMARK SMILES IDX 26 34 27 35 28 36 29 37 30 38 31 39 83 40 32 41 82 42 33 43
REMARK SMILES IDX 34 44 35 45 76 46 36 47 81 48 75 49 77 50 37 51 80 52 74 53
REMARK SMILES IDX 73 54 38 56 64 57 47 58 63 59 48 60 51 61 62 62 78 63 49 64
REMARK SMILES IDX 50 65 61 67 79 68 52 69 39 70 40 71 45 72 41 73 42 74 44 75
REMARK SMILES IDX 46 76 43 77 65 78 66 79 71 80 67 81 68 82 70 83 72 84 69 85
REMARK SMILES IDX 53 86 54 87 59 88 55 89 56 90 58 91 60 92 57 93
REMARK H PARENT 7 18 77 55 51 66
REMARK Flexibility Score: inf
ROOT
ATOM      1  C   UNL A   1      35.517  32.858  29.518  1.00  0.00     0.126 C 
ATOM      2  C   UNL A   1      36.304  33.969  28.828  1.00  0.00     0.025 C 
ENDROOT
BRANCH   1   3
ATOM      3  C   UNL A   1      35.157  31.726  28.568  1.00  0.00    -0.033 A 
ATOM      4  C   UNL A   1      34.396  29.604  26.815  1.00  0.00    -0.006 A 
ATOM      5  C   UNL A   1      35.698  29.701  27.347  1.00  0.00     0.009 A 
ATOM      6  C   UNL A   1      33.460  30.598  27.171  1.00  0.00     0.064 A 
ATOM      7  C   UNL A   1      36.070  30.732  28.213  1.00  0.00     0.005 A 
ATOM      8  C   UNL A   1      33.862  31.648  28.030  1.00  0.00     0.018 A 
BRANCH   4   9
ATOM      9  C   UNL A   1      34.070  28.442  25.967  1.00  0.00    -0.014 A 
ATOM     10  C   UNL A   1      33.366  26.144  25.661  1.00  0.00     0.133 A 
ATOM     11  C   UNL A   1      33.569  26.233  24.285  1.00  0.00     0.047 A 
ATOM     12  C   UNL A   1      33.599  27.233  26.503  1.00  0.00     0.056 A 
ATOM     13  C   UNL A   1      34.004  27.433  23.737  1.00  0.00     0.004 A 
ATOM     14  C   UNL A   1      34.259  28.523  24.572  1.00  0.00     0.009 A 
BRANCH  10  15
ATOM     15  O   UNL A   1      33.080  24.859  26.161  1.00  0.00    -0.410 OA
BRANCH  15  16
ATOM     16  C   UNL A   1      33.563  23.733  25.514  1.00  0.00     0.412 C 
ATOM     17  N   UNL A   1      32.571  22.999  24.921  1.00  0.00    -0.321 N 
ATOM     18  H   UNL A   1      32.848  22.175  24.460  1.00  0.00     0.167 HD
ATOM     19  O   UNL A   1      34.732  23.377  25.461  1.00  0.00    -0.224 OA
BRANCH  17  20
ATOM     20  C   UNL A   1      31.154  23.308  24.902  1.00  0.00     0.119 C 
BRANCH  20  21
ATOM     21  C   UNL A   1      30.656  23.644  23.496  1.00  0.00     0.021 C 
BRANCH  21  22
ATOM     22  C   UNL A   1      30.500  25.142  23.206  1.00  0.00     0.002 C 
BRANCH  22  23
ATOM     23  C   UNL A   1      29.844  25.967  24.319  1.00  0.00    -0.000 C 
BRANCH  23  24
ATOM     24  C   UNL A   1      30.292  27.428  24.408  1.00  0.00    -0.003 C 
ATOM     25  C   UNL A   1      30.175  28.174  23.088  1.00  0.00     0.004 C 
ENDBRANCH  23  24
ENDBRANCH  22  23
ENDBRANCH  21  22
ENDBRANCH  20  21
ENDBRANCH  17  20
ENDBRANCH  15  16
ENDBRANCH  10  15
ENDBRANCH   4   9
BRANCH   6  26
ATOM     26  C   UNL A   1      32.032  30.617  26.669  1.00  0.00     0.417 C 
ATOM     27  F   UNL A   1      31.273  29.620  27.220  1.00  0.00    -0.166 F 
ATOM     28  F   UNL A   1      31.381  31.775  26.980  1.00  0.00    -0.166 F 
ATOM     29  F   UNL A   1      31.891  30.451  25.325  1.00  0.00    -0.166 F 
ENDBRANCH   6  26
ENDBRANCH   1   3
BRANCH   1  30
ATOM     30  C   UNL A   1      34.367  33.452  30.323  1.00  0.00     0.313 C 
ATOM     31  O   UNL A   1      33.794  34.480  29.974  1.00  0.00    -0.252 OA
BRANCH  30  32
ATOM     32  O   UNL A   1      34.027  32.719  31.415  1.00  0.00    -0.462 OA
BRANCH  32  33
ATOM     33  C   UNL A   1      34.127  33.372  32.695  1.00  0.00     0.274 C 
BRANCH  33  34
ATOM     34  C   UNL A   1      35.550  33.291  33.253  1.00  0.00     0.275 C 
BRANCH  34  35
ATOM     35  O   UNL A   1      36.038  31.936  33.252  1.00  0.00    -0.458 OA
BRANCH  35  36
ATOM     36  C   UNL A   1      37.267  31.773  33.794  1.00  0.00     0.338 C 
ATOM     37  O   UNL A   1      37.599  31.952  34.952  1.00  0.00    -0.246 OA
BRANCH  36  38
ATOM     38  C   UNL A   1      38.179  31.205  32.792  1.00  0.00     0.060 A 
ATOM     39  C   UNL A   1      39.279  30.476  33.250  1.00  0.00     0.016 A 
ATOM     40  C   UNL A   1      38.018  31.473  31.433  1.00  0.00     0.016 A 
ATOM     41  C   UNL A   1      40.243  30.030  32.355  1.00  0.00     0.010 A 
ATOM     42  C   UNL A   1      38.984  31.017  30.531  1.00  0.00     0.010 A 
ATOM     43  C   UNL A   1      40.111  30.311  30.989  1.00  0.00    -0.014 A 
BRANCH  43  44
ATOM     44  C   UNL A   1      41.195  29.924  30.057  1.00  0.00     0.031 A 
ATOM     45  C   UNL A   1      41.173  28.566  29.417  1.00  0.00     0.074 A 
ATOM     46  C   UNL A   1      42.173  30.798  29.760  1.00  0.00     0.049 A 
ATOM     47  N   UNL A   1      42.061  28.006  28.634  1.00  0.00    -0.248 NA
ATOM     48  C   UNL A   1      39.998  27.726  29.696  1.00  0.00     0.031 C 
ATOM     49  C   UNL A   1      42.272  32.162  30.280  1.00  0.00     0.029 A 
ATOM     50  N   UNL A   1      43.270  30.667  28.948  1.00  0.00    -0.354 N 
ATOM     51  C   UNL A   1      41.564  26.742  28.346  1.00  0.00     0.074 A 
ATOM     52  C   UNL A   1      40.305  26.611  29.047  1.00  0.00     0.031 C 
ATOM     53  C   UNL A   1      43.371  32.743  29.771  1.00  0.00     0.029 A 
ATOM     54  C   UNL A   1      44.073  31.780  28.927  1.00  0.00     0.049 A 
ATOM     55  H   UNL A   1      43.462  29.853  28.428  1.00  0.00     0.167 HD
ATOM     56  C   UNL A   1      42.108  25.780  27.563  1.00  0.00     0.037 A 
ATOM     57  C   UNL A   1      45.255  31.988  28.317  1.00  0.00     0.037 A 
ATOM     58  C   UNL A   1      43.350  25.922  26.849  1.00  0.00     0.049 A 
ATOM     59  C   UNL A   1      45.862  30.886  27.493  1.00  0.00     0.074 A 
ATOM     60  C   UNL A   1      43.981  25.008  26.023  1.00  0.00     0.029 A 
ATOM     61  N   UNL A   1      44.149  27.055  26.875  1.00  0.00    -0.354 N 
ATOM     62  N   UNL A   1      45.391  29.689  27.238  1.00  0.00    -0.248 NA
ATOM     63  C   UNL A   1      47.169  31.162  26.880  1.00  0.00     0.031 C 
ATOM     64  C   UNL A   1      45.178  25.576  25.574  1.00  0.00     0.029 A 
ATOM     65  C   UNL A   1      45.275  26.858  26.092  1.00  0.00     0.049 A 
ATOM     66  H   UNL A   1      43.947  27.877  27.376  1.00  0.00     0.167 HD
ATOM     67  C   UNL A   1      46.331  29.077  26.419  1.00  0.00     0.074 A 
ATOM     68  C   UNL A   1      47.394  30.039  26.210  1.00  0.00     0.031 C 
ATOM     69  C   UNL A   1      46.318  27.830  25.891  1.00  0.00     0.037 A 
BRANCH  56  70
ATOM     70  C   UNL A   1      41.374  24.477  27.460  1.00  0.00     0.057 A 
ATOM     71  C   UNL A   1      40.277  24.310  26.605  1.00  0.00     0.134 A 
ATOM     72  C   UNL A   1      41.788  23.367  28.207  1.00  0.00     0.134 A 
ATOM     73  F   UNL A   1      39.823  25.340  25.875  1.00  0.00    -0.206 F 
ATOM     74  C   UNL A   1      39.606  23.090  26.511  1.00  0.00     0.040 A 
ATOM     75  C   UNL A   1      41.139  22.136  28.105  1.00  0.00     0.040 A 
ATOM     76  F   UNL A   1      42.835  23.459  29.041  1.00  0.00    -0.206 F 
ATOM     77  C   UNL A   1      40.041  21.997  27.258  1.00  0.00     0.006 A 
ENDBRANCH  56  70
BRANCH  57  78
ATOM     78  C   UNL A   1      45.955  33.285  28.480  1.00  0.00     0.057 A 
ATOM     79  C   UNL A   1      45.733  34.345  27.594  1.00  0.00     0.134 A 
ATOM     80  C   UNL A   1      46.869  33.493  29.519  1.00  0.00     0.134 A 
ATOM     81  F   UNL A   1      44.885  34.197  26.565  1.00  0.00    -0.206 F 
ATOM     82  C   UNL A   1      46.404  35.561  27.728  1.00  0.00     0.040 A 
ATOM     83  C   UNL A   1      47.530  34.711  29.679  1.00  0.00     0.040 A 
ATOM     84  F   UNL A   1      47.125  32.515  30.402  1.00  0.00    -0.206 F 
ATOM     85  C   UNL A   1      47.302  35.748  28.777  1.00  0.00     0.006 A 
ENDBRANCH  57  78
BRANCH  69  86
ATOM     86  C   UNL A   1      47.471  27.448  25.014  1.00  0.00     0.057 A 
ATOM     87  C   UNL A   1      48.587  26.770  25.518  1.00  0.00     0.134 A 
ATOM     88  C   UNL A   1      47.447  27.730  23.642  1.00  0.00     0.134 A 
ATOM     89  F   UNL A   1      48.675  26.484  26.826  1.00  0.00    -0.206 F 
ATOM     90  C   UNL A   1      49.649  26.402  24.692  1.00  0.00     0.040 A 
ATOM     91  C   UNL A   1      48.494  27.347  22.801  1.00  0.00     0.040 A 
ATOM     92  F   UNL A   1      46.403  28.371  23.095  1.00  0.00    -0.206 F 
ATOM     93  C   UNL A   1      49.602  26.685  23.328  1.00  0.00     0.006 A 
ENDBRANCH  69  86
ENDBRANCH  43  44
ENDBRANCH  36  38
ENDBRANCH  35  36
ENDBRANCH  34  35
ENDBRANCH  33  34
ENDBRANCH  32  33
ENDBRANCH  30  32
ENDBRANCH   1  30
TORSDOF 21
ENDMDL
MODEL 2
REMARK VINA RESULT:     -10.6      4.609     10.121
REMARK SMILES CCCCCCNC(=O)Oc1cccc(-c2ccc([C@@H](C)C(=O)OCCOC(=O)c3ccc(-c4c5nc(c(-c6c(F)cccc6F)c6ccc([nH]6)c(-c6c(F)cccc6F)c6nc(c(-c7c(F)cccc7F)c7ccc4[nH]7)C=C6)C=C5)cc3)cc2C(F)(F)F)c1
REMARK SMILES IDX 20 1 21 2 19 3 16 4 17 5 85 6 18 7 84 8 15 9 11 10 12 11
REMARK SMILES IDX 90 12 13 13 14 14 10 15 8 16 7 17 9 19 6 20 5 21 4 22 3 23
REMARK SMILES IDX 2 24 1 25 86 26 87 27 88 28 89 29 22 30 23 31 24 32 25 33
REMARK SMILES IDX 26 34 27 35 28 36 29 37 30 38 31 39 83 40 32 41 82 42 33 43
REMARK SMILES IDX 34 44 35 45 76 46 36 47 81 48 75 49 77 50 37 51 80 52 74 53
REMARK SMILES IDX 73 54 38 56 64 57 47 58 63 59 48 60 51 61 62 62 78 63 49 64
REMARK SMILES IDX 50 65 61 67 79 68 52 69 39 70 40 71 45 72 41 73 42 74 44 75
REMARK SMILES IDX 46 76 43 77 65 78 66 79 71 80 67 81 68 82 70 83 72 84 69 85
REMARK SMILES IDX 53 86 54 87 59 88 55 89 56 90 58 91 60 92 57 93
REMARK H PARENT 7 18 77 55 51 66
REMARK Flexibility Score: inf
ROOT
ATOM      1  C   UNL A   1      41.660  22.661  26.973  1.00  0.00     0.126 C 
ATOM      2  C   UNL A   1      41.867  22.307  28.443  1.00  0.00     0.025 C 
ENDROOT
BRANCH   1   3
ATOM      3  C   UNL A   1      40.195  22.887  26.630  1.00  0.00    -0.033 A 
ATOM      4  C   UNL A   1      37.455  23.256  25.916  1.00  0.00    -0.006 A 
ATOM      5  C   UNL A   1      38.206  24.271  26.543  1.00  0.00     0.009 A 
ATOM      6  C   UNL A   1      38.098  22.029  25.646  1.00  0.00     0.064 A 
ATOM      7  C   UNL A   1      39.549  24.097  26.884  1.00  0.00     0.005 A 
ATOM      8  C   UNL A   1      39.453  21.862  26.021  1.00  0.00     0.018 A 
BRANCH   4   9
ATOM      9  C   UNL A   1      36.064  23.552  25.526  1.00  0.00    -0.014 A 
ATOM     10  C   UNL A   1      34.405  24.358  23.955  1.00  0.00     0.133 A 
ATOM     11  C   UNL A   1      33.390  24.191  24.894  1.00  0.00     0.047 A 
ATOM     12  C   UNL A   1      35.731  24.034  24.251  1.00  0.00     0.056 A 
ATOM     13  C   UNL A   1      33.700  23.683  26.150  1.00  0.00     0.004 A 
ATOM     14  C   UNL A   1      35.026  23.375  26.463  1.00  0.00     0.009 A 
BRANCH  10  15
ATOM     15  O   UNL A   1      34.045  25.023  22.767  1.00  0.00    -0.410 OA
BRANCH  15  16
ATOM     16  C   UNL A   1      33.203  24.412  21.852  1.00  0.00     0.412 C 
ATOM     17  N   UNL A   1      32.133  25.196  21.513  1.00  0.00    -0.321 N 
ATOM     18  H   UNL A   1      31.487  24.810  20.879  1.00  0.00     0.167 HD
ATOM     19  O   UNL A   1      33.342  23.292  21.378  1.00  0.00    -0.224 OA
BRANCH  17  20
ATOM     20  C   UNL A   1      31.852  26.536  21.991  1.00  0.00     0.119 C 
BRANCH  20  21
ATOM     21  C   UNL A   1      30.930  26.531  23.211  1.00  0.00     0.021 C 
BRANCH  21  22
ATOM     22  C   UNL A   1      30.448  27.916  23.662  1.00  0.00     0.002 C 
BRANCH  22  23
ATOM     23  C   UNL A   1      31.276  28.576  24.770  1.00  0.00    -0.000 C 
BRANCH  23  24
ATOM     24  C   UNL A   1      32.190  27.635  25.559  1.00  0.00    -0.003 C 
ATOM     25  C   UNL A   1      31.700  27.367  26.974  1.00  0.00     0.004 C 
ENDBRANCH  23  24
ENDBRANCH  22  23
ENDBRANCH  21  22
ENDBRANCH  20  21
ENDBRANCH  17  20
ENDBRANCH  15  16
ENDBRANCH  10  15
ENDBRANCH   4   9
BRANCH   6  26
ATOM     26  C   UNL A   1      37.410  20.855  24.982  1.00  0.00     0.417 C 
ATOM     27  F   UNL A   1      37.084  21.112  23.678  1.00  0.00    -0.166 F 
ATOM     28  F   UNL A   1      38.196  19.741  24.940  1.00  0.00    -0.166 F 
ATOM     29  F   UNL A   1      36.238  20.472  25.559  1.00  0.00    -0.166 F 
ENDBRANCH   6  26
ENDBRANCH   1   3
BRANCH   1  30
ATOM     30  C   UNL A   1      42.415  21.677  26.085  1.00  0.00     0.313 C 
ATOM     31  O   UNL A   1      42.704  20.547  26.470  1.00  0.00    -0.252 OA
BRANCH  30  32
ATOM     32  O   UNL A   1      42.689  22.156  24.845  1.00  0.00    -0.462 OA
BRANCH  32  33
ATOM     33  C   UNL A   1      43.229  23.489  24.765  1.00  0.00     0.274 C 
BRANCH  33  34
ATOM     34  C   UNL A   1      44.758  23.477  24.827  1.00  0.00     0.275 C 
BRANCH  34  35
ATOM     35  O   UNL A   1      45.246  24.283  25.916  1.00  0.00    -0.458 OA
BRANCH  35  36
ATOM     36  C   UNL A   1      45.219  25.617  25.694  1.00  0.00     0.338 C 
ATOM     37  O   UNL A   1      45.694  26.224  24.750  1.00  0.00    -0.246 OA
BRANCH  36  38
ATOM     38  C   UNL A   1      44.399  26.273  26.720  1.00  0.00     0.060 A 
ATOM     39  C   UNL A   1      44.520  27.657  26.867  1.00  0.00     0.016 A 
ATOM     40  C   UNL A   1      43.604  25.532  27.594  1.00  0.00     0.016 A 
ATOM     41  C   UNL A   1      43.869  28.310  27.906  1.00  0.00     0.010 A 
ATOM     42  C   UNL A   1      42.941  26.190  28.635  1.00  0.00     0.010 A 
ATOM     43  C   UNL A   1      43.087  27.578  28.808  1.00  0.00    -0.014 A 
BRANCH  43  44
ATOM     44  C   UNL A   1      42.482  28.266  29.973  1.00  0.00     0.031 A 
ATOM     45  C   UNL A   1      41.169  28.977  29.815  1.00  0.00     0.074 A 
ATOM     46  C   UNL A   1      43.090  28.221  31.172  1.00  0.00     0.049 A 
ATOM     47  N   UNL A   1      40.510  29.700  30.686  1.00  0.00    -0.248 NA
ATOM     48  C   UNL A   1      40.512  28.863  28.504  1.00  0.00     0.031 C 
ATOM     49  C   UNL A   1      44.342  27.519  31.458  1.00  0.00     0.029 A 
ATOM     50  N   UNL A   1      42.735  28.780  32.373  1.00  0.00    -0.354 N 
ATOM     51  C   UNL A   1      39.374  30.144  30.023  1.00  0.00     0.074 A 
ATOM     52  C   UNL A   1      39.439  29.622  28.674  1.00  0.00     0.031 C 
ATOM     53  C   UNL A   1      44.649  27.688  32.755  1.00  0.00     0.029 A 
ATOM     54  C   UNL A   1      43.642  28.544  33.377  1.00  0.00     0.049 A 
ATOM     55  H   UNL A   1      41.909  29.299  32.503  1.00  0.00     0.167 HD
ATOM     56  C   UNL A   1      38.367  30.914  30.499  1.00  0.00     0.037 A 
ATOM     57  C   UNL A   1      43.669  28.991  34.646  1.00  0.00     0.037 A 
ATOM     58  C   UNL A   1      38.295  31.413  31.847  1.00  0.00     0.049 A 
ATOM     59  C   UNL A   1      42.563  29.884  35.136  1.00  0.00     0.074 A 
ATOM     60  C   UNL A   1      37.311  32.193  32.427  1.00  0.00     0.029 A 
ATOM     61  N   UNL A   1      39.246  31.175  32.827  1.00  0.00    -0.354 N 
ATOM     62  N   UNL A   1      41.500  30.310  34.497  1.00  0.00    -0.248 NA
ATOM     63  C   UNL A   1      42.666  30.366  36.520  1.00  0.00     0.031 C 
ATOM     64  C   UNL A   1      37.682  32.454  33.751  1.00  0.00     0.029 A 
ATOM     65  C   UNL A   1      38.880  31.806  34.005  1.00  0.00     0.049 A 
ATOM     66  H   UNL A   1      40.061  30.637  32.704  1.00  0.00     0.167 HD
ATOM     67  C   UNL A   1      40.798  31.092  35.405  1.00  0.00     0.074 A 
ATOM     68  C   UNL A   1      41.549  31.071  36.643  1.00  0.00     0.031 C 
ATOM     69  C   UNL A   1      39.638  31.768  35.229  1.00  0.00     0.037 A 
BRANCH  56  70
ATOM     70  C   UNL A   1      37.273  31.285  29.543  1.00  0.00     0.057 A 
ATOM     71  C   UNL A   1      37.229  32.536  28.917  1.00  0.00     0.134 A 
ATOM     72  C   UNL A   1      36.265  30.366  29.227  1.00  0.00     0.134 A 
ATOM     73  F   UNL A   1      38.158  33.466  29.190  1.00  0.00    -0.206 F 
ATOM     74  C   UNL A   1      36.209  32.868  28.022  1.00  0.00     0.040 A 
ATOM     75  C   UNL A   1      35.253  30.678  28.317  1.00  0.00     0.040 A 
ATOM     76  F   UNL A   1      36.251  29.148  29.790  1.00  0.00    -0.206 F 
ATOM     77  C   UNL A   1      35.222  31.934  27.716  1.00  0.00     0.006 A 
ENDBRANCH  56  70
BRANCH  57  78
ATOM     78  C   UNL A   1      44.794  28.618  35.539  1.00  0.00     0.057 A 
ATOM     79  C   UNL A   1      44.751  27.451  36.309  1.00  0.00     0.134 A 
ATOM     80  C   UNL A   1      45.931  29.425  35.650  1.00  0.00     0.134 A 
ATOM     81  F   UNL A   1      43.676  26.650  36.261  1.00  0.00    -0.206 F 
ATOM     82  C   UNL A   1      45.795  27.105  37.167  1.00  0.00     0.040 A 
ATOM     83  C   UNL A   1      46.993  29.081  36.487  1.00  0.00     0.040 A 
ATOM     84  F   UNL A   1      46.031  30.558  34.938  1.00  0.00    -0.206 F 
ATOM     85  C   UNL A   1      46.923  27.920  37.254  1.00  0.00     0.006 A 
ENDBRANCH  57  78
BRANCH  69  86
ATOM     86  C   UNL A   1      39.097  32.515  36.410  1.00  0.00     0.057 A 
ATOM     87  C   UNL A   1      39.465  33.839  36.675  1.00  0.00     0.134 A 
ATOM     88  C   UNL A   1      38.170  31.913  37.270  1.00  0.00     0.134 A 
ATOM     89  F   UNL A   1      40.359  34.465  35.896  1.00  0.00    -0.206 F 
ATOM     90  C   UNL A   1      38.943  34.534  37.767  1.00  0.00     0.040 A 
ATOM     91  C   UNL A   1      37.625  32.605  38.353  1.00  0.00     0.040 A 
ATOM     92  F   UNL A   1      37.771  30.648  37.066  1.00  0.00    -0.206 F 
ATOM     93  C   UNL A   1      38.016  33.919  38.606  1.00  0.00     0.006 A 
ENDBRANCH  69  86
ENDBRANCH  43  44
ENDBRANCH  36  38
ENDBRANCH  35  36
ENDBRANCH  34  35
ENDBRANCH  33  34
ENDBRANCH  32  33
ENDBRANCH  30  32
ENDBRANCH   1  30
TORSDOF 21
ENDMDL
MODEL 3
REMARK VINA RESULT:     -10.5      4.549     10.153
REMARK SMILES CCCCCCNC(=O)Oc1cccc(-c2ccc([C@@H](C)C(=O)OCCOC(=O)c3ccc(-c4c5nc(c(-c6c(F)cccc6F)c6ccc([nH]6)c(-c6c(F)cccc6F)c6nc(c(-c7c(F)cccc7F)c7ccc4[nH]7)C=C6)C=C5)cc3)cc2C(F)(F)F)c1
REMARK SMILES IDX 20 1 21 2 19 3 16 4 17 5 85 6 18 7 84 8 15 9 11 10 12 11
REMARK SMILES IDX 90 12 13 13 14 14 10 15 8 16 7 17 9 19 6 20 5 21 4 22 3 23
REMARK SMILES IDX 2 24 1 25 86 26 87 27 88 28 89 29 22 30 23 31 24 32 25 33
REMARK SMILES IDX 26 34 27 35 28 36 29 37 30 38 31 39 83 40 32 41 82 42 33 43
REMARK SMILES IDX 34 44 35 45 76 46 36 47 81 48 75 49 77 50 37 51 80 52 74 53
REMARK SMILES IDX 73 54 38 56 64 57 47 58 63 59 48 60 51 61 62 62 78 63 49 64
REMARK SMILES IDX 50 65 61 67 79 68 52 69 39 70 40 71 45 72 41 73 42 74 44 75
REMARK SMILES IDX 46 76 43 77 65 78 66 79 71 80 67 81 68 82 70 83 72 84 69 85
REMARK SMILES IDX 53 86 54 87 59 88 55 89 56 90 58 91 60 92 57 93
REMARK H PARENT 7 18 77 55 51 66
REMARK Flexibility Score: inf
ROOT
ATOM      1  C   UNL A   1      41.493  22.175  27.050  1.00  0.00     0.126 C 
ATOM      2  C   UNL A   1      41.701  22.169  28.562  1.00  0.00     0.025 C 
ENDROOT
BRANCH   1   3
ATOM      3  C   UNL A   1      40.065  22.529  26.662  1.00  0.00    -0.033 A 
ATOM      4  C   UNL A   1      37.391  23.138  25.864  1.00  0.00    -0.006 A 
ATOM      5  C   UNL A   1      38.204  24.079  26.527  1.00  0.00     0.009 A 
ATOM      6  C   UNL A   1      37.936  21.863  25.601  1.00  0.00     0.064 A 
ATOM      7  C   UNL A   1      39.516  23.788  26.909  1.00  0.00     0.005 A 
ATOM      8  C   UNL A   1      39.257  21.577  26.018  1.00  0.00     0.018 A 
BRANCH   4   9
ATOM      9  C   UNL A   1      36.044  23.556  25.433  1.00  0.00    -0.014 A 
ATOM     10  C   UNL A   1      33.672  23.867  25.819  1.00  0.00     0.133 A 
ATOM     11  C   UNL A   1      33.481  24.274  24.501  1.00  0.00     0.047 A 
ATOM     12  C   UNL A   1      34.938  23.521  26.297  1.00  0.00     0.056 A 
ATOM     13  C   UNL A   1      34.572  24.345  23.644  1.00  0.00     0.004 A 
ATOM     14  C   UNL A   1      35.839  23.982  24.105  1.00  0.00     0.009 A 
BRANCH  10  15
ATOM     15  O   UNL A   1      32.505  23.667  26.580  1.00  0.00    -0.410 OA
BRANCH  15  16
ATOM     16  C   UNL A   1      31.413  23.018  26.028  1.00  0.00     0.412 C 
ATOM     17  N   UNL A   1      30.306  23.820  25.951  1.00  0.00    -0.321 N 
ATOM     18  H   UNL A   1      29.489  23.410  25.584  1.00  0.00     0.167 HD
ATOM     19  O   UNL A   1      31.379  21.855  25.649  1.00  0.00    -0.224 OA
BRANCH  17  20
ATOM     20  C   UNL A   1      30.209  25.209  26.355  1.00  0.00     0.119 C 
BRANCH  20  21
ATOM     21  C   UNL A   1      30.423  26.167  25.182  1.00  0.00     0.021 C 
BRANCH  21  22
ATOM     22  C   UNL A   1      31.631  27.103  25.325  1.00  0.00     0.002 C 
BRANCH  22  23
ATOM     23  C   UNL A   1      32.106  27.356  26.759  1.00  0.00    -0.000 C 
BRANCH  23  24
ATOM     24  C   UNL A   1      31.968  28.797  27.255  1.00  0.00    -0.003 C 
ATOM     25  C   UNL A   1      31.778  29.805  26.131  1.00  0.00     0.004 C 
ENDBRANCH  23  24
ENDBRANCH  22  23
ENDBRANCH  21  22
ENDBRANCH  20  21
ENDBRANCH  17  20
ENDBRANCH  15  16
ENDBRANCH  10  15
ENDBRANCH   4   9
BRANCH   6  26
ATOM     26  C   UNL A   1      37.172  20.758  24.902  1.00  0.00     0.417 C 
ATOM     27  F   UNL A   1      36.911  21.055  23.592  1.00  0.00    -0.166 F 
ATOM     28  F   UNL A   1      37.861  19.582  24.872  1.00  0.00    -0.166 F 
ATOM     29  F   UNL A   1      35.954  20.472  25.437  1.00  0.00    -0.166 F 
ENDBRANCH   6  26
ENDBRANCH   1   3
BRANCH   1  30
ATOM     30  C   UNL A   1      42.059  20.899  26.436  1.00  0.00     0.313 C 
ATOM     31  O   UNL A   1      41.760  19.787  26.862  1.00  0.00    -0.252 OA
BRANCH  30  32
ATOM     32  O   UNL A   1      42.874  21.117  25.373  1.00  0.00    -0.462 OA
BRANCH  32  33
ATOM     33  C   UNL A   1      43.117  22.490  25.007  1.00  0.00     0.274 C 
BRANCH  33  34
ATOM     34  C   UNL A   1      44.603  22.840  25.108  1.00  0.00     0.275 C 
BRANCH  34  35
ATOM     35  O   UNL A   1      44.840  23.842  26.116  1.00  0.00    -0.458 OA
BRANCH  35  36
ATOM     36  C   UNL A   1      44.678  25.118  25.699  1.00  0.00     0.338 C 
ATOM     37  O   UNL A   1      45.002  25.597  24.626  1.00  0.00    -0.246 OA
BRANCH  36  38
ATOM     38  C   UNL A   1      43.914  25.874  26.700  1.00  0.00     0.060 A 
ATOM     39  C   UNL A   1      44.311  27.186  26.970  1.00  0.00     0.016 A 
ATOM     40  C   UNL A   1      42.895  25.273  27.437  1.00  0.00     0.016 A 
ATOM     41  C   UNL A   1      43.710  27.901  27.999  1.00  0.00     0.010 A 
ATOM     42  C   UNL A   1      42.283  25.995  28.467  1.00  0.00     0.010 A 
ATOM     43  C   UNL A   1      42.701  27.304  28.766  1.00  0.00    -0.014 A 
BRANCH  43  44
ATOM     44  C   UNL A   1      42.139  28.034  29.926  1.00  0.00     0.031 A 
ATOM     45  C   UNL A   1      40.874  28.826  29.763  1.00  0.00     0.074 A 
ATOM     46  C   UNL A   1      42.742  27.958  31.126  1.00  0.00     0.049 A 
ATOM     47  N   UNL A   1      40.261  29.592  30.628  1.00  0.00    -0.248 NA
ATOM     48  C   UNL A   1      40.212  28.745  28.452  1.00  0.00     0.031 C 
ATOM     49  C   UNL A   1      43.947  27.180  31.418  1.00  0.00     0.029 A 
ATOM     50  N   UNL A   1      42.422  28.545  32.324  1.00  0.00    -0.354 N 
ATOM     51  C   UNL A   1      39.155  30.103  29.961  1.00  0.00     0.074 A 
ATOM     52  C   UNL A   1      39.189  29.571  28.616  1.00  0.00     0.031 C 
ATOM     53  C   UNL A   1      44.263  27.337  32.714  1.00  0.00     0.029 A 
ATOM     54  C   UNL A   1      43.311  28.257  33.330  1.00  0.00     0.049 A 
ATOM     55  H   UNL A   1      41.629  29.115  32.450  1.00  0.00     0.167 HD
ATOM     56  C   UNL A   1      38.198  30.937  30.432  1.00  0.00     0.037 A 
ATOM     57  C   UNL A   1      43.364  28.709  34.597  1.00  0.00     0.037 A 
ATOM     58  C   UNL A   1      38.156  31.447  31.777  1.00  0.00     0.049 A 
ATOM     59  C   UNL A   1      42.316  29.672  35.080  1.00  0.00     0.074 A 
ATOM     60  C   UNL A   1      37.221  32.291  32.352  1.00  0.00     0.029 A 
ATOM     61  N   UNL A   1      39.089  31.155  32.760  1.00  0.00    -0.354 N 
ATOM     62  N   UNL A   1      41.283  30.160  34.437  1.00  0.00    -0.248 NA
ATOM     63  C   UNL A   1      42.447  30.154  36.462  1.00  0.00     0.031 C 
ATOM     64  C   UNL A   1      37.607  32.535  33.674  1.00  0.00     0.029 A 
ATOM     65  C   UNL A   1      38.762  31.815  33.934  1.00  0.00     0.049 A 
ATOM     66  H   UNL A   1      39.869  30.567  32.641  1.00  0.00     0.167 HD
ATOM     67  C   UNL A   1      40.630  30.989  35.340  1.00  0.00     0.074 A 
ATOM     68  C   UNL A   1      41.377  30.928  36.580  1.00  0.00     0.031 C 
ATOM     69  C   UNL A   1      39.514  31.736  35.159  1.00  0.00     0.037 A 
BRANCH  56  70
ATOM     70  C   UNL A   1      37.130  31.371  29.473  1.00  0.00     0.057 A 
ATOM     71  C   UNL A   1      36.035  30.556  29.164  1.00  0.00     0.134 A 
ATOM     72  C   UNL A   1      37.186  32.635  28.872  1.00  0.00     0.134 A 
ATOM     73  F   UNL A   1      35.931  29.328  29.695  1.00  0.00    -0.206 F 
ATOM     74  C   UNL A   1      35.042  30.975  28.276  1.00  0.00     0.040 A 
ATOM     75  C   UNL A   1      36.189  33.074  28.001  1.00  0.00     0.040 A 
ATOM     76  F   UNL A   1      38.207  33.467  29.130  1.00  0.00    -0.206 F 
ATOM     77  C   UNL A   1      35.115  32.240  27.697  1.00  0.00     0.006 A 
ENDBRANCH  56  70
BRANCH  57  78
ATOM     78  C   UNL A   1      44.462  28.271  35.493  1.00  0.00     0.057 A 
ATOM     79  C   UNL A   1      45.700  28.924  35.494  1.00  0.00     0.134 A 
ATOM     80  C   UNL A   1      44.304  27.186  36.361  1.00  0.00     0.134 A 
ATOM     81  F   UNL A   1      45.919  29.957  34.666  1.00  0.00    -0.206 F 
ATOM     82  C   UNL A   1      46.745  28.505  36.318  1.00  0.00     0.040 A 
ATOM     83  C   UNL A   1      45.332  26.769  37.207  1.00  0.00     0.040 A 
ATOM     84  F   UNL A   1      43.141  26.518  36.407  1.00  0.00    -0.206 F 
ATOM     85  C   UNL A   1      46.560  27.427  37.182  1.00  0.00     0.006 A 
ENDBRANCH  57  78
BRANCH  69  86
ATOM     86  C   UNL A   1      39.020  32.522  36.335  1.00  0.00     0.057 A 
ATOM     87  C   UNL A   1      38.126  31.974  37.263  1.00  0.00     0.134 A 
ATOM     88  C   UNL A   1      39.471  33.828  36.561  1.00  0.00     0.134 A 
ATOM     89  F   UNL A   1      37.647  30.732  37.094  1.00  0.00    -0.206 F 
ATOM     90  C   UNL A   1      37.683  32.705  38.366  1.00  0.00     0.040 A 
ATOM     91  C   UNL A   1      39.052  34.562  37.672  1.00  0.00     0.040 A 
ATOM     92  F   UNL A   1      40.333  34.408  35.712  1.00  0.00    -0.206 F 
ATOM     93  C   UNL A   1      38.151  34.001  38.576  1.00  0.00     0.006 A 
ENDBRANCH  69  86
ENDBRANCH  43  44
ENDBRANCH  36  38
ENDBRANCH  35  36
ENDBRANCH  34  35
ENDBRANCH  33  34
ENDBRANCH  32  33
ENDBRANCH  30  32
ENDBRANCH   1  30
TORSDOF 21
ENDMDL
