MODEL 1
REMARK VINA RESULT:     -11.5      0.000      0.000
REMARK SMILES Cc1cc(=O)cc(C)n1-c1ccc(Cl)cc1C(=O)OCCOC(=O)c1ccc(-c2c3nc(c(-c4c(F)cccc4F)c4ccc([nH]4)c(-c4c(F)cccc4F)c4nc(c(-c5c(F)cccc5F)c5ccc2[nH]5)C=C4)C=C3)cc1
REMARK SMILES IDX 21 1 20 2 19 3 17 4 18 5 16 6 10 7 11 8 12 9 15 10 13 11
REMARK SMILES IDX 14 12 9 13 1 14 2 15 3 16 4 17 7 18 5 19 6 20 8 21 22 22
REMARK SMILES IDX 23 23 24 24 25 25 26 26 78 27 27 28 77 29 28 30 29 31 30 32
REMARK SMILES IDX 71 33 31 34 76 35 70 36 72 37 32 38 75 39 69 40 68 41 33 43
REMARK SMILES IDX 59 44 42 45 58 46 43 47 46 48 57 49 73 50 44 51 45 52 56 54
REMARK SMILES IDX 74 55 47 56 34 57 35 58 40 59 36 60 37 61 39 62 41 63 38 64
REMARK SMILES IDX 60 65 61 66 66 67 62 68 63 69 65 70 67 71 64 72 48 73 49 74
REMARK SMILES IDX 54 75 50 76 51 77 53 78 55 79 52 80
REMARK H PARENT 72 42 46 53
REMARK Flexibility Score: inf
ROOT
ATOM      1  C   UNL A   1      31.802  29.767  26.386  1.00  0.00     0.275 C 
ENDROOT
BRANCH   1   2
ATOM      2  C   UNL A   1      31.773  28.518  27.258  1.00  0.00     0.275 C 
BRANCH   2   3
ATOM      3  O   UNL A   1      32.686  27.521  26.753  1.00  0.00    -0.458 OA
BRANCH   3   4
ATOM      4  C   UNL A   1      32.155  26.309  26.474  1.00  0.00     0.340 C 
ATOM      5  O   UNL A   1      31.090  25.865  26.876  1.00  0.00    -0.246 OA
BRANCH   4   6
ATOM      6  C   UNL A   1      33.016  25.540  25.549  1.00  0.00     0.085 A 
ATOM      7  C   UNL A   1      33.018  25.757  24.157  1.00  0.00     0.060 A 
ATOM      8  C   UNL A   1      33.924  25.012  23.373  1.00  0.00     0.029 A 
ATOM      9  C   UNL A   1      34.774  24.062  23.946  1.00  0.00     0.023 A 
ATOM     10  C   UNL A   1      33.906  24.618  26.125  1.00  0.00     0.038 A 
ATOM     11  C   UNL A   1      34.758  23.869  25.321  1.00  0.00     0.042 A 
ATOM     12  Cl  UNL A   1      35.799  22.703  26.039  1.00  0.00    -0.084 Cl
BRANCH   7  13
ATOM     13  N   UNL A   1      32.153  26.701  23.513  1.00  0.00    -0.317 N 
ATOM     14  C   UNL A   1      34.028  28.442  23.440  1.00  0.00     0.065 C 
ATOM     15  C   UNL A   1      32.590  28.019  23.228  1.00  0.00     0.024 A 
ATOM     16  C   UNL A   1      31.756  28.954  22.739  1.00  0.00     0.073 A 
ATOM     17  C   UNL A   1      30.344  28.617  22.487  1.00  0.00     0.182 A 
ATOM     18  C   UNL A   1      30.807  26.344  23.240  1.00  0.00     0.024 A 
ATOM     19  O   UNL A   1      29.553  29.456  22.076  1.00  0.00    -0.290 OA
ATOM     20  C   UNL A   1      29.920  27.231  22.750  1.00  0.00     0.073 A 
ATOM     21  C   UNL A   1      30.299  24.951  23.545  1.00  0.00     0.065 C 
ENDBRANCH   7  13
ENDBRANCH   4   6
ENDBRANCH   3   4
ENDBRANCH   2   3
ENDBRANCH   1   2
BRANCH   1  22
ATOM     22  O   UNL A   1      33.160  30.218  26.257  1.00  0.00    -0.458 OA
BRANCH  22  23
ATOM     23  C   UNL A   1      33.511  31.249  27.056  1.00  0.00     0.338 C 
ATOM     24  O   UNL A   1      32.870  32.250  27.322  1.00  0.00    -0.246 OA
BRANCH  23  25
ATOM     25  C   UNL A   1      34.821  30.958  27.655  1.00  0.00     0.060 A 
ATOM     26  C   UNL A   1      35.121  29.642  27.995  1.00  0.00     0.016 A 
ATOM     27  C   UNL A   1      35.688  31.990  28.002  1.00  0.00     0.016 A 
ATOM     28  C   UNL A   1      36.240  29.355  28.769  1.00  0.00     0.010 A 
ATOM     29  C   UNL A   1      36.864  31.690  28.697  1.00  0.00     0.010 A 
ATOM     30  C   UNL A   1      37.131  30.375  29.123  1.00  0.00    -0.014 A 
BRANCH  30  31
ATOM     31  C   UNL A   1      38.301  30.079  29.994  1.00  0.00     0.031 A 
ATOM     32  C   UNL A   1      39.431  29.235  29.464  1.00  0.00     0.074 A 
ATOM     33  C   UNL A   1      38.380  30.589  31.238  1.00  0.00     0.049 A 
ATOM     34  N   UNL A   1      40.442  28.709  30.107  1.00  0.00    -0.248 NA
ATOM     35  C   UNL A   1      39.414  28.934  28.024  1.00  0.00     0.031 C 
ATOM     36  C   UNL A   1      37.397  31.481  31.855  1.00  0.00     0.029 A 
ATOM     37  N   UNL A   1      39.344  30.440  32.206  1.00  0.00    -0.354 N 
ATOM     38  C   UNL A   1      41.148  27.973  29.163  1.00  0.00     0.074 A 
ATOM     39  C   UNL A   1      40.449  28.117  27.905  1.00  0.00     0.031 C 
ATOM     40  C   UNL A   1      37.831  31.839  33.073  1.00  0.00     0.029 A 
ATOM     41  C   UNL A   1      39.074  31.131  33.362  1.00  0.00     0.049 A 
ATOM     42  H   UNL A   1      40.150  29.890  32.083  1.00  0.00     0.167 HD
ATOM     43  C   UNL A   1      42.277  27.244  29.333  1.00  0.00     0.037 A 
ATOM     44  C   UNL A   1      39.730  31.164  34.537  1.00  0.00     0.037 A 
ATOM     45  C   UNL A   1      43.001  27.152  30.573  1.00  0.00     0.049 A 
ATOM     46  C   UNL A   1      40.953  30.312  34.718  1.00  0.00     0.074 A 
ATOM     47  C   UNL A   1      44.149  26.431  30.851  1.00  0.00     0.029 A 
ATOM     48  N   UNL A   1      42.661  27.827  31.736  1.00  0.00    -0.354 N 
ATOM     49  N   UNL A   1      41.556  29.541  33.847  1.00  0.00    -0.248 NA
ATOM     50  C   UNL A   1      41.568  30.309  36.053  1.00  0.00     0.031 C 
ATOM     51  C   UNL A   1      44.489  26.649  32.190  1.00  0.00     0.029 A 
ATOM     52  C   UNL A   1      43.573  27.533  32.735  1.00  0.00     0.049 A 
ATOM     53  H   UNL A   1      41.885  28.425  31.837  1.00  0.00     0.167 HD
ATOM     54  C   UNL A   1      42.621  28.963  34.524  1.00  0.00     0.074 A 
ATOM     55  C   UNL A   1      42.596  29.488  35.874  1.00  0.00     0.031 C 
ATOM     56  C   UNL A   1      43.532  28.068  34.071  1.00  0.00     0.037 A 
BRANCH  43  57
ATOM     57  C   UNL A   1      42.787  26.466  28.158  1.00  0.00     0.057 A 
ATOM     58  C   UNL A   1      43.736  26.992  27.273  1.00  0.00     0.134 A 
ATOM     59  C   UNL A   1      42.355  25.151  27.938  1.00  0.00     0.134 A 
ATOM     60  F   UNL A   1      44.178  28.250  27.421  1.00  0.00    -0.206 F 
ATOM     61  C   UNL A   1      44.228  26.242  26.204  1.00  0.00     0.040 A 
ATOM     62  C   UNL A   1      42.856  24.384  26.885  1.00  0.00     0.040 A 
ATOM     63  F   UNL A   1      41.450  24.587  28.751  1.00  0.00    -0.206 F 
ATOM     64  C   UNL A   1      43.794  24.931  26.012  1.00  0.00     0.006 A 
ENDBRANCH  43  57
BRANCH  44  65
ATOM     65  C   UNL A   1      39.219  32.009  35.645  1.00  0.00     0.057 A 
ATOM     66  C   UNL A   1      39.627  33.340  35.782  1.00  0.00     0.134 A 
ATOM     67  C   UNL A   1      38.296  31.517  36.577  1.00  0.00     0.134 A 
ATOM     68  F   UNL A   1      40.528  33.860  34.936  1.00  0.00    -0.206 F 
ATOM     69  C   UNL A   1      39.135  34.154  36.804  1.00  0.00     0.040 A 
ATOM     70  C   UNL A   1      37.777  32.327  37.589  1.00  0.00     0.040 A 
ATOM     71  F   UNL A   1      37.866  30.250  36.501  1.00  0.00    -0.206 F 
ATOM     72  C   UNL A   1      38.199  33.650  37.706  1.00  0.00     0.006 A 
ENDBRANCH  44  65
BRANCH  56  73
ATOM     73  C   UNL A   1      44.583  27.610  35.035  1.00  0.00     0.057 A 
ATOM     74  C   UNL A   1      44.414  26.454  35.806  1.00  0.00     0.134 A 
ATOM     75  C   UNL A   1      45.798  28.296  35.147  1.00  0.00     0.134 A 
ATOM     76  F   UNL A   1      43.268  25.761  35.751  1.00  0.00    -0.206 F 
ATOM     77  C   UNL A   1      45.417  26.001  36.665  1.00  0.00     0.040 A 
ATOM     78  C   UNL A   1      46.816  27.842  35.987  1.00  0.00     0.040 A 
ATOM     79  F   UNL A   1      46.022  29.406  34.427  1.00  0.00    -0.206 F 
ATOM     80  C   UNL A   1      46.625  26.692  36.750  1.00  0.00     0.006 A 
ENDBRANCH  56  73
ENDBRANCH  30  31
ENDBRANCH  23  25
ENDBRANCH  22  23
ENDBRANCH   1  22
TORSDOF 12
ENDMDL
MODEL 2
REMARK VINA RESULT:     -11.5      4.351      7.767
REMARK SMILES Cc1cc(=O)cc(C)n1-c1ccc(Cl)cc1C(=O)OCCOC(=O)c1ccc(-c2c3nc(c(-c4c(F)cccc4F)c4ccc([nH]4)c(-c4c(F)cccc4F)c4nc(c(-c5c(F)cccc5F)c5ccc2[nH]5)C=C4)C=C3)cc1
REMARK SMILES IDX 21 1 20 2 19 3 17 4 18 5 16 6 10 7 11 8 12 9 15 10 13 11
REMARK SMILES IDX 14 12 9 13 1 14 2 15 3 16 4 17 7 18 5 19 6 20 8 21 22 22
REMARK SMILES IDX 23 23 24 24 25 25 26 26 78 27 27 28 77 29 28 30 29 31 30 32
REMARK SMILES IDX 71 33 31 34 76 35 70 36 72 37 32 38 75 39 69 40 68 41 33 43
REMARK SMILES IDX 59 44 42 45 58 46 43 47 46 48 57 49 73 50 44 51 45 52 56 54
REMARK SMILES IDX 74 55 47 56 34 57 35 58 40 59 36 60 37 61 39 62 41 63 38 64
REMARK SMILES IDX 60 65 61 66 66 67 62 68 63 69 65 70 67 71 64 72 48 73 49 74
REMARK SMILES IDX 54 75 50 76 51 77 53 78 55 79 52 80
REMARK H PARENT 72 42 46 53
REMARK Flexibility Score: inf
ROOT
ATOM      1  C   UNL A   1      33.516  30.956  27.624  1.00  0.00     0.275 C 
ENDROOT
BRANCH   1   2
ATOM      2  C   UNL A   1      32.459  30.152  26.876  1.00  0.00     0.275 C 
BRANCH   2   3
ATOM      3  O   UNL A   1      33.045  28.989  26.256  1.00  0.00    -0.458 OA
BRANCH   3   4
ATOM      4  C   UNL A   1      32.431  27.808  26.497  1.00  0.00     0.340 C 
ATOM      5  O   UNL A   1      31.549  27.594  27.315  1.00  0.00    -0.246 OA
BRANCH   4   6
ATOM      6  C   UNL A   1      32.926  26.745  25.595  1.00  0.00     0.085 A 
ATOM      7  C   UNL A   1      32.499  26.626  24.257  1.00  0.00     0.060 A 
ATOM      8  C   UNL A   1      33.083  25.614  23.465  1.00  0.00     0.029 A 
ATOM      9  C   UNL A   1      34.030  24.732  23.991  1.00  0.00     0.023 A 
ATOM     10  C   UNL A   1      33.914  25.886  26.104  1.00  0.00     0.038 A 
ATOM     11  C   UNL A   1      34.439  24.872  25.311  1.00  0.00     0.042 A 
ATOM     12  Cl  UNL A   1      35.604  23.793  25.971  1.00  0.00    -0.084 Cl
BRANCH   7  13
ATOM     13  N   UNL A   1      31.516  27.487  23.672  1.00  0.00    -0.317 N 
ATOM     14  C   UNL A   1      29.622  26.057  24.630  1.00  0.00     0.065 C 
ATOM     15  C   UNL A   1      30.132  27.194  23.772  1.00  0.00     0.024 A 
ATOM     16  C   UNL A   1      29.203  27.921  23.125  1.00  0.00     0.073 A 
ATOM     17  C   UNL A   1      29.617  29.057  22.284  1.00  0.00     0.182 A 
ATOM     18  C   UNL A   1      31.932  28.602  22.898  1.00  0.00     0.024 A 
ATOM     19  O   UNL A   1      28.797  29.715  21.655  1.00  0.00    -0.290 OA
ATOM     20  C   UNL A   1      31.055  29.371  22.227  1.00  0.00     0.073 A 
ATOM     21  C   UNL A   1      33.401  28.939  22.755  1.00  0.00     0.065 C 
ENDBRANCH   7  13
ENDBRANCH   4   6
ENDBRANCH   3   4
ENDBRANCH   2   3
ENDBRANCH   1   2
BRANCH   1  22
ATOM     22  O   UNL A   1      34.612  30.090  27.961  1.00  0.00    -0.458 OA
BRANCH  22  23
ATOM     23  C   UNL A   1      35.539  30.617  28.790  1.00  0.00     0.338 C 
ATOM     24  O   UNL A   1      35.397  31.502  29.615  1.00  0.00    -0.246 OA
BRANCH  23  25
ATOM     25  C   UNL A   1      36.806  29.897  28.603  1.00  0.00     0.060 A 
ATOM     26  C   UNL A   1      37.422  29.332  29.716  1.00  0.00     0.016 A 
ATOM     27  C   UNL A   1      37.446  29.896  27.367  1.00  0.00     0.016 A 
ATOM     28  C   UNL A   1      38.723  28.849  29.629  1.00  0.00     0.010 A 
ATOM     29  C   UNL A   1      38.717  29.322  27.257  1.00  0.00     0.010 A 
ATOM     30  C   UNL A   1      39.385  28.831  28.395  1.00  0.00    -0.014 A 
BRANCH  30  31
ATOM     31  C   UNL A   1      40.794  28.361  28.308  1.00  0.00     0.031 A 
ATOM     32  C   UNL A   1      41.919  29.319  28.600  1.00  0.00     0.074 A 
ATOM     33  C   UNL A   1      41.075  27.079  28.007  1.00  0.00     0.049 A 
ATOM     34  N   UNL A   1      43.205  29.170  28.404  1.00  0.00    -0.248 NA
ATOM     35  C   UNL A   1      41.548  30.620  29.180  1.00  0.00     0.031 C 
ATOM     36  C   UNL A   1      40.087  26.025  27.773  1.00  0.00     0.029 A 
ATOM     37  N   UNL A   1      42.282  26.438  27.861  1.00  0.00    -0.354 N 
ATOM     38  C   UNL A   1      43.787  30.373  28.783  1.00  0.00     0.074 A 
ATOM     39  C   UNL A   1      42.717  31.244  29.218  1.00  0.00     0.031 C 
ATOM     40  C   UNL A   1      40.724  24.863  27.563  1.00  0.00     0.029 A 
ATOM     41  C   UNL A   1      42.163  25.105  27.556  1.00  0.00     0.049 A 
ATOM     42  H   UNL A   1      43.148  26.892  27.966  1.00  0.00     0.167 HD
ATOM     43  C   UNL A   1      45.096  30.718  28.769  1.00  0.00     0.037 A 
ATOM     44  C   UNL A   1      43.102  24.185  27.263  1.00  0.00     0.037 A 
ATOM     45  C   UNL A   1      46.163  29.829  28.392  1.00  0.00     0.049 A 
ATOM     46  C   UNL A   1      44.544  24.601  27.208  1.00  0.00     0.074 A 
ATOM     47  C   UNL A   1      47.522  30.087  28.334  1.00  0.00     0.029 A 
ATOM     48  N   UNL A   1      45.993  28.500  28.035  1.00  0.00    -0.354 N 
ATOM     49  N   UNL A   1      45.074  25.770  27.472  1.00  0.00    -0.248 NA
ATOM     50  C   UNL A   1      45.513  23.582  26.784  1.00  0.00     0.031 C 
ATOM     51  C   UNL A   1      48.171  28.921  27.916  1.00  0.00     0.029 A 
ATOM     52  C   UNL A   1      47.220  27.928  27.750  1.00  0.00     0.049 A 
ATOM     53  H   UNL A   1      45.126  28.033  27.991  1.00  0.00     0.167 HD
ATOM     54  C   UNL A   1      46.437  25.628  27.249  1.00  0.00     0.074 A 
ATOM     55  C   UNL A   1      46.656  24.253  26.848  1.00  0.00     0.031 C 
ATOM     56  C   UNL A   1      47.417  26.557  27.356  1.00  0.00     0.037 A 
BRANCH  43  57
ATOM     57  C   UNL A   1      45.450  32.125  29.147  1.00  0.00     0.057 A 
ATOM     58  C   UNL A   1      45.413  33.175  28.222  1.00  0.00     0.134 A 
ATOM     59  C   UNL A   1      45.789  32.439  30.470  1.00  0.00     0.134 A 
ATOM     60  F   UNL A   1      45.112  32.937  26.936  1.00  0.00    -0.206 F 
ATOM     61  C   UNL A   1      45.712  34.487  28.597  1.00  0.00     0.040 A 
ATOM     62  C   UNL A   1      46.067  33.750  30.862  1.00  0.00     0.040 A 
ATOM     63  F   UNL A   1      45.839  31.480  31.406  1.00  0.00    -0.206 F 
ATOM     64  C   UNL A   1      46.032  34.778  29.922  1.00  0.00     0.006 A 
ENDBRANCH  43  57
BRANCH  44  65
ATOM     65  C   UNL A   1      42.700  22.788  26.965  1.00  0.00     0.057 A 
ATOM     66  C   UNL A   1      42.296  21.922  27.987  1.00  0.00     0.134 A 
ATOM     67  C   UNL A   1      42.688  22.291  25.656  1.00  0.00     0.134 A 
ATOM     68  F   UNL A   1      42.310  22.331  29.264  1.00  0.00    -0.206 F 
ATOM     69  C   UNL A   1      41.891  20.613  27.719  1.00  0.00     0.040 A 
ATOM     70  C   UNL A   1      42.262  20.993  25.371  1.00  0.00     0.040 A 
ATOM     71  F   UNL A   1      43.065  23.070  24.633  1.00  0.00    -0.206 F 
ATOM     72  C   UNL A   1      41.864  20.148  26.405  1.00  0.00     0.006 A 
ENDBRANCH  44  65
BRANCH  56  73
ATOM     73  C   UNL A   1      48.816  26.117  27.049  1.00  0.00     0.057 A 
ATOM     74  C   UNL A   1      49.383  26.311  25.783  1.00  0.00     0.134 A 
ATOM     75  C   UNL A   1      49.622  25.553  28.044  1.00  0.00     0.134 A 
ATOM     76  F   UNL A   1      48.657  26.836  24.786  1.00  0.00    -0.206 F 
ATOM     77  C   UNL A   1      50.703  25.948  25.516  1.00  0.00     0.040 A 
ATOM     78  C   UNL A   1      50.950  25.204  27.794  1.00  0.00     0.040 A 
ATOM     79  F   UNL A   1      49.138  25.350  29.280  1.00  0.00    -0.206 F 
ATOM     80  C   UNL A   1      51.493  25.400  26.526  1.00  0.00     0.006 A 
ENDBRANCH  56  73
ENDBRANCH  30  31
ENDBRANCH  23  25
ENDBRANCH  22  23
ENDBRANCH   1  22
TORSDOF 12
ENDMDL
MODEL 3
REMARK VINA RESULT:     -11.5      4.462      9.054
REMARK SMILES Cc1cc(=O)cc(C)n1-c1ccc(Cl)cc1C(=O)OCCOC(=O)c1ccc(-c2c3nc(c(-c4c(F)cccc4F)c4ccc([nH]4)c(-c4c(F)cccc4F)c4nc(c(-c5c(F)cccc5F)c5ccc2[nH]5)C=C4)C=C3)cc1
REMARK SMILES IDX 21 1 20 2 19 3 17 4 18 5 16 6 10 7 11 8 12 9 15 10 13 11
REMARK SMILES IDX 14 12 9 13 1 14 2 15 3 16 4 17 7 18 5 19 6 20 8 21 22 22
REMARK SMILES IDX 23 23 24 24 25 25 26 26 78 27 27 28 77 29 28 30 29 31 30 32
REMARK SMILES IDX 71 33 31 34 76 35 70 36 72 37 32 38 75 39 69 40 68 41 33 43
REMARK SMILES IDX 59 44 42 45 58 46 43 47 46 48 57 49 73 50 44 51 45 52 56 54
REMARK SMILES IDX 74 55 47 56 34 57 35 58 40 59 36 60 37 61 39 62 41 63 38 64
REMARK SMILES IDX 60 65 61 66 66 67 62 68 63 69 65 70 67 71 64 72 48 73 49 74
REMARK SMILES IDX 54 75 50 76 51 77 53 78 55 79 52 80
REMARK H PARENT 72 42 46 53
REMARK Flexibility Score: inf
ROOT
ATOM      1  C   UNL A   1      37.061  21.157  24.762  1.00  0.00     0.275 C 
ENDROOT
BRANCH   1   2
ATOM      2  C   UNL A   1      36.759  22.315  23.819  1.00  0.00     0.275 C 
BRANCH   2   3
ATOM      3  O   UNL A   1      36.071  23.376  24.515  1.00  0.00    -0.458 OA
BRANCH   3   4
ATOM      4  C   UNL A   1      35.046  23.960  23.855  1.00  0.00     0.340 C 
ATOM      5  O   UNL A   1      34.917  24.062  22.644  1.00  0.00    -0.246 OA
BRANCH   4   6
ATOM      6  C   UNL A   1      34.014  24.458  24.789  1.00  0.00     0.085 A 
ATOM      7  C   UNL A   1      33.036  23.618  25.359  1.00  0.00     0.060 A 
ATOM      8  C   UNL A   1      32.137  24.185  26.288  1.00  0.00     0.029 A 
ATOM      9  C   UNL A   1      32.185  25.542  26.614  1.00  0.00     0.023 A 
ATOM     10  C   UNL A   1      34.087  25.812  25.158  1.00  0.00     0.038 A 
ATOM     11  C   UNL A   1      33.160  26.350  26.044  1.00  0.00     0.042 A 
ATOM     12  Cl  UNL A   1      33.230  28.023  26.436  1.00  0.00    -0.084 Cl
BRANCH   7  13
ATOM     13  N   UNL A   1      32.927  22.225  25.045  1.00  0.00    -0.317 N 
ATOM     14  C   UNL A   1      34.210  21.594  27.167  1.00  0.00     0.065 C 
ATOM     15  C   UNL A   1      33.546  21.240  25.855  1.00  0.00     0.024 A 
ATOM     16  C   UNL A   1      33.559  19.939  25.508  1.00  0.00     0.073 A 
ATOM     17  C   UNL A   1      32.916  19.509  24.254  1.00  0.00     0.182 A 
ATOM     18  C   UNL A   1      32.268  21.825  23.853  1.00  0.00     0.024 A 
ATOM     19  O   UNL A   1      32.942  18.339  23.895  1.00  0.00    -0.290 OA
ATOM     20  C   UNL A   1      32.242  20.542  23.448  1.00  0.00     0.073 A 
ATOM     21  C   UNL A   1      31.608  22.850  22.954  1.00  0.00     0.065 C 
ENDBRANCH   7  13
ENDBRANCH   4   6
ENDBRANCH   3   4
ENDBRANCH   2   3
ENDBRANCH   1   2
BRANCH   1  22
ATOM     22  O   UNL A   1      37.618  21.677  25.980  1.00  0.00    -0.458 OA
BRANCH  22  23
ATOM     23  C   UNL A   1      38.942  21.469  26.152  1.00  0.00     0.338 C 
ATOM     24  O   UNL A   1      39.593  20.480  25.867  1.00  0.00    -0.246 OA
BRANCH  23  25
ATOM     25  C   UNL A   1      39.546  22.692  26.700  1.00  0.00     0.060 A 
ATOM     26  C   UNL A   1      39.113  23.923  26.215  1.00  0.00     0.016 A 
ATOM     27  C   UNL A   1      40.620  22.619  27.581  1.00  0.00     0.016 A 
ATOM     28  C   UNL A   1      39.811  25.084  26.529  1.00  0.00     0.010 A 
ATOM     29  C   UNL A   1      41.262  23.798  27.974  1.00  0.00     0.010 A 
ATOM     30  C   UNL A   1      40.890  25.038  27.419  1.00  0.00    -0.014 A 
BRANCH  30  31
ATOM     31  C   UNL A   1      41.669  26.270  27.717  1.00  0.00     0.031 A 
ATOM     32  C   UNL A   1      41.072  27.337  28.597  1.00  0.00     0.074 A 
ATOM     33  C   UNL A   1      42.919  26.427  27.240  1.00  0.00     0.049 A 
ATOM     34  N   UNL A   1      41.497  28.553  28.829  1.00  0.00    -0.248 NA
ATOM     35  C   UNL A   1      39.826  26.993  29.301  1.00  0.00     0.031 C 
ATOM     36  C   UNL A   1      43.652  25.446  26.438  1.00  0.00     0.029 A 
ATOM     37  N   UNL A   1      43.804  27.469  27.374  1.00  0.00    -0.354 N 
ATOM     38  C   UNL A   1      40.546  29.135  29.657  1.00  0.00     0.074 A 
ATOM     39  C   UNL A   1      39.519  28.142  29.886  1.00  0.00     0.031 C 
ATOM     40  C   UNL A   1      44.887  25.909  26.194  1.00  0.00     0.029 A 
ATOM     41  C   UNL A   1      45.005  27.257  26.742  1.00  0.00     0.049 A 
ATOM     42  H   UNL A   1      43.597  28.290  27.875  1.00  0.00     0.167 HD
ATOM     43  C   UNL A   1      40.532  30.384  30.178  1.00  0.00     0.037 A 
ATOM     44  C   UNL A   1      46.068  28.067  26.584  1.00  0.00     0.037 A 
ATOM     45  C   UNL A   1      41.584  31.349  29.995  1.00  0.00     0.049 A 
ATOM     46  C   UNL A   1      46.012  29.465  27.131  1.00  0.00     0.074 A 
ATOM     47  C   UNL A   1      41.659  32.646  30.473  1.00  0.00     0.029 A 
ATOM     48  N   UNL A   1      42.760  31.110  29.300  1.00  0.00    -0.354 N 
ATOM     49  N   UNL A   1      45.063  30.039  27.829  1.00  0.00    -0.248 NA
ATOM     50  C   UNL A   1      47.159  30.337  26.842  1.00  0.00     0.031 C 
ATOM     51  C   UNL A   1      42.869  33.200  30.044  1.00  0.00     0.029 A 
ATOM     52  C   UNL A   1      43.563  32.237  29.331  1.00  0.00     0.049 A 
ATOM     53  H   UNL A   1      42.990  30.263  28.851  1.00  0.00     0.167 HD
ATOM     54  C   UNL A   1      45.496  31.337  28.064  1.00  0.00     0.074 A 
ATOM     55  C   UNL A   1      46.804  31.460  27.453  1.00  0.00     0.031 C 
ATOM     56  C   UNL A   1      44.862  32.339  28.719  1.00  0.00     0.037 A 
BRANCH  43  57
ATOM     57  C   UNL A   1      39.330  30.794  30.974  1.00  0.00     0.057 A 
ATOM     58  C   UNL A   1      38.212  31.390  30.379  1.00  0.00     0.134 A 
ATOM     59  C   UNL A   1      39.274  30.545  32.352  1.00  0.00     0.134 A 
ATOM     60  F   UNL A   1      38.209  31.670  29.067  1.00  0.00    -0.206 F 
ATOM     61  C   UNL A   1      37.084  31.734  31.128  1.00  0.00     0.040 A 
ATOM     62  C   UNL A   1      38.144  30.864  33.108  1.00  0.00     0.040 A 
ATOM     63  F   UNL A   1      40.310  29.973  32.983  1.00  0.00    -0.206 F 
ATOM     64  C   UNL A   1      37.046  31.464  32.495  1.00  0.00     0.006 A 
ENDBRANCH  43  57
BRANCH  44  65
ATOM     65  C   UNL A   1      47.262  27.585  25.847  1.00  0.00     0.057 A 
ATOM     66  C   UNL A   1      48.356  27.038  26.527  1.00  0.00     0.134 A 
ATOM     67  C   UNL A   1      47.331  27.636  24.449  1.00  0.00     0.134 A 
ATOM     68  F   UNL A   1      48.360  26.985  27.867  1.00  0.00    -0.206 F 
ATOM     69  C   UNL A   1      49.475  26.557  25.845  1.00  0.00     0.040 A 
ATOM     70  C   UNL A   1      48.432  27.136  23.753  1.00  0.00     0.040 A 
ATOM     71  F   UNL A   1      46.316  28.149  23.740  1.00  0.00    -0.206 F 
ATOM     72  C   UNL A   1      49.510  26.596  24.451  1.00  0.00     0.006 A 
ENDBRANCH  44  65
BRANCH  56  73
ATOM     73  C   UNL A   1      45.576  33.652  28.821  1.00  0.00     0.057 A 
ATOM     74  C   UNL A   1      45.379  34.667  27.877  1.00  0.00     0.134 A 
ATOM     75  C   UNL A   1      46.419  33.925  29.905  1.00  0.00     0.134 A 
ATOM     76  F   UNL A   1      44.592  34.461  26.811  1.00  0.00    -0.206 F 
ATOM     77  C   UNL A   1      46.006  35.908  28.003  1.00  0.00     0.040 A 
ATOM     78  C   UNL A   1      47.035  35.169  30.052  1.00  0.00     0.040 A 
ATOM     79  F   UNL A   1      46.641  32.995  30.847  1.00  0.00    -0.206 F 
ATOM     80  C   UNL A   1      46.829  36.163  29.098  1.00  0.00     0.006 A 
ENDBRANCH  56  73
ENDBRANCH  30  31
ENDBRANCH  23  25
ENDBRANCH  22  23
ENDBRANCH   1  22
TORSDOF 12
ENDMDL
