MODEL 1
REMARK VINA RESULT:     -12.3      0.000      0.000
REMARK SMILES O=C(OCCOC(=O)c1ccc(-c2c3nc(c(-c4c(F)cccc4F)c4ccc([nH]4)c(-c4c(F)cccc4F)c4nc(c(-c5c(F)cccc5F)c5ccc2[nH]5)C=C4)C=C3)cc1)c1ccc(/C=C/c2ccc3cccc(O)c3n2)cc1
REMARK SMILES IDX 4 1 3 2 2 3 1 4 63 5 64 6 81 7 65 8 80 9 66 10 67 11 68 12
REMARK SMILES IDX 69 13 70 14 79 15 71 16 78 17 72 18 76 19 73 20 75 21 74 22
REMARK SMILES IDX 77 23 5 25 6 26 7 27 8 28 9 29 10 30 62 31 11 32 61 33 12 34
REMARK SMILES IDX 13 35 14 36 55 37 15 38 60 39 54 40 56 41 16 42 59 43 53 44
REMARK SMILES IDX 52 45 17 47 43 48 26 49 42 50 27 51 30 52 41 53 57 54 28 55
REMARK SMILES IDX 29 56 40 58 58 59 31 60 18 61 19 62 24 63 20 64 21 65 23 66
REMARK SMILES IDX 25 67 22 68 44 69 45 70 50 71 46 72 47 73 49 74 51 75 48 76
REMARK SMILES IDX 32 77 33 78 38 79 34 80 35 81 37 82 39 83 36 84
REMARK H PARENT 77 24 56 46 30 57
REMARK Flexibility Score: inf
ROOT
ATOM      1  C   UNL A   1      42.967  21.345  25.766  1.00  0.00     0.275 C 
ENDROOT
BRANCH   1   2
ATOM      2  O   UNL A   1      41.606  21.778  25.596  1.00  0.00    -0.458 OA
BRANCH   2   3
ATOM      3  C   UNL A   1      40.552  21.636  26.433  1.00  0.00     0.338 C 
ATOM      4  O   UNL A   1      40.697  20.947  27.443  1.00  0.00    -0.246 OA
BRANCH   3   5
ATOM      5  C   UNL A   1      39.168  22.129  26.127  1.00  0.00     0.060 A 
ATOM      6  C   UNL A   1      38.166  21.458  25.420  1.00  0.00     0.016 A 
ATOM      7  C   UNL A   1      38.853  23.403  26.625  1.00  0.00     0.016 A 
ATOM      8  C   UNL A   1      36.868  21.978  25.306  1.00  0.00     0.009 A 
ATOM      9  C   UNL A   1      37.572  23.940  26.478  1.00  0.00     0.009 A 
ATOM     10  C   UNL A   1      36.549  23.213  25.859  1.00  0.00    -0.026 A 
BRANCH  10  11
ATOM     11  C   UNL A   1      35.250  23.870  25.697  1.00  0.00     0.010 C 
ATOM     12  C   UNL A   1      34.912  24.846  24.827  1.00  0.00     0.029 C 
BRANCH  12  13
ATOM     13  C   UNL A   1      33.977  25.833  25.423  1.00  0.00     0.064 A 
ATOM     14  C   UNL A   1      32.894  25.184  26.016  1.00  0.00     0.029 A 
ATOM     15  N   UNL A   1      33.865  27.016  24.773  1.00  0.00    -0.245 NA
ATOM     16  C   UNL A   1      31.629  25.532  25.571  1.00  0.00     0.013 A 
ATOM     17  C   UNL A   1      32.619  27.393  24.412  1.00  0.00     0.113 A 
ATOM     18  C   UNL A   1      31.486  26.600  24.683  1.00  0.00     0.004 A 
ATOM     19  C   UNL A   1      32.422  28.555  23.674  1.00  0.00     0.141 A 
ATOM     20  C   UNL A   1      30.266  26.861  24.040  1.00  0.00     0.010 A 
ATOM     21  C   UNL A   1      31.197  28.864  23.089  1.00  0.00     0.048 A 
ATOM     22  C   UNL A   1      30.133  27.977  23.219  1.00  0.00     0.005 A 
BRANCH  19  23
ATOM     23  O   UNL A   1      33.464  29.430  23.485  1.00  0.00    -0.506 OA
ATOM     24  H   UNL A   1      33.838  29.535  22.633  1.00  0.00     0.293 HD
ENDBRANCH  19  23
ENDBRANCH  12  13
ENDBRANCH  10  11
ENDBRANCH   3   5
ENDBRANCH   2   3
ENDBRANCH   1   2
BRANCH   1  25
ATOM     25  C   UNL A   1      43.972  22.185  24.970  1.00  0.00     0.275 C 
BRANCH  25  26
ATOM     26  O   UNL A   1      43.442  23.468  24.594  1.00  0.00    -0.458 OA
BRANCH  26  27
ATOM     27  C   UNL A   1      44.172  24.534  25.022  1.00  0.00     0.338 C 
ATOM     28  O   UNL A   1      45.273  24.853  24.626  1.00  0.00    -0.246 OA
BRANCH  27  29
ATOM     29  C   UNL A   1      43.392  25.359  25.983  1.00  0.00     0.060 A 
ATOM     30  C   UNL A   1      43.973  26.556  26.421  1.00  0.00     0.016 A 
ATOM     31  C   UNL A   1      42.133  24.987  26.465  1.00  0.00     0.016 A 
ATOM     32  C   UNL A   1      43.325  27.349  27.373  1.00  0.00     0.010 A 
ATOM     33  C   UNL A   1      41.473  25.799  27.400  1.00  0.00     0.010 A 
ATOM     34  C   UNL A   1      42.084  26.965  27.895  1.00  0.00    -0.014 A 
BRANCH  34  35
ATOM     35  C   UNL A   1      41.526  27.694  29.069  1.00  0.00     0.031 A 
ATOM     36  C   UNL A   1      42.213  27.563  30.404  1.00  0.00     0.074 A 
ATOM     37  C   UNL A   1      40.473  28.526  28.959  1.00  0.00     0.049 A 
ATOM     38  N   UNL A   1      41.980  28.202  31.524  1.00  0.00    -0.248 NA
ATOM     39  C   UNL A   1      43.311  26.588  30.487  1.00  0.00     0.031 C 
ATOM     40  C   UNL A   1      39.714  28.775  27.737  1.00  0.00     0.029 A 
ATOM     41  N   UNL A   1      39.863  29.327  29.896  1.00  0.00    -0.354 N 
ATOM     42  C   UNL A   1      42.911  27.719  32.434  1.00  0.00     0.074 A 
ATOM     43  C   UNL A   1      43.670  26.690  31.758  1.00  0.00     0.031 C 
ATOM     44  C   UNL A   1      38.738  29.664  27.995  1.00  0.00     0.029 A 
ATOM     45  C   UNL A   1      38.812  30.060  29.400  1.00  0.00     0.049 A 
ATOM     46  H   UNL A   1      40.155  29.372  30.835  1.00  0.00     0.167 HD
ATOM     47  C   UNL A   1      43.141  28.113  33.709  1.00  0.00     0.037 A 
ATOM     48  C   UNL A   1      38.011  30.960  30.004  1.00  0.00     0.037 A 
ATOM     49  C   UNL A   1      42.401  29.135  34.398  1.00  0.00     0.049 A 
ATOM     50  C   UNL A   1      38.234  31.320  31.448  1.00  0.00     0.074 A 
ATOM     51  C   UNL A   1      42.602  29.629  35.676  1.00  0.00     0.029 A 
ATOM     52  N   UNL A   1      41.311  29.811  33.876  1.00  0.00    -0.354 N 
ATOM     53  N   UNL A   1      39.172  30.920  32.267  1.00  0.00    -0.248 NA
ATOM     54  C   UNL A   1      37.288  32.278  32.043  1.00  0.00     0.031 C 
ATOM     55  C   UNL A   1      41.602  30.570  35.945  1.00  0.00     0.029 A 
ATOM     56  C   UNL A   1      40.811  30.697  34.816  1.00  0.00     0.049 A 
ATOM     57  H   UNL A   1      40.947  29.681  32.970  1.00  0.00     0.167 HD
ATOM     58  C   UNL A   1      38.962  31.611  33.454  1.00  0.00     0.074 A 
ATOM     59  C   UNL A   1      37.805  32.455  33.250  1.00  0.00     0.031 C 
ATOM     60  C   UNL A   1      39.674  31.555  34.606  1.00  0.00     0.037 A 
BRANCH  47  61
ATOM     61  C   UNL A   1      44.250  27.423  34.444  1.00  0.00     0.057 A 
ATOM     62  C   UNL A   1      44.034  26.238  35.159  1.00  0.00     0.134 A 
ATOM     63  C   UNL A   1      45.551  27.938  34.421  1.00  0.00     0.134 A 
ATOM     64  F   UNL A   1      42.805  25.702  35.232  1.00  0.00    -0.206 F 
ATOM     65  C   UNL A   1      45.069  25.603  35.847  1.00  0.00     0.040 A 
ATOM     66  C   UNL A   1      46.599  27.299  35.083  1.00  0.00     0.040 A 
ATOM     67  F   UNL A   1      45.825  29.069  33.751  1.00  0.00    -0.206 F 
ATOM     68  C   UNL A   1      46.357  26.131  35.805  1.00  0.00     0.006 A 
ENDBRANCH  47  61
BRANCH  48  69
ATOM     69  C   UNL A   1      36.912  31.613  29.250  1.00  0.00     0.057 A 
ATOM     70  C   UNL A   1      37.020  32.921  28.768  1.00  0.00     0.134 A 
ATOM     71  C   UNL A   1      35.691  30.959  29.064  1.00  0.00     0.134 A 
ATOM     72  F   UNL A   1      38.153  33.615  28.951  1.00  0.00    -0.206 F 
ATOM     73  C   UNL A   1      35.947  33.560  28.143  1.00  0.00     0.040 A 
ATOM     74  C   UNL A   1      34.616  31.574  28.423  1.00  0.00     0.040 A 
ATOM     75  F   UNL A   1      35.529  29.716  29.528  1.00  0.00    -0.206 F 
ATOM     76  C   UNL A   1      34.741  32.884  27.967  1.00  0.00     0.006 A 
ENDBRANCH  48  69
BRANCH  60  77
ATOM     77  C   UNL A   1      39.270  32.481  35.717  1.00  0.00     0.057 A 
ATOM     78  C   UNL A   1      39.790  33.777  35.834  1.00  0.00     0.134 A 
ATOM     79  C   UNL A   1      38.322  32.078  36.666  1.00  0.00     0.134 A 
ATOM     80  F   UNL A   1      40.711  34.222  34.967  1.00  0.00    -0.206 F 
ATOM     81  C   UNL A   1      39.401  34.627  36.872  1.00  0.00     0.040 A 
ATOM     82  C   UNL A   1      37.905  32.928  37.692  1.00  0.00     0.040 A 
ATOM     83  F   UNL A   1      37.778  30.853  36.609  1.00  0.00    -0.206 F 
ATOM     84  C   UNL A   1      38.450  34.205  37.801  1.00  0.00     0.006 A 
ENDBRANCH  60  77
ENDBRANCH  34  35
ENDBRANCH  27  29
ENDBRANCH  26  27
ENDBRANCH  25  26
ENDBRANCH   1  25
TORSDOF 14
ENDMDL
MODEL 2
REMARK VINA RESULT:     -12.2      2.110      3.050
REMARK SMILES O=C(OCCOC(=O)c1ccc(-c2c3nc(c(-c4c(F)cccc4F)c4ccc([nH]4)c(-c4c(F)cccc4F)c4nc(c(-c5c(F)cccc5F)c5ccc2[nH]5)C=C4)C=C3)cc1)c1ccc(/C=C/c2ccc3cccc(O)c3n2)cc1
REMARK SMILES IDX 4 1 3 2 2 3 1 4 63 5 64 6 81 7 65 8 80 9 66 10 67 11 68 12
REMARK SMILES IDX 69 13 70 14 79 15 71 16 78 17 72 18 76 19 73 20 75 21 74 22
REMARK SMILES IDX 77 23 5 25 6 26 7 27 8 28 9 29 10 30 62 31 11 32 61 33 12 34
REMARK SMILES IDX 13 35 14 36 55 37 15 38 60 39 54 40 56 41 16 42 59 43 53 44
REMARK SMILES IDX 52 45 17 47 43 48 26 49 42 50 27 51 30 52 41 53 57 54 28 55
REMARK SMILES IDX 29 56 40 58 58 59 31 60 18 61 19 62 24 63 20 64 21 65 23 66
REMARK SMILES IDX 25 67 22 68 44 69 45 70 50 71 46 72 47 73 49 74 51 75 48 76
REMARK SMILES IDX 32 77 33 78 38 79 34 80 35 81 37 82 39 83 36 84
REMARK H PARENT 77 24 56 46 30 57
REMARK Flexibility Score: inf
ROOT
ATOM      1  C   UNL A   1      43.359  21.364  25.854  1.00  0.00     0.275 C 
ENDROOT
BRANCH   1   2
ATOM      2  O   UNL A   1      41.968  21.643  25.614  1.00  0.00    -0.458 OA
BRANCH   2   3
ATOM      3  C   UNL A   1      40.967  21.829  26.504  1.00  0.00     0.338 C 
ATOM      4  O   UNL A   1      41.216  21.689  27.702  1.00  0.00    -0.246 OA
BRANCH   3   5
ATOM      5  C   UNL A   1      39.531  22.034  26.117  1.00  0.00     0.060 A 
ATOM      6  C   UNL A   1      38.772  23.198  26.264  1.00  0.00     0.016 A 
ATOM      7  C   UNL A   1      38.897  20.928  25.527  1.00  0.00     0.016 A 
ATOM      8  C   UNL A   1      37.471  23.301  25.748  1.00  0.00     0.009 A 
ATOM      9  C   UNL A   1      37.588  21.017  25.049  1.00  0.00     0.009 A 
ATOM     10  C   UNL A   1      36.875  22.220  25.108  1.00  0.00    -0.026 A 
BRANCH  10  11
ATOM     11  C   UNL A   1      35.489  22.214  24.634  1.00  0.00     0.010 C 
ATOM     12  C   UNL A   1      34.431  22.879  25.145  1.00  0.00     0.029 C 
BRANCH  12  13
ATOM     13  C   UNL A   1      33.181  22.080  25.083  1.00  0.00     0.064 A 
ATOM     14  C   UNL A   1      33.113  21.194  26.158  1.00  0.00     0.029 A 
ATOM     15  N   UNL A   1      32.730  21.774  23.842  1.00  0.00    -0.245 NA
ATOM     16  C   UNL A   1      32.980  19.848  25.859  1.00  0.00     0.013 A 
ATOM     17  C   UNL A   1      32.521  20.465  23.579  1.00  0.00     0.113 A 
ATOM     18  C   UNL A   1      32.767  19.459  24.535  1.00  0.00     0.004 A 
ATOM     19  C   UNL A   1      32.132  20.056  22.308  1.00  0.00     0.141 A 
ATOM     20  C   UNL A   1      32.834  18.112  24.146  1.00  0.00     0.010 A 
ATOM     21  C   UNL A   1      32.126  18.718  21.929  1.00  0.00     0.048 A 
ATOM     22  C   UNL A   1      32.543  17.747  22.835  1.00  0.00     0.005 A 
BRANCH  19  23
ATOM     23  O   UNL A   1      31.759  20.992  21.374  1.00  0.00    -0.506 OA
ATOM     24  H   UNL A   1      31.509  21.852  21.648  1.00  0.00     0.293 HD
ENDBRANCH  19  23
ENDBRANCH  12  13
ENDBRANCH  10  11
ENDBRANCH   3   5
ENDBRANCH   2   3
ENDBRANCH   1   2
BRANCH   1  25
ATOM     25  C   UNL A   1      44.302  22.183  24.966  1.00  0.00     0.275 C 
BRANCH  25  26
ATOM     26  O   UNL A   1      43.729  23.439  24.565  1.00  0.00    -0.458 OA
BRANCH  26  27
ATOM     27  C   UNL A   1      44.420  24.538  24.977  1.00  0.00     0.338 C 
ATOM     28  O   UNL A   1      45.506  24.895  24.572  1.00  0.00    -0.246 OA
BRANCH  27  29
ATOM     29  C   UNL A   1      43.612  25.344  25.932  1.00  0.00     0.060 A 
ATOM     30  C   UNL A   1      44.145  26.570  26.349  1.00  0.00     0.016 A 
ATOM     31  C   UNL A   1      42.372  24.928  26.427  1.00  0.00     0.016 A 
ATOM     32  C   UNL A   1      43.471  27.350  27.294  1.00  0.00     0.010 A 
ATOM     33  C   UNL A   1      41.684  25.725  27.355  1.00  0.00     0.010 A 
ATOM     34  C   UNL A   1      42.250  26.922  27.829  1.00  0.00    -0.014 A 
BRANCH  34  35
ATOM     35  C   UNL A   1      41.670  27.645  28.996  1.00  0.00     0.031 A 
ATOM     36  C   UNL A   1      42.351  27.535  30.336  1.00  0.00     0.074 A 
ATOM     37  C   UNL A   1      40.599  28.453  28.876  1.00  0.00     0.049 A 
ATOM     38  N   UNL A   1      42.098  28.174  31.451  1.00  0.00    -0.248 NA
ATOM     39  C   UNL A   1      43.470  26.584  30.430  1.00  0.00     0.031 C 
ATOM     40  C   UNL A   1      39.842  28.679  27.649  1.00  0.00     0.029 A 
ATOM     41  N   UNL A   1      39.967  29.245  29.806  1.00  0.00    -0.354 N 
ATOM     42  C   UNL A   1      43.034  27.716  32.369  1.00  0.00     0.074 A 
ATOM     43  C   UNL A   1      43.819  26.701  31.702  1.00  0.00     0.031 C 
ATOM     44  C   UNL A   1      38.845  29.548  27.897  1.00  0.00     0.029 A 
ATOM     45  C   UNL A   1      38.903  29.952  29.301  1.00  0.00     0.049 A 
ATOM     46  H   UNL A   1      40.252  29.301  30.747  1.00  0.00     0.167 HD
ATOM     47  C   UNL A   1      43.248  28.121  33.643  1.00  0.00     0.037 A 
ATOM     48  C   UNL A   1      38.079  30.838  29.895  1.00  0.00     0.037 A 
ATOM     49  C   UNL A   1      42.482  29.130  34.323  1.00  0.00     0.049 A 
ATOM     50  C   UNL A   1      38.285  31.209  31.339  1.00  0.00     0.074 A 
ATOM     51  C   UNL A   1      42.665  29.634  35.600  1.00  0.00     0.029 A 
ATOM     52  N   UNL A   1      41.381  29.779  33.791  1.00  0.00    -0.354 N 
ATOM     53  N   UNL A   1      39.228  30.833  32.165  1.00  0.00    -0.248 NA
ATOM     54  C   UNL A   1      37.315  32.149  31.924  1.00  0.00     0.031 C 
ATOM     55  C   UNL A   1      41.643  30.555  35.859  1.00  0.00     0.029 A 
ATOM     56  C   UNL A   1      40.856  30.659  34.724  1.00  0.00     0.049 A 
ATOM     57  H   UNL A   1      41.024  29.637  32.884  1.00  0.00     0.167 HD
ATOM     58  C   UNL A   1      38.995  31.525  33.348  1.00  0.00     0.074 A 
ATOM     59  C   UNL A   1      37.822  32.343  33.133  1.00  0.00     0.031 C 
ATOM     60  C   UNL A   1      39.701  31.491  34.504  1.00  0.00     0.037 A 
BRANCH  47  61
ATOM     61  C   UNL A   1      44.368  27.459  34.388  1.00  0.00     0.057 A 
ATOM     62  C   UNL A   1      44.168  26.289  35.131  1.00  0.00     0.134 A 
ATOM     63  C   UNL A   1      45.664  27.987  34.346  1.00  0.00     0.134 A 
ATOM     64  F   UNL A   1      42.944  25.742  35.222  1.00  0.00    -0.206 F 
ATOM     65  C   UNL A   1      45.212  25.679  35.828  1.00  0.00     0.040 A 
ATOM     66  C   UNL A   1      46.721  27.372  35.017  1.00  0.00     0.040 A 
ATOM     67  F   UNL A   1      45.923  29.104  33.649  1.00  0.00    -0.206 F 
ATOM     68  C   UNL A   1      46.495  26.219  35.767  1.00  0.00     0.006 A 
ENDBRANCH  47  61
BRANCH  48  69
ATOM     69  C   UNL A   1      36.970  31.463  29.132  1.00  0.00     0.057 A 
ATOM     70  C   UNL A   1      37.039  32.782  28.674  1.00  0.00     0.134 A 
ATOM     71  C   UNL A   1      35.777  30.768  28.913  1.00  0.00     0.134 A 
ATOM     72  F   UNL A   1      38.141  33.513  28.889  1.00  0.00    -0.206 F 
ATOM     73  C   UNL A   1      35.954  33.391  28.040  1.00  0.00     0.040 A 
ATOM     74  C   UNL A   1      34.692  31.354  28.263  1.00  0.00     0.040 A 
ATOM     75  F   UNL A   1      35.653  29.511  29.353  1.00  0.00    -0.206 F 
ATOM     76  C   UNL A   1      34.777  32.675  27.830  1.00  0.00     0.006 A 
ENDBRANCH  48  69
BRANCH  60  77
ATOM     77  C   UNL A   1      39.272  32.413  35.608  1.00  0.00     0.057 A 
ATOM     78  C   UNL A   1      38.372  32.015  36.605  1.00  0.00     0.134 A 
ATOM     79  C   UNL A   1      39.792  33.711  35.690  1.00  0.00     0.134 A 
ATOM     80  F   UNL A   1      37.825  30.791  36.579  1.00  0.00    -0.206 F 
ATOM     81  C   UNL A   1      37.985  32.885  37.627  1.00  0.00     0.040 A 
ATOM     82  C   UNL A   1      39.435  34.580  36.722  1.00  0.00     0.040 A 
ATOM     83  F   UNL A   1      40.665  34.155  34.772  1.00  0.00    -0.206 F 
ATOM     84  C   UNL A   1      38.523  34.170  37.692  1.00  0.00     0.006 A 
ENDBRANCH  60  77
ENDBRANCH  34  35
ENDBRANCH  27  29
ENDBRANCH  26  27
ENDBRANCH  25  26
ENDBRANCH   1  25
TORSDOF 14
ENDMDL
MODEL 3
REMARK VINA RESULT:     -12.1      1.176      6.232
REMARK SMILES O=C(OCCOC(=O)c1ccc(-c2c3nc(c(-c4c(F)cccc4F)c4ccc([nH]4)c(-c4c(F)cccc4F)c4nc(c(-c5c(F)cccc5F)c5ccc2[nH]5)C=C4)C=C3)cc1)c1ccc(/C=C/c2ccc3cccc(O)c3n2)cc1
REMARK SMILES IDX 4 1 3 2 2 3 1 4 63 5 64 6 81 7 65 8 80 9 66 10 67 11 68 12
REMARK SMILES IDX 69 13 70 14 79 15 71 16 78 17 72 18 76 19 73 20 75 21 74 22
REMARK SMILES IDX 77 23 5 25 6 26 7 27 8 28 9 29 10 30 62 31 11 32 61 33 12 34
REMARK SMILES IDX 13 35 14 36 55 37 15 38 60 39 54 40 56 41 16 42 59 43 53 44
REMARK SMILES IDX 52 45 17 47 43 48 26 49 42 50 27 51 30 52 41 53 57 54 28 55
REMARK SMILES IDX 29 56 40 58 58 59 31 60 18 61 19 62 24 63 20 64 21 65 23 66
REMARK SMILES IDX 25 67 22 68 44 69 45 70 50 71 46 72 47 73 49 74 51 75 48 76
REMARK SMILES IDX 32 77 33 78 38 79 34 80 35 81 37 82 39 83 36 84
REMARK H PARENT 77 24 56 46 30 57
REMARK Flexibility Score: inf
ROOT
ATOM      1  C   UNL A   1      42.320  21.124  26.142  1.00  0.00     0.275 C 
ENDROOT
BRANCH   1   2
ATOM      2  O   UNL A   1      40.983  21.394  25.685  1.00  0.00    -0.458 OA
BRANCH   2   3
ATOM      3  C   UNL A   1      39.906  21.812  26.389  1.00  0.00     0.338 C 
ATOM      4  O   UNL A   1      40.004  21.891  27.614  1.00  0.00    -0.246 OA
BRANCH   3   5
ATOM      5  C   UNL A   1      38.547  22.030  25.788  1.00  0.00     0.060 A 
ATOM      6  C   UNL A   1      37.777  21.104  25.079  1.00  0.00     0.016 A 
ATOM      7  C   UNL A   1      37.995  23.305  25.983  1.00  0.00     0.016 A 
ATOM      8  C   UNL A   1      36.465  21.393  24.674  1.00  0.00     0.009 A 
ATOM      9  C   UNL A   1      36.703  23.607  25.544  1.00  0.00     0.009 A 
ATOM     10  C   UNL A   1      35.903  22.638  24.927  1.00  0.00    -0.026 A 
BRANCH  10  11
ATOM     11  C   UNL A   1      34.582  23.051  24.449  1.00  0.00     0.010 C 
ATOM     12  C   UNL A   1      34.246  23.516  23.226  1.00  0.00     0.029 C 
BRANCH  12  13
ATOM     13  C   UNL A   1      33.220  24.587  23.293  1.00  0.00     0.064 A 
ATOM     14  C   UNL A   1      33.561  25.645  22.452  1.00  0.00     0.029 A 
ATOM     15  N   UNL A   1      32.619  24.762  24.495  1.00  0.00    -0.245 NA
ATOM     16  C   UNL A   1      33.678  26.899  23.029  1.00  0.00     0.013 A 
ATOM     17  C   UNL A   1      32.662  26.007  25.019  1.00  0.00     0.113 A 
ATOM     18  C   UNL A   1      33.308  27.075  24.364  1.00  0.00     0.004 A 
ATOM     19  C   UNL A   1      32.138  26.257  26.282  1.00  0.00     0.141 A 
ATOM     20  C   UNL A   1      33.599  28.260  25.057  1.00  0.00     0.010 A 
ATOM     21  C   UNL A   1      32.359  27.455  26.953  1.00  0.00     0.048 A 
ATOM     22  C   UNL A   1      33.150  28.436  26.362  1.00  0.00     0.005 A 
BRANCH  19  23
ATOM     23  O   UNL A   1      31.391  25.293  26.915  1.00  0.00    -0.506 OA
ATOM     24  H   UNL A   1      31.520  25.125  27.828  1.00  0.00     0.293 HD
ENDBRANCH  19  23
ENDBRANCH  12  13
ENDBRANCH  10  11
ENDBRANCH   3   5
ENDBRANCH   2   3
ENDBRANCH   1   2
BRANCH   1  25
ATOM     25  C   UNL A   1      43.382  21.983  25.449  1.00  0.00     0.275 C 
BRANCH  25  26
ATOM     26  O   UNL A   1      42.857  23.239  24.983  1.00  0.00    -0.458 OA
BRANCH  26  27
ATOM     27  C   UNL A   1      43.655  24.315  25.224  1.00  0.00     0.338 C 
ATOM     28  O   UNL A   1      44.680  24.591  24.639  1.00  0.00    -0.246 OA
BRANCH  27  29
ATOM     29  C   UNL A   1      43.046  25.209  26.246  1.00  0.00     0.060 A 
ATOM     30  C   UNL A   1      43.474  26.542  26.271  1.00  0.00     0.016 A 
ATOM     31  C   UNL A   1      42.090  24.774  27.170  1.00  0.00     0.016 A 
ATOM     32  C   UNL A   1      42.992  27.421  27.245  1.00  0.00     0.010 A 
ATOM     33  C   UNL A   1      41.588  25.666  28.130  1.00  0.00     0.010 A 
ATOM     34  C   UNL A   1      42.068  26.986  28.203  1.00  0.00    -0.014 A 
BRANCH  34  35
ATOM     35  C   UNL A   1      41.749  27.865  29.364  1.00  0.00     0.031 A 
ATOM     36  C   UNL A   1      40.550  28.775  29.282  1.00  0.00     0.074 A 
ATOM     37  C   UNL A   1      42.452  27.817  30.511  1.00  0.00     0.049 A 
ATOM     38  N   UNL A   1      40.014  29.526  30.212  1.00  0.00    -0.248 NA
ATOM     39  C   UNL A   1      39.861  28.843  27.984  1.00  0.00     0.031 C 
ATOM     40  C   UNL A   1      43.623  26.979  30.753  1.00  0.00     0.029 A 
ATOM     41  N   UNL A   1      42.274  28.488  31.698  1.00  0.00    -0.354 N 
ATOM     42  C   UNL A   1      38.919  30.138  29.617  1.00  0.00     0.074 A 
ATOM     43  C   UNL A   1      38.904  29.724  28.231  1.00  0.00     0.031 C 
ATOM     44  C   UNL A   1      44.063  27.185  32.007  1.00  0.00     0.029 A 
ATOM     45  C   UNL A   1      43.195  28.161  32.665  1.00  0.00     0.049 A 
ATOM     46  H   UNL A   1      41.552  29.142  31.843  1.00  0.00     0.167 HD
ATOM     47  C   UNL A   1      37.989  30.949  30.173  1.00  0.00     0.037 A 
ATOM     48  C   UNL A   1      43.315  28.584  33.938  1.00  0.00     0.037 A 
ATOM     49  C   UNL A   1      37.983  31.370  31.547  1.00  0.00     0.049 A 
ATOM     50  C   UNL A   1      42.315  29.552  34.510  1.00  0.00     0.074 A 
ATOM     51  C   UNL A   1      37.048  32.153  32.203  1.00  0.00     0.029 A 
ATOM     52  N   UNL A   1      38.964  31.059  32.474  1.00  0.00    -0.354 N 
ATOM     53  N   UNL A   1      41.238  30.052  33.960  1.00  0.00    -0.248 NA
ATOM     54  C   UNL A   1      42.544  29.999  35.893  1.00  0.00     0.031 C 
ATOM     55  C   UNL A   1      37.489  32.355  33.517  1.00  0.00     0.029 A 
ATOM     56  C   UNL A   1      38.672  31.657  33.689  1.00  0.00     0.049 A 
ATOM     57  H   UNL A   1      39.752  30.495  32.295  1.00  0.00     0.167 HD
ATOM     58  C   UNL A   1      40.635  30.830  34.942  1.00  0.00     0.074 A 
ATOM     59  C   UNL A   1      41.467  30.737  36.122  1.00  0.00     0.031 C 
ATOM     60  C   UNL A   1      39.487  31.546  34.871  1.00  0.00     0.037 A 
BRANCH  47  61
ATOM     61  C   UNL A   1      36.889  31.436  29.278  1.00  0.00     0.057 A 
ATOM     62  C   UNL A   1      35.818  30.610  28.911  1.00  0.00     0.134 A 
ATOM     63  C   UNL A   1      36.888  32.750  28.796  1.00  0.00     0.134 A 
ATOM     64  F   UNL A   1      35.769  29.335  29.329  1.00  0.00    -0.206 F 
ATOM     65  C   UNL A   1      34.799  31.066  28.074  1.00  0.00     0.040 A 
ATOM     66  C   UNL A   1      35.862  33.226  27.980  1.00  0.00     0.040 A 
ATOM     67  F   UNL A   1      37.883  33.593  29.114  1.00  0.00    -0.206 F 
ATOM     68  C   UNL A   1      34.817  32.380  27.611  1.00  0.00     0.006 A 
ENDBRANCH  47  61
BRANCH  48  69
ATOM     69  C   UNL A   1      44.426  28.093  34.792  1.00  0.00     0.057 A 
ATOM     70  C   UNL A   1      45.662  28.744  34.843  1.00  0.00     0.134 A 
ATOM     71  C   UNL A   1      44.293  26.907  35.519  1.00  0.00     0.134 A 
ATOM     72  F   UNL A   1      45.864  29.864  34.136  1.00  0.00    -0.206 F 
ATOM     73  C   UNL A   1      46.731  28.222  35.575  1.00  0.00     0.040 A 
ATOM     74  C   UNL A   1      45.344  26.383  36.271  1.00  0.00     0.040 A 
ATOM     75  F   UNL A   1      43.138  26.234  35.482  1.00  0.00    -0.206 F 
ATOM     76  C   UNL A   1      46.572  27.039  36.295  1.00  0.00     0.006 A 
ENDBRANCH  48  69
BRANCH  60  77
ATOM     77  C   UNL A   1      39.020  32.233  36.121  1.00  0.00     0.057 A 
ATOM     78  C   UNL A   1      39.381  33.551  36.428  1.00  0.00     0.134 A 
ATOM     79  C   UNL A   1      38.168  31.574  37.016  1.00  0.00     0.134 A 
ATOM     80  F   UNL A   1      40.205  34.237  35.622  1.00  0.00    -0.206 F 
ATOM     81  C   UNL A   1      38.934  34.178  37.594  1.00  0.00     0.040 A 
ATOM     82  C   UNL A   1      37.692  32.198  38.170  1.00  0.00     0.040 A 
ATOM     83  F   UNL A   1      37.775  30.313  36.780  1.00  0.00    -0.206 F 
ATOM     84  C   UNL A   1      38.081  33.502  38.466  1.00  0.00     0.006 A 
ENDBRANCH  60  77
ENDBRANCH  34  35
ENDBRANCH  27  29
ENDBRANCH  26  27
ENDBRANCH  25  26
ENDBRANCH   1  25
TORSDOF 14
ENDMDL
