MODEL 1
REMARK VINA RESULT:     -11.4      0.000      0.000
REMARK SMILES O=C(OCCOC(=O)c1sccc1S(=O)(=O)NC[C@H](O)c1ccccc1)c1ccc(-c2c3nc(c(-c4c(F)cccc4F)c4ccc([nH]4)c(-c4c(F)cccc4F)c4nc(c(-c5c(F)cccc5F)c5ccc2[nH]5)C=C4)C=C3)cc1
REMARK SMILES IDX 6 1 5 2 4 3 3 4 2 5 1 6 27 7 28 8 80 9 29 10 79 11 30 12
REMARK SMILES IDX 31 13 32 14 73 15 33 16 78 17 72 18 74 19 34 20 77 21 71 22
REMARK SMILES IDX 70 23 35 25 61 26 44 27 60 28 45 29 48 30 59 31 75 32 46 33
REMARK SMILES IDX 47 34 58 36 76 37 49 38 36 39 37 40 42 41 38 42 39 43 41 44
REMARK SMILES IDX 43 45 40 46 62 47 63 48 68 49 64 50 65 51 67 52 69 53 66 54
REMARK SMILES IDX 50 55 51 56 56 57 52 58 53 59 55 60 57 61 54 62 7 63 8 64
REMARK SMILES IDX 9 65 10 66 13 67 11 68 12 69 14 70 15 71 16 72 17 73 18 75
REMARK SMILES IDX 19 76 21 77 22 78 26 79 23 80 25 81 24 82 20 83
REMARK H PARENT 74 24 48 35 17 74 20 84
REMARK Flexibility Score: inf
ROOT
ATOM      1  O   UNL A   1      34.771  23.186  24.620  1.00  0.00    -0.458 OA
ENDROOT
BRANCH   1   2
ATOM      2  C   UNL A   1      36.152  23.187  24.242  1.00  0.00     0.275 C 
BRANCH   2   3
ATOM      3  C   UNL A   1      36.739  21.784  24.235  1.00  0.00     0.275 C 
BRANCH   3   4
ATOM      4  O   UNL A   1      37.378  21.415  25.473  1.00  0.00    -0.458 OA
BRANCH   4   5
ATOM      5  C   UNL A   1      38.649  21.572  25.907  1.00  0.00     0.338 C 
ATOM      6  O   UNL A   1      39.415  20.613  25.820  1.00  0.00    -0.246 OA
BRANCH   5   7
ATOM      7  C   UNL A   1      39.185  22.812  26.557  1.00  0.00     0.060 A 
ATOM      8  C   UNL A   1      38.713  24.109  26.354  1.00  0.00     0.016 A 
ATOM      9  C   UNL A   1      40.308  22.647  27.396  1.00  0.00     0.016 A 
ATOM     10  C   UNL A   1      39.321  25.200  26.984  1.00  0.00     0.010 A 
ATOM     11  C   UNL A   1      40.937  23.738  28.011  1.00  0.00     0.010 A 
ATOM     12  C   UNL A   1      40.453  25.028  27.789  1.00  0.00    -0.014 A 
BRANCH  12  13
ATOM     13  C   UNL A   1      41.210  26.235  28.201  1.00  0.00     0.031 A 
ATOM     14  C   UNL A   1      42.594  26.406  27.665  1.00  0.00     0.074 A 
ATOM     15  C   UNL A   1      40.637  27.208  28.931  1.00  0.00     0.049 A 
ATOM     16  N   UNL A   1      43.387  27.439  27.745  1.00  0.00    -0.248 NA
ATOM     17  C   UNL A   1      43.158  25.255  26.941  1.00  0.00     0.031 C 
ATOM     18  C   UNL A   1      39.304  27.121  29.495  1.00  0.00     0.029 A 
ATOM     19  N   UNL A   1      41.059  28.463  29.284  1.00  0.00    -0.354 N 
ATOM     20  C   UNL A   1      44.545  27.064  27.082  1.00  0.00     0.074 A 
ATOM     21  C   UNL A   1      44.357  25.709  26.614  1.00  0.00     0.031 C 
ATOM     22  C   UNL A   1      38.959  28.296  30.040  1.00  0.00     0.029 A 
ATOM     23  C   UNL A   1      40.086  29.211  29.914  1.00  0.00     0.049 A 
ATOM     24  H   UNL A   1      41.968  28.798  29.106  1.00  0.00     0.167 HD
ATOM     25  C   UNL A   1      45.671  27.790  26.897  1.00  0.00     0.037 A 
ATOM     26  C   UNL A   1      40.106  30.493  30.325  1.00  0.00     0.037 A 
ATOM     27  C   UNL A   1      45.860  29.112  27.427  1.00  0.00     0.049 A 
ATOM     28  C   UNL A   1      41.372  31.274  30.110  1.00  0.00     0.074 A 
ATOM     29  C   UNL A   1      46.993  29.903  27.404  1.00  0.00     0.029 A 
ATOM     30  N   UNL A   1      44.877  29.835  28.092  1.00  0.00    -0.354 N 
ATOM     31  N   UNL A   1      42.473  30.905  29.496  1.00  0.00    -0.248 NA
ATOM     32  C   UNL A   1      41.416  32.635  30.660  1.00  0.00     0.031 C 
ATOM     33  C   UNL A   1      46.704  31.094  28.082  1.00  0.00     0.029 A 
ATOM     34  C   UNL A   1      45.378  31.061  28.490  1.00  0.00     0.049 A 
ATOM     35  H   UNL A   1      43.959  29.520  28.257  1.00  0.00     0.167 HD
ATOM     36  C   UNL A   1      43.343  31.979  29.596  1.00  0.00     0.074 A 
ATOM     37  C   UNL A   1      42.625  33.033  30.288  1.00  0.00     0.031 C 
ATOM     38  C   UNL A   1      44.630  32.080  29.182  1.00  0.00     0.037 A 
BRANCH  25  39
ATOM     39  C   UNL A   1      46.779  27.111  26.154  1.00  0.00     0.057 A 
ATOM     40  C   UNL A   1      47.741  26.337  26.818  1.00  0.00     0.134 A 
ATOM     41  C   UNL A   1      46.938  27.304  24.778  1.00  0.00     0.134 A 
ATOM     42  F   UNL A   1      47.665  26.147  28.143  1.00  0.00    -0.206 F 
ATOM     43  C   UNL A   1      48.840  25.805  26.141  1.00  0.00     0.040 A 
ATOM     44  C   UNL A   1      48.021  26.761  24.087  1.00  0.00     0.040 A 
ATOM     45  F   UNL A   1      46.060  28.049  24.089  1.00  0.00    -0.206 F 
ATOM     46  C   UNL A   1      48.982  26.018  24.771  1.00  0.00     0.006 A 
ENDBRANCH  25  39
BRANCH  26  47
ATOM     47  C   UNL A   1      38.917  31.112  30.973  1.00  0.00     0.057 A 
ATOM     48  C   UNL A   1      37.962  31.811  30.224  1.00  0.00     0.134 A 
ATOM     49  C   UNL A   1      38.712  31.041  32.357  1.00  0.00     0.134 A 
ATOM     50  F   UNL A   1      38.105  31.937  28.896  1.00  0.00    -0.206 F 
ATOM     51  C   UNL A   1      36.863  32.431  30.825  1.00  0.00     0.040 A 
ATOM     52  C   UNL A   1      37.603  31.631  32.969  1.00  0.00     0.040 A 
ATOM     53  F   UNL A   1      39.584  30.389  33.140  1.00  0.00    -0.206 F 
ATOM     54  C   UNL A   1      36.678  32.337  32.202  1.00  0.00     0.006 A 
ENDBRANCH  26  47
BRANCH  38  55
ATOM     55  C   UNL A   1      45.328  33.370  29.481  1.00  0.00     0.057 A 
ATOM     56  C   UNL A   1      45.304  34.439  28.576  1.00  0.00     0.134 A 
ATOM     57  C   UNL A   1      46.000  33.555  30.693  1.00  0.00     0.134 A 
ATOM     58  F   UNL A   1      44.686  34.314  27.392  1.00  0.00    -0.206 F 
ATOM     59  C   UNL A   1      45.945  35.644  28.860  1.00  0.00     0.040 A 
ATOM     60  C   UNL A   1      46.626  34.763  30.998  1.00  0.00     0.040 A 
ATOM     61  F   UNL A   1      46.053  32.567  31.601  1.00  0.00    -0.206 F 
ATOM     62  C   UNL A   1      46.603  35.810  30.077  1.00  0.00     0.006 A 
ENDBRANCH  38  55
ENDBRANCH  12  13
ENDBRANCH   5   7
ENDBRANCH   4   5
ENDBRANCH   3   4
ENDBRANCH   2   3
ENDBRANCH   1   2
BRANCH   1  63
ATOM     63  C   UNL A   1      34.498  23.667  25.864  1.00  0.00     0.349 C 
ATOM     64  O   UNL A   1      35.101  23.350  26.879  1.00  0.00    -0.245 OA
BRANCH  63  65
ATOM     65  C   UNL A   1      33.388  24.588  25.810  1.00  0.00     0.132 A 
ATOM     66  S   UNL A   1      33.693  26.160  25.180  1.00  0.00    -0.136 S 
ATOM     67  C   UNL A   1      32.074  24.460  26.217  1.00  0.00     0.107 A 
ATOM     68  C   UNL A   1      32.068  26.638  25.373  1.00  0.00     0.067 A 
ATOM     69  C   UNL A   1      31.320  25.659  25.982  1.00  0.00     0.034 A 
BRANCH  67  70
ATOM     70  S   UNL A   1      31.361  23.066  26.956  1.00  0.00     0.242 S 
ATOM     71  O   UNL A   1      32.359  22.622  27.899  1.00  0.00    -0.207 OA
ATOM     72  O   UNL A   1      30.054  23.503  27.384  1.00  0.00    -0.207 OA
BRANCH  70  73
ATOM     73  N   UNL A   1      31.058  21.837  25.884  1.00  0.00    -0.208 NA
ATOM     74  H   UNL A   1      30.348  22.193  25.244  1.00  0.00     0.141 HD
BRANCH  73  75
ATOM     75  C   UNL A   1      32.090  21.233  25.044  1.00  0.00     0.135 C 
BRANCH  75  76
ATOM     76  C   UNL A   1      32.838  20.023  25.629  1.00  0.00     0.159 C 
BRANCH  76  77
ATOM     77  C   UNL A   1      33.222  18.901  24.679  1.00  0.00    -0.018 A 
ATOM     78  C   UNL A   1      34.359  18.093  24.828  1.00  0.00     0.006 A 
ATOM     79  C   UNL A   1      32.430  18.698  23.534  1.00  0.00     0.006 A 
ATOM     80  C   UNL A   1      34.690  17.125  23.874  1.00  0.00     0.000 A 
ATOM     81  C   UNL A   1      32.749  17.722  22.589  1.00  0.00     0.000 A 
ATOM     82  C   UNL A   1      33.884  16.938  22.756  1.00  0.00     0.000 A 
ENDBRANCH  76  77
BRANCH  76  83
ATOM     83  O   UNL A   1      34.045  20.546  26.214  1.00  0.00    -0.387 OA
ATOM     84  H   UNL A   1      33.861  20.851  27.116  1.00  0.00     0.211 HD
ENDBRANCH  76  83
ENDBRANCH  75  76
ENDBRANCH  73  75
ENDBRANCH  70  73
ENDBRANCH  67  70
ENDBRANCH  63  65
ENDBRANCH   1  63
TORSDOF 17
ENDMDL
MODEL 2
REMARK VINA RESULT:     -11.2      4.559      9.506
REMARK SMILES O=C(OCCOC(=O)c1sccc1S(=O)(=O)NC[C@H](O)c1ccccc1)c1ccc(-c2c3nc(c(-c4c(F)cccc4F)c4ccc([nH]4)c(-c4c(F)cccc4F)c4nc(c(-c5c(F)cccc5F)c5ccc2[nH]5)C=C4)C=C3)cc1
REMARK SMILES IDX 6 1 5 2 4 3 3 4 2 5 1 6 27 7 28 8 80 9 29 10 79 11 30 12
REMARK SMILES IDX 31 13 32 14 73 15 33 16 78 17 72 18 74 19 34 20 77 21 71 22
REMARK SMILES IDX 70 23 35 25 61 26 44 27 60 28 45 29 48 30 59 31 75 32 46 33
REMARK SMILES IDX 47 34 58 36 76 37 49 38 36 39 37 40 42 41 38 42 39 43 41 44
REMARK SMILES IDX 43 45 40 46 62 47 63 48 68 49 64 50 65 51 67 52 69 53 66 54
REMARK SMILES IDX 50 55 51 56 56 57 52 58 53 59 55 60 57 61 54 62 7 63 8 64
REMARK SMILES IDX 9 65 10 66 13 67 11 68 12 69 14 70 15 71 16 72 17 73 18 75
REMARK SMILES IDX 19 76 21 77 22 78 26 79 23 80 25 81 24 82 20 83
REMARK H PARENT 74 24 48 35 17 74 20 84
REMARK Flexibility Score: inf
ROOT
ATOM      1  O   UNL A   1      31.733  27.898  26.029  1.00  0.00    -0.458 OA
ENDROOT
BRANCH   1   2
ATOM      2  C   UNL A   1      31.781  29.026  26.909  1.00  0.00     0.275 C 
BRANCH   2   3
ATOM      3  C   UNL A   1      32.079  30.317  26.161  1.00  0.00     0.275 C 
BRANCH   3   4
ATOM      4  O   UNL A   1      32.079  31.488  26.999  1.00  0.00    -0.458 OA
BRANCH   4   5
ATOM      5  C   UNL A   1      33.092  32.240  27.488  1.00  0.00     0.338 C 
ATOM      6  O   UNL A   1      32.932  33.459  27.550  1.00  0.00    -0.246 OA
BRANCH   5   7
ATOM      7  C   UNL A   1      34.433  31.710  27.896  1.00  0.00     0.060 A 
ATOM      8  C   UNL A   1      34.709  30.397  28.280  1.00  0.00     0.016 A 
ATOM      9  C   UNL A   1      35.488  32.646  27.957  1.00  0.00     0.016 A 
ATOM     10  C   UNL A   1      35.995  30.023  28.685  1.00  0.00     0.010 A 
ATOM     11  C   UNL A   1      36.773  32.283  28.384  1.00  0.00     0.010 A 
ATOM     12  C   UNL A   1      37.025  30.967  28.770  1.00  0.00    -0.014 A 
BRANCH  12  13
ATOM     13  C   UNL A   1      38.278  30.575  29.461  1.00  0.00     0.031 A 
ATOM     14  C   UNL A   1      38.447  30.990  30.886  1.00  0.00     0.074 A 
ATOM     15  C   UNL A   1      39.181  29.770  28.875  1.00  0.00     0.049 A 
ATOM     16  N   UNL A   1      39.364  30.638  31.745  1.00  0.00    -0.248 NA
ATOM     17  C   UNL A   1      37.444  31.930  31.413  1.00  0.00     0.031 C 
ATOM     18  C   UNL A   1      39.099  29.327  27.497  1.00  0.00     0.029 A 
ATOM     19  N   UNL A   1      40.303  29.143  29.352  1.00  0.00    -0.354 N 
ATOM     20  C   UNL A   1      39.051  31.312  32.914  1.00  0.00     0.074 A 
ATOM     21  C   UNL A   1      37.867  32.101  32.655  1.00  0.00     0.031 C 
ATOM     22  C   UNL A   1      40.056  28.422  27.248  1.00  0.00     0.029 A 
ATOM     23  C   UNL A   1      40.866  28.267  28.448  1.00  0.00     0.049 A 
ATOM     24  H   UNL A   1      40.670  29.304  30.251  1.00  0.00     0.167 HD
ATOM     25  C   UNL A   1      39.709  31.282  34.095  1.00  0.00     0.037 A 
ATOM     26  C   UNL A   1      41.909  27.427  28.588  1.00  0.00     0.037 A 
ATOM     27  C   UNL A   1      40.922  30.541  34.310  1.00  0.00     0.049 A 
ATOM     28  C   UNL A   1      42.624  27.417  29.911  1.00  0.00     0.074 A 
ATOM     29  C   UNL A   1      41.741  30.521  35.422  1.00  0.00     0.029 A 
ATOM     30  N   UNL A   1      41.495  29.691  33.372  1.00  0.00    -0.354 N 
ATOM     31  N   UNL A   1      42.331  28.074  31.009  1.00  0.00    -0.248 NA
ATOM     32  C   UNL A   1      43.824  26.577  30.012  1.00  0.00     0.031 C 
ATOM     33  C   UNL A   1      42.826  29.679  35.146  1.00  0.00     0.029 A 
ATOM     34  C   UNL A   1      42.660  29.144  33.877  1.00  0.00     0.049 A 
ATOM     35  H   UNL A   1      41.125  29.506  32.478  1.00  0.00     0.167 HD
ATOM     36  C   UNL A   1      43.314  27.738  31.927  1.00  0.00     0.074 A 
ATOM     37  C   UNL A   1      44.184  26.780  31.272  1.00  0.00     0.031 C 
ATOM     38  C   UNL A   1      43.501  28.198  33.188  1.00  0.00     0.037 A 
BRANCH  25  39
ATOM     39  C   UNL A   1      39.147  32.138  35.186  1.00  0.00     0.057 A 
ATOM     40  C   UNL A   1      39.480  33.495  35.301  1.00  0.00     0.134 A 
ATOM     41  C   UNL A   1      38.336  31.583  36.181  1.00  0.00     0.134 A 
ATOM     42  F   UNL A   1      40.286  34.076  34.399  1.00  0.00    -0.206 F 
ATOM     43  C   UNL A   1      39.051  34.260  36.386  1.00  0.00     0.040 A 
ATOM     44  C   UNL A   1      37.884  32.343  37.260  1.00  0.00     0.040 A 
ATOM     45  F   UNL A   1      37.995  30.286  36.136  1.00  0.00    -0.206 F 
ATOM     46  C   UNL A   1      38.251  33.683  37.370  1.00  0.00     0.006 A 
ENDBRANCH  25  39
BRANCH  26  47
ATOM     47  C   UNL A   1      42.339  26.541  27.472  1.00  0.00     0.057 A 
ATOM     48  C   UNL A   1      43.195  27.003  26.464  1.00  0.00     0.134 A 
ATOM     49  C   UNL A   1      41.893  25.217  27.368  1.00  0.00     0.134 A 
ATOM     50  F   UNL A   1      43.646  28.267  26.488  1.00  0.00    -0.206 F 
ATOM     51  C   UNL A   1      43.573  26.195  25.389  1.00  0.00     0.040 A 
ATOM     52  C   UNL A   1      42.285  24.387  26.314  1.00  0.00     0.040 A 
ATOM     53  F   UNL A   1      41.071  24.704  28.295  1.00  0.00    -0.206 F 
ATOM     54  C   UNL A   1      43.122  24.879  25.316  1.00  0.00     0.006 A 
ENDBRANCH  26  47
BRANCH  38  55
ATOM     55  C   UNL A   1      44.696  27.671  33.921  1.00  0.00     0.057 A 
ATOM     56  C   UNL A   1      45.929  28.334  33.876  1.00  0.00     0.134 A 
ATOM     57  C   UNL A   1      44.604  26.512  34.699  1.00  0.00     0.134 A 
ATOM     58  F   UNL A   1      46.080  29.442  33.135  1.00  0.00    -0.206 F 
ATOM     59  C   UNL A   1      47.039  27.848  34.567  1.00  0.00     0.040 A 
ATOM     60  C   UNL A   1      45.700  26.029  35.412  1.00  0.00     0.040 A 
ATOM     61  F   UNL A   1      43.446  25.838  34.782  1.00  0.00    -0.206 F 
ATOM     62  C   UNL A   1      46.923  26.696  35.342  1.00  0.00     0.006 A 
ENDBRANCH  38  55
ENDBRANCH  12  13
ENDBRANCH   5   7
ENDBRANCH   4   5
ENDBRANCH   3   4
ENDBRANCH   2   3
ENDBRANCH   1   2
BRANCH   1  63
ATOM     63  C   UNL A   1      32.929  27.307  25.760  1.00  0.00     0.349 C 
ATOM     64  O   UNL A   1      33.977  27.566  26.336  1.00  0.00    -0.245 OA
BRANCH  63  65
ATOM     65  C   UNL A   1      32.783  26.348  24.692  1.00  0.00     0.132 A 
ATOM     66  S   UNL A   1      33.579  24.832  24.873  1.00  0.00    -0.136 S 
ATOM     67  C   UNL A   1      32.128  26.425  23.478  1.00  0.00     0.107 A 
ATOM     68  C   UNL A   1      32.986  24.254  23.383  1.00  0.00     0.067 A 
ATOM     69  C   UNL A   1      32.268  25.218  22.714  1.00  0.00     0.034 A 
BRANCH  67  70
ATOM     70  S   UNL A   1      31.251  27.790  22.872  1.00  0.00     0.242 S 
ATOM     71  O   UNL A   1      32.191  28.880  22.970  1.00  0.00    -0.207 OA
ATOM     72  O   UNL A   1      30.725  27.354  21.601  1.00  0.00    -0.207 OA
BRANCH  70  73
ATOM     73  N   UNL A   1      29.909  28.161  23.772  1.00  0.00    -0.208 NA
ATOM     74  H   UNL A   1      29.913  29.175  23.875  1.00  0.00     0.141 HD
BRANCH  73  75
ATOM     75  C   UNL A   1      28.550  27.803  23.371  1.00  0.00     0.135 C 
BRANCH  75  76
ATOM     76  C   UNL A   1      27.483  28.905  23.479  1.00  0.00     0.159 C 
BRANCH  76  77
ATOM     77  C   UNL A   1      27.752  30.223  22.773  1.00  0.00    -0.018 A 
ATOM     78  C   UNL A   1      27.998  30.348  21.397  1.00  0.00     0.006 A 
ATOM     79  C   UNL A   1      27.833  31.391  23.553  1.00  0.00     0.006 A 
ATOM     80  C   UNL A   1      28.311  31.586  20.826  1.00  0.00     0.000 A 
ATOM     81  C   UNL A   1      28.129  32.631  22.983  1.00  0.00     0.000 A 
ATOM     82  C   UNL A   1      28.374  32.727  21.619  1.00  0.00     0.000 A 
ENDBRANCH  76  77
BRANCH  76  83
ATOM     83  O   UNL A   1      26.275  28.343  22.932  1.00  0.00    -0.387 OA
ATOM     84  H   UNL A   1      26.501  27.705  22.238  1.00  0.00     0.211 HD
ENDBRANCH  76  83
ENDBRANCH  75  76
ENDBRANCH  73  75
ENDBRANCH  70  73
ENDBRANCH  67  70
ENDBRANCH  63  65
ENDBRANCH   1  63
TORSDOF 17
ENDMDL
MODEL 3
REMARK VINA RESULT:     -11.1      2.244      4.572
REMARK SMILES O=C(OCCOC(=O)c1sccc1S(=O)(=O)NC[C@H](O)c1ccccc1)c1ccc(-c2c3nc(c(-c4c(F)cccc4F)c4ccc([nH]4)c(-c4c(F)cccc4F)c4nc(c(-c5c(F)cccc5F)c5ccc2[nH]5)C=C4)C=C3)cc1
REMARK SMILES IDX 6 1 5 2 4 3 3 4 2 5 1 6 27 7 28 8 80 9 29 10 79 11 30 12
REMARK SMILES IDX 31 13 32 14 73 15 33 16 78 17 72 18 74 19 34 20 77 21 71 22
REMARK SMILES IDX 70 23 35 25 61 26 44 27 60 28 45 29 48 30 59 31 75 32 46 33
REMARK SMILES IDX 47 34 58 36 76 37 49 38 36 39 37 40 42 41 38 42 39 43 41 44
REMARK SMILES IDX 43 45 40 46 62 47 63 48 68 49 64 50 65 51 67 52 69 53 66 54
REMARK SMILES IDX 50 55 51 56 56 57 52 58 53 59 55 60 57 61 54 62 7 63 8 64
REMARK SMILES IDX 9 65 10 66 13 67 11 68 12 69 14 70 15 71 16 72 17 73 18 75
REMARK SMILES IDX 19 76 21 77 22 78 26 79 23 80 25 81 24 82 20 83
REMARK H PARENT 74 24 48 35 17 74 20 84
REMARK Flexibility Score: inf
ROOT
ATOM      1  O   UNL A   1      36.428  19.939  25.212  1.00  0.00    -0.458 OA
ENDROOT
BRANCH   1   2
ATOM      2  C   UNL A   1      37.745  20.004  24.652  1.00  0.00     0.275 C 
BRANCH   2   3
ATOM      3  C   UNL A   1      38.809  20.183  25.725  1.00  0.00     0.275 C 
BRANCH   3   4
ATOM      4  O   UNL A   1      39.898  19.246  25.627  1.00  0.00    -0.458 OA
BRANCH   4   5
ATOM      5  C   UNL A   1      41.208  19.359  25.943  1.00  0.00     0.338 C 
ATOM      6  O   UNL A   1      41.921  18.362  25.828  1.00  0.00    -0.246 OA
BRANCH   5   7
ATOM      7  C   UNL A   1      41.853  20.594  26.496  1.00  0.00     0.060 A 
ATOM      8  C   UNL A   1      42.012  20.895  27.849  1.00  0.00     0.016 A 
ATOM      9  C   UNL A   1      42.272  21.560  25.556  1.00  0.00     0.016 A 
ATOM     10  C   UNL A   1      42.591  22.103  28.252  1.00  0.00     0.010 A 
ATOM     11  C   UNL A   1      42.832  22.782  25.953  1.00  0.00     0.010 A 
ATOM     12  C   UNL A   1      42.975  23.066  27.311  1.00  0.00    -0.014 A 
BRANCH  12  13
ATOM     13  C   UNL A   1      43.323  24.422  27.800  1.00  0.00     0.031 A 
ATOM     14  C   UNL A   1      44.751  24.853  27.702  1.00  0.00     0.074 A 
ATOM     15  C   UNL A   1      42.377  25.288  28.203  1.00  0.00     0.049 A 
ATOM     16  N   UNL A   1      45.272  26.031  27.908  1.00  0.00    -0.248 NA
ATOM     17  C   UNL A   1      45.720  23.813  27.322  1.00  0.00     0.031 C 
ATOM     18  C   UNL A   1      40.972  24.951  28.334  1.00  0.00     0.029 A 
ATOM     19  N   UNL A   1      42.424  26.619  28.528  1.00  0.00    -0.354 N 
ATOM     20  C   UNL A   1      46.630  25.876  27.682  1.00  0.00     0.074 A 
ATOM     21  C   UNL A   1      46.856  24.491  27.333  1.00  0.00     0.031 C 
ATOM     22  C   UNL A   1      40.260  26.052  28.611  1.00  0.00     0.029 A 
ATOM     23  C   UNL A   1      41.180  27.175  28.738  1.00  0.00     0.049 A 
ATOM     24  H   UNL A   1      43.264  27.127  28.603  1.00  0.00     0.167 HD
ATOM     25  C   UNL A   1      47.603  26.811  27.774  1.00  0.00     0.037 A 
ATOM     26  C   UNL A   1      40.831  28.451  28.990  1.00  0.00     0.037 A 
ATOM     27  C   UNL A   1      47.364  28.167  28.186  1.00  0.00     0.049 A 
ATOM     28  C   UNL A   1      41.933  29.469  29.090  1.00  0.00     0.074 A 
ATOM     29  C   UNL A   1      48.279  29.175  28.427  1.00  0.00     0.029 A 
ATOM     30  N   UNL A   1      46.104  28.699  28.430  1.00  0.00    -0.354 N 
ATOM     31  N   UNL A   1      43.221  29.309  28.892  1.00  0.00    -0.248 NA
ATOM     32  C   UNL A   1      41.546  30.833  29.472  1.00  0.00     0.031 C 
ATOM     33  C   UNL A   1      47.572  30.310  28.844  1.00  0.00     0.029 A 
ATOM     34  C   UNL A   1      46.215  30.021  28.824  1.00  0.00     0.049 A 
ATOM     35  H   UNL A   1      45.256  28.208  28.336  1.00  0.00     0.167 HD
ATOM     36  C   UNL A   1      43.800  30.544  29.137  1.00  0.00     0.074 A 
ATOM     37  C   UNL A   1      42.716  31.457  29.450  1.00  0.00     0.031 C 
ATOM     38  C   UNL A   1      45.110  30.892  29.132  1.00  0.00     0.037 A 
BRANCH  25  39
ATOM     39  C   UNL A   1      48.996  26.344  27.491  1.00  0.00     0.057 A 
ATOM     40  C   UNL A   1      49.848  25.913  28.517  1.00  0.00     0.134 A 
ATOM     41  C   UNL A   1      49.521  26.411  26.197  1.00  0.00     0.134 A 
ATOM     42  F   UNL A   1      49.415  25.865  29.786  1.00  0.00    -0.206 F 
ATOM     43  C   UNL A   1      51.184  25.593  28.267  1.00  0.00     0.040 A 
ATOM     44  C   UNL A   1      50.849  26.074  25.931  1.00  0.00     0.040 A 
ATOM     45  F   UNL A   1      48.761  26.831  25.174  1.00  0.00    -0.206 F 
ATOM     46  C   UNL A   1      51.687  25.674  26.970  1.00  0.00     0.006 A 
ENDBRANCH  25  39
BRANCH  26  47
ATOM     47  C   UNL A   1      39.404  28.838  29.164  1.00  0.00     0.057 A 
ATOM     48  C   UNL A   1      38.767  28.729  30.407  1.00  0.00     0.134 A 
ATOM     49  C   UNL A   1      38.632  29.308  28.094  1.00  0.00     0.134 A 
ATOM     50  F   UNL A   1      39.439  28.267  31.472  1.00  0.00    -0.206 F 
ATOM     51  C   UNL A   1      37.417  29.050  30.575  1.00  0.00     0.040 A 
ATOM     52  C   UNL A   1      37.289  29.661  28.252  1.00  0.00     0.040 A 
ATOM     53  F   UNL A   1      39.173  29.440  26.874  1.00  0.00    -0.206 F 
ATOM     54  C   UNL A   1      36.676  29.525  29.495  1.00  0.00     0.006 A 
ENDBRANCH  26  47
BRANCH  38  55
ATOM     55  C   UNL A   1      45.425  32.312  29.486  1.00  0.00     0.057 A 
ATOM     56  C   UNL A   1      45.695  32.692  30.807  1.00  0.00     0.134 A 
ATOM     57  C   UNL A   1      45.488  33.298  28.496  1.00  0.00     0.134 A 
ATOM     58  F   UNL A   1      45.634  31.792  31.800  1.00  0.00    -0.206 F 
ATOM     59  C   UNL A   1      45.998  34.013  31.134  1.00  0.00     0.040 A 
ATOM     60  C   UNL A   1      45.812  34.618  28.808  1.00  0.00     0.040 A 
ATOM     61  F   UNL A   1      45.243  32.992  27.213  1.00  0.00    -0.206 F 
ATOM     62  C   UNL A   1      46.063  34.979  30.131  1.00  0.00     0.006 A 
ENDBRANCH  38  55
ENDBRANCH  12  13
ENDBRANCH   5   7
ENDBRANCH   4   5
ENDBRANCH   3   4
ENDBRANCH   2   3
ENDBRANCH   1   2
BRANCH   1  63
ATOM     63  C   UNL A   1      35.786  21.130  25.353  1.00  0.00     0.349 C 
ATOM     64  O   UNL A   1      36.223  22.084  25.982  1.00  0.00    -0.245 OA
BRANCH  63  65
ATOM     65  C   UNL A   1      34.515  21.096  24.671  1.00  0.00     0.132 A 
ATOM     66  S   UNL A   1      33.511  19.724  24.936  1.00  0.00    -0.136 S 
ATOM     67  C   UNL A   1      33.936  21.974  23.775  1.00  0.00     0.107 A 
ATOM     68  C   UNL A   1      32.278  20.335  23.930  1.00  0.00     0.067 A 
ATOM     69  C   UNL A   1      32.649  21.516  23.332  1.00  0.00     0.034 A 
BRANCH  67  70
ATOM     70  S   UNL A   1      34.629  23.448  23.189  1.00  0.00     0.242 S 
ATOM     71  O   UNL A   1      35.971  23.076  22.812  1.00  0.00    -0.207 OA
ATOM     72  O   UNL A   1      33.678  23.944  22.224  1.00  0.00    -0.207 OA
BRANCH  70  73
ATOM     73  N   UNL A   1      34.710  24.638  24.341  1.00  0.00    -0.208 NA
ATOM     74  H   UNL A   1      34.468  25.506  23.864  1.00  0.00     0.141 HD
BRANCH  73  75
ATOM     75  C   UNL A   1      33.918  24.620  25.570  1.00  0.00     0.135 C 
BRANCH  75  76
ATOM     76  C   UNL A   1      32.628  25.457  25.575  1.00  0.00     0.159 C 
BRANCH  76  77
ATOM     77  C   UNL A   1      32.664  26.812  26.260  1.00  0.00    -0.018 A 
ATOM     78  C   UNL A   1      31.551  27.432  26.848  1.00  0.00     0.006 A 
ATOM     79  C   UNL A   1      33.873  27.533  26.245  1.00  0.00     0.006 A 
ATOM     80  C   UNL A   1      31.642  28.715  27.398  1.00  0.00     0.000 A 
ATOM     81  C   UNL A   1      33.970  28.807  26.807  1.00  0.00     0.000 A 
ATOM     82  C   UNL A   1      32.852  29.400  27.379  1.00  0.00     0.000 A 
ENDBRANCH  76  77
BRANCH  76  83
ATOM     83  O   UNL A   1      32.283  25.663  24.192  1.00  0.00    -0.387 OA
ATOM     84  H   UNL A   1      33.090  25.656  23.653  1.00  0.00     0.211 HD
ENDBRANCH  76  83
ENDBRANCH  75  76
ENDBRANCH  73  75
ENDBRANCH  70  73
ENDBRANCH  67  70
ENDBRANCH  63  65
ENDBRANCH   1  63
TORSDOF 17
ENDMDL
