MODEL 1
REMARK VINA RESULT:     -13.3      0.000      0.000
REMARK SMILES COc1ccc([C@H]2CC(c3ccc(S(C)(=O)=O)cc3)=NN2c2ccc(C(=O)OCCOC(=O)c3ccc(-c4c5nc(c(-c6c(F)cccc6F)c6ccc([nH]6)c(-c6c(F)cccc6F)c6nc(c(-c7c(F)cccc7F)c7ccc4[nH]7)C=C6)C=C5)cc3)cc2)cc1
REMARK SMILES IDX 29 1 28 2 26 3 27 4 25 5 22 6 23 7 89 8 24 9 88 10 21 11
REMARK SMILES IDX 7 12 8 13 9 14 20 15 6 16 3 17 4 18 91 19 5 20 90 21 2 22
REMARK SMILES IDX 1 23 10 24 11 25 19 26 12 27 18 28 13 29 14 30 15 31 16 32
REMARK SMILES IDX 17 33 30 34 31 35 32 36 33 37 34 38 35 39 87 40 36 41 86 42
REMARK SMILES IDX 37 43 38 44 39 45 80 46 40 47 85 48 79 49 81 50 41 51 84 52
REMARK SMILES IDX 78 53 77 54 42 56 68 57 51 58 67 59 52 60 55 61 66 62 82 63
REMARK SMILES IDX 53 64 54 65 65 67 83 68 56 69 43 70 44 71 49 72 45 73 46 74
REMARK SMILES IDX 48 75 50 76 47 77 69 78 70 79 75 80 71 81 72 82 74 83 76 84
REMARK SMILES IDX 73 85 57 86 58 87 63 88 59 89 60 90 62 91 64 92 61 93
REMARK H PARENT 81 55 55 66
REMARK Flexibility Score: inf
ROOT
ATOM      1  C   UNL A   1      40.059  22.602  27.085  1.00  0.00     0.275 C 
ENDROOT
BRANCH   1   2
ATOM      2  O   UNL A   1      38.794  23.047  26.554  1.00  0.00    -0.458 OA
BRANCH   2   3
ATOM      3  C   UNL A   1      38.187  22.179  25.709  1.00  0.00     0.338 C 
ATOM      4  O   UNL A   1      38.413  20.984  25.604  1.00  0.00    -0.246 OA
BRANCH   3   5
ATOM      5  C   UNL A   1      37.124  22.856  24.940  1.00  0.00     0.060 A 
ATOM      6  C   UNL A   1      34.888  23.960  23.648  1.00  0.00     0.060 A 
ATOM      7  C   UNL A   1      35.217  24.346  24.948  1.00  0.00     0.029 A 
ATOM      8  C   UNL A   1      35.736  23.065  22.978  1.00  0.00     0.029 A 
ATOM      9  C   UNL A   1      36.295  23.765  25.604  1.00  0.00     0.018 A 
ATOM     10  C   UNL A   1      36.865  22.529  23.609  1.00  0.00     0.018 A 
BRANCH   6  11
ATOM     11  N   UNL A   1      33.678  24.370  23.093  1.00  0.00    -0.257 N 
ATOM     12  C   UNL A   1      32.663  23.393  22.669  1.00  0.00     0.144 C 
ATOM     13  C   UNL A   1      31.380  24.233  22.627  1.00  0.00     0.091 C 
ATOM     14  C   UNL A   1      31.906  25.555  23.113  1.00  0.00     0.071 C 
ATOM     15  N   UNL A   1      33.170  25.593  23.399  1.00  0.00    -0.176 NA
BRANCH  12  16
ATOM     16  C   UNL A   1      32.575  22.170  23.580  1.00  0.00    -0.023 A 
ATOM     17  C   UNL A   1      32.525  19.852  25.194  1.00  0.00     0.118 A 
ATOM     18  C   UNL A   1      32.552  19.744  23.806  1.00  0.00     0.047 A 
ATOM     19  C   UNL A   1      32.558  21.115  25.784  1.00  0.00     0.047 A 
ATOM     20  C   UNL A   1      32.566  20.889  23.005  1.00  0.00     0.010 A 
ATOM     21  C   UNL A   1      32.589  22.265  24.982  1.00  0.00     0.010 A 
BRANCH  17  22
ATOM     22  O   UNL A   1      32.528  18.665  25.874  1.00  0.00    -0.497 OA
ATOM     23  C   UNL A   1      32.469  17.500  25.059  1.00  0.00     0.278 C 
ENDBRANCH  17  22
ENDBRANCH  12  16
BRANCH  14  24
ATOM     24  C   UNL A   1      31.043  26.747  23.177  1.00  0.00    -0.002 A 
ATOM     25  C   UNL A   1      31.575  27.966  22.735  1.00  0.00     0.011 A 
ATOM     26  C   UNL A   1      29.717  26.670  23.611  1.00  0.00     0.011 A 
ATOM     27  C   UNL A   1      30.772  29.105  22.693  1.00  0.00     0.021 A 
ATOM     28  C   UNL A   1      28.916  27.816  23.594  1.00  0.00     0.021 A 
ATOM     29  C   UNL A   1      29.446  29.024  23.128  1.00  0.00     0.067 A 
BRANCH  29  30
ATOM     30  S   UNL A   1      28.415  30.470  23.025  1.00  0.00     0.175 S 
ATOM     31  C   UNL A   1      28.552  30.992  21.336  1.00  0.00     0.163 C 
ATOM     32  O   UNL A   1      27.055  30.026  23.260  1.00  0.00    -0.224 OA
ATOM     33  O   UNL A   1      29.018  31.497  23.853  1.00  0.00    -0.224 OA
ENDBRANCH  29  30
ENDBRANCH  14  24
ENDBRANCH   6  11
ENDBRANCH   3   5
ENDBRANCH   2   3
ENDBRANCH   1   2
BRANCH   1  34
ATOM     34  C   UNL A   1      41.215  23.001  26.169  1.00  0.00     0.275 C 
BRANCH  34  35
ATOM     35  O   UNL A   1      41.942  24.103  26.742  1.00  0.00    -0.458 OA
BRANCH  35  36
ATOM     36  C   UNL A   1      41.737  25.309  26.165  1.00  0.00     0.338 C 
ATOM     37  O   UNL A   1      41.905  25.611  24.995  1.00  0.00    -0.246 OA
BRANCH  36  38
ATOM     38  C   UNL A   1      41.245  26.274  27.164  1.00  0.00     0.060 A 
ATOM     39  C   UNL A   1      41.813  27.541  27.235  1.00  0.00     0.016 A 
ATOM     40  C   UNL A   1      40.333  25.871  28.136  1.00  0.00     0.016 A 
ATOM     41  C   UNL A   1      41.588  28.352  28.346  1.00  0.00     0.010 A 
ATOM     42  C   UNL A   1      40.002  26.742  29.182  1.00  0.00     0.010 A 
ATOM     43  C   UNL A   1      40.665  27.975  29.332  1.00  0.00    -0.014 A 
BRANCH  43  44
ATOM     44  C   UNL A   1      40.417  28.846  30.522  1.00  0.00     0.031 A 
ATOM     45  C   UNL A   1      39.292  29.854  30.511  1.00  0.00     0.074 A 
ATOM     46  C   UNL A   1      41.192  28.748  31.622  1.00  0.00     0.049 A 
ATOM     47  N   UNL A   1      39.042  30.829  31.352  1.00  0.00    -0.248 NA
ATOM     48  C   UNL A   1      38.330  29.768  29.399  1.00  0.00     0.031 C 
ATOM     49  C   UNL A   1      42.301  27.809  31.802  1.00  0.00     0.029 A 
ATOM     50  N   UNL A   1      41.165  29.450  32.805  1.00  0.00    -0.354 N 
ATOM     51  C   UNL A   1      37.949  31.513  30.831  1.00  0.00     0.074 A 
ATOM     52  C   UNL A   1      37.575  30.838  29.606  1.00  0.00     0.031 C 
ATOM     53  C   UNL A   1      42.819  27.963  33.028  1.00  0.00     0.029 A 
ATOM     54  C   UNL A   1      42.148  29.076  33.690  1.00  0.00     0.049 A 
ATOM     55  H   UNL A   1      40.505  30.153  32.998  1.00  0.00     0.167 HD
ATOM     56  C   UNL A   1      37.318  32.604  31.326  1.00  0.00     0.037 A 
ATOM     57  C   UNL A   1      42.512  29.595  34.879  1.00  0.00     0.037 A 
ATOM     58  C   UNL A   1      37.632  33.226  32.587  1.00  0.00     0.049 A 
ATOM     59  C   UNL A   1      41.788  30.796  35.412  1.00  0.00     0.074 A 
ATOM     60  C   UNL A   1      37.015  34.309  33.191  1.00  0.00     0.029 A 
ATOM     61  N   UNL A   1      38.636  32.810  33.446  1.00  0.00    -0.354 N 
ATOM     62  N   UNL A   1      40.786  31.457  34.886  1.00  0.00    -0.248 NA
ATOM     63  C   UNL A   1      42.259  31.338  36.695  1.00  0.00     0.031 C 
ATOM     64  C   UNL A   1      37.664  34.566  34.402  1.00  0.00     0.029 A 
ATOM     65  C   UNL A   1      38.661  33.620  34.569  1.00  0.00     0.049 A 
ATOM     66  H   UNL A   1      39.242  32.051  33.282  1.00  0.00     0.167 HD
ATOM     67  C   UNL A   1      40.505  32.487  35.773  1.00  0.00     0.074 A 
ATOM     68  C   UNL A   1      41.422  32.347  36.884  1.00  0.00     0.031 C 
ATOM     69  C   UNL A   1      39.576  33.467  35.670  1.00  0.00     0.037 A 
BRANCH  56  70
ATOM     70  C   UNL A   1      36.234  33.226  30.495  1.00  0.00     0.057 A 
ATOM     71  C   UNL A   1      34.877  33.092  30.809  1.00  0.00     0.134 A 
ATOM     72  C   UNL A   1      36.567  34.032  29.396  1.00  0.00     0.134 A 
ATOM     73  F   UNL A   1      34.491  32.329  31.842  1.00  0.00    -0.206 F 
ATOM     74  C   UNL A   1      33.888  33.724  30.051  1.00  0.00     0.040 A 
ATOM     75  C   UNL A   1      35.590  34.688  28.646  1.00  0.00     0.040 A 
ATOM     76  F   UNL A   1      37.851  34.211  29.047  1.00  0.00    -0.206 F 
ATOM     77  C   UNL A   1      34.245  34.532  28.971  1.00  0.00     0.006 A 
ENDBRANCH  56  70
BRANCH  57  78
ATOM     78  C   UNL A   1      43.659  29.012  35.620  1.00  0.00     0.057 A 
ATOM     79  C   UNL A   1      44.965  29.469  35.415  1.00  0.00     0.134 A 
ATOM     80  C   UNL A   1      43.475  27.981  36.551  1.00  0.00     0.134 A 
ATOM     81  F   UNL A   1      45.209  30.438  34.519  1.00  0.00    -0.206 F 
ATOM     82  C   UNL A   1      46.049  28.915  36.097  1.00  0.00     0.040 A 
ATOM     83  C   UNL A   1      44.545  27.438  37.262  1.00  0.00     0.040 A 
ATOM     84  F   UNL A   1      42.247  27.498  36.794  1.00  0.00    -0.206 F 
ATOM     85  C   UNL A   1      45.838  27.901  37.031  1.00  0.00     0.006 A 
ENDBRANCH  57  78
BRANCH  69  86
ATOM     86  C   UNL A   1      39.490  34.446  36.801  1.00  0.00     0.057 A 
ATOM     87  C   UNL A   1      38.776  34.159  37.970  1.00  0.00     0.134 A 
ATOM     88  C   UNL A   1      40.146  35.681  36.728  1.00  0.00     0.134 A 
ATOM     89  F   UNL A   1      38.113  32.999  38.093  1.00  0.00    -0.206 F 
ATOM     90  C   UNL A   1      38.699  35.074  39.019  1.00  0.00     0.040 A 
ATOM     91  C   UNL A   1      40.096  36.596  37.780  1.00  0.00     0.040 A 
ATOM     92  F   UNL A   1      40.853  36.015  35.637  1.00  0.00    -0.206 F 
ATOM     93  C   UNL A   1      39.365  36.295  38.928  1.00  0.00     0.006 A 
ENDBRANCH  69  86
ENDBRANCH  43  44
ENDBRANCH  36  38
ENDBRANCH  35  36
ENDBRANCH  34  35
ENDBRANCH   1  34
TORSDOF 16
ENDMDL
MODEL 2
REMARK VINA RESULT:     -13.1      3.016      8.705
REMARK SMILES COc1ccc([C@H]2CC(c3ccc(S(C)(=O)=O)cc3)=NN2c2ccc(C(=O)OCCOC(=O)c3ccc(-c4c5nc(c(-c6c(F)cccc6F)c6ccc([nH]6)c(-c6c(F)cccc6F)c6nc(c(-c7c(F)cccc7F)c7ccc4[nH]7)C=C6)C=C5)cc3)cc2)cc1
REMARK SMILES IDX 29 1 28 2 26 3 27 4 25 5 22 6 23 7 89 8 24 9 88 10 21 11
REMARK SMILES IDX 7 12 8 13 9 14 20 15 6 16 3 17 4 18 91 19 5 20 90 21 2 22
REMARK SMILES IDX 1 23 10 24 11 25 19 26 12 27 18 28 13 29 14 30 15 31 16 32
REMARK SMILES IDX 17 33 30 34 31 35 32 36 33 37 34 38 35 39 87 40 36 41 86 42
REMARK SMILES IDX 37 43 38 44 39 45 80 46 40 47 85 48 79 49 81 50 41 51 84 52
REMARK SMILES IDX 78 53 77 54 42 56 68 57 51 58 67 59 52 60 55 61 66 62 82 63
REMARK SMILES IDX 53 64 54 65 65 67 83 68 56 69 43 70 44 71 49 72 45 73 46 74
REMARK SMILES IDX 48 75 50 76 47 77 69 78 70 79 75 80 71 81 72 82 74 83 76 84
REMARK SMILES IDX 73 85 57 86 58 87 63 88 59 89 60 90 62 91 64 92 61 93
REMARK H PARENT 81 55 55 66
REMARK Flexibility Score: inf
ROOT
ATOM      1  C   UNL A   1      31.898  32.029  27.230  1.00  0.00     0.275 C 
ENDROOT
BRANCH   1   2
ATOM      2  O   UNL A   1      32.541  31.063  26.374  1.00  0.00    -0.458 OA
BRANCH   2   3
ATOM      3  C   UNL A   1      33.423  30.242  26.994  1.00  0.00     0.338 C 
ATOM      4  O   UNL A   1      34.404  30.577  27.638  1.00  0.00    -0.246 OA
BRANCH   3   5
ATOM      5  C   UNL A   1      33.008  28.831  26.855  1.00  0.00     0.060 A 
ATOM      6  C   UNL A   1      32.157  26.219  26.275  1.00  0.00     0.060 A 
ATOM      7  C   UNL A   1      33.415  26.661  25.864  1.00  0.00     0.029 A 
ATOM      8  C   UNL A   1      31.359  27.081  27.043  1.00  0.00     0.029 A 
ATOM      9  C   UNL A   1      33.816  27.968  26.109  1.00  0.00     0.018 A 
ATOM     10  C   UNL A   1      31.788  28.377  27.354  1.00  0.00     0.018 A 
BRANCH   6  11
ATOM     11  N   UNL A   1      31.674  24.994  25.821  1.00  0.00    -0.257 N 
ATOM     12  C   UNL A   1      30.483  24.913  24.962  1.00  0.00     0.144 C 
ATOM     13  C   UNL A   1      30.626  23.531  24.311  1.00  0.00     0.091 C 
ATOM     14  C   UNL A   1      31.945  23.097  24.886  1.00  0.00     0.071 C 
ATOM     15  N   UNL A   1      32.520  23.938  25.687  1.00  0.00    -0.176 NA
BRANCH  12  16
ATOM     16  C   UNL A   1      30.373  26.063  23.962  1.00  0.00    -0.023 A 
ATOM     17  C   UNL A   1      30.144  28.277  22.223  1.00  0.00     0.118 A 
ATOM     18  C   UNL A   1      29.157  28.022  23.172  1.00  0.00     0.047 A 
ATOM     19  C   UNL A   1      31.264  27.451  22.160  1.00  0.00     0.047 A 
ATOM     20  C   UNL A   1      29.263  26.920  24.026  1.00  0.00     0.010 A 
ATOM     21  C   UNL A   1      31.380  26.355  23.027  1.00  0.00     0.010 A 
BRANCH  17  22
ATOM     22  O   UNL A   1      29.940  29.390  21.453  1.00  0.00    -0.497 OA
ATOM     23  C   UNL A   1      29.382  30.506  22.137  1.00  0.00     0.278 C 
ENDBRANCH  17  22
ENDBRANCH  12  16
BRANCH  14  24
ATOM     24  C   UNL A   1      32.498  21.759  24.611  1.00  0.00    -0.002 A 
ATOM     25  C   UNL A   1      33.459  21.253  25.497  1.00  0.00     0.011 A 
ATOM     26  C   UNL A   1      32.048  20.986  23.538  1.00  0.00     0.011 A 
ATOM     27  C   UNL A   1      33.949  19.958  25.331  1.00  0.00     0.021 A 
ATOM     28  C   UNL A   1      32.555  19.696  23.353  1.00  0.00     0.021 A 
ATOM     29  C   UNL A   1      33.497  19.188  24.255  1.00  0.00     0.067 A 
BRANCH  29  30
ATOM     30  S   UNL A   1      34.090  17.520  24.079  1.00  0.00     0.175 S 
ATOM     31  C   UNL A   1      33.048  16.565  25.151  1.00  0.00     0.163 C 
ATOM     32  O   UNL A   1      33.823  17.128  22.709  1.00  0.00    -0.224 OA
ATOM     33  O   UNL A   1      35.435  17.475  24.620  1.00  0.00    -0.224 OA
ENDBRANCH  29  30
ENDBRANCH  14  24
ENDBRANCH   6  11
ENDBRANCH   3   5
ENDBRANCH   2   3
ENDBRANCH   1   2
BRANCH   1  34
ATOM     34  C   UNL A   1      32.448  33.434  26.991  1.00  0.00     0.275 C 
BRANCH  34  35
ATOM     35  O   UNL A   1      32.247  34.250  28.159  1.00  0.00    -0.458 OA
BRANCH  35  36
ATOM     36  C   UNL A   1      33.341  34.897  28.623  1.00  0.00     0.338 C 
ATOM     37  O   UNL A   1      33.495  36.100  28.747  1.00  0.00    -0.246 OA
BRANCH  36  38
ATOM     38  C   UNL A   1      34.386  33.926  28.997  1.00  0.00     0.060 A 
ATOM     39  C   UNL A   1      34.107  32.946  29.943  1.00  0.00     0.016 A 
ATOM     40  C   UNL A   1      35.688  34.087  28.531  1.00  0.00     0.016 A 
ATOM     41  C   UNL A   1      35.143  32.223  30.533  1.00  0.00     0.010 A 
ATOM     42  C   UNL A   1      36.708  33.264  29.026  1.00  0.00     0.010 A 
ATOM     43  C   UNL A   1      36.461  32.356  30.073  1.00  0.00    -0.014 A 
BRANCH  43  44
ATOM     44  C   UNL A   1      37.572  31.577  30.700  1.00  0.00     0.031 A 
ATOM     45  C   UNL A   1      37.968  31.829  32.136  1.00  0.00     0.074 A 
ATOM     46  C   UNL A   1      38.239  30.637  29.996  1.00  0.00     0.049 A 
ATOM     47  N   UNL A   1      39.022  31.408  32.793  1.00  0.00    -0.248 NA
ATOM     48  C   UNL A   1      37.073  32.683  32.935  1.00  0.00     0.031 C 
ATOM     49  C   UNL A   1      37.962  30.256  28.611  1.00  0.00     0.029 A 
ATOM     50  N   UNL A   1      39.292  29.828  30.354  1.00  0.00    -0.354 N 
ATOM     51  C   UNL A   1      38.954  32.005  34.047  1.00  0.00     0.074 A 
ATOM     52  C   UNL A   1      37.752  32.810  34.066  1.00  0.00     0.031 C 
ATOM     53  C   UNL A   1      38.790  29.265  28.250  1.00  0.00     0.029 A 
ATOM     54  C   UNL A   1      39.722  29.006  29.340  1.00  0.00     0.049 A 
ATOM     55  H   UNL A   1      39.699  29.838  31.250  1.00  0.00     0.167 HD
ATOM     56  C   UNL A   1      39.817  31.893  35.086  1.00  0.00     0.037 A 
ATOM     57  C   UNL A   1      40.778  28.171  29.266  1.00  0.00     0.037 A 
ATOM     58  C   UNL A   1      40.967  31.027  35.102  1.00  0.00     0.049 A 
ATOM     59  C   UNL A   1      41.710  28.056  30.435  1.00  0.00     0.074 A 
ATOM     60  C   UNL A   1      41.872  30.815  36.129  1.00  0.00     0.029 A 
ATOM     61  N   UNL A   1      41.360  30.215  34.051  1.00  0.00    -0.354 N 
ATOM     62  N   UNL A   1      41.657  28.660  31.597  1.00  0.00    -0.248 NA
ATOM     63  C   UNL A   1      42.864  27.159  30.276  1.00  0.00     0.031 C 
ATOM     64  C   UNL A   1      42.830  29.896  35.688  1.00  0.00     0.029 A 
ATOM     65  C   UNL A   1      42.499  29.508  34.401  1.00  0.00     0.049 A 
ATOM     66  H   UNL A   1      40.899  30.149  33.183  1.00  0.00     0.167 HD
ATOM     67  C   UNL A   1      42.763  28.214  32.307  1.00  0.00     0.074 A 
ATOM     68  C   UNL A   1      43.455  27.267  31.457  1.00  0.00     0.031 C 
ATOM     69  C   UNL A   1      43.175  28.566  33.548  1.00  0.00     0.037 A 
BRANCH  56  70
ATOM     70  C   UNL A   1      39.575  32.750  36.294  1.00  0.00     0.057 A 
ATOM     71  C   UNL A   1      40.189  33.996  36.465  1.00  0.00     0.134 A 
ATOM     72  C   UNL A   1      38.653  32.345  37.270  1.00  0.00     0.134 A 
ATOM     73  F   UNL A   1      41.087  34.439  35.573  1.00  0.00    -0.206 F 
ATOM     74  C   UNL A   1      39.908  34.801  37.572  1.00  0.00     0.040 A 
ATOM     75  C   UNL A   1      38.345  33.150  38.368  1.00  0.00     0.040 A 
ATOM     76  F   UNL A   1      38.020  31.166  37.161  1.00  0.00    -0.206 F 
ATOM     77  C   UNL A   1      38.976  34.382  38.522  1.00  0.00     0.006 A 
ENDBRANCH  56  70
BRANCH  57  78
ATOM     78  C   UNL A   1      41.039  27.420  28.012  1.00  0.00     0.057 A 
ATOM     79  C   UNL A   1      41.806  27.973  26.980  1.00  0.00     0.134 A 
ATOM     80  C   UNL A   1      40.526  26.131  27.815  1.00  0.00     0.134 A 
ATOM     81  F   UNL A   1      42.305  29.213  27.099  1.00  0.00    -0.206 F 
ATOM     82  C   UNL A   1      42.044  27.278  25.793  1.00  0.00     0.040 A 
ATOM     83  C   UNL A   1      40.780  25.414  26.647  1.00  0.00     0.040 A 
ATOM     84  F   UNL A   1      39.784  25.545  28.766  1.00  0.00    -0.206 F 
ATOM     85  C   UNL A   1      41.536  25.990  25.628  1.00  0.00     0.006 A 
ENDBRANCH  57  78
BRANCH  69  86
ATOM     86  C   UNL A   1      44.414  27.903  34.069  1.00  0.00     0.057 A 
ATOM     87  C   UNL A   1      45.678  28.484  33.915  1.00  0.00     0.134 A 
ATOM     88  C   UNL A   1      44.338  26.681  34.748  1.00  0.00     0.134 A 
ATOM     89  F   UNL A   1      45.817  29.646  33.259  1.00  0.00    -0.206 F 
ATOM     90  C   UNL A   1      46.828  27.862  34.401  1.00  0.00     0.040 A 
ATOM     91  C   UNL A   1      45.478  26.061  35.259  1.00  0.00     0.040 A 
ATOM     92  F   UNL A   1      43.155  26.076  34.934  1.00  0.00    -0.206 F 
ATOM     93  C   UNL A   1      46.729  26.649  35.080  1.00  0.00     0.006 A 
ENDBRANCH  69  86
ENDBRANCH  43  44
ENDBRANCH  36  38
ENDBRANCH  35  36
ENDBRANCH  34  35
ENDBRANCH   1  34
TORSDOF 16
ENDMDL
MODEL 3
REMARK VINA RESULT:     -13.0      2.914      8.294
REMARK SMILES COc1ccc([C@H]2CC(c3ccc(S(C)(=O)=O)cc3)=NN2c2ccc(C(=O)OCCOC(=O)c3ccc(-c4c5nc(c(-c6c(F)cccc6F)c6ccc([nH]6)c(-c6c(F)cccc6F)c6nc(c(-c7c(F)cccc7F)c7ccc4[nH]7)C=C6)C=C5)cc3)cc2)cc1
REMARK SMILES IDX 29 1 28 2 26 3 27 4 25 5 22 6 23 7 89 8 24 9 88 10 21 11
REMARK SMILES IDX 7 12 8 13 9 14 20 15 6 16 3 17 4 18 91 19 5 20 90 21 2 22
REMARK SMILES IDX 1 23 10 24 11 25 19 26 12 27 18 28 13 29 14 30 15 31 16 32
REMARK SMILES IDX 17 33 30 34 31 35 32 36 33 37 34 38 35 39 87 40 36 41 86 42
REMARK SMILES IDX 37 43 38 44 39 45 80 46 40 47 85 48 79 49 81 50 41 51 84 52
REMARK SMILES IDX 78 53 77 54 42 56 68 57 51 58 67 59 52 60 55 61 66 62 82 63
REMARK SMILES IDX 53 64 54 65 65 67 83 68 56 69 43 70 44 71 49 72 45 73 46 74
REMARK SMILES IDX 48 75 50 76 47 77 69 78 70 79 75 80 71 81 72 82 74 83 76 84
REMARK SMILES IDX 73 85 57 86 58 87 63 88 59 89 60 90 62 91 64 92 61 93
REMARK H PARENT 81 55 55 66
REMARK Flexibility Score: inf
ROOT
ATOM      1  C   UNL A   1      31.978  31.944  27.044  1.00  0.00     0.275 C 
ENDROOT
BRANCH   1   2
ATOM      2  O   UNL A   1      32.911  31.087  26.353  1.00  0.00    -0.458 OA
BRANCH   2   3
ATOM      3  C   UNL A   1      33.606  30.237  27.146  1.00  0.00     0.338 C 
ATOM      4  O   UNL A   1      34.481  30.534  27.945  1.00  0.00    -0.246 OA
BRANCH   3   5
ATOM      5  C   UNL A   1      33.120  28.853  26.980  1.00  0.00     0.060 A 
ATOM      6  C   UNL A   1      32.169  26.289  26.344  1.00  0.00     0.060 A 
ATOM      7  C   UNL A   1      33.487  26.646  26.056  1.00  0.00     0.029 A 
ATOM      8  C   UNL A   1      31.354  27.209  27.021  1.00  0.00     0.029 A 
ATOM      9  C   UNL A   1      33.942  27.930  26.328  1.00  0.00     0.018 A 
ATOM     10  C   UNL A   1      31.831  28.482  27.360  1.00  0.00     0.018 A 
BRANCH   6  11
ATOM     11  N   UNL A   1      31.658  25.088  25.856  1.00  0.00    -0.257 N 
ATOM     12  C   UNL A   1      30.487  25.062  24.966  1.00  0.00     0.144 C 
ATOM     13  C   UNL A   1      30.601  23.687  24.294  1.00  0.00     0.091 C 
ATOM     14  C   UNL A   1      31.890  23.199  24.894  1.00  0.00     0.071 C 
ATOM     15  N   UNL A   1      32.472  24.007  25.724  1.00  0.00    -0.176 NA
BRANCH  12  16
ATOM     16  C   UNL A   1      30.441  26.231  23.985  1.00  0.00    -0.023 A 
ATOM     17  C   UNL A   1      30.315  28.479  22.279  1.00  0.00     0.118 A 
ATOM     18  C   UNL A   1      29.245  28.168  23.114  1.00  0.00     0.047 A 
ATOM     19  C   UNL A   1      31.465  27.693  22.315  1.00  0.00     0.047 A 
ATOM     20  C   UNL A   1      29.300  27.050  23.951  1.00  0.00     0.010 A 
ATOM     21  C   UNL A   1      31.529  26.580  23.166  1.00  0.00     0.010 A 
BRANCH  17  22
ATOM     22  O   UNL A   1      30.154  29.603  21.515  1.00  0.00    -0.497 OA
ATOM     23  C   UNL A   1      29.106  30.472  21.930  1.00  0.00     0.278 C 
ENDBRANCH  17  22
ENDBRANCH  12  16
BRANCH  14  24
ATOM     24  C   UNL A   1      32.405  21.848  24.610  1.00  0.00    -0.002 A 
ATOM     25  C   UNL A   1      33.217  21.239  25.577  1.00  0.00     0.011 A 
ATOM     26  C   UNL A   1      32.060  21.163  23.443  1.00  0.00     0.011 A 
ATOM     27  C   UNL A   1      33.658  19.929  25.394  1.00  0.00     0.021 A 
ATOM     28  C   UNL A   1      32.521  19.858  23.244  1.00  0.00     0.021 A 
ATOM     29  C   UNL A   1      33.310  19.247  24.225  1.00  0.00     0.067 A 
BRANCH  29  30
ATOM     30  S   UNL A   1      33.835  17.560  24.023  1.00  0.00     0.175 S 
ATOM     31  C   UNL A   1      32.824  16.643  25.155  1.00  0.00     0.163 C 
ATOM     32  O   UNL A   1      33.479  17.174  22.671  1.00  0.00    -0.224 OA
ATOM     33  O   UNL A   1      35.207  17.470  24.487  1.00  0.00    -0.224 OA
ENDBRANCH  29  30
ENDBRANCH  14  24
ENDBRANCH   6  11
ENDBRANCH   3   5
ENDBRANCH   2   3
ENDBRANCH   1   2
BRANCH   1  34
ATOM     34  C   UNL A   1      32.535  33.359  27.197  1.00  0.00     0.275 C 
BRANCH  34  35
ATOM     35  O   UNL A   1      32.262  33.857  28.520  1.00  0.00    -0.458 OA
BRANCH  35  36
ATOM     36  C   UNL A   1      32.910  34.991  28.869  1.00  0.00     0.338 C 
ATOM     37  O   UNL A   1      32.574  36.140  28.636  1.00  0.00    -0.246 OA
BRANCH  36  38
ATOM     38  C   UNL A   1      34.137  34.666  29.619  1.00  0.00     0.060 A 
ATOM     39  C   UNL A   1      35.356  34.609  28.954  1.00  0.00     0.016 A 
ATOM     40  C   UNL A   1      34.056  34.260  30.949  1.00  0.00     0.016 A 
ATOM     41  C   UNL A   1      36.462  34.015  29.560  1.00  0.00     0.010 A 
ATOM     42  C   UNL A   1      35.203  33.790  31.601  1.00  0.00     0.010 A 
ATOM     43  C   UNL A   1      36.411  33.610  30.901  1.00  0.00    -0.014 A 
BRANCH  43  44
ATOM     44  C   UNL A   1      37.598  32.978  31.555  1.00  0.00     0.031 A 
ATOM     45  C   UNL A   1      38.323  31.836  30.884  1.00  0.00     0.074 A 
ATOM     46  C   UNL A   1      38.041  33.417  32.752  1.00  0.00     0.049 A 
ATOM     47  N   UNL A   1      39.236  31.031  31.372  1.00  0.00    -0.248 NA
ATOM     48  C   UNL A   1      37.962  31.546  29.486  1.00  0.00     0.031 C 
ATOM     49  C   UNL A   1      37.468  34.526  33.518  1.00  0.00     0.029 A 
ATOM     50  N   UNL A   1      39.081  32.979  33.540  1.00  0.00    -0.354 N 
ATOM     51  C   UNL A   1      39.499  30.100  30.373  1.00  0.00     0.074 A 
ATOM     52  C   UNL A   1      38.657  30.442  29.247  1.00  0.00     0.031 C 
ATOM     53  C   UNL A   1      38.184  34.708  34.637  1.00  0.00     0.029 A 
ATOM     54  C   UNL A   1      39.204  33.670  34.721  1.00  0.00     0.049 A 
ATOM     55  H   UNL A   1      39.678  32.242  33.281  1.00  0.00     0.167 HD
ATOM     56  C   UNL A   1      40.360  29.054  30.394  1.00  0.00     0.037 A 
ATOM     57  C   UNL A   1      40.009  33.469  35.783  1.00  0.00     0.037 A 
ATOM     58  C   UNL A   1      41.260  28.761  31.480  1.00  0.00     0.049 A 
ATOM     59  C   UNL A   1      40.963  32.312  35.777  1.00  0.00     0.074 A 
ATOM     60  C   UNL A   1      42.201  27.749  31.570  1.00  0.00     0.029 A 
ATOM     61  N   UNL A   1      41.347  29.491  32.654  1.00  0.00    -0.354 N 
ATOM     62  N   UNL A   1      41.168  31.415  34.843  1.00  0.00    -0.248 NA
ATOM     63  C   UNL A   1      41.785  32.124  36.981  1.00  0.00     0.031 C 
ATOM     64  C   UNL A   1      42.837  27.848  32.811  1.00  0.00     0.029 A 
ATOM     65  C   UNL A   1      42.318  28.944  33.478  1.00  0.00     0.049 A 
ATOM     66  H   UNL A   1      40.800  30.280  32.872  1.00  0.00     0.167 HD
ATOM     67  C   UNL A   1      42.141  30.562  35.344  1.00  0.00     0.074 A 
ATOM     68  C   UNL A   1      42.508  31.064  36.652  1.00  0.00     0.031 C 
ATOM     69  C   UNL A   1      42.676  29.456  34.775  1.00  0.00     0.037 A 
BRANCH  56  70
ATOM     70  C   UNL A   1      40.359  28.120  29.220  1.00  0.00     0.057 A 
ATOM     71  C   UNL A   1      39.558  26.973  29.175  1.00  0.00     0.134 A 
ATOM     72  C   UNL A   1      41.126  28.417  28.085  1.00  0.00     0.134 A 
ATOM     73  F   UNL A   1      38.806  26.627  30.230  1.00  0.00    -0.206 F 
ATOM     74  C   UNL A   1      39.532  26.146  28.049  1.00  0.00     0.040 A 
ATOM     75  C   UNL A   1      41.091  27.613  26.945  1.00  0.00     0.040 A 
ATOM     76  F   UNL A   1      41.908  29.508  28.058  1.00  0.00    -0.206 F 
ATOM     77  C   UNL A   1      40.294  26.471  26.926  1.00  0.00     0.006 A 
ENDBRANCH  56  70
BRANCH  57  78
ATOM     78  C   UNL A   1      39.904  34.357  36.969  1.00  0.00     0.057 A 
ATOM     79  C   UNL A   1      40.574  35.584  37.020  1.00  0.00     0.134 A 
ATOM     80  C   UNL A   1      39.132  33.996  38.081  1.00  0.00     0.134 A 
ATOM     81  F   UNL A   1      41.348  35.974  35.996  1.00  0.00    -0.206 F 
ATOM     82  C   UNL A   1      40.491  36.416  38.138  1.00  0.00     0.040 A 
ATOM     83  C   UNL A   1      39.016  34.830  39.193  1.00  0.00     0.040 A 
ATOM     84  F   UNL A   1      38.465  32.833  38.094  1.00  0.00    -0.206 F 
ATOM     85  C   UNL A   1      39.702  36.042  39.226  1.00  0.00     0.006 A 
ENDBRANCH  57  78
BRANCH  69  86
ATOM     86  C   UNL A   1      43.732  28.731  35.553  1.00  0.00     0.057 A 
ATOM     87  C   UNL A   1      43.411  27.707  36.451  1.00  0.00     0.134 A 
ATOM     88  C   UNL A   1      45.086  29.050  35.388  1.00  0.00     0.134 A 
ATOM     89  F   UNL A   1      42.130  27.367  36.664  1.00  0.00    -0.206 F 
ATOM     90  C   UNL A   1      44.398  27.036  37.173  1.00  0.00     0.040 A 
ATOM     91  C   UNL A   1      46.084  28.371  36.088  1.00  0.00     0.040 A 
ATOM     92  F   UNL A   1      45.460  30.018  34.538  1.00  0.00    -0.206 F 
ATOM     93  C   UNL A   1      45.740  27.365  36.988  1.00  0.00     0.006 A 
ENDBRANCH  69  86
ENDBRANCH  43  44
ENDBRANCH  36  38
ENDBRANCH  35  36
ENDBRANCH  34  35
ENDBRANCH   1  34
TORSDOF 16
ENDMDL
