MODEL 1
REMARK VINA RESULT:     -11.8      0.000      0.000
REMARK SMILES Cn1ncc(C(=O)OCCOC(=O)c2ccc(-c3c4nc(c(-c5c(F)cccc5F)c5ccc([nH]5)c(-c5c(F)cccc5F)c5nc(c(-c6c(F)cccc6F)c6ccc3[nH]6)C=C5)C=C4)cc2)c1C(=O)Nc1nccc(-c2ccc(OC(F)F)cc2)n1
REMARK SMILES IDX 8 1 6 2 7 3 5 4 1 5 2 6 3 7 68 8 4 9 69 10 70 11 71 12 72 14
REMARK SMILES IDX 73 15 87 16 74 17 76 18 75 19 77 20 78 21 86 22 79 23 85 24
REMARK SMILES IDX 80 25 81 26 82 27 83 28 84 29 9 30 10 31 11 32 12 33 13 34
REMARK SMILES IDX 14 35 15 36 67 37 16 38 66 39 17 40 18 41 19 42 60 43 20 44
REMARK SMILES IDX 65 45 59 46 61 47 21 48 64 49 58 50 57 51 22 53 48 54 31 55
REMARK SMILES IDX 47 56 32 57 35 58 46 59 62 60 33 61 34 62 45 64 63 65 36 66
REMARK SMILES IDX 23 67 24 68 29 69 25 70 26 71 28 72 30 73 27 74 49 75 50 76
REMARK SMILES IDX 55 77 51 78 52 79 54 80 56 81 53 82 37 83 38 84 43 85 39 86
REMARK SMILES IDX 40 87 42 88 44 89 41 90
REMARK H PARENT 71 13 61 52 35 63
REMARK Flexibility Score: inf
ROOT
ATOM      1  O   UNL A   1      35.563  21.954  26.187  1.00  0.00    -0.458 OA
ENDROOT
BRANCH   1   2
ATOM      2  C   UNL A   1      35.299  23.255  25.893  1.00  0.00     0.342 C 
ATOM      3  O   UNL A   1      36.163  24.116  25.748  1.00  0.00    -0.246 OA
BRANCH   2   4
ATOM      4  C   UNL A   1      33.903  23.564  25.633  1.00  0.00     0.111 A 
ATOM      5  C   UNL A   1      30.971  23.153  23.823  1.00  0.00     0.174 C 
ATOM      6  N   UNL A   1      31.937  23.746  24.720  1.00  0.00    -0.262 N 
ATOM      7  N   UNL A   1      31.658  23.556  26.021  1.00  0.00    -0.180 NA
ATOM      8  C   UNL A   1      33.270  24.049  24.477  1.00  0.00     0.140 A 
ATOM      9  C   UNL A   1      32.848  23.269  26.523  1.00  0.00     0.151 A 
BRANCH   8  10
ATOM     10  C   UNL A   1      33.907  24.467  23.238  1.00  0.00     0.277 C 
ATOM     11  O   UNL A   1      34.686  23.717  22.641  1.00  0.00    -0.267 OA
ATOM     12  N   UNL A   1      33.607  25.621  22.571  1.00  0.00    -0.289 N 
ATOM     13  H   UNL A   1      33.980  25.660  21.661  1.00  0.00     0.173 HD
BRANCH  12  14
ATOM     14  C   UNL A   1      32.886  26.741  22.921  1.00  0.00     0.230 A 
ATOM     15  N   UNL A   1      31.700  26.821  22.301  1.00  0.00    -0.221 NA
ATOM     16  N   UNL A   1      33.280  27.551  23.904  1.00  0.00    -0.213 NA
ATOM     17  C   UNL A   1      30.818  27.705  22.798  1.00  0.00     0.117 A 
ATOM     18  C   UNL A   1      32.390  28.477  24.337  1.00  0.00     0.076 A 
ATOM     19  C   UNL A   1      31.109  28.560  23.830  1.00  0.00     0.049 A 
BRANCH  18  20
ATOM     20  C   UNL A   1      32.827  29.275  25.488  1.00  0.00     0.001 A 
ATOM     21  C   UNL A   1      32.072  30.360  25.948  1.00  0.00     0.014 A 
ATOM     22  C   UNL A   1      34.048  29.005  26.126  1.00  0.00     0.014 A 
ATOM     23  C   UNL A   1      32.528  31.150  27.009  1.00  0.00     0.047 A 
ATOM     24  C   UNL A   1      34.513  29.807  27.174  1.00  0.00     0.047 A 
ATOM     25  C   UNL A   1      33.755  30.884  27.625  1.00  0.00     0.126 A 
BRANCH  25  26
ATOM     26  O   UNL A   1      34.094  31.745  28.629  1.00  0.00    -0.435 OA
BRANCH  26  27
ATOM     27  C   UNL A   1      34.727  32.969  28.277  1.00  0.00     0.542 C 
ATOM     28  F   UNL A   1      35.812  32.722  27.500  1.00  0.00    -0.167 F 
ATOM     29  F   UNL A   1      33.873  33.753  27.577  1.00  0.00    -0.167 F 
ENDBRANCH  26  27
ENDBRANCH  25  26
ENDBRANCH  18  20
ENDBRANCH  12  14
ENDBRANCH   8  10
ENDBRANCH   2   4
ENDBRANCH   1   2
BRANCH   1  30
ATOM     30  C   UNL A   1      35.611  21.057  25.059  1.00  0.00     0.275 C 
BRANCH  30  31
ATOM     31  C   UNL A   1      36.930  20.284  25.034  1.00  0.00     0.275 C 
BRANCH  31  32
ATOM     32  O   UNL A   1      38.049  21.191  25.031  1.00  0.00    -0.458 OA
BRANCH  32  33
ATOM     33  C   UNL A   1      39.062  20.848  25.860  1.00  0.00     0.338 C 
ATOM     34  O   UNL A   1      39.563  19.749  26.008  1.00  0.00    -0.246 OA
BRANCH  33  35
ATOM     35  C   UNL A   1      39.584  22.040  26.543  1.00  0.00     0.060 A 
ATOM     36  C   UNL A   1      39.084  23.275  26.159  1.00  0.00     0.016 A 
ATOM     37  C   UNL A   1      40.689  21.971  27.384  1.00  0.00     0.016 A 
ATOM     38  C   UNL A   1      39.766  24.445  26.480  1.00  0.00     0.010 A 
ATOM     39  C   UNL A   1      41.287  23.158  27.831  1.00  0.00     0.010 A 
ATOM     40  C   UNL A   1      40.864  24.412  27.347  1.00  0.00    -0.014 A 
BRANCH  40  41
ATOM     41  C   UNL A   1      41.568  25.676  27.723  1.00  0.00     0.031 A 
ATOM     42  C   UNL A   1      40.873  26.718  28.565  1.00  0.00     0.074 A 
ATOM     43  C   UNL A   1      42.839  25.898  27.323  1.00  0.00     0.049 A 
ATOM     44  N   UNL A   1      41.234  27.951  28.825  1.00  0.00    -0.248 NA
ATOM     45  C   UNL A   1      39.595  26.330  29.181  1.00  0.00     0.031 C 
ATOM     46  C   UNL A   1      43.665  24.966  26.552  1.00  0.00     0.029 A 
ATOM     47  N   UNL A   1      43.663  26.983  27.510  1.00  0.00    -0.354 N 
ATOM     48  C   UNL A   1      40.204  28.499  29.582  1.00  0.00     0.074 A 
ATOM     49  C   UNL A   1      39.197  27.470  29.727  1.00  0.00     0.031 C 
ATOM     50  C   UNL A   1      44.882  25.497  26.368  1.00  0.00     0.029 A 
ATOM     51  C   UNL A   1      44.892  26.851  26.906  1.00  0.00     0.049 A 
ATOM     52  H   UNL A   1      43.399  27.779  28.025  1.00  0.00     0.167 HD
ATOM     53  C   UNL A   1      40.108  29.746  30.107  1.00  0.00     0.037 A 
ATOM     54  C   UNL A   1      45.897  27.731  26.745  1.00  0.00     0.037 A 
ATOM     55  C   UNL A   1      41.136  30.751  30.003  1.00  0.00     0.049 A 
ATOM     56  C   UNL A   1      45.741  29.125  27.280  1.00  0.00     0.074 A 
ATOM     57  C   UNL A   1      41.141  32.035  30.520  1.00  0.00     0.029 A 
ATOM     58  N   UNL A   1      42.347  30.581  29.349  1.00  0.00    -0.354 N 
ATOM     59  N   UNL A   1      44.745  29.645  27.955  1.00  0.00    -0.248 NA
ATOM     60  C   UNL A   1      46.841  30.062  27.015  1.00  0.00     0.031 C 
ATOM     61  C   UNL A   1      42.330  32.660  30.133  1.00  0.00     0.029 A 
ATOM     62  C   UNL A   1      43.094  31.746  29.426  1.00  0.00     0.049 A 
ATOM     63  H   UNL A   1      42.634  29.754  28.897  1.00  0.00     0.167 HD
ATOM     64  C   UNL A   1      45.106  30.960  28.212  1.00  0.00     0.074 A 
ATOM     65  C   UNL A   1      46.422  31.153  27.640  1.00  0.00     0.031 C 
ATOM     66  C   UNL A   1      44.406  31.924  28.860  1.00  0.00     0.037 A 
BRANCH  53  67
ATOM     67  C   UNL A   1      38.831  30.113  30.811  1.00  0.00     0.057 A 
ATOM     68  C   UNL A   1      37.732  30.661  30.138  1.00  0.00     0.134 A 
ATOM     69  C   UNL A   1      38.687  29.870  32.185  1.00  0.00     0.134 A 
ATOM     70  F   UNL A   1      37.801  30.927  28.825  1.00  0.00    -0.206 F 
ATOM     71  C   UNL A   1      36.548  30.980  30.809  1.00  0.00     0.040 A 
ATOM     72  C   UNL A   1      37.500  30.156  32.861  1.00  0.00     0.040 A 
ATOM     73  F   UNL A   1      39.694  29.336  32.892  1.00  0.00    -0.206 F 
ATOM     74  C   UNL A   1      36.427  30.721  32.173  1.00  0.00     0.006 A 
ENDBRANCH  53  67
BRANCH  54  75
ATOM     75  C   UNL A   1      47.119  27.339  25.993  1.00  0.00     0.057 A 
ATOM     76  C   UNL A   1      47.195  27.492  24.604  1.00  0.00     0.134 A 
ATOM     77  C   UNL A   1      48.235  26.794  26.642  1.00  0.00     0.134 A 
ATOM     78  F   UNL A   1      46.152  27.983  23.920  1.00  0.00    -0.206 F 
ATOM     79  C   UNL A   1      48.328  27.100  23.886  1.00  0.00     0.040 A 
ATOM     80  C   UNL A   1      49.386  26.431  25.942  1.00  0.00     0.040 A 
ATOM     81  F   UNL A   1      48.230  26.622  27.972  1.00  0.00    -0.206 F 
ATOM     82  C   UNL A   1      49.431  26.576  24.558  1.00  0.00     0.006 A 
ENDBRANCH  54  75
BRANCH  66  83
ATOM     83  C   UNL A   1      45.072  33.260  29.022  1.00  0.00     0.057 A 
ATOM     84  C   UNL A   1      45.917  33.541  30.103  1.00  0.00     0.134 A 
ATOM     85  C   UNL A   1      44.884  34.269  28.069  1.00  0.00     0.134 A 
ATOM     86  F   UNL A   1      46.126  32.624  31.060  1.00  0.00    -0.206 F 
ATOM     87  C   UNL A   1      46.531  34.787  30.244  1.00  0.00     0.040 A 
ATOM     88  C   UNL A   1      45.516  35.507  28.183  1.00  0.00     0.040 A 
ATOM     89  F   UNL A   1      44.093  34.063  27.005  1.00  0.00    -0.206 F 
ATOM     90  C   UNL A   1      46.337  35.772  29.277  1.00  0.00     0.006 A 
ENDBRANCH  66  83
ENDBRANCH  40  41
ENDBRANCH  33  35
ENDBRANCH  32  33
ENDBRANCH  31  32
ENDBRANCH  30  31
ENDBRANCH   1  30
TORSDOF 16
ENDMDL
MODEL 2
REMARK VINA RESULT:     -11.8      3.638      8.893
REMARK SMILES Cn1ncc(C(=O)OCCOC(=O)c2ccc(-c3c4nc(c(-c5c(F)cccc5F)c5ccc([nH]5)c(-c5c(F)cccc5F)c5nc(c(-c6c(F)cccc6F)c6ccc3[nH]6)C=C5)C=C4)cc2)c1C(=O)Nc1nccc(-c2ccc(OC(F)F)cc2)n1
REMARK SMILES IDX 8 1 6 2 7 3 5 4 1 5 2 6 3 7 68 8 4 9 69 10 70 11 71 12 72 14
REMARK SMILES IDX 73 15 87 16 74 17 76 18 75 19 77 20 78 21 86 22 79 23 85 24
REMARK SMILES IDX 80 25 81 26 82 27 83 28 84 29 9 30 10 31 11 32 12 33 13 34
REMARK SMILES IDX 14 35 15 36 67 37 16 38 66 39 17 40 18 41 19 42 60 43 20 44
REMARK SMILES IDX 65 45 59 46 61 47 21 48 64 49 58 50 57 51 22 53 48 54 31 55
REMARK SMILES IDX 47 56 32 57 35 58 46 59 62 60 33 61 34 62 45 64 63 65 36 66
REMARK SMILES IDX 23 67 24 68 29 69 25 70 26 71 28 72 30 73 27 74 49 75 50 76
REMARK SMILES IDX 55 77 51 78 52 79 54 80 56 81 53 82 37 83 38 84 43 85 39 86
REMARK SMILES IDX 40 87 42 88 44 89 41 90
REMARK H PARENT 71 13 61 52 35 63
REMARK Flexibility Score: inf
ROOT
ATOM      1  O   UNL A   1      33.535  28.177  25.027  1.00  0.00    -0.458 OA
ENDROOT
BRANCH   1   2
ATOM      2  C   UNL A   1      33.240  26.963  24.490  1.00  0.00     0.342 C 
ATOM      3  O   UNL A   1      33.928  26.401  23.642  1.00  0.00    -0.246 OA
BRANCH   2   4
ATOM      4  C   UNL A   1      32.094  26.285  25.075  1.00  0.00     0.111 A 
ATOM      5  C   UNL A   1      30.447  23.411  26.105  1.00  0.00     0.174 C 
ATOM      6  N   UNL A   1      30.652  24.786  25.708  1.00  0.00    -0.262 N 
ATOM      7  N   UNL A   1      30.672  25.650  26.737  1.00  0.00    -0.180 NA
ATOM      8  C   UNL A   1      31.269  25.271  24.562  1.00  0.00     0.140 A 
ATOM      9  C   UNL A   1      31.678  26.447  26.414  1.00  0.00     0.151 A 
BRANCH   8  10
ATOM     10  C   UNL A   1      31.309  24.699  23.227  1.00  0.00     0.277 C 
ATOM     11  O   UNL A   1      30.739  25.254  22.281  1.00  0.00    -0.267 OA
ATOM     12  N   UNL A   1      32.067  23.617  22.877  1.00  0.00    -0.289 N 
ATOM     13  H   UNL A   1      32.133  23.479  21.904  1.00  0.00     0.173 HD
BRANCH  12  14
ATOM     14  C   UNL A   1      32.758  22.683  23.616  1.00  0.00     0.230 A 
ATOM     15  N   UNL A   1      32.186  21.470  23.603  1.00  0.00    -0.221 NA
ATOM     16  N   UNL A   1      33.957  22.945  24.135  1.00  0.00    -0.213 NA
ATOM     17  C   UNL A   1      32.936  20.445  24.039  1.00  0.00     0.117 A 
ATOM     18  C   UNL A   1      34.662  21.898  24.628  1.00  0.00     0.076 A 
ATOM     19  C   UNL A   1      34.196  20.600  24.559  1.00  0.00     0.049 A 
BRANCH  18  20
ATOM     20  C   UNL A   1      36.015  22.217  25.093  1.00  0.00     0.001 A 
ATOM     21  C   UNL A   1      37.020  21.242  25.129  1.00  0.00     0.014 A 
ATOM     22  C   UNL A   1      36.327  23.500  25.571  1.00  0.00     0.014 A 
ATOM     23  C   UNL A   1      38.291  21.544  25.630  1.00  0.00     0.047 A 
ATOM     24  C   UNL A   1      37.592  23.796  26.090  1.00  0.00     0.047 A 
ATOM     25  C   UNL A   1      38.584  22.819  26.121  1.00  0.00     0.126 A 
BRANCH  25  26
ATOM     26  O   UNL A   1      39.852  22.973  26.604  1.00  0.00    -0.435 OA
BRANCH  26  27
ATOM     27  C   UNL A   1      40.611  21.803  26.880  1.00  0.00     0.542 C 
ATOM     28  F   UNL A   1      41.615  21.679  25.976  1.00  0.00    -0.167 F 
ATOM     29  F   UNL A   1      41.160  21.882  28.116  1.00  0.00    -0.167 F 
ENDBRANCH  26  27
ENDBRANCH  25  26
ENDBRANCH  18  20
ENDBRANCH  12  14
ENDBRANCH   8  10
ENDBRANCH   2   4
ENDBRANCH   1   2
BRANCH   1  30
ATOM     30  C   UNL A   1      32.894  29.307  24.401  1.00  0.00     0.275 C 
BRANCH  30  31
ATOM     31  C   UNL A   1      31.888  29.957  25.352  1.00  0.00     0.275 C 
BRANCH  31  32
ATOM     32  O   UNL A   1      32.412  30.001  26.693  1.00  0.00    -0.458 OA
BRANCH  32  33
ATOM     33  C   UNL A   1      32.927  31.195  27.064  1.00  0.00     0.338 C 
ATOM     34  O   UNL A   1      32.353  32.266  27.128  1.00  0.00    -0.246 OA
BRANCH  33  35
ATOM     35  C   UNL A   1      34.324  31.034  27.494  1.00  0.00     0.060 A 
ATOM     36  C   UNL A   1      34.762  29.753  27.797  1.00  0.00     0.016 A 
ATOM     37  C   UNL A   1      35.121  32.130  27.801  1.00  0.00     0.016 A 
ATOM     38  C   UNL A   1      35.921  29.561  28.542  1.00  0.00     0.010 A 
ATOM     39  C   UNL A   1      36.363  31.924  28.419  1.00  0.00     0.010 A 
ATOM     40  C   UNL A   1      36.760  30.640  28.842  1.00  0.00    -0.014 A 
BRANCH  40  41
ATOM     41  C   UNL A   1      38.026  30.423  29.607  1.00  0.00     0.031 A 
ATOM     42  C   UNL A   1      39.159  29.629  29.004  1.00  0.00     0.074 A 
ATOM     43  C   UNL A   1      38.177  30.941  30.845  1.00  0.00     0.049 A 
ATOM     44  N   UNL A   1      40.243  29.164  29.574  1.00  0.00    -0.248 NA
ATOM     45  C   UNL A   1      39.051  29.299  27.574  1.00  0.00     0.031 C 
ATOM     46  C   UNL A   1      37.197  31.775  31.545  1.00  0.00     0.029 A 
ATOM     47  N   UNL A   1      39.216  30.842  31.741  1.00  0.00    -0.354 N 
ATOM     48  C   UNL A   1      40.912  28.442  28.591  1.00  0.00     0.074 A 
ATOM     49  C   UNL A   1      40.105  28.518  27.392  1.00  0.00     0.031 C 
ATOM     50  C   UNL A   1      37.695  32.144  32.734  1.00  0.00     0.029 A 
ATOM     51  C   UNL A   1      38.978  31.483  32.934  1.00  0.00     0.049 A 
ATOM     52  H   UNL A   1      40.051  30.359  31.546  1.00  0.00     0.167 HD
ATOM     53  C   UNL A   1      42.091  27.777  28.681  1.00  0.00     0.037 A 
ATOM     54  C   UNL A   1      39.675  31.497  34.085  1.00  0.00     0.037 A 
ATOM     55  C   UNL A   1      42.917  27.747  29.862  1.00  0.00     0.049 A 
ATOM     56  C   UNL A   1      40.944  30.702  34.181  1.00  0.00     0.074 A 
ATOM     57  C   UNL A   1      44.138  27.120  30.045  1.00  0.00     0.029 A 
ATOM     58  N   UNL A   1      42.613  28.381  31.057  1.00  0.00    -0.354 N 
ATOM     59  N   UNL A   1      41.544  29.987  33.260  1.00  0.00    -0.248 NA
ATOM     60  C   UNL A   1      41.626  30.698  35.482  1.00  0.00     0.031 C 
ATOM     61  C   UNL A   1      44.547  27.329  31.366  1.00  0.00     0.029 A 
ATOM     62  C   UNL A   1      43.610  28.137  31.990  1.00  0.00     0.049 A 
ATOM     63  H   UNL A   1      41.808  28.925  31.220  1.00  0.00     0.167 HD
ATOM     64  C   UNL A   1      42.681  29.467  33.862  1.00  0.00     0.074 A 
ATOM     65  C   UNL A   1      42.699  29.966  35.222  1.00  0.00     0.031 C 
ATOM     66  C   UNL A   1      43.622  28.646  33.337  1.00  0.00     0.037 A 
BRANCH  53  67
ATOM     67  C   UNL A   1      42.546  26.992  27.482  1.00  0.00     0.057 A 
ATOM     68  C   UNL A   1      43.281  27.571  26.440  1.00  0.00     0.134 A 
ATOM     69  C   UNL A   1      42.278  25.619  27.394  1.00  0.00     0.134 A 
ATOM     70  F   UNL A   1      43.568  28.881  26.454  1.00  0.00    -0.206 F 
ATOM     71  C   UNL A   1      43.708  26.820  25.341  1.00  0.00     0.040 A 
ATOM     72  C   UNL A   1      42.725  24.851  26.317  1.00  0.00     0.040 A 
ATOM     73  F   UNL A   1      41.589  24.995  28.361  1.00  0.00    -0.206 F 
ATOM     74  C   UNL A   1      43.436  25.454  25.281  1.00  0.00     0.006 A 
ENDBRANCH  53  67
BRANCH  54  75
ATOM     75  C   UNL A   1      39.156  32.243  35.263  1.00  0.00     0.057 A 
ATOM     76  C   UNL A   1      38.365  31.613  36.229  1.00  0.00     0.134 A 
ATOM     77  C   UNL A   1      39.430  33.605  35.444  1.00  0.00     0.134 A 
ATOM     78  F   UNL A   1      38.045  30.318  36.100  1.00  0.00    -0.206 F 
ATOM     79  C   UNL A   1      37.850  32.313  37.323  1.00  0.00     0.040 A 
ATOM     80  C   UNL A   1      38.952  34.309  36.551  1.00  0.00     0.040 A 
ATOM     81  F   UNL A   1      40.184  34.271  34.557  1.00  0.00    -0.206 F 
ATOM     82  C   UNL A   1      38.152  33.664  37.490  1.00  0.00     0.006 A 
ENDBRANCH  54  75
BRANCH  66  83
ATOM     83  C   UNL A   1      44.774  28.271  34.224  1.00  0.00     0.057 A 
ATOM     84  C   UNL A   1      44.758  27.111  35.010  1.00  0.00     0.134 A 
ATOM     85  C   UNL A   1      45.924  29.068  34.272  1.00  0.00     0.134 A 
ATOM     86  F   UNL A   1      43.681  26.312  35.023  1.00  0.00    -0.206 F 
ATOM     87  C   UNL A   1      45.836  26.772  35.831  1.00  0.00     0.040 A 
ATOM     88  C   UNL A   1      47.019  28.724  35.065  1.00  0.00     0.040 A 
ATOM     89  F   UNL A   1      46.008  30.189  33.539  1.00  0.00    -0.206 F 
ATOM     90  C   UNL A   1      46.974  27.576  35.853  1.00  0.00     0.006 A 
ENDBRANCH  66  83
ENDBRANCH  40  41
ENDBRANCH  33  35
ENDBRANCH  32  33
ENDBRANCH  31  32
ENDBRANCH  30  31
ENDBRANCH   1  30
TORSDOF 16
ENDMDL
MODEL 3
REMARK VINA RESULT:     -11.8      2.058      2.947
REMARK SMILES Cn1ncc(C(=O)OCCOC(=O)c2ccc(-c3c4nc(c(-c5c(F)cccc5F)c5ccc([nH]5)c(-c5c(F)cccc5F)c5nc(c(-c6c(F)cccc6F)c6ccc3[nH]6)C=C5)C=C4)cc2)c1C(=O)Nc1nccc(-c2ccc(OC(F)F)cc2)n1
REMARK SMILES IDX 8 1 6 2 7 3 5 4 1 5 2 6 3 7 68 8 4 9 69 10 70 11 71 12 72 14
REMARK SMILES IDX 73 15 87 16 74 17 76 18 75 19 77 20 78 21 86 22 79 23 85 24
REMARK SMILES IDX 80 25 81 26 82 27 83 28 84 29 9 30 10 31 11 32 12 33 13 34
REMARK SMILES IDX 14 35 15 36 67 37 16 38 66 39 17 40 18 41 19 42 60 43 20 44
REMARK SMILES IDX 65 45 59 46 61 47 21 48 64 49 58 50 57 51 22 53 48 54 31 55
REMARK SMILES IDX 47 56 32 57 35 58 46 59 62 60 33 61 34 62 45 64 63 65 36 66
REMARK SMILES IDX 23 67 24 68 29 69 25 70 26 71 28 72 30 73 27 74 49 75 50 76
REMARK SMILES IDX 55 77 51 78 52 79 54 80 56 81 53 82 37 83 38 84 43 85 39 86
REMARK SMILES IDX 40 87 42 88 44 89 41 90
REMARK H PARENT 71 13 61 52 35 63
REMARK Flexibility Score: inf
ROOT
ATOM      1  O   UNL A   1      34.895  20.877  25.911  1.00  0.00    -0.458 OA
ENDROOT
BRANCH   1   2
ATOM      2  C   UNL A   1      33.886  21.740  25.620  1.00  0.00     0.342 C 
ATOM      3  O   UNL A   1      32.773  21.696  26.138  1.00  0.00    -0.246 OA
BRANCH   2   4
ATOM      4  C   UNL A   1      34.235  22.827  24.720  1.00  0.00     0.111 A 
ATOM      5  C   UNL A   1      33.509  25.819  23.121  1.00  0.00     0.174 C 
ATOM      6  N   UNL A   1      34.163  24.563  23.413  1.00  0.00    -0.262 N 
ATOM      7  N   UNL A   1      35.342  24.699  24.043  1.00  0.00    -0.180 NA
ATOM      8  C   UNL A   1      33.592  23.308  23.568  1.00  0.00     0.140 A 
ATOM      9  C   UNL A   1      35.284  23.742  24.955  1.00  0.00     0.151 A 
BRANCH   8  10
ATOM     10  C   UNL A   1      32.419  22.744  22.919  1.00  0.00     0.277 C 
ATOM     11  O   UNL A   1      32.523  21.798  22.132  1.00  0.00    -0.267 OA
ATOM     12  N   UNL A   1      31.133  23.098  23.216  1.00  0.00    -0.289 N 
ATOM     13  H   UNL A   1      30.458  22.491  22.834  1.00  0.00     0.173 HD
BRANCH  12  14
ATOM     14  C   UNL A   1      30.594  24.134  23.944  1.00  0.00     0.230 A 
ATOM     15  N   UNL A   1      30.751  23.989  25.268  1.00  0.00    -0.221 NA
ATOM     16  N   UNL A   1      30.124  25.235  23.357  1.00  0.00    -0.213 NA
ATOM     17  C   UNL A   1      30.528  25.076  26.025  1.00  0.00     0.117 A 
ATOM     18  C   UNL A   1      29.845  26.293  24.156  1.00  0.00     0.076 A 
ATOM     19  C   UNL A   1      30.078  26.269  25.517  1.00  0.00     0.049 A 
BRANCH  18  20
ATOM     20  C   UNL A   1      29.431  27.514  23.458  1.00  0.00     0.001 A 
ATOM     21  C   UNL A   1      28.091  27.919  23.435  1.00  0.00     0.014 A 
ATOM     22  C   UNL A   1      30.363  28.284  22.744  1.00  0.00     0.014 A 
ATOM     23  C   UNL A   1      27.699  29.054  22.716  1.00  0.00     0.047 A 
ATOM     24  C   UNL A   1      29.968  29.407  22.009  1.00  0.00     0.047 A 
ATOM     25  C   UNL A   1      28.633  29.801  21.992  1.00  0.00     0.126 A 
BRANCH  25  26
ATOM     26  O   UNL A   1      28.116  30.868  21.315  1.00  0.00    -0.435 OA
BRANCH  26  27
ATOM     27  C   UNL A   1      28.295  32.166  21.869  1.00  0.00     0.542 C 
ATOM     28  F   UNL A   1      27.622  33.082  21.128  1.00  0.00    -0.167 F 
ATOM     29  F   UNL A   1      27.813  32.205  23.134  1.00  0.00    -0.167 F 
ENDBRANCH  26  27
ENDBRANCH  25  26
ENDBRANCH  18  20
ENDBRANCH  12  14
ENDBRANCH   8  10
ENDBRANCH   2   4
ENDBRANCH   1   2
BRANCH   1  30
ATOM     30  C   UNL A   1      35.371  20.079  24.807  1.00  0.00     0.275 C 
BRANCH  30  31
ATOM     31  C   UNL A   1      36.878  19.842  24.918  1.00  0.00     0.275 C 
BRANCH  31  32
ATOM     32  O   UNL A   1      37.531  20.988  25.498  1.00  0.00    -0.458 OA
BRANCH  32  33
ATOM     33  C   UNL A   1      38.832  20.800  25.819  1.00  0.00     0.338 C 
ATOM     34  O   UNL A   1      39.534  19.844  25.548  1.00  0.00    -0.246 OA
BRANCH  33  35
ATOM     35  C   UNL A   1      39.364  21.990  26.497  1.00  0.00     0.060 A 
ATOM     36  C   UNL A   1      38.886  23.229  26.097  1.00  0.00     0.016 A 
ATOM     37  C   UNL A   1      40.460  21.912  27.349  1.00  0.00     0.016 A 
ATOM     38  C   UNL A   1      39.582  24.392  26.415  1.00  0.00     0.010 A 
ATOM     39  C   UNL A   1      41.070  23.095  27.792  1.00  0.00     0.010 A 
ATOM     40  C   UNL A   1      40.670  24.350  27.293  1.00  0.00    -0.014 A 
BRANCH  40  41
ATOM     41  C   UNL A   1      41.389  25.607  27.665  1.00  0.00     0.031 A 
ATOM     42  C   UNL A   1      40.702  26.666  28.493  1.00  0.00     0.074 A 
ATOM     43  C   UNL A   1      42.666  25.810  27.274  1.00  0.00     0.049 A 
ATOM     44  N   UNL A   1      41.077  27.895  28.747  1.00  0.00    -0.248 NA
ATOM     45  C   UNL A   1      39.414  26.300  29.103  1.00  0.00     0.031 C 
ATOM     46  C   UNL A   1      43.485  24.860  26.516  1.00  0.00     0.029 A 
ATOM     47  N   UNL A   1      43.503  26.884  27.458  1.00  0.00    -0.354 N 
ATOM     48  C   UNL A   1      40.050  28.463  29.492  1.00  0.00     0.074 A 
ATOM     49  C   UNL A   1      39.028  27.449  29.638  1.00  0.00     0.031 C 
ATOM     50  C   UNL A   1      44.710  25.373  26.338  1.00  0.00     0.029 A 
ATOM     51  C   UNL A   1      44.735  26.731  26.865  1.00  0.00     0.049 A 
ATOM     52  H   UNL A   1      43.246  27.687  27.966  1.00  0.00     0.167 HD
ATOM     53  C   UNL A   1      39.966  29.715  30.007  1.00  0.00     0.037 A 
ATOM     54  C   UNL A   1      45.753  27.596  26.706  1.00  0.00     0.037 A 
ATOM     55  C   UNL A   1      41.009  30.705  29.905  1.00  0.00     0.049 A 
ATOM     56  C   UNL A   1      45.612  28.996  27.229  1.00  0.00     0.074 A 
ATOM     57  C   UNL A   1      41.028  31.993  30.412  1.00  0.00     0.029 A 
ATOM     58  N   UNL A   1      42.222  30.513  29.261  1.00  0.00    -0.354 N 
ATOM     59  N   UNL A   1      44.618  29.535  27.892  1.00  0.00    -0.248 NA
ATOM     60  C   UNL A   1      46.727  29.916  26.965  1.00  0.00     0.031 C 
ATOM     61  C   UNL A   1      42.229  32.599  30.030  1.00  0.00     0.029 A 
ATOM     62  C   UNL A   1      42.985  31.669  29.336  1.00  0.00     0.049 A 
ATOM     63  H   UNL A   1      42.502  29.680  28.817  1.00  0.00     0.167 HD
ATOM     64  C   UNL A   1      44.995  30.846  28.143  1.00  0.00     0.074 A 
ATOM     65  C   UNL A   1      46.318  31.017  27.579  1.00  0.00     0.031 C 
ATOM     66  C   UNL A   1      44.304  31.824  28.778  1.00  0.00     0.037 A 
BRANCH  53  67
ATOM     67  C   UNL A   1      38.690  30.104  30.699  1.00  0.00     0.057 A 
ATOM     68  C   UNL A   1      37.619  30.702  30.021  1.00  0.00     0.134 A 
ATOM     69  C   UNL A   1      38.514  29.833  32.064  1.00  0.00     0.134 A 
ATOM     70  F   UNL A   1      37.720  30.998  28.717  1.00  0.00    -0.206 F 
ATOM     71  C   UNL A   1      36.435  31.043  30.680  1.00  0.00     0.040 A 
ATOM     72  C   UNL A   1      37.325  30.140  32.726  1.00  0.00     0.040 A 
ATOM     73  F   UNL A   1      39.492  29.251  32.774  1.00  0.00    -0.206 F 
ATOM     74  C   UNL A   1      36.282  30.755  32.035  1.00  0.00     0.006 A 
ENDBRANCH  53  67
BRANCH  54  75
ATOM     75  C   UNL A   1      46.976  27.182  25.966  1.00  0.00     0.057 A 
ATOM     76  C   UNL A   1      47.095  27.392  24.588  1.00  0.00     0.134 A 
ATOM     77  C   UNL A   1      48.048  26.557  26.616  1.00  0.00     0.134 A 
ATOM     78  F   UNL A   1      46.093  27.962  23.902  1.00  0.00    -0.206 F 
ATOM     79  C   UNL A   1      48.227  26.981  23.880  1.00  0.00     0.040 A 
ATOM     80  C   UNL A   1      49.200  26.172  25.928  1.00  0.00     0.040 A 
ATOM     81  F   UNL A   1      48.000  26.326  27.936  1.00  0.00    -0.206 F 
ATOM     82  C   UNL A   1      49.287  26.376  24.554  1.00  0.00     0.006 A 
ENDBRANCH  54  75
BRANCH  66  83
ATOM     83  C   UNL A   1      44.986  33.152  28.935  1.00  0.00     0.057 A 
ATOM     84  C   UNL A   1      45.864  33.414  29.996  1.00  0.00     0.134 A 
ATOM     85  C   UNL A   1      44.783  34.173  27.999  1.00  0.00     0.134 A 
ATOM     86  F   UNL A   1      46.090  32.485  30.937  1.00  0.00    -0.206 F 
ATOM     87  C   UNL A   1      46.493  34.653  30.132  1.00  0.00     0.040 A 
ATOM     88  C   UNL A   1      45.430  35.404  28.107  1.00  0.00     0.040 A 
ATOM     89  F   UNL A   1      43.961  33.985  26.954  1.00  0.00    -0.206 F 
ATOM     90  C   UNL A   1      46.282  35.649  29.181  1.00  0.00     0.006 A 
ENDBRANCH  66  83
ENDBRANCH  40  41
ENDBRANCH  33  35
ENDBRANCH  32  33
ENDBRANCH  31  32
ENDBRANCH  30  31
ENDBRANCH   1  30
TORSDOF 16
ENDMDL
