MODEL 1
REMARK VINA RESULT:     -12.2      0.000      0.000
REMARK SMILES Cc1ccc(Nc2c(Cl)cc(Cl)cc2Cl)c(CC(=O)OCCOC(=O)c2ccc(-c3c4nc(c(-c5c(F)cccc5F)c5ccc([nH]5)c(-c5c(F)cccc5F)c5nc(c(-c6c(F)cccc6F)c6ccc3[nH]6)C=C5)C=C4)cc2)c1
REMARK SMILES IDX 21 1 20 2 18 3 19 4 17 5 16 6 1 7 2 8 3 9 80 10 4 11 5 12
REMARK SMILES IDX 6 13 7 15 8 16 14 17 9 18 10 19 13 20 15 21 11 22 12 23
REMARK SMILES IDX 22 24 23 25 24 26 25 27 26 28 27 29 79 30 28 31 78 32 29 33
REMARK SMILES IDX 30 34 31 35 72 36 32 37 77 38 71 39 73 40 33 41 76 42 70 43
REMARK SMILES IDX 69 44 34 46 60 47 43 48 59 49 44 50 47 51 58 52 74 53 45 54
REMARK SMILES IDX 46 55 57 57 75 58 48 59 35 60 36 61 41 62 37 63 38 64 40 65
REMARK SMILES IDX 42 66 39 67 61 68 62 69 67 70 63 71 64 72 66 73 68 74 65 75
REMARK SMILES IDX 49 76 50 77 55 78 51 79 52 80 54 81 56 82 53 83
REMARK H PARENT 6 14 73 45 47 56
REMARK Flexibility Score: inf
ROOT
ATOM      1  C   UNL A   1      33.368  30.503  26.687  1.00  0.00     0.274 C 
ENDROOT
BRANCH   1   2
ATOM      2  O   UNL A   1      32.178  30.028  27.298  1.00  0.00    -0.462 OA
BRANCH   2   3
ATOM      3  C   UNL A   1      31.923  28.690  27.236  1.00  0.00     0.310 C 
ATOM      4  O   UNL A   1      31.285  28.050  28.036  1.00  0.00    -0.252 OA
BRANCH   3   5
ATOM      5  C   UNL A   1      32.594  28.135  25.992  1.00  0.00     0.160 C 
BRANCH   5   6
ATOM      6  C   UNL A   1      31.541  27.510  25.118  1.00  0.00    -0.013 A 
ATOM      7  C   UNL A   1      29.005  29.006  22.715  1.00  0.00     0.044 C 
ATOM      8  C   UNL A   1      29.741  28.014  23.561  1.00  0.00    -0.051 A 
ATOM      9  C   UNL A   1      29.253  26.720  23.745  1.00  0.00     0.005 A 
ATOM     10  C   UNL A   1      30.896  28.393  24.232  1.00  0.00     0.009 A 
ATOM     11  C   UNL A   1      29.913  25.821  24.590  1.00  0.00     0.026 A 
ATOM     12  C   UNL A   1      31.059  26.193  25.301  1.00  0.00     0.042 A 
BRANCH  12  13
ATOM     13  N   UNL A   1      31.642  25.296  26.219  1.00  0.00    -0.353 N 
ATOM     14  H   UNL A   1      31.639  25.596  27.156  1.00  0.00     0.167 HD
BRANCH  13  15
ATOM     15  C   UNL A   1      32.233  24.027  25.992  1.00  0.00     0.076 A 
ATOM     16  C   UNL A   1      31.505  22.837  26.187  1.00  0.00     0.067 A 
ATOM     17  C   UNL A   1      33.490  23.911  25.364  1.00  0.00     0.067 A 
ATOM     18  Cl  UNL A   1      29.944  22.843  26.933  1.00  0.00    -0.082 Cl
ATOM     19  C   UNL A   1      32.018  21.598  25.786  1.00  0.00     0.043 A 
ATOM     20  C   UNL A   1      33.970  22.688  24.891  1.00  0.00     0.043 A 
ATOM     21  Cl  UNL A   1      34.589  25.236  25.294  1.00  0.00    -0.082 Cl
ATOM     22  C   UNL A   1      33.234  21.536  25.115  1.00  0.00     0.044 A 
ATOM     23  Cl  UNL A   1      33.851  20.018  24.592  1.00  0.00    -0.084 Cl
ENDBRANCH  13  15
ENDBRANCH  12  13
ENDBRANCH   5   6
ENDBRANCH   3   5
ENDBRANCH   2   3
ENDBRANCH   1   2
BRANCH   1  24
ATOM     24  C   UNL A   1      34.351  30.960  27.778  1.00  0.00     0.275 C 
BRANCH  24  25
ATOM     25  O   UNL A   1      35.704  30.357  27.802  1.00  0.00    -0.458 OA
BRANCH  25  26
ATOM     26  C   UNL A   1      36.506  30.004  28.846  1.00  0.00     0.338 C 
ATOM     27  O   UNL A   1      36.235  30.272  30.009  1.00  0.00    -0.246 OA
BRANCH  26  28
ATOM     28  C   UNL A   1      37.698  29.207  28.530  1.00  0.00     0.060 A 
ATOM     29  C   UNL A   1      38.502  29.463  27.404  1.00  0.00     0.016 A 
ATOM     30  C   UNL A   1      38.093  28.303  29.489  1.00  0.00     0.016 A 
ATOM     31  C   UNL A   1      39.770  28.888  27.337  1.00  0.00     0.010 A 
ATOM     32  C   UNL A   1      39.419  28.026  29.589  1.00  0.00     0.010 A 
ATOM     33  C   UNL A   1      40.223  28.198  28.461  1.00  0.00    -0.014 A 
BRANCH  33  34
ATOM     34  C   UNL A   1      41.349  27.283  28.489  1.00  0.00     0.031 A 
ATOM     35  C   UNL A   1      41.202  25.855  28.219  1.00  0.00     0.074 A 
ATOM     36  C   UNL A   1      42.528  27.927  28.659  1.00  0.00     0.049 A 
ATOM     37  N   UNL A   1      41.815  24.941  28.885  1.00  0.00    -0.248 NA
ATOM     38  C   UNL A   1      40.335  25.327  27.169  1.00  0.00     0.031 C 
ATOM     39  C   UNL A   1      43.897  27.489  28.515  1.00  0.00     0.029 A 
ATOM     40  N   UNL A   1      42.653  29.251  29.110  1.00  0.00    -0.354 N 
ATOM     41  C   UNL A   1      41.725  23.795  28.125  1.00  0.00     0.074 A 
ATOM     42  C   UNL A   1      40.650  24.025  27.188  1.00  0.00     0.031 C 
ATOM     43  C   UNL A   1      44.694  28.379  29.145  1.00  0.00     0.029 A 
ATOM     44  C   UNL A   1      43.847  29.374  29.802  1.00  0.00     0.049 A 
ATOM     45  H   UNL A   1      42.000  29.973  28.960  1.00  0.00     0.167 HD
ATOM     46  C   UNL A   1      42.743  22.888  28.150  1.00  0.00     0.037 A 
ATOM     47  C   UNL A   1      43.743  29.636  31.137  1.00  0.00     0.037 A 
ATOM     48  C   UNL A   1      43.862  23.419  28.924  1.00  0.00     0.049 A 
ATOM     49  C   UNL A   1      44.115  28.409  31.926  1.00  0.00     0.074 A 
ATOM     50  C   UNL A   1      44.996  24.105  28.518  1.00  0.00     0.029 A 
ATOM     51  N   UNL A   1      43.717  23.678  30.283  1.00  0.00    -0.354 N 
ATOM     52  N   UNL A   1      44.056  27.194  31.451  1.00  0.00    -0.248 NA
ATOM     53  C   UNL A   1      44.645  28.460  33.282  1.00  0.00     0.031 C 
ATOM     54  C   UNL A   1      45.498  24.828  29.626  1.00  0.00     0.029 A 
ATOM     55  C   UNL A   1      44.672  24.585  30.708  1.00  0.00     0.049 A 
ATOM     56  H   UNL A   1      43.030  23.272  30.862  1.00  0.00     0.167 HD
ATOM     57  C   UNL A   1      44.589  26.325  32.361  1.00  0.00     0.074 A 
ATOM     58  C   UNL A   1      44.928  27.163  33.499  1.00  0.00     0.031 C 
ATOM     59  C   UNL A   1      44.743  24.994  32.101  1.00  0.00     0.037 A 
BRANCH  46  60
ATOM     60  C   UNL A   1      42.853  21.752  27.163  1.00  0.00     0.057 A 
ATOM     61  C   UNL A   1      42.031  20.612  27.247  1.00  0.00     0.134 A 
ATOM     62  C   UNL A   1      43.760  21.747  26.088  1.00  0.00     0.134 A 
ATOM     63  F   UNL A   1      41.078  20.493  28.179  1.00  0.00    -0.206 F 
ATOM     64  C   UNL A   1      42.146  19.521  26.376  1.00  0.00     0.040 A 
ATOM     65  C   UNL A   1      43.904  20.649  25.223  1.00  0.00     0.040 A 
ATOM     66  F   UNL A   1      44.528  22.815  25.826  1.00  0.00    -0.206 F 
ATOM     67  C   UNL A   1      43.098  19.527  25.370  1.00  0.00     0.006 A 
ENDBRANCH  46  60
BRANCH  47  68
ATOM     68  C   UNL A   1      42.638  30.606  31.463  1.00  0.00     0.057 A 
ATOM     69  C   UNL A   1      42.796  31.954  31.073  1.00  0.00     0.134 A 
ATOM     70  C   UNL A   1      41.343  30.220  31.825  1.00  0.00     0.134 A 
ATOM     71  F   UNL A   1      44.004  32.410  30.703  1.00  0.00    -0.206 F 
ATOM     72  C   UNL A   1      41.716  32.839  30.950  1.00  0.00     0.040 A 
ATOM     73  C   UNL A   1      40.254  31.106  31.726  1.00  0.00     0.040 A 
ATOM     74  F   UNL A   1      41.083  28.959  32.200  1.00  0.00    -0.206 F 
ATOM     75  C   UNL A   1      40.431  32.407  31.255  1.00  0.00     0.006 A 
ENDBRANCH  47  68
BRANCH  59  76
ATOM     76  C   UNL A   1      45.092  23.948  33.120  1.00  0.00     0.057 A 
ATOM     77  C   UNL A   1      46.348  23.848  33.726  1.00  0.00     0.134 A 
ATOM     78  C   UNL A   1      44.089  23.105  33.651  1.00  0.00     0.134 A 
ATOM     79  F   UNL A   1      47.355  24.668  33.395  1.00  0.00    -0.206 F 
ATOM     80  C   UNL A   1      46.608  22.933  34.750  1.00  0.00     0.040 A 
ATOM     81  C   UNL A   1      44.320  22.238  34.717  1.00  0.00     0.040 A 
ATOM     82  F   UNL A   1      42.833  23.107  33.179  1.00  0.00    -0.206 F 
ATOM     83  C   UNL A   1      45.590  22.137  35.261  1.00  0.00     0.006 A 
ENDBRANCH  59  76
ENDBRANCH  33  34
ENDBRANCH  26  28
ENDBRANCH  25  26
ENDBRANCH  24  25
ENDBRANCH   1  24
TORSDOF 14
ENDMDL
MODEL 2
REMARK VINA RESULT:     -12.1      1.512      3.031
REMARK SMILES Cc1ccc(Nc2c(Cl)cc(Cl)cc2Cl)c(CC(=O)OCCOC(=O)c2ccc(-c3c4nc(c(-c5c(F)cccc5F)c5ccc([nH]5)c(-c5c(F)cccc5F)c5nc(c(-c6c(F)cccc6F)c6ccc3[nH]6)C=C5)C=C4)cc2)c1
REMARK SMILES IDX 21 1 20 2 18 3 19 4 17 5 16 6 1 7 2 8 3 9 80 10 4 11 5 12
REMARK SMILES IDX 6 13 7 15 8 16 14 17 9 18 10 19 13 20 15 21 11 22 12 23
REMARK SMILES IDX 22 24 23 25 24 26 25 27 26 28 27 29 79 30 28 31 78 32 29 33
REMARK SMILES IDX 30 34 31 35 72 36 32 37 77 38 71 39 73 40 33 41 76 42 70 43
REMARK SMILES IDX 69 44 34 46 60 47 43 48 59 49 44 50 47 51 58 52 74 53 45 54
REMARK SMILES IDX 46 55 57 57 75 58 48 59 35 60 36 61 41 62 37 63 38 64 40 65
REMARK SMILES IDX 42 66 39 67 61 68 62 69 67 70 63 71 64 72 66 73 68 74 65 75
REMARK SMILES IDX 49 76 50 77 55 78 51 79 52 80 54 81 56 82 53 83
REMARK H PARENT 6 14 73 45 47 56
REMARK Flexibility Score: inf
ROOT
ATOM      1  C   UNL A   1      33.520  29.144  26.354  1.00  0.00     0.274 C 
ENDROOT
BRANCH   1   2
ATOM      2  O   UNL A   1      33.047  28.041  27.112  1.00  0.00    -0.462 OA
BRANCH   2   3
ATOM      3  C   UNL A   1      32.731  26.898  26.440  1.00  0.00     0.310 C 
ATOM      4  O   UNL A   1      31.648  26.367  26.409  1.00  0.00    -0.252 OA
BRANCH   3   5
ATOM      5  C   UNL A   1      33.983  26.396  25.742  1.00  0.00     0.160 C 
BRANCH   5   6
ATOM      6  C   UNL A   1      33.747  24.980  25.292  1.00  0.00    -0.013 A 
ATOM      7  C   UNL A   1      34.498  21.628  26.918  1.00  0.00     0.044 C 
ATOM      8  C   UNL A   1      34.092  22.651  25.902  1.00  0.00    -0.051 A 
ATOM      9  C   UNL A   1      33.848  22.293  24.576  1.00  0.00     0.005 A 
ATOM     10  C   UNL A   1      34.017  23.992  26.256  1.00  0.00     0.009 A 
ATOM     11  C   UNL A   1      33.535  23.265  23.620  1.00  0.00     0.026 A 
ATOM     12  C   UNL A   1      33.486  24.624  23.947  1.00  0.00     0.042 A 
BRANCH  12  13
ATOM     13  N   UNL A   1      33.265  25.585  22.941  1.00  0.00    -0.353 N 
ATOM     14  H   UNL A   1      33.899  25.557  22.188  1.00  0.00     0.167 HD
BRANCH  13  15
ATOM     15  C   UNL A   1      32.266  26.588  22.852  1.00  0.00     0.076 A 
ATOM     16  C   UNL A   1      30.910  26.292  23.089  1.00  0.00     0.067 A 
ATOM     17  C   UNL A   1      32.612  27.951  22.736  1.00  0.00     0.067 A 
ATOM     18  Cl  UNL A   1      30.358  24.662  23.265  1.00  0.00    -0.082 Cl
ATOM     19  C   UNL A   1      29.952  27.307  23.190  1.00  0.00     0.043 A 
ATOM     20  C   UNL A   1      31.673  28.969  22.914  1.00  0.00     0.043 A 
ATOM     21  Cl  UNL A   1      34.173  28.444  22.197  1.00  0.00    -0.082 Cl
ATOM     22  C   UNL A   1      30.345  28.640  23.129  1.00  0.00     0.044 A 
ATOM     23  Cl  UNL A   1      29.174  29.889  23.285  1.00  0.00    -0.084 Cl
ENDBRANCH  13  15
ENDBRANCH  12  13
ENDBRANCH   5   6
ENDBRANCH   3   5
ENDBRANCH   2   3
ENDBRANCH   1   2
BRANCH   1  24
ATOM     24  C   UNL A   1      34.335  30.076  27.268  1.00  0.00     0.275 C 
BRANCH  24  25
ATOM     25  O   UNL A   1      35.813  30.011  27.198  1.00  0.00    -0.458 OA
BRANCH  25  26
ATOM     26  C   UNL A   1      36.769  30.484  28.047  1.00  0.00     0.338 C 
ATOM     27  O   UNL A   1      36.702  31.589  28.569  1.00  0.00    -0.246 OA
BRANCH  26  28
ATOM     28  C   UNL A   1      37.870  29.574  28.383  1.00  0.00     0.060 A 
ATOM     29  C   UNL A   1      37.804  28.671  29.460  1.00  0.00     0.016 A 
ATOM     30  C   UNL A   1      38.910  29.523  27.483  1.00  0.00     0.016 A 
ATOM     31  C   UNL A   1      38.733  27.635  29.530  1.00  0.00     0.010 A 
ATOM     32  C   UNL A   1      39.585  28.351  27.362  1.00  0.00     0.010 A 
ATOM     33  C   UNL A   1      39.598  27.473  28.446  1.00  0.00    -0.014 A 
BRANCH  33  34
ATOM     34  C   UNL A   1      40.813  26.680  28.451  1.00  0.00     0.031 A 
ATOM     35  C   UNL A   1      40.809  25.241  28.205  1.00  0.00     0.074 A 
ATOM     36  C   UNL A   1      41.923  27.447  28.576  1.00  0.00     0.049 A 
ATOM     37  N   UNL A   1      41.533  24.407  28.864  1.00  0.00    -0.248 NA
ATOM     38  C   UNL A   1      39.970  24.609  27.189  1.00  0.00     0.031 C 
ATOM     39  C   UNL A   1      43.325  27.151  28.395  1.00  0.00     0.029 A 
ATOM     40  N   UNL A   1      41.922  28.783  29.005  1.00  0.00    -0.354 N 
ATOM     41  C   UNL A   1      41.540  23.245  28.122  1.00  0.00     0.074 A 
ATOM     42  C   UNL A   1      40.420  23.347  27.216  1.00  0.00     0.031 C 
ATOM     43  C   UNL A   1      44.044  28.130  28.989  1.00  0.00     0.029 A 
ATOM     44  C   UNL A   1      43.117  29.041  29.658  1.00  0.00     0.049 A 
ATOM     45  H   UNL A   1      41.193  29.431  28.866  1.00  0.00     0.167 HD
ATOM     46  C   UNL A   1      42.648  22.450  28.126  1.00  0.00     0.037 A 
ATOM     47  C   UNL A   1      43.025  29.313  30.992  1.00  0.00     0.037 A 
ATOM     48  C   UNL A   1      43.728  23.107  28.858  1.00  0.00     0.049 A 
ATOM     49  C   UNL A   1      43.547  28.144  31.785  1.00  0.00     0.074 A 
ATOM     50  C   UNL A   1      44.771  23.900  28.408  1.00  0.00     0.029 A 
ATOM     51  N   UNL A   1      43.597  23.371  30.218  1.00  0.00    -0.354 N 
ATOM     52  N   UNL A   1      43.601  26.922  31.329  1.00  0.00    -0.248 NA
ATOM     53  C   UNL A   1      44.108  28.272  33.123  1.00  0.00     0.031 C 
ATOM     54  C   UNL A   1      45.228  24.690  29.490  1.00  0.00     0.029 A 
ATOM     55  C   UNL A   1      44.464  24.380  30.601  1.00  0.00     0.049 A 
ATOM     56  H   UNL A   1      42.974  22.906  30.823  1.00  0.00     0.167 HD
ATOM     57  C   UNL A   1      44.249  26.128  32.233  1.00  0.00     0.074 A 
ATOM     58  C   UNL A   1      44.532  27.016  33.348  1.00  0.00     0.031 C 
ATOM     59  C   UNL A   1      44.533  24.817  31.986  1.00  0.00     0.037 A 
BRANCH  46  60
ATOM     60  C   UNL A   1      42.847  21.316  27.152  1.00  0.00     0.057 A 
ATOM     61  C   UNL A   1      42.138  20.104  27.267  1.00  0.00     0.134 A 
ATOM     62  C   UNL A   1      43.729  21.381  26.059  1.00  0.00     0.134 A 
ATOM     63  F   UNL A   1      41.219  19.908  28.219  1.00  0.00    -0.206 F 
ATOM     64  C   UNL A   1      42.340  19.017  26.407  1.00  0.00     0.040 A 
ATOM     65  C   UNL A   1      43.961  20.289  25.205  1.00  0.00     0.040 A 
ATOM     66  F   UNL A   1      44.388  22.513  25.769  1.00  0.00    -0.206 F 
ATOM     67  C   UNL A   1      43.268  19.098  25.382  1.00  0.00     0.006 A 
ENDBRANCH  46  60
BRANCH  47  68
ATOM     68  C   UNL A   1      41.836  30.168  31.339  1.00  0.00     0.057 A 
ATOM     69  C   UNL A   1      41.782  31.481  30.822  1.00  0.00     0.134 A 
ATOM     70  C   UNL A   1      40.637  29.664  31.857  1.00  0.00     0.134 A 
ATOM     71  F   UNL A   1      42.884  32.043  30.299  1.00  0.00    -0.206 F 
ATOM     72  C   UNL A   1      40.589  32.211  30.729  1.00  0.00     0.040 A 
ATOM     73  C   UNL A   1      39.437  30.396  31.789  1.00  0.00     0.040 A 
ATOM     74  F   UNL A   1      40.577  28.423  32.362  1.00  0.00    -0.206 F 
ATOM     75  C   UNL A   1      39.403  31.657  31.193  1.00  0.00     0.006 A 
ENDBRANCH  47  68
BRANCH  59  76
ATOM     76  C   UNL A   1      45.019  23.829  33.007  1.00  0.00     0.057 A 
ATOM     77  C   UNL A   1      46.295  23.873  33.578  1.00  0.00     0.134 A 
ATOM     78  C   UNL A   1      44.127  22.892  33.577  1.00  0.00     0.134 A 
ATOM     79  F   UNL A   1      47.200  24.791  33.208  1.00  0.00    -0.206 F 
ATOM     80  C   UNL A   1      46.679  23.006  34.605  1.00  0.00     0.040 A 
ATOM     81  C   UNL A   1      44.478  22.072  34.647  1.00  0.00     0.040 A 
ATOM     82  F   UNL A   1      42.865  22.754  33.141  1.00  0.00    -0.206 F 
ATOM     83  C   UNL A   1      45.766  22.114  35.154  1.00  0.00     0.006 A 
ENDBRANCH  59  76
ENDBRANCH  33  34
ENDBRANCH  26  28
ENDBRANCH  25  26
ENDBRANCH  24  25
ENDBRANCH   1  24
TORSDOF 14
ENDMDL
MODEL 3
REMARK VINA RESULT:     -11.9      1.637      3.441
REMARK SMILES Cc1ccc(Nc2c(Cl)cc(Cl)cc2Cl)c(CC(=O)OCCOC(=O)c2ccc(-c3c4nc(c(-c5c(F)cccc5F)c5ccc([nH]5)c(-c5c(F)cccc5F)c5nc(c(-c6c(F)cccc6F)c6ccc3[nH]6)C=C5)C=C4)cc2)c1
REMARK SMILES IDX 21 1 20 2 18 3 19 4 17 5 16 6 1 7 2 8 3 9 80 10 4 11 5 12
REMARK SMILES IDX 6 13 7 15 8 16 14 17 9 18 10 19 13 20 15 21 11 22 12 23
REMARK SMILES IDX 22 24 23 25 24 26 25 27 26 28 27 29 79 30 28 31 78 32 29 33
REMARK SMILES IDX 30 34 31 35 72 36 32 37 77 38 71 39 73 40 33 41 76 42 70 43
REMARK SMILES IDX 69 44 34 46 60 47 43 48 59 49 44 50 47 51 58 52 74 53 45 54
REMARK SMILES IDX 46 55 57 57 75 58 48 59 35 60 36 61 41 62 37 63 38 64 40 65
REMARK SMILES IDX 42 66 39 67 61 68 62 69 67 70 63 71 64 72 66 73 68 74 65 75
REMARK SMILES IDX 49 76 50 77 55 78 51 79 52 80 54 81 56 82 53 83
REMARK H PARENT 6 14 73 45 47 56
REMARK Flexibility Score: inf
ROOT
ATOM      1  C   UNL A   1      33.820  28.919  26.240  1.00  0.00     0.274 C 
ENDROOT
BRANCH   1   2
ATOM      2  O   UNL A   1      33.283  27.821  26.963  1.00  0.00    -0.462 OA
BRANCH   2   3
ATOM      3  C   UNL A   1      33.045  26.666  26.278  1.00  0.00     0.310 C 
ATOM      4  O   UNL A   1      32.070  25.963  26.385  1.00  0.00    -0.252 OA
BRANCH   3   5
ATOM      5  C   UNL A   1      34.229  26.405  25.363  1.00  0.00     0.160 C 
BRANCH   5   6
ATOM      6  C   UNL A   1      34.121  25.003  24.827  1.00  0.00    -0.013 A 
ATOM      7  C   UNL A   1      35.580  21.701  26.013  1.00  0.00     0.044 C 
ATOM      8  C   UNL A   1      34.879  22.717  25.165  1.00  0.00    -0.051 A 
ATOM      9  C   UNL A   1      34.476  22.417  23.864  1.00  0.00     0.005 A 
ATOM     10  C   UNL A   1      34.677  24.004  25.646  1.00  0.00     0.009 A 
ATOM     11  C   UNL A   1      33.881  23.393  23.057  1.00  0.00     0.026 A 
ATOM     12  C   UNL A   1      33.698  24.704  23.510  1.00  0.00     0.042 A 
BRANCH  12  13
ATOM     13  N   UNL A   1      33.187  25.687  22.639  1.00  0.00    -0.353 N 
ATOM     14  H   UNL A   1      33.562  25.675  21.728  1.00  0.00     0.167 HD
BRANCH  13  15
ATOM     15  C   UNL A   1      32.215  26.692  22.880  1.00  0.00     0.076 A 
ATOM     16  C   UNL A   1      32.523  28.057  22.727  1.00  0.00     0.067 A 
ATOM     17  C   UNL A   1      30.858  26.360  23.071  1.00  0.00     0.067 A 
ATOM     18  Cl  UNL A   1      34.147  28.596  22.471  1.00  0.00    -0.082 Cl
ATOM     19  C   UNL A   1      31.524  29.036  22.777  1.00  0.00     0.043 A 
ATOM     20  C   UNL A   1      29.850  27.326  23.043  1.00  0.00     0.043 A 
ATOM     21  Cl  UNL A   1      30.373  24.769  23.523  1.00  0.00    -0.082 Cl
ATOM     22  C   UNL A   1      30.191  28.661  22.907  1.00  0.00     0.044 A 
ATOM     23  Cl  UNL A   1      28.959  29.861  22.936  1.00  0.00    -0.084 Cl
ENDBRANCH  13  15
ENDBRANCH  12  13
ENDBRANCH   5   6
ENDBRANCH   3   5
ENDBRANCH   2   3
ENDBRANCH   1   2
BRANCH   1  24
ATOM     24  C   UNL A   1      34.296  29.995  27.232  1.00  0.00     0.275 C 
BRANCH  24  25
ATOM     25  O   UNL A   1      35.752  30.167  27.434  1.00  0.00    -0.458 OA
BRANCH  25  26
ATOM     26  C   UNL A   1      36.467  30.497  28.548  1.00  0.00     0.338 C 
ATOM     27  O   UNL A   1      36.125  31.390  29.312  1.00  0.00    -0.246 OA
BRANCH  26  28
ATOM     28  C   UNL A   1      37.647  29.678  28.850  1.00  0.00     0.060 A 
ATOM     29  C   UNL A   1      37.702  28.810  29.955  1.00  0.00     0.016 A 
ATOM     30  C   UNL A   1      38.638  29.670  27.895  1.00  0.00     0.016 A 
ATOM     31  C   UNL A   1      38.705  27.844  30.004  1.00  0.00     0.010 A 
ATOM     32  C   UNL A   1      39.388  28.545  27.772  1.00  0.00     0.010 A 
ATOM     33  C   UNL A   1      39.521  27.706  28.880  1.00  0.00    -0.014 A 
BRANCH  33  34
ATOM     34  C   UNL A   1      40.788  27.001  28.841  1.00  0.00     0.031 A 
ATOM     35  C   UNL A   1      40.894  25.606  28.422  1.00  0.00     0.074 A 
ATOM     36  C   UNL A   1      41.836  27.818  29.106  1.00  0.00     0.049 A 
ATOM     37  N   UNL A   1      41.652  24.746  29.006  1.00  0.00    -0.248 NA
ATOM     38  C   UNL A   1      40.138  25.051  27.303  1.00  0.00     0.031 C 
ATOM     39  C   UNL A   1      43.261  27.640  28.951  1.00  0.00     0.029 A 
ATOM     40  N   UNL A   1      41.726  29.088  29.693  1.00  0.00    -0.354 N 
ATOM     41  C   UNL A   1      41.768  23.689  28.130  1.00  0.00     0.074 A 
ATOM     42  C   UNL A   1      40.675  23.828  27.196  1.00  0.00     0.031 C 
ATOM     43  C   UNL A   1      43.887  28.583  29.689  1.00  0.00     0.029 A 
ATOM     44  C   UNL A   1      42.876  29.342  30.423  1.00  0.00     0.049 A 
ATOM     45  H   UNL A   1      40.958  29.699  29.602  1.00  0.00     0.167 HD
ATOM     46  C   UNL A   1      42.928  22.974  28.086  1.00  0.00     0.037 A 
ATOM     47  C   UNL A   1      42.719  29.440  31.775  1.00  0.00     0.037 A 
ATOM     48  C   UNL A   1      43.932  23.605  28.938  1.00  0.00     0.049 A 
ATOM     49  C   UNL A   1      43.294  28.218  32.443  1.00  0.00     0.074 A 
ATOM     50  C   UNL A   1      44.932  24.515  28.633  1.00  0.00     0.029 A 
ATOM     51  N   UNL A   1      43.736  23.690  30.313  1.00  0.00    -0.354 N 
ATOM     52  N   UNL A   1      43.450  27.069  31.845  1.00  0.00    -0.248 NA
ATOM     53  C   UNL A   1      43.798  28.217  33.810  1.00  0.00     0.031 C 
ATOM     54  C   UNL A   1      45.294  25.193  29.822  1.00  0.00     0.029 A 
ATOM     55  C   UNL A   1      44.516  24.698  30.852  1.00  0.00     0.049 A 
ATOM     56  H   UNL A   1      43.127  23.114  30.830  1.00  0.00     0.167 HD
ATOM     57  C   UNL A   1      44.121  26.214  32.673  1.00  0.00     0.074 A 
ATOM     58  C   UNL A   1      44.301  26.973  33.899  1.00  0.00     0.031 C 
ATOM     59  C   UNL A   1      44.505  24.964  32.282  1.00  0.00     0.037 A 
BRANCH  46  60
ATOM     60  C   UNL A   1      43.241  21.985  26.991  1.00  0.00     0.057 A 
ATOM     61  C   UNL A   1      42.627  20.718  26.936  1.00  0.00     0.134 A 
ATOM     62  C   UNL A   1      44.142  22.248  25.945  1.00  0.00     0.134 A 
ATOM     63  F   UNL A   1      41.702  20.340  27.826  1.00  0.00    -0.206 F 
ATOM     64  C   UNL A   1      42.935  19.761  25.961  1.00  0.00     0.040 A 
ATOM     65  C   UNL A   1      44.481  21.289  24.976  1.00  0.00     0.040 A 
ATOM     66  F   UNL A   1      44.717  23.453  25.815  1.00  0.00    -0.206 F 
ATOM     67  C   UNL A   1      43.880  20.037  24.985  1.00  0.00     0.006 A 
ENDBRANCH  46  60
BRANCH  47  68
ATOM     68  C   UNL A   1      41.460  30.165  32.172  1.00  0.00     0.057 A 
ATOM     69  C   UNL A   1      40.419  29.420  32.768  1.00  0.00     0.134 A 
ATOM     70  C   UNL A   1      41.366  31.556  32.294  1.00  0.00     0.134 A 
ATOM     71  F   UNL A   1      40.431  28.078  32.706  1.00  0.00    -0.206 F 
ATOM     72  C   UNL A   1      39.403  30.012  33.530  1.00  0.00     0.040 A 
ATOM     73  C   UNL A   1      40.338  32.164  33.038  1.00  0.00     0.040 A 
ATOM     74  F   UNL A   1      42.309  32.354  31.773  1.00  0.00    -0.206 F 
ATOM     75  C   UNL A   1      39.374  31.392  33.687  1.00  0.00     0.006 A 
ENDBRANCH  47  68
BRANCH  59  76
ATOM     76  C   UNL A   1      45.024  23.892  33.196  1.00  0.00     0.057 A 
ATOM     77  C   UNL A   1      46.320  23.885  33.721  1.00  0.00     0.134 A 
ATOM     78  C   UNL A   1      44.149  22.911  33.716  1.00  0.00     0.134 A 
ATOM     79  F   UNL A   1      47.215  24.830  33.398  1.00  0.00    -0.206 F 
ATOM     80  C   UNL A   1      46.738  22.933  34.656  1.00  0.00     0.040 A 
ATOM     81  C   UNL A   1      44.536  22.001  34.698  1.00  0.00     0.040 A 
ATOM     82  F   UNL A   1      42.872  22.812  33.316  1.00  0.00    -0.206 F 
ATOM     83  C   UNL A   1      45.842  21.998  35.159  1.00  0.00     0.006 A 
ENDBRANCH  59  76
ENDBRANCH  33  34
ENDBRANCH  26  28
ENDBRANCH  25  26
ENDBRANCH  24  25
ENDBRANCH   1  24
TORSDOF 14
ENDMDL
