MODEL 1
REMARK VINA RESULT:     -12.7      0.000      0.000
REMARK SMILES O=C(OCCOC(=O)[C@@H]1CCCN1S(=O)(=O)c1ccc2c3c(cccc13)C(=O)N2)c1ccc(-c2c3nc(c(-c4c(F)cccc4F)c4ccc([nH]4)c(-c4c(F)cccc4F)c4nc(c(-c5c(F)cccc5F)c5ccc2[nH]5)C=C4)C=C3)cc1
REMARK SMILES IDX 4 1 3 2 2 3 1 4 30 5 31 6 83 7 32 8 82 9 33 10 34 11 35 12
REMARK SMILES IDX 76 13 36 14 81 15 75 16 77 17 37 18 80 19 74 20 73 21 38 23
REMARK SMILES IDX 64 24 47 25 63 26 48 27 51 28 62 29 78 30 49 31 50 32 61 34
REMARK SMILES IDX 79 35 52 36 39 37 40 38 45 39 41 40 42 41 44 42 46 43 43 44
REMARK SMILES IDX 65 45 66 46 71 47 67 48 68 49 70 50 72 51 69 52 53 53 54 54
REMARK SMILES IDX 59 55 55 56 56 57 58 58 60 59 57 60 5 61 6 62 7 63 8 64 9 65
REMARK SMILES IDX 10 66 13 67 11 68 12 69 14 70 15 71 16 72 17 73 18 74 26 75
REMARK SMILES IDX 19 76 21 77 25 78 20 79 22 80 24 81 29 82 23 83 27 84 28 86
REMARK H PARENT 77 22 51 33 29 85
REMARK Flexibility Score: inf
ROOT
ATOM      1  C   UNL A   1      31.854  32.806  26.573  1.00  0.00     0.275 C 
ENDROOT
BRANCH   1   2
ATOM      2  O   UNL A   1      32.096  33.633  27.718  1.00  0.00    -0.458 OA
BRANCH   2   3
ATOM      3  C   UNL A   1      33.239  34.170  28.192  1.00  0.00     0.338 C 
ATOM      4  O   UNL A   1      33.365  35.392  28.143  1.00  0.00    -0.246 OA
BRANCH   3   5
ATOM      5  C   UNL A   1      34.398  33.380  28.726  1.00  0.00     0.060 A 
ATOM      6  C   UNL A   1      34.335  32.161  29.411  1.00  0.00     0.016 A 
ATOM      7  C   UNL A   1      35.676  33.927  28.489  1.00  0.00     0.016 A 
ATOM      8  C   UNL A   1      35.487  31.469  29.782  1.00  0.00     0.010 A 
ATOM      9  C   UNL A   1      36.836  33.274  28.912  1.00  0.00     0.010 A 
ATOM     10  C   UNL A   1      36.736  32.045  29.571  1.00  0.00    -0.014 A 
BRANCH  10  11
ATOM     11  C   UNL A   1      37.893  31.509  30.305  1.00  0.00     0.031 A 
ATOM     12  C   UNL A   1      38.696  30.452  29.613  1.00  0.00     0.074 A 
ATOM     13  C   UNL A   1      38.223  31.962  31.524  1.00  0.00     0.049 A 
ATOM     14  N   UNL A   1      39.743  29.801  30.037  1.00  0.00    -0.248 NA
ATOM     15  C   UNL A   1      38.286  30.111  28.237  1.00  0.00     0.031 C 
ATOM     16  C   UNL A   1      37.580  33.076  32.211  1.00  0.00     0.029 A 
ATOM     17  N   UNL A   1      39.167  31.520  32.411  1.00  0.00    -0.354 N 
ATOM     18  C   UNL A   1      40.143  29.015  28.967  1.00  0.00     0.074 A 
ATOM     19  C   UNL A   1      39.214  29.239  27.886  1.00  0.00     0.031 C 
ATOM     20  C   UNL A   1      38.082  33.173  33.456  1.00  0.00     0.029 A 
ATOM     21  C   UNL A   1      39.075  32.120  33.645  1.00  0.00     0.049 A 
ATOM     22  H   UNL A   1      39.844  30.841  32.189  1.00  0.00     0.167 HD
ATOM     23  C   UNL A   1      41.198  28.177  28.901  1.00  0.00     0.037 A 
ATOM     24  C   UNL A   1      39.700  31.806  34.795  1.00  0.00     0.037 A 
ATOM     25  C   UNL A   1      42.048  27.898  30.023  1.00  0.00     0.049 A 
ATOM     26  C   UNL A   1      40.718  30.694  34.760  1.00  0.00     0.074 A 
ATOM     27  C   UNL A   1      43.128  27.043  30.099  1.00  0.00     0.029 A 
ATOM     28  N   UNL A   1      41.870  28.448  31.285  1.00  0.00    -0.354 N 
ATOM     29  N   UNL A   1      41.138  29.992  33.734  1.00  0.00    -0.248 NA
ATOM     30  C   UNL A   1      41.357  30.337  36.033  1.00  0.00     0.031 C 
ATOM     31  C   UNL A   1      43.560  27.022  31.430  1.00  0.00     0.029 A 
ATOM     32  C   UNL A   1      42.783  27.904  32.168  1.00  0.00     0.049 A 
ATOM     33  H   UNL A   1      41.192  29.124  31.518  1.00  0.00     0.167 HD
ATOM     34  C   UNL A   1      42.113  29.137  34.227  1.00  0.00     0.074 A 
ATOM     35  C   UNL A   1      42.228  29.416  35.645  1.00  0.00     0.031 C 
ATOM     36  C   UNL A   1      42.857  28.210  33.574  1.00  0.00     0.037 A 
BRANCH  23  37
ATOM     37  C   UNL A   1      41.418  27.472  27.600  1.00  0.00     0.057 A 
ATOM     38  C   UNL A   1      42.211  28.051  26.604  1.00  0.00     0.134 A 
ATOM     39  C   UNL A   1      40.891  26.197  27.356  1.00  0.00     0.134 A 
ATOM     40  F   UNL A   1      42.764  29.258  26.789  1.00  0.00    -0.206 F 
ATOM     41  C   UNL A   1      42.472  27.385  25.406  1.00  0.00     0.040 A 
ATOM     42  C   UNL A   1      41.161  25.513  26.168  1.00  0.00     0.040 A 
ATOM     43  F   UNL A   1      40.157  25.573  28.290  1.00  0.00    -0.206 F 
ATOM     44  C   UNL A   1      41.950  26.111  25.188  1.00  0.00     0.006 A 
ENDBRANCH  23  37
BRANCH  24  45
ATOM     45  C   UNL A   1      39.351  32.480  36.072  1.00  0.00     0.057 A 
ATOM     46  C   UNL A   1      39.943  33.698  36.433  1.00  0.00     0.134 A 
ATOM     47  C   UNL A   1      38.358  31.977  36.922  1.00  0.00     0.134 A 
ATOM     48  F   UNL A   1      40.901  34.240  35.667  1.00  0.00    -0.206 F 
ATOM     49  C   UNL A   1      39.552  34.397  37.578  1.00  0.00     0.040 A 
ATOM     50  C   UNL A   1      37.940  32.676  38.057  1.00  0.00     0.040 A 
ATOM     51  F   UNL A   1      37.736  30.827  36.623  1.00  0.00    -0.206 F 
ATOM     52  C   UNL A   1      38.536  33.891  38.386  1.00  0.00     0.006 A 
ENDBRANCH  24  45
BRANCH  36  53
ATOM     53  C   UNL A   1      43.862  27.454  34.388  1.00  0.00     0.057 A 
ATOM     54  C   UNL A   1      43.516  26.236  34.989  1.00  0.00     0.134 A 
ATOM     55  C   UNL A   1      45.149  27.952  34.616  1.00  0.00     0.134 A 
ATOM     56  F   UNL A   1      42.293  25.712  34.814  1.00  0.00    -0.206 F 
ATOM     57  C   UNL A   1      44.416  25.546  35.798  1.00  0.00     0.040 A 
ATOM     58  C   UNL A   1      46.068  27.254  35.399  1.00  0.00     0.040 A 
ATOM     59  F   UNL A   1      45.542  29.105  34.054  1.00  0.00    -0.206 F 
ATOM     60  C   UNL A   1      45.698  26.052  36.000  1.00  0.00     0.006 A 
ENDBRANCH  36  53
ENDBRANCH  10  11
ENDBRANCH   3   5
ENDBRANCH   2   3
ENDBRANCH   1   2
BRANCH   1  61
ATOM     61  C   UNL A   1      31.744  31.320  26.904  1.00  0.00     0.274 C 
BRANCH  61  62
ATOM     62  O   UNL A   1      31.451  30.475  25.774  1.00  0.00    -0.461 OA
BRANCH  62  63
ATOM     63  C   UNL A   1      32.464  29.704  25.269  1.00  0.00     0.324 C 
ATOM     64  O   UNL A   1      33.634  29.802  25.613  1.00  0.00    -0.250 OA
BRANCH  63  65
ATOM     65  C   UNL A   1      31.931  28.699  24.275  1.00  0.00     0.183 C 
ATOM     66  C   UNL A   1      30.473  28.994  23.914  1.00  0.00     0.034 C 
ATOM     67  N   UNL A   1      31.987  27.206  24.436  1.00  0.00    -0.184 NA
ATOM     68  C   UNL A   1      30.159  27.867  22.955  1.00  0.00     0.019 C 
ATOM     69  C   UNL A   1      30.823  26.667  23.616  1.00  0.00     0.103 C 
BRANCH  67  70
ATOM     70  S   UNL A   1      31.998  26.493  25.996  1.00  0.00     0.244 S 
ATOM     71  O   UNL A   1      33.225  26.928  26.630  1.00  0.00    -0.207 OA
ATOM     72  O   UNL A   1      30.725  26.819  26.605  1.00  0.00    -0.207 OA
BRANCH  70  73
ATOM     73  C   UNL A   1      32.083  24.724  25.802  1.00  0.00     0.090 A 
ATOM     74  C   UNL A   1      30.903  24.001  26.124  1.00  0.00     0.024 A 
ATOM     75  C   UNL A   1      33.197  24.049  25.202  1.00  0.00     0.005 A 
ATOM     76  C   UNL A   1      30.830  22.601  26.047  1.00  0.00     0.028 A 
ATOM     77  C   UNL A   1      33.071  22.686  25.173  1.00  0.00     0.019 A 
ATOM     78  C   UNL A   1      34.397  24.515  24.593  1.00  0.00     0.010 A 
ATOM     79  C   UNL A   1      31.975  21.976  25.607  1.00  0.00     0.050 A 
ATOM     80  C   UNL A   1      33.986  21.774  24.662  1.00  0.00     0.050 A 
ATOM     81  C   UNL A   1      35.320  23.620  23.996  1.00  0.00     0.002 A 
ATOM     82  N   UNL A   1      32.253  20.632  25.451  1.00  0.00    -0.321 N 
ATOM     83  C   UNL A   1      35.136  22.230  24.030  1.00  0.00     0.014 A 
ATOM     84  C   UNL A   1      33.504  20.422  24.862  1.00  0.00     0.256 C 
ATOM     85  H   UNL A   1      31.643  19.908  25.722  1.00  0.00     0.170 HD
ATOM     86  O   UNL A   1      33.982  19.322  24.621  1.00  0.00    -0.269 OA
ENDBRANCH  70  73
ENDBRANCH  67  70
ENDBRANCH  63  65
ENDBRANCH  62  63
ENDBRANCH  61  62
ENDBRANCH   1  61
TORSDOF 13
ENDMDL
MODEL 2
REMARK VINA RESULT:     -12.5      4.465      9.630
REMARK SMILES O=C(OCCOC(=O)[C@@H]1CCCN1S(=O)(=O)c1ccc2c3c(cccc13)C(=O)N2)c1ccc(-c2c3nc(c(-c4c(F)cccc4F)c4ccc([nH]4)c(-c4c(F)cccc4F)c4nc(c(-c5c(F)cccc5F)c5ccc2[nH]5)C=C4)C=C3)cc1
REMARK SMILES IDX 4 1 3 2 2 3 1 4 30 5 31 6 83 7 32 8 82 9 33 10 34 11 35 12
REMARK SMILES IDX 76 13 36 14 81 15 75 16 77 17 37 18 80 19 74 20 73 21 38 23
REMARK SMILES IDX 64 24 47 25 63 26 48 27 51 28 62 29 78 30 49 31 50 32 61 34
REMARK SMILES IDX 79 35 52 36 39 37 40 38 45 39 41 40 42 41 44 42 46 43 43 44
REMARK SMILES IDX 65 45 66 46 71 47 67 48 68 49 70 50 72 51 69 52 53 53 54 54
REMARK SMILES IDX 59 55 55 56 56 57 58 58 60 59 57 60 5 61 6 62 7 63 8 64 9 65
REMARK SMILES IDX 10 66 13 67 11 68 12 69 14 70 15 71 16 72 17 73 18 74 26 75
REMARK SMILES IDX 19 76 21 77 25 78 20 79 22 80 24 81 29 82 23 83 27 84 28 86
REMARK H PARENT 77 22 51 33 29 85
REMARK Flexibility Score: inf
ROOT
ATOM      1  C   UNL A   1      38.048  21.266  25.135  1.00  0.00     0.275 C 
ENDROOT
BRANCH   1   2
ATOM      2  O   UNL A   1      38.814  20.179  25.670  1.00  0.00    -0.458 OA
BRANCH   2   3
ATOM      3  C   UNL A   1      40.115  20.104  26.015  1.00  0.00     0.338 C 
ATOM      4  O   UNL A   1      40.677  19.015  25.906  1.00  0.00    -0.246 OA
BRANCH   3   5
ATOM      5  C   UNL A   1      40.920  21.239  26.576  1.00  0.00     0.060 A 
ATOM      6  C   UNL A   1      41.073  21.566  27.929  1.00  0.00     0.016 A 
ATOM      7  C   UNL A   1      41.601  22.036  25.634  1.00  0.00     0.016 A 
ATOM      8  C   UNL A   1      41.923  22.591  28.343  1.00  0.00     0.010 A 
ATOM      9  C   UNL A   1      42.405  23.106  26.033  1.00  0.00     0.010 A 
ATOM     10  C   UNL A   1      42.555  23.389  27.394  1.00  0.00    -0.014 A 
BRANCH  10  11
ATOM     11  C   UNL A   1      43.115  24.681  27.818  1.00  0.00     0.031 A 
ATOM     12  C   UNL A   1      42.133  25.750  28.184  1.00  0.00     0.074 A 
ATOM     13  C   UNL A   1      44.439  24.883  27.895  1.00  0.00     0.049 A 
ATOM     14  N   UNL A   1      42.353  26.976  28.569  1.00  0.00    -0.248 NA
ATOM     15  C   UNL A   1      40.707  25.372  28.151  1.00  0.00     0.031 C 
ATOM     16  C   UNL A   1      45.460  23.862  27.687  1.00  0.00     0.029 A 
ATOM     17  N   UNL A   1      45.153  26.024  28.142  1.00  0.00    -0.354 N 
ATOM     18  C   UNL A   1      41.103  27.495  28.868  1.00  0.00     0.074 A 
ATOM     19  C   UNL A   1      40.124  26.472  28.593  1.00  0.00     0.031 C 
ATOM     20  C   UNL A   1      46.674  24.441  27.720  1.00  0.00     0.029 A 
ATOM     21  C   UNL A   1      46.504  25.872  27.945  1.00  0.00     0.049 A 
ATOM     22  H   UNL A   1      44.739  26.869  28.432  1.00  0.00     0.167 HD
ATOM     23  C   UNL A   1      40.805  28.726  29.334  1.00  0.00     0.037 A 
ATOM     24  C   UNL A   1      47.471  26.809  27.909  1.00  0.00     0.037 A 
ATOM     25  C   UNL A   1      41.787  29.758  29.506  1.00  0.00     0.049 A 
ATOM     26  C   UNL A   1      47.080  28.235  28.201  1.00  0.00     0.074 A 
ATOM     27  C   UNL A   1      41.612  31.057  29.935  1.00  0.00     0.029 A 
ATOM     28  N   UNL A   1      43.134  29.603  29.205  1.00  0.00    -0.354 N 
ATOM     29  N   UNL A   1      45.906  28.715  28.543  1.00  0.00    -0.248 NA
ATOM     30  C   UNL A   1      48.140  29.247  28.113  1.00  0.00     0.031 C 
ATOM     31  C   UNL A   1      42.845  31.711  29.825  1.00  0.00     0.029 A 
ATOM     32  C   UNL A   1      43.796  30.803  29.380  1.00  0.00     0.049 A 
ATOM     33  H   UNL A   1      43.555  28.763  28.909  1.00  0.00     0.167 HD
ATOM     34  C   UNL A   1      46.093  30.075  28.747  1.00  0.00     0.074 A 
ATOM     35  C   UNL A   1      47.496  30.341  28.498  1.00  0.00     0.031 C 
ATOM     36  C   UNL A   1      45.195  31.022  29.115  1.00  0.00     0.037 A 
BRANCH  23  37
ATOM     37  C   UNL A   1      39.362  29.012  29.606  1.00  0.00     0.057 A 
ATOM     38  C   UNL A   1      38.523  29.464  28.582  1.00  0.00     0.134 A 
ATOM     39  C   UNL A   1      38.791  28.783  30.865  1.00  0.00     0.134 A 
ATOM     40  F   UNL A   1      39.005  29.677  27.350  1.00  0.00    -0.206 F 
ATOM     41  C   UNL A   1      37.162  29.683  28.802  1.00  0.00     0.040 A 
ATOM     42  C   UNL A   1      37.427  28.981  31.092  1.00  0.00     0.040 A 
ATOM     43  F   UNL A   1      39.535  28.309  31.875  1.00  0.00    -0.206 F 
ATOM     44  C   UNL A   1      36.611  29.436  30.058  1.00  0.00     0.006 A 
ENDBRANCH  23  37
BRANCH  24  45
ATOM     45  C   UNL A   1      48.865  26.464  27.526  1.00  0.00     0.057 A 
ATOM     46  C   UNL A   1      49.807  26.082  28.490  1.00  0.00     0.134 A 
ATOM     47  C   UNL A   1      49.270  26.420  26.186  1.00  0.00     0.134 A 
ATOM     48  F   UNL A   1      49.490  26.100  29.794  1.00  0.00    -0.206 F 
ATOM     49  C   UNL A   1      51.091  25.656  28.139  1.00  0.00     0.040 A 
ATOM     50  C   UNL A   1      50.542  25.974  25.818  1.00  0.00     0.040 A 
ATOM     51  F   UNL A   1      48.410  26.751  25.212  1.00  0.00    -0.206 F 
ATOM     52  C   UNL A   1      51.455  25.588  26.795  1.00  0.00     0.006 A 
ENDBRANCH  24  45
BRANCH  36  53
ATOM     53  C   UNL A   1      45.715  32.417  29.283  1.00  0.00     0.057 A 
ATOM     54  C   UNL A   1      45.691  33.316  28.210  1.00  0.00     0.134 A 
ATOM     55  C   UNL A   1      46.279  32.851  30.487  1.00  0.00     0.134 A 
ATOM     56  F   UNL A   1      45.169  32.954  27.027  1.00  0.00    -0.206 F 
ATOM     57  C   UNL A   1      46.222  34.599  28.326  1.00  0.00     0.040 A 
ATOM     58  C   UNL A   1      46.786  34.143  30.625  1.00  0.00     0.040 A 
ATOM     59  F   UNL A   1      46.316  32.039  31.554  1.00  0.00    -0.206 F 
ATOM     60  C   UNL A   1      46.767  35.017  29.539  1.00  0.00     0.006 A 
ENDBRANCH  36  53
ENDBRANCH  10  11
ENDBRANCH   3   5
ENDBRANCH   2   3
ENDBRANCH   1   2
BRANCH   1  61
ATOM     61  C   UNL A   1      36.566  21.209  25.497  1.00  0.00     0.274 C 
BRANCH  61  62
ATOM     62  O   UNL A   1      35.837  22.421  25.223  1.00  0.00    -0.461 OA
BRANCH  62  63
ATOM     63  C   UNL A   1      34.537  22.496  25.648  1.00  0.00     0.324 C 
ATOM     64  O   UNL A   1      34.192  22.388  26.816  1.00  0.00    -0.250 OA
BRANCH  63  65
ATOM     65  C   UNL A   1      33.607  22.774  24.489  1.00  0.00     0.183 C 
ATOM     66  C   UNL A   1      34.369  22.806  23.161  1.00  0.00     0.034 C 
ATOM     67  N   UNL A   1      32.648  23.928  24.403  1.00  0.00    -0.184 NA
ATOM     68  C   UNL A   1      33.263  23.123  22.179  1.00  0.00     0.019 C 
ATOM     69  C   UNL A   1      32.452  24.180  22.916  1.00  0.00     0.103 C 
BRANCH  67  70
ATOM     70  S   UNL A   1      32.973  25.400  25.220  1.00  0.00     0.244 S 
ATOM     71  O   UNL A   1      32.185  25.371  26.434  1.00  0.00    -0.207 OA
ATOM     72  O   UNL A   1      34.415  25.510  25.308  1.00  0.00    -0.207 OA
BRANCH  70  73
ATOM     73  C   UNL A   1      32.375  26.743  24.214  1.00  0.00     0.090 A 
ATOM     74  C   UNL A   1      33.360  27.479  23.502  1.00  0.00     0.024 A 
ATOM     75  C   UNL A   1      30.983  26.991  23.978  1.00  0.00     0.005 A 
ATOM     76  C   UNL A   1      33.040  28.581  22.693  1.00  0.00     0.028 A 
ATOM     77  C   UNL A   1      30.738  28.088  23.196  1.00  0.00     0.019 A 
ATOM     78  C   UNL A   1      29.797  26.303  24.364  1.00  0.00     0.010 A 
ATOM     79  C   UNL A   1      31.699  28.882  22.611  1.00  0.00     0.050 A 
ATOM     80  C   UNL A   1      29.497  28.576  22.806  1.00  0.00     0.050 A 
ATOM     81  C   UNL A   1      28.519  26.726  23.925  1.00  0.00     0.002 A 
ATOM     82  N   UNL A   1      31.054  29.904  21.943  1.00  0.00    -0.321 N 
ATOM     83  C   UNL A   1      28.344  27.879  23.146  1.00  0.00     0.014 A 
ATOM     84  C   UNL A   1      29.662  29.782  22.019  1.00  0.00     0.256 C 
ATOM     85  H   UNL A   1      31.518  30.632  21.469  1.00  0.00     0.170 HD
ATOM     86  O   UNL A   1      28.869  30.563  21.513  1.00  0.00    -0.269 OA
ENDBRANCH  70  73
ENDBRANCH  67  70
ENDBRANCH  63  65
ENDBRANCH  62  63
ENDBRANCH  61  62
ENDBRANCH   1  61
TORSDOF 13
ENDMDL
MODEL 3
REMARK VINA RESULT:     -12.4      0.579      6.211
REMARK SMILES O=C(OCCOC(=O)[C@@H]1CCCN1S(=O)(=O)c1ccc2c3c(cccc13)C(=O)N2)c1ccc(-c2c3nc(c(-c4c(F)cccc4F)c4ccc([nH]4)c(-c4c(F)cccc4F)c4nc(c(-c5c(F)cccc5F)c5ccc2[nH]5)C=C4)C=C3)cc1
REMARK SMILES IDX 4 1 3 2 2 3 1 4 30 5 31 6 83 7 32 8 82 9 33 10 34 11 35 12
REMARK SMILES IDX 76 13 36 14 81 15 75 16 77 17 37 18 80 19 74 20 73 21 38 23
REMARK SMILES IDX 64 24 47 25 63 26 48 27 51 28 62 29 78 30 49 31 50 32 61 34
REMARK SMILES IDX 79 35 52 36 39 37 40 38 45 39 41 40 42 41 44 42 46 43 43 44
REMARK SMILES IDX 65 45 66 46 71 47 67 48 68 49 70 50 72 51 69 52 53 53 54 54
REMARK SMILES IDX 59 55 55 56 56 57 58 58 60 59 57 60 5 61 6 62 7 63 8 64 9 65
REMARK SMILES IDX 10 66 13 67 11 68 12 69 14 70 15 71 16 72 17 73 18 74 26 75
REMARK SMILES IDX 19 76 21 77 25 78 20 79 22 80 24 81 29 82 23 83 27 84 28 86
REMARK H PARENT 77 22 51 33 29 85
REMARK Flexibility Score: inf
ROOT
ATOM      1  C   UNL A   1      31.816  33.074  26.569  1.00  0.00     0.275 C 
ENDROOT
BRANCH   1   2
ATOM      2  O   UNL A   1      32.273  33.809  27.712  1.00  0.00    -0.458 OA
BRANCH   2   3
ATOM      3  C   UNL A   1      33.513  34.203  28.068  1.00  0.00     0.338 C 
ATOM      4  O   UNL A   1      33.783  35.400  27.983  1.00  0.00    -0.246 OA
BRANCH   3   5
ATOM      5  C   UNL A   1      34.612  33.281  28.509  1.00  0.00     0.060 A 
ATOM      6  C   UNL A   1      34.476  31.939  28.884  1.00  0.00     0.016 A 
ATOM      7  C   UNL A   1      35.909  33.832  28.523  1.00  0.00     0.016 A 
ATOM      8  C   UNL A   1      35.584  31.149  29.188  1.00  0.00     0.010 A 
ATOM      9  C   UNL A   1      37.019  33.068  28.889  1.00  0.00     0.010 A 
ATOM     10  C   UNL A   1      36.851  31.724  29.233  1.00  0.00    -0.014 A 
BRANCH  10  11
ATOM     11  C   UNL A   1      37.929  31.001  29.925  1.00  0.00     0.031 A 
ATOM     12  C   UNL A   1      38.195  31.393  31.345  1.00  0.00     0.074 A 
ATOM     13  C   UNL A   1      38.623  30.026  29.320  1.00  0.00     0.049 A 
ATOM     14  N   UNL A   1      39.093  30.935  32.173  1.00  0.00    -0.248 NA
ATOM     15  C   UNL A   1      37.299  32.411  31.925  1.00  0.00     0.031 C 
ATOM     16  C   UNL A   1      38.344  29.493  27.991  1.00  0.00     0.029 A 
ATOM     17  N   UNL A   1      39.726  29.329  29.735  1.00  0.00    -0.354 N 
ATOM     18  C   UNL A   1      38.837  31.572  33.378  1.00  0.00     0.074 A 
ATOM     19  C   UNL A   1      37.726  32.470  33.173  1.00  0.00     0.031 C 
ATOM     20  C   UNL A   1      39.308  28.617  27.657  1.00  0.00     0.029 A 
ATOM     21  C   UNL A   1      40.271  28.540  28.750  1.00  0.00     0.049 A 
ATOM     22  H   UNL A   1      40.091  29.387  30.647  1.00  0.00     0.167 HD
ATOM     23  C   UNL A   1      39.481  31.414  34.553  1.00  0.00     0.037 A 
ATOM     24  C   UNL A   1      41.443  27.877  28.741  1.00  0.00     0.037 A 
ATOM     25  C   UNL A   1      40.644  30.589  34.704  1.00  0.00     0.049 A 
ATOM     26  C   UNL A   1      42.277  27.906  29.996  1.00  0.00     0.074 A 
ATOM     27  C   UNL A   1      41.411  30.371  35.830  1.00  0.00     0.029 A 
ATOM     28  N   UNL A   1      41.230  29.878  33.665  1.00  0.00    -0.354 N 
ATOM     29  N   UNL A   1      42.005  28.459  31.155  1.00  0.00    -0.248 NA
ATOM     30  C   UNL A   1      43.571  27.213  29.952  1.00  0.00     0.031 C 
ATOM     31  C   UNL A   1      42.505  29.584  35.454  1.00  0.00     0.029 A 
ATOM     32  C   UNL A   1      42.388  29.268  34.107  1.00  0.00     0.049 A 
ATOM     33  H   UNL A   1      40.874  29.819  32.749  1.00  0.00     0.167 HD
ATOM     34  C   UNL A   1      43.072  28.153  31.987  1.00  0.00     0.074 A 
ATOM     35  C   UNL A   1      43.994  27.356  31.200  1.00  0.00     0.031 C 
ATOM     36  C   UNL A   1      43.277  28.486  33.285  1.00  0.00     0.037 A 
BRANCH  23  37
ATOM     37  C   UNL A   1      38.969  32.210  35.712  1.00  0.00     0.057 A 
ATOM     38  C   UNL A   1      38.158  31.611  36.681  1.00  0.00     0.134 A 
ATOM     39  C   UNL A   1      39.327  33.552  35.899  1.00  0.00     0.134 A 
ATOM     40  F   UNL A   1      37.803  30.323  36.572  1.00  0.00    -0.206 F 
ATOM     41  C   UNL A   1      37.717  32.322  37.798  1.00  0.00     0.040 A 
ATOM     42  C   UNL A   1      38.906  34.268  37.022  1.00  0.00     0.040 A 
ATOM     43  F   UNL A   1      40.137  34.169  35.025  1.00  0.00    -0.206 F 
ATOM     44  C   UNL A   1      38.095  33.652  37.973  1.00  0.00     0.006 A 
ENDBRANCH  23  37
BRANCH  24  45
ATOM     45  C   UNL A   1      41.935  27.197  27.514  1.00  0.00     0.057 A 
ATOM     46  C   UNL A   1      41.696  25.834  27.297  1.00  0.00     0.134 A 
ATOM     47  C   UNL A   1      42.576  27.904  26.489  1.00  0.00     0.134 A 
ATOM     48  F   UNL A   1      41.087  25.093  28.236  1.00  0.00    -0.206 F 
ATOM     49  C   UNL A   1      42.060  25.203  26.105  1.00  0.00     0.040 A 
ATOM     50  C   UNL A   1      42.924  27.292  25.283  1.00  0.00     0.040 A 
ATOM     51  F   UNL A   1      42.814  29.217  26.624  1.00  0.00    -0.206 F 
ATOM     52  C   UNL A   1      42.664  25.938  25.087  1.00  0.00     0.006 A 
ENDBRANCH  24  45
BRANCH  36  53
ATOM     53  C   UNL A   1      44.531  27.975  33.926  1.00  0.00     0.057 A 
ATOM     54  C   UNL A   1      44.547  26.724  34.555  1.00  0.00     0.134 A 
ATOM     55  C   UNL A   1      45.703  28.739  33.960  1.00  0.00     0.134 A 
ATOM     56  F   UNL A   1      43.451  25.950  34.562  1.00  0.00    -0.206 F 
ATOM     57  C   UNL A   1      45.685  26.255  35.208  1.00  0.00     0.040 A 
ATOM     58  C   UNL A   1      46.857  28.266  34.583  1.00  0.00     0.040 A 
ATOM     59  F   UNL A   1      45.752  29.938  33.360  1.00  0.00    -0.206 F 
ATOM     60  C   UNL A   1      46.847  27.025  35.217  1.00  0.00     0.006 A 
ENDBRANCH  36  53
ENDBRANCH  10  11
ENDBRANCH   3   5
ENDBRANCH   2   3
ENDBRANCH   1   2
BRANCH   1  61
ATOM     61  C   UNL A   1      31.470  31.619  26.876  1.00  0.00     0.274 C 
BRANCH  61  62
ATOM     62  O   UNL A   1      31.381  30.768  25.716  1.00  0.00    -0.461 OA
BRANCH  62  63
ATOM     63  C   UNL A   1      32.429  29.924  25.458  1.00  0.00     0.324 C 
ATOM     64  O   UNL A   1      33.507  29.978  26.031  1.00  0.00    -0.250 OA
BRANCH  63  65
ATOM     65  C   UNL A   1      32.050  28.902  24.411  1.00  0.00     0.183 C 
ATOM     66  C   UNL A   1      30.613  29.110  23.925  1.00  0.00     0.034 C 
ATOM     67  N   UNL A   1      32.187  27.413  24.563  1.00  0.00    -0.184 NA
ATOM     68  C   UNL A   1      30.458  27.980  22.931  1.00  0.00     0.019 C 
ATOM     69  C   UNL A   1      31.136  26.815  23.638  1.00  0.00     0.103 C 
BRANCH  67  70
ATOM     70  S   UNL A   1      32.106  26.679  26.111  1.00  0.00     0.244 S 
ATOM     71  O   UNL A   1      33.324  27.054  26.799  1.00  0.00    -0.207 OA
ATOM     72  O   UNL A   1      30.824  27.050  26.674  1.00  0.00    -0.207 OA
BRANCH  70  73
ATOM     73  C   UNL A   1      32.126  24.911  25.894  1.00  0.00     0.090 A 
ATOM     74  C   UNL A   1      30.919  24.228  26.202  1.00  0.00     0.024 A 
ATOM     75  C   UNL A   1      33.217  24.203  25.288  1.00  0.00     0.005 A 
ATOM     76  C   UNL A   1      30.795  22.833  26.107  1.00  0.00     0.028 A 
ATOM     77  C   UNL A   1      33.041  22.846  25.241  1.00  0.00     0.019 A 
ATOM     78  C   UNL A   1      34.436  24.632  24.690  1.00  0.00     0.010 A 
ATOM     79  C   UNL A   1      31.917  22.172  25.662  1.00  0.00     0.050 A 
ATOM     80  C   UNL A   1      33.924  21.908  24.721  1.00  0.00     0.050 A 
ATOM     81  C   UNL A   1      35.327  23.712  24.085  1.00  0.00     0.002 A 
ATOM     82  N   UNL A   1      32.146  20.821  25.489  1.00  0.00    -0.321 N 
ATOM     83  C   UNL A   1      35.092  22.330  24.099  1.00  0.00     0.014 A 
ATOM     84  C   UNL A   1      33.391  20.572  24.901  1.00  0.00     0.256 C 
ATOM     85  H   UNL A   1      31.509  20.116  25.749  1.00  0.00     0.170 HD
ATOM     86  O   UNL A   1      33.828  19.458  24.648  1.00  0.00    -0.269 OA
ENDBRANCH  70  73
ENDBRANCH  67  70
ENDBRANCH  63  65
ENDBRANCH  62  63
ENDBRANCH  61  62
ENDBRANCH   1  61
TORSDOF 13
ENDMDL
