MODEL 1
REMARK VINA RESULT:     -10.5      0.000      0.000
REMARK SMILES CO[C@@H]1C[C@H](C(=O)OCCOC(=O)c2ccc(-c3c4nc(c(-c5c(F)cccc5F)c5ccc([nH]5)c(-c5c(F)cccc5F)c5nc(c(-c6c(F)cccc6F)c6ccc3[nH]6)C=C5)C=C4)cc2)N(C(=O)[C@H](CC(C)C)NC(N)=O)C1
REMARK SMILES IDX 9 1 8 2 6 3 7 4 5 5 3 6 4 7 80 8 68 9 2 10 1 11 69 12 70 13
REMARK SMILES IDX 71 14 76 15 77 16 78 18 79 19 72 22 73 23 74 24 75 25 10 26
REMARK SMILES IDX 11 27 12 28 13 29 14 30 15 31 67 32 16 33 66 34 17 35 18 36
REMARK SMILES IDX 19 37 60 38 20 39 65 40 59 41 61 42 21 43 64 44 58 45 57 46
REMARK SMILES IDX 22 48 48 49 31 50 47 51 32 52 35 53 46 54 62 55 33 56 34 57
REMARK SMILES IDX 45 59 63 60 36 61 23 62 24 63 29 64 25 65 26 66 28 67 30 68
REMARK SMILES IDX 27 69 49 70 50 71 55 72 51 73 52 74 54 75 56 76 53 77 37 78
REMARK SMILES IDX 38 79 43 80 39 81 40 82 42 83 44 84 41 85
REMARK H PARENT 76 17 78 20 78 21 61 47 35 58
REMARK Flexibility Score: inf
ROOT
ATOM      1  C   UNL A   1      33.755  29.004  26.339  1.00  0.00     0.274 C 
ENDROOT
BRANCH   1   2
ATOM      2  O   UNL A   1      33.030  29.641  25.268  1.00  0.00    -0.461 OA
BRANCH   2   3
ATOM      3  C   UNL A   1      32.888  28.924  24.132  1.00  0.00     0.329 C 
ATOM      4  O   UNL A   1      33.468  29.206  23.092  1.00  0.00    -0.250 OA
BRANCH   3   5
ATOM      5  C   UNL A   1      31.880  27.772  24.203  1.00  0.00     0.197 C 
ATOM      6  C   UNL A   1      30.142  28.130  22.565  1.00  0.00     0.140 C 
ATOM      7  C   UNL A   1      30.429  28.210  24.063  1.00  0.00     0.071 C 
ATOM      8  C   UNL A   1      31.115  27.040  22.068  1.00  0.00     0.152 C 
ATOM      9  N   UNL A   1      32.111  26.825  23.125  1.00  0.00    -0.324 N 
BRANCH   6  10
ATOM     10  O   UNL A   1      30.375  29.348  21.856  1.00  0.00    -0.380 OA
ATOM     11  C   UNL A   1      29.410  30.366  22.096  1.00  0.00     0.195 C 
ENDBRANCH   6  10
BRANCH   9  12
ATOM     12  C   UNL A   1      33.123  25.908  22.942  1.00  0.00     0.246 C 
ATOM     13  O   UNL A   1      33.869  26.065  21.956  1.00  0.00    -0.272 OA
BRANCH  12  14
ATOM     14  C   UNL A   1      33.317  24.580  23.771  1.00  0.00     0.173 C 
BRANCH  14  15
ATOM     15  N   UNL A   1      31.966  24.141  24.152  1.00  0.00    -0.327 N 
ATOM     16  C   UNL A   1      31.502  24.130  25.427  1.00  0.00     0.312 C 
ATOM     17  H   UNL A   1      31.361  23.836  23.438  1.00  0.00     0.166 HD
ATOM     18  N   UNL A   1      30.438  23.305  25.579  1.00  0.00    -0.352 N 
ATOM     19  O   UNL A   1      32.023  24.688  26.380  1.00  0.00    -0.249 OA
ATOM     20  H   UNL A   1      30.038  22.869  24.793  1.00  0.00     0.161 HD
ATOM     21  H   UNL A   1      30.065  23.144  26.476  1.00  0.00     0.161 HD
ENDBRANCH  14  15
BRANCH  14  22
ATOM     22  C   UNL A   1      34.136  23.378  23.279  1.00  0.00     0.038 C 
BRANCH  22  23
ATOM     23  C   UNL A   1      35.412  22.976  24.056  1.00  0.00    -0.015 C 
ATOM     24  C   UNL A   1      36.709  22.893  23.250  1.00  0.00     0.007 C 
ATOM     25  C   UNL A   1      35.575  23.899  25.253  1.00  0.00     0.007 C 
ENDBRANCH  22  23
ENDBRANCH  14  22
ENDBRANCH  12  14
ENDBRANCH   9  12
ENDBRANCH   3   5
ENDBRANCH   2   3
ENDBRANCH   1   2
BRANCH   1  26
ATOM     26  C   UNL A   1      34.458  30.008  27.262  1.00  0.00     0.275 C 
BRANCH  26  27
ATOM     27  O   UNL A   1      35.252  29.349  28.270  1.00  0.00    -0.458 OA
BRANCH  27  28
ATOM     28  C   UNL A   1      36.028  30.156  29.036  1.00  0.00     0.338 C 
ATOM     29  O   UNL A   1      35.635  30.962  29.867  1.00  0.00    -0.246 OA
BRANCH  28  30
ATOM     30  C   UNL A   1      37.454  29.771  28.900  1.00  0.00     0.060 A 
ATOM     31  C   UNL A   1      37.985  29.718  27.604  1.00  0.00     0.016 A 
ATOM     32  C   UNL A   1      38.278  29.524  30.003  1.00  0.00     0.016 A 
ATOM     33  C   UNL A   1      39.342  29.454  27.412  1.00  0.00     0.010 A 
ATOM     34  C   UNL A   1      39.630  29.212  29.805  1.00  0.00     0.010 A 
ATOM     35  C   UNL A   1      40.172  29.179  28.510  1.00  0.00    -0.014 A 
BRANCH  35  36
ATOM     36  C   UNL A   1      41.576  28.760  28.266  1.00  0.00     0.031 A 
ATOM     37  C   UNL A   1      41.850  27.339  27.891  1.00  0.00     0.074 A 
ATOM     38  C   UNL A   1      42.597  29.632  28.344  1.00  0.00     0.049 A 
ATOM     39  N   UNL A   1      42.987  26.772  27.587  1.00  0.00    -0.248 NA
ATOM     40  C   UNL A   1      40.695  26.431  27.897  1.00  0.00     0.031 C 
ATOM     41  C   UNL A   1      42.464  31.014  28.766  1.00  0.00     0.029 A 
ATOM     42  N   UNL A   1      43.932  29.505  28.055  1.00  0.00    -0.354 N 
ATOM     43  C   UNL A   1      42.691  25.433  27.392  1.00  0.00     0.074 A 
ATOM     44  C   UNL A   1      41.265  25.277  27.590  1.00  0.00     0.031 C 
ATOM     45  C   UNL A   1      43.632  31.652  28.602  1.00  0.00     0.029 A 
ATOM     46  C   UNL A   1      44.634  30.683  28.173  1.00  0.00     0.049 A 
ATOM     47  H   UNL A   1      44.348  28.653  27.788  1.00  0.00     0.167 HD
ATOM     48  C   UNL A   1      43.540  24.417  27.113  1.00  0.00     0.037 A 
ATOM     49  C   UNL A   1      45.945  30.944  27.995  1.00  0.00     0.037 A 
ATOM     50  C   UNL A   1      44.964  24.565  26.984  1.00  0.00     0.049 A 
ATOM     51  C   UNL A   1      46.867  29.803  27.674  1.00  0.00     0.074 A 
ATOM     52  C   UNL A   1      45.912  23.592  26.725  1.00  0.00     0.029 A 
ATOM     53  N   UNL A   1      45.650  25.764  27.132  1.00  0.00    -0.354 N 
ATOM     54  N   UNL A   1      46.573  28.541  27.474  1.00  0.00    -0.248 NA
ATOM     55  C   UNL A   1      48.303  30.105  27.608  1.00  0.00     0.031 C 
ATOM     56  C   UNL A   1      47.177  24.194  26.761  1.00  0.00     0.029 A 
ATOM     57  C   UNL A   1      47.012  25.550  26.994  1.00  0.00     0.049 A 
ATOM     58  H   UNL A   1      45.231  26.636  27.308  1.00  0.00     0.167 HD
ATOM     59  C   UNL A   1      47.786  27.894  27.279  1.00  0.00     0.074 A 
ATOM     60  C   UNL A   1      48.816  28.912  27.345  1.00  0.00     0.031 C 
ATOM     61  C   UNL A   1      48.024  26.574  27.083  1.00  0.00     0.037 A 
BRANCH  48  62
ATOM     62  C   UNL A   1      42.930  23.053  27.030  1.00  0.00     0.057 A 
ATOM     63  C   UNL A   1      42.618  22.454  25.802  1.00  0.00     0.134 A 
ATOM     64  C   UNL A   1      42.583  22.362  28.197  1.00  0.00     0.134 A 
ATOM     65  F   UNL A   1      42.895  23.083  24.650  1.00  0.00    -0.206 F 
ATOM     66  C   UNL A   1      41.950  21.231  25.740  1.00  0.00     0.040 A 
ATOM     67  C   UNL A   1      41.936  21.128  28.147  1.00  0.00     0.040 A 
ATOM     68  F   UNL A   1      42.844  22.888  29.404  1.00  0.00    -0.206 F 
ATOM     69  C   UNL A   1      41.607  20.564  26.915  1.00  0.00     0.006 A 
ENDBRANCH  48  62
BRANCH  49  70
ATOM     70  C   UNL A   1      46.468  32.323  28.183  1.00  0.00     0.057 A 
ATOM     71  C   UNL A   1      46.444  33.259  27.141  1.00  0.00     0.134 A 
ATOM     72  C   UNL A   1      46.997  32.744  29.410  1.00  0.00     0.134 A 
ATOM     73  F   UNL A   1      45.984  32.910  25.932  1.00  0.00    -0.206 F 
ATOM     74  C   UNL A   1      46.924  34.560  27.315  1.00  0.00     0.040 A 
ATOM     75  C   UNL A   1      47.452  34.049  29.605  1.00  0.00     0.040 A 
ATOM     76  F   UNL A   1      47.056  31.897  30.448  1.00  0.00    -0.206 F 
ATOM     77  C   UNL A   1      47.420  34.960  28.553  1.00  0.00     0.006 A 
ENDBRANCH  49  70
BRANCH  61  78
ATOM     78  C   UNL A   1      49.457  26.160  26.931  1.00  0.00     0.057 A 
ATOM     79  C   UNL A   1      50.074  26.093  25.677  1.00  0.00     0.134 A 
ATOM     80  C   UNL A   1      50.235  25.862  28.056  1.00  0.00     0.134 A 
ATOM     81  F   UNL A   1      49.377  26.354  24.560  1.00  0.00    -0.206 F 
ATOM     82  C   UNL A   1      51.415  25.729  25.543  1.00  0.00     0.040 A 
ATOM     83  C   UNL A   1      51.581  25.517  27.938  1.00  0.00     0.040 A 
ATOM     84  F   UNL A   1      49.702  25.912  29.286  1.00  0.00    -0.206 F 
ATOM     85  C   UNL A   1      52.174  25.446  26.678  1.00  0.00     0.006 A 
ENDBRANCH  61  78
ENDBRANCH  35  36
ENDBRANCH  28  30
ENDBRANCH  27  28
ENDBRANCH  26  27
ENDBRANCH   1  26
TORSDOF 17
ENDMDL
MODEL 2
REMARK VINA RESULT:     -10.3      4.280      6.670
REMARK SMILES CO[C@@H]1C[C@H](C(=O)OCCOC(=O)c2ccc(-c3c4nc(c(-c5c(F)cccc5F)c5ccc([nH]5)c(-c5c(F)cccc5F)c5nc(c(-c6c(F)cccc6F)c6ccc3[nH]6)C=C5)C=C4)cc2)N(C(=O)[C@H](CC(C)C)NC(N)=O)C1
REMARK SMILES IDX 9 1 8 2 6 3 7 4 5 5 3 6 4 7 80 8 68 9 2 10 1 11 69 12 70 13
REMARK SMILES IDX 71 14 76 15 77 16 78 18 79 19 72 22 73 23 74 24 75 25 10 26
REMARK SMILES IDX 11 27 12 28 13 29 14 30 15 31 67 32 16 33 66 34 17 35 18 36
REMARK SMILES IDX 19 37 60 38 20 39 65 40 59 41 61 42 21 43 64 44 58 45 57 46
REMARK SMILES IDX 22 48 48 49 31 50 47 51 32 52 35 53 46 54 62 55 33 56 34 57
REMARK SMILES IDX 45 59 63 60 36 61 23 62 24 63 29 64 25 65 26 66 28 67 30 68
REMARK SMILES IDX 27 69 49 70 50 71 55 72 51 73 52 74 54 75 56 76 53 77 37 78
REMARK SMILES IDX 38 79 43 80 39 81 40 82 42 83 44 84 41 85
REMARK H PARENT 76 17 78 20 78 21 61 47 35 58
REMARK Flexibility Score: inf
ROOT
ATOM      1  C   UNL A   1      32.857  29.464  24.699  1.00  0.00     0.274 C 
ENDROOT
BRANCH   1   2
ATOM      2  O   UNL A   1      33.229  28.181  25.242  1.00  0.00    -0.461 OA
BRANCH   2   3
ATOM      3  C   UNL A   1      33.033  27.112  24.440  1.00  0.00     0.329 C 
ATOM      4  O   UNL A   1      33.714  26.893  23.448  1.00  0.00    -0.250 OA
BRANCH   3   5
ATOM      5  C   UNL A   1      31.839  26.225  24.808  1.00  0.00     0.197 C 
ATOM      6  C   UNL A   1      30.065  26.573  23.206  1.00  0.00     0.140 C 
ATOM      7  C   UNL A   1      30.487  26.905  24.636  1.00  0.00     0.071 C 
ATOM      8  C   UNL A   1      30.772  25.231  22.921  1.00  0.00     0.152 C 
ATOM      9  N   UNL A   1      31.797  25.047  23.957  1.00  0.00    -0.324 N 
BRANCH   6  10
ATOM     10  O   UNL A   1      30.459  27.544  22.236  1.00  0.00    -0.380 OA
ATOM     11  C   UNL A   1      29.894  28.836  22.428  1.00  0.00     0.195 C 
ENDBRANCH   6  10
BRANCH   9  12
ATOM     12  C   UNL A   1      32.603  23.929  23.938  1.00  0.00     0.246 C 
ATOM     13  O   UNL A   1      33.305  23.744  22.926  1.00  0.00    -0.272 OA
BRANCH  12  14
ATOM     14  C   UNL A   1      32.587  22.771  25.009  1.00  0.00     0.173 C 
BRANCH  14  15
ATOM     15  N   UNL A   1      31.178  22.598  25.396  1.00  0.00    -0.327 N 
ATOM     16  C   UNL A   1      30.658  23.015  26.578  1.00  0.00     0.312 C 
ATOM     17  H   UNL A   1      30.575  22.153  24.758  1.00  0.00     0.166 HD
ATOM     18  N   UNL A   1      29.501  22.380  26.883  1.00  0.00    -0.352 N 
ATOM     19  O   UNL A   1      31.196  23.780  27.364  1.00  0.00    -0.249 OA
ATOM     20  H   UNL A   1      29.089  21.769  26.230  1.00  0.00     0.161 HD
ATOM     21  H   UNL A   1      29.071  22.532  27.755  1.00  0.00     0.161 HD
ENDBRANCH  14  15
BRANCH  14  22
ATOM     22  C   UNL A   1      33.239  21.398  24.792  1.00  0.00     0.038 C 
BRANCH  22  23
ATOM     23  C   UNL A   1      32.411  20.278  24.119  1.00  0.00    -0.015 C 
ATOM     24  C   UNL A   1      32.158  20.419  22.617  1.00  0.00     0.007 C 
ATOM     25  C   UNL A   1      33.043  18.933  24.439  1.00  0.00     0.007 C 
ENDBRANCH  22  23
ENDBRANCH  14  22
ENDBRANCH  12  14
ENDBRANCH   9  12
ENDBRANCH   3   5
ENDBRANCH   2   3
ENDBRANCH   1   2
BRANCH   1  26
ATOM     26  C   UNL A   1      31.736  30.146  25.497  1.00  0.00     0.275 C 
BRANCH  26  27
ATOM     27  O   UNL A   1      32.122  30.394  26.864  1.00  0.00    -0.458 OA
BRANCH  27  28
ATOM     28  C   UNL A   1      32.714  31.590  27.106  1.00  0.00     0.338 C 
ATOM     29  O   UNL A   1      32.216  32.694  26.934  1.00  0.00    -0.246 OA
BRANCH  28  30
ATOM     30  C   UNL A   1      33.991  31.389  27.833  1.00  0.00     0.060 A 
ATOM     31  C   UNL A   1      34.370  30.069  28.116  1.00  0.00     0.016 A 
ATOM     32  C   UNL A   1      34.835  32.447  28.185  1.00  0.00     0.016 A 
ATOM     33  C   UNL A   1      35.603  29.805  28.714  1.00  0.00     0.010 A 
ATOM     34  C   UNL A   1      36.052  32.183  28.829  1.00  0.00     0.010 A 
ATOM     35  C   UNL A   1      36.445  30.861  29.094  1.00  0.00    -0.014 A 
BRANCH  35  36
ATOM     36  C   UNL A   1      37.683  30.558  29.858  1.00  0.00     0.031 A 
ATOM     37  C   UNL A   1      38.800  29.843  29.168  1.00  0.00     0.074 A 
ATOM     38  C   UNL A   1      37.832  30.937  31.140  1.00  0.00     0.049 A 
ATOM     39  N   UNL A   1      39.980  29.523  29.626  1.00  0.00    -0.248 NA
ATOM     40  C   UNL A   1      38.535  29.398  27.793  1.00  0.00     0.031 C 
ATOM     41  C   UNL A   1      36.796  31.571  31.933  1.00  0.00     0.029 A 
ATOM     42  N   UNL A   1      38.904  30.871  31.994  1.00  0.00    -0.354 N 
ATOM     43  C   UNL A   1      40.593  28.814  28.606  1.00  0.00     0.074 A 
ATOM     44  C   UNL A   1      39.662  28.769  27.498  1.00  0.00     0.031 C 
ATOM     45  C   UNL A   1      37.299  31.948  33.117  1.00  0.00     0.029 A 
ATOM     46  C   UNL A   1      38.674  31.471  33.211  1.00  0.00     0.049 A 
ATOM     47  H   UNL A   1      39.756  30.438  31.758  1.00  0.00     0.167 HD
ATOM     48  C   UNL A   1      41.807  28.217  28.609  1.00  0.00     0.037 A 
ATOM     49  C   UNL A   1      39.467  31.588  34.295  1.00  0.00     0.037 A 
ATOM     50  C   UNL A   1      42.700  28.206  29.735  1.00  0.00     0.049 A 
ATOM     51  C   UNL A   1      40.815  30.927  34.271  1.00  0.00     0.074 A 
ATOM     52  C   UNL A   1      43.943  27.609  29.844  1.00  0.00     0.029 A 
ATOM     53  N   UNL A   1      42.432  28.800  30.962  1.00  0.00    -0.354 N 
ATOM     54  N   UNL A   1      41.393  30.273  33.293  1.00  0.00    -0.248 NA
ATOM     55  C   UNL A   1      41.601  30.972  35.512  1.00  0.00     0.031 C 
ATOM     56  C   UNL A   1      44.407  27.803  31.152  1.00  0.00     0.029 A 
ATOM     57  C   UNL A   1      43.476  28.563  31.842  1.00  0.00     0.049 A 
ATOM     58  H   UNL A   1      41.621  29.314  31.174  1.00  0.00     0.167 HD
ATOM     59  C   UNL A   1      42.598  29.809  33.804  1.00  0.00     0.074 A 
ATOM     60  C   UNL A   1      42.685  30.292  35.168  1.00  0.00     0.031 C 
ATOM     61  C   UNL A   1      43.535  29.037  33.203  1.00  0.00     0.037 A 
BRANCH  48  62
ATOM     62  C   UNL A   1      42.169  27.455  27.374  1.00  0.00     0.057 A 
ATOM     63  C   UNL A   1      41.955  26.075  27.264  1.00  0.00     0.134 A 
ATOM     64  C   UNL A   1      42.809  28.100  26.308  1.00  0.00     0.134 A 
ATOM     65  F   UNL A   1      41.377  25.395  28.267  1.00  0.00    -0.206 F 
ATOM     66  C   UNL A   1      42.396  25.357  26.152  1.00  0.00     0.040 A 
ATOM     67  C   UNL A   1      43.234  27.396  25.181  1.00  0.00     0.040 A 
ATOM     68  F   UNL A   1      43.055  29.418  26.358  1.00  0.00    -0.206 F 
ATOM     69  C   UNL A   1      43.038  26.019  25.106  1.00  0.00     0.006 A 
ENDBRANCH  48  62
BRANCH  49  70
ATOM     70  C   UNL A   1      38.981  32.296  35.508  1.00  0.00     0.057 A 
ATOM     71  C   UNL A   1      38.248  31.628  36.497  1.00  0.00     0.134 A 
ATOM     72  C   UNL A   1      39.242  33.657  35.715  1.00  0.00     0.134 A 
ATOM     73  F   UNL A   1      37.933  30.334  36.344  1.00  0.00    -0.206 F 
ATOM     74  C   UNL A   1      37.798  32.285  37.645  1.00  0.00     0.040 A 
ATOM     75  C   UNL A   1      38.823  34.319  36.870  1.00  0.00     0.040 A 
ATOM     76  F   UNL A   1      39.932  34.359  34.805  1.00  0.00    -0.206 F 
ATOM     77  C   UNL A   1      38.094  33.632  37.838  1.00  0.00     0.006 A 
ENDBRANCH  49  70
BRANCH  61  78
ATOM     78  C   UNL A   1      44.734  28.665  34.023  1.00  0.00     0.057 A 
ATOM     79  C   UNL A   1      45.869  29.482  34.078  1.00  0.00     0.134 A 
ATOM     80  C   UNL A   1      44.735  27.496  34.794  1.00  0.00     0.134 A 
ATOM     81  F   UNL A   1      45.933  30.608  33.352  1.00  0.00    -0.206 F 
ATOM     82  C   UNL A   1      46.973  29.142  34.863  1.00  0.00     0.040 A 
ATOM     83  C   UNL A   1      45.823  27.157  35.597  1.00  0.00     0.040 A 
ATOM     84  F   UNL A   1      43.675  26.674  34.786  1.00  0.00    -0.206 F 
ATOM     85  C   UNL A   1      46.948  27.979  35.630  1.00  0.00     0.006 A 
ENDBRANCH  61  78
ENDBRANCH  35  36
ENDBRANCH  28  30
ENDBRANCH  27  28
ENDBRANCH  26  27
ENDBRANCH   1  26
TORSDOF 17
ENDMDL
MODEL 3
REMARK VINA RESULT:     -10.3      2.781      7.298
REMARK SMILES CO[C@@H]1C[C@H](C(=O)OCCOC(=O)c2ccc(-c3c4nc(c(-c5c(F)cccc5F)c5ccc([nH]5)c(-c5c(F)cccc5F)c5nc(c(-c6c(F)cccc6F)c6ccc3[nH]6)C=C5)C=C4)cc2)N(C(=O)[C@H](CC(C)C)NC(N)=O)C1
REMARK SMILES IDX 9 1 8 2 6 3 7 4 5 5 3 6 4 7 80 8 68 9 2 10 1 11 69 12 70 13
REMARK SMILES IDX 71 14 76 15 77 16 78 18 79 19 72 22 73 23 74 24 75 25 10 26
REMARK SMILES IDX 11 27 12 28 13 29 14 30 15 31 67 32 16 33 66 34 17 35 18 36
REMARK SMILES IDX 19 37 60 38 20 39 65 40 59 41 61 42 21 43 64 44 58 45 57 46
REMARK SMILES IDX 22 48 48 49 31 50 47 51 32 52 35 53 46 54 62 55 33 56 34 57
REMARK SMILES IDX 45 59 63 60 36 61 23 62 24 63 29 64 25 65 26 66 28 67 30 68
REMARK SMILES IDX 27 69 49 70 50 71 55 72 51 73 52 74 54 75 56 76 53 77 37 78
REMARK SMILES IDX 38 79 43 80 39 81 40 82 42 83 44 84 41 85
REMARK H PARENT 76 17 78 20 78 21 61 47 35 58
REMARK Flexibility Score: inf
ROOT
ATOM      1  C   UNL A   1      36.337  22.847  23.791  1.00  0.00     0.274 C 
ENDROOT
BRANCH   1   2
ATOM      2  O   UNL A   1      34.952  22.851  23.388  1.00  0.00    -0.461 OA
BRANCH   2   3
ATOM      3  C   UNL A   1      34.098  23.525  24.189  1.00  0.00     0.329 C 
ATOM      4  O   UNL A   1      34.474  24.266  25.086  1.00  0.00    -0.250 OA
BRANCH   3   5
ATOM      5  C   UNL A   1      32.611  23.236  23.955  1.00  0.00     0.197 C 
ATOM      6  C   UNL A   1      32.147  20.935  24.525  1.00  0.00     0.140 C 
ATOM      7  C   UNL A   1      32.336  21.873  23.334  1.00  0.00     0.071 C 
ATOM      8  C   UNL A   1      31.628  21.867  25.641  1.00  0.00     0.152 C 
ATOM      9  N   UNL A   1      31.885  23.248  25.214  1.00  0.00    -0.324 N 
BRANCH   6  10
ATOM     10  O   UNL A   1      33.342  20.282  24.955  1.00  0.00    -0.380 OA
ATOM     11  C   UNL A   1      33.303  18.862  24.872  1.00  0.00     0.195 C 
ENDBRANCH   6  10
BRANCH   9  12
ATOM     12  C   UNL A   1      31.536  24.298  26.035  1.00  0.00     0.246 C 
ATOM     13  O   UNL A   1      31.408  24.060  27.251  1.00  0.00    -0.272 OA
BRANCH  12  14
ATOM     14  C   UNL A   1      31.116  25.740  25.549  1.00  0.00     0.173 C 
BRANCH  14  15
ATOM     15  N   UNL A   1      29.759  25.602  25.000  1.00  0.00    -0.327 N 
ATOM     16  C   UNL A   1      29.301  26.291  23.924  1.00  0.00     0.312 C 
ATOM     17  H   UNL A   1      29.145  24.970  25.438  1.00  0.00     0.166 HD
ATOM     18  N   UNL A   1      27.948  26.328  23.876  1.00  0.00    -0.352 N 
ATOM     19  O   UNL A   1      29.989  26.919  23.134  1.00  0.00    -0.249 OA
ATOM     20  H   UNL A   1      27.418  25.812  24.525  1.00  0.00     0.161 HD
ATOM     21  H   UNL A   1      27.494  26.872  23.192  1.00  0.00     0.161 HD
ENDBRANCH  14  15
BRANCH  14  22
ATOM     22  C   UNL A   1      31.195  26.995  26.431  1.00  0.00     0.038 C 
BRANCH  22  23
ATOM     23  C   UNL A   1      32.144  28.142  26.012  1.00  0.00    -0.015 C 
ATOM     24  C   UNL A   1      31.534  29.264  25.169  1.00  0.00     0.007 C 
ATOM     25  C   UNL A   1      32.824  28.702  27.251  1.00  0.00     0.007 C 
ENDBRANCH  22  23
ENDBRANCH  14  22
ENDBRANCH  12  14
ENDBRANCH   9  12
ENDBRANCH   3   5
ENDBRANCH   2   3
ENDBRANCH   1   2
BRANCH   1  26
ATOM     26  C   UNL A   1      36.754  21.536  24.473  1.00  0.00     0.275 C 
BRANCH  26  27
ATOM     27  O   UNL A   1      37.233  21.757  25.815  1.00  0.00    -0.458 OA
BRANCH  27  28
ATOM     28  C   UNL A   1      38.532  21.438  26.042  1.00  0.00     0.338 C 
ATOM     29  O   UNL A   1      39.082  20.385  25.749  1.00  0.00    -0.246 OA
BRANCH  28  30
ATOM     30  C   UNL A   1      39.279  22.635  26.497  1.00  0.00     0.060 A 
ATOM     31  C   UNL A   1      38.832  23.884  26.043  1.00  0.00     0.016 A 
ATOM     32  C   UNL A   1      40.353  22.562  27.389  1.00  0.00     0.016 A 
ATOM     33  C   UNL A   1      39.431  25.056  26.507  1.00  0.00     0.010 A 
ATOM     34  C   UNL A   1      40.985  23.738  27.817  1.00  0.00     0.010 A 
ATOM     35  C   UNL A   1      40.526  24.992  27.382  1.00  0.00    -0.014 A 
BRANCH  35  36
ATOM     36  C   UNL A   1      41.234  26.246  27.744  1.00  0.00     0.031 A 
ATOM     37  C   UNL A   1      42.611  26.478  27.209  1.00  0.00     0.074 A 
ATOM     38  C   UNL A   1      40.657  27.187  28.513  1.00  0.00     0.049 A 
ATOM     39  N   UNL A   1      43.388  27.517  27.357  1.00  0.00    -0.248 NA
ATOM     40  C   UNL A   1      43.203  25.375  26.438  1.00  0.00     0.031 C 
ATOM     41  C   UNL A   1      39.359  27.045  29.146  1.00  0.00     0.029 A 
ATOM     42  N   UNL A   1      41.062  28.447  28.876  1.00  0.00    -0.354 N 
ATOM     43  C   UNL A   1      44.573  27.186  26.721  1.00  0.00     0.074 A 
ATOM     44  C   UNL A   1      44.405  25.858  26.168  1.00  0.00     0.031 C 
ATOM     45  C   UNL A   1      39.008  28.203  29.723  1.00  0.00     0.029 A 
ATOM     46  C   UNL A   1      40.120  29.139  29.602  1.00  0.00     0.049 A 
ATOM     47  H   UNL A   1      41.943  28.819  28.640  1.00  0.00     0.167 HD
ATOM     48  C   UNL A   1      45.714  27.908  26.641  1.00  0.00     0.037 A 
ATOM     49  C   UNL A   1      40.162  30.373  30.142  1.00  0.00     0.037 A 
ATOM     50  C   UNL A   1      45.900  29.197  27.249  1.00  0.00     0.049 A 
ATOM     51  C   UNL A   1      41.435  31.161  30.032  1.00  0.00     0.074 A 
ATOM     52  C   UNL A   1      47.027  29.999  27.244  1.00  0.00     0.029 A 
ATOM     53  N   UNL A   1      44.938  29.863  27.998  1.00  0.00    -0.354 N 
ATOM     54  N   UNL A   1      42.547  30.845  29.411  1.00  0.00    -0.248 NA
ATOM     55  C   UNL A   1      41.485  32.449  30.736  1.00  0.00     0.031 C 
ATOM     56  C   UNL A   1      46.762  31.129  28.028  1.00  0.00     0.029 A 
ATOM     57  C   UNL A   1      45.454  31.055  28.479  1.00  0.00     0.049 A 
ATOM     58  H   UNL A   1      44.024  29.537  28.160  1.00  0.00     0.167 HD
ATOM     59  C   UNL A   1      43.434  31.881  29.667  1.00  0.00     0.074 A 
ATOM     60  C   UNL A   1      42.717  32.855  30.466  1.00  0.00     0.031 C 
ATOM     61  C   UNL A   1      44.730  32.004  29.290  1.00  0.00     0.037 A 
BRANCH  48  62
ATOM     62  C   UNL A   1      46.863  27.250  25.943  1.00  0.00     0.057 A 
ATOM     63  C   UNL A   1      47.804  26.474  26.633  1.00  0.00     0.134 A 
ATOM     64  C   UNL A   1      47.070  27.458  24.574  1.00  0.00     0.134 A 
ATOM     65  F   UNL A   1      47.678  26.268  27.953  1.00  0.00    -0.206 F 
ATOM     66  C   UNL A   1      48.929  25.957  25.991  1.00  0.00     0.040 A 
ATOM     67  C   UNL A   1      48.180  26.927  23.917  1.00  0.00     0.040 A 
ATOM     68  F   UNL A   1      46.212  28.203  23.861  1.00  0.00    -0.206 F 
ATOM     69  C   UNL A   1      49.119  26.183  24.629  1.00  0.00     0.006 A 
ENDBRANCH  48  62
BRANCH  49  70
ATOM     70  C   UNL A   1      38.992  30.905  30.891  1.00  0.00     0.057 A 
ATOM     71  C   UNL A   1      37.984  31.631  30.245  1.00  0.00     0.134 A 
ATOM     72  C   UNL A   1      38.849  30.696  32.268  1.00  0.00     0.134 A 
ATOM     73  F   UNL A   1      38.078  31.897  28.934  1.00  0.00    -0.206 F 
ATOM     74  C   UNL A   1      36.877  32.124  30.940  1.00  0.00     0.040 A 
ATOM     75  C   UNL A   1      37.734  31.159  32.970  1.00  0.00     0.040 A 
ATOM     76  F   UNL A   1      39.781  30.015  32.951  1.00  0.00    -0.206 F 
ATOM     77  C   UNL A   1      36.746  31.879  32.305  1.00  0.00     0.006 A 
ENDBRANCH  49  70
BRANCH  61  78
ATOM     78  C   UNL A   1      45.454  33.234  29.745  1.00  0.00     0.057 A 
ATOM     79  C   UNL A   1      46.189  33.256  30.937  1.00  0.00     0.134 A 
ATOM     80  C   UNL A   1      45.447  34.396  28.964  1.00  0.00     0.134 A 
ATOM     81  F   UNL A   1      46.224  32.179  31.736  1.00  0.00    -0.206 F 
ATOM     82  C   UNL A   1      46.882  34.398  31.344  1.00  0.00     0.040 A 
ATOM     83  C   UNL A   1      46.152  35.536  29.349  1.00  0.00     0.040 A 
ATOM     84  F   UNL A   1      44.765  34.436  27.809  1.00  0.00    -0.206 F 
ATOM     85  C   UNL A   1      46.869  35.540  30.545  1.00  0.00     0.006 A 
ENDBRANCH  61  78
ENDBRANCH  35  36
ENDBRANCH  28  30
ENDBRANCH  27  28
ENDBRANCH  26  27
ENDBRANCH   1  26
TORSDOF 17
ENDMDL
