MODEL 1
REMARK VINA RESULT:     -12.1      0.000      0.000
REMARK SMILES CC[C@@H](C(=O)Nc1ccc(OC(C)=O)cc1C(=O)OCCOC(=O)c1ccc(-c2c3nc(c(-c4c(F)cccc4F)c4ccc([nH]4)c(-c4c(F)cccc4F)c4nc(c(-c5c(F)cccc5F)c5ccc2[nH]5)C=C4)C=C3)cc1)c1ccccc1
REMARK SMILES IDX 20 1 19 2 17 3 18 4 16 5 7 6 8 7 9 8 15 9 10 10 6 11 4 12
REMARK SMILES IDX 5 13 3 15 2 16 1 17 79 18 80 19 84 20 81 21 83 22 82 23
REMARK SMILES IDX 11 24 12 25 13 26 14 27 21 28 22 29 23 30 24 31 25 32 26 33
REMARK SMILES IDX 78 34 27 35 77 36 28 37 29 38 30 39 71 40 31 41 76 42 70 43
REMARK SMILES IDX 72 44 32 45 75 46 69 47 68 48 33 50 59 51 42 52 58 53 43 54
REMARK SMILES IDX 46 55 57 56 73 57 44 58 45 59 56 61 74 62 47 63 34 64 35 65
REMARK SMILES IDX 40 66 36 67 37 68 39 69 41 70 38 71 60 72 61 73 66 74 62 75
REMARK SMILES IDX 63 76 65 77 67 78 64 79 48 80 49 81 54 82 50 83 51 84 53 85
REMARK SMILES IDX 55 86 52 87
REMARK H PARENT 6 14 72 49 46 60
REMARK Flexibility Score: inf
ROOT
ATOM      1  C   UNL A   1      33.526  30.228  26.395  1.00  0.00     0.275 C 
ENDROOT
BRANCH   1   2
ATOM      2  O   UNL A   1      32.263  29.603  26.067  1.00  0.00    -0.458 OA
BRANCH   2   3
ATOM      3  C   UNL A   1      32.313  28.258  26.082  1.00  0.00     0.340 C 
ATOM      4  O   UNL A   1      33.129  27.567  26.659  1.00  0.00    -0.246 OA
BRANCH   3   5
ATOM      5  C   UNL A   1      31.306  27.602  25.258  1.00  0.00     0.087 A 
ATOM      6  C   UNL A   1      30.826  26.309  25.524  1.00  0.00     0.056 A 
ATOM      7  C   UNL A   1      29.813  25.789  24.704  1.00  0.00     0.031 A 
ATOM      8  C   UNL A   1      29.174  26.600  23.762  1.00  0.00     0.049 A 
ATOM      9  C   UNL A   1      30.697  28.408  24.283  1.00  0.00     0.065 A 
ATOM     10  C   UNL A   1      29.592  27.918  23.600  1.00  0.00     0.131 A 
BRANCH   6  11
ATOM     11  N   UNL A   1      31.228  25.475  26.589  1.00  0.00    -0.325 N 
ATOM     12  C   UNL A   1      31.444  24.118  26.576  1.00  0.00     0.231 C 
ATOM     13  O   UNL A   1      30.681  23.418  27.251  1.00  0.00    -0.274 OA
ATOM     14  H   UNL A   1      31.373  25.925  27.454  1.00  0.00     0.169 HD
BRANCH  12  15
ATOM     15  C   UNL A   1      32.825  23.599  26.046  1.00  0.00     0.108 C 
BRANCH  15  16
ATOM     16  C   UNL A   1      33.847  24.592  25.460  1.00  0.00     0.015 C 
ATOM     17  C   UNL A   1      35.314  24.309  25.732  1.00  0.00     0.005 C 
ENDBRANCH  15  16
BRANCH  15  18
ATOM     18  C   UNL A   1      32.580  22.486  25.012  1.00  0.00    -0.036 A 
ATOM     19  C   UNL A   1      32.675  21.122  25.351  1.00  0.00     0.004 A 
ATOM     20  C   UNL A   1      32.296  22.825  23.682  1.00  0.00     0.004 A 
ATOM     21  C   UNL A   1      32.457  20.130  24.395  1.00  0.00     0.000 A 
ATOM     22  C   UNL A   1      32.087  21.831  22.725  1.00  0.00     0.000 A 
ATOM     23  C   UNL A   1      32.160  20.486  23.082  1.00  0.00     0.000 A 
ENDBRANCH  15  18
ENDBRANCH  12  15
ENDBRANCH   6  11
BRANCH  10  24
ATOM     24  O   UNL A   1      28.889  28.724  22.691  1.00  0.00    -0.427 OA
BRANCH  24  25
ATOM     25  C   UNL A   1      27.769  29.444  23.109  1.00  0.00     0.308 C 
ATOM     26  C   UNL A   1      27.993  30.892  23.446  1.00  0.00     0.139 C 
ATOM     27  O   UNL A   1      26.655  28.929  23.129  1.00  0.00    -0.252 OA
ENDBRANCH  24  25
ENDBRANCH  10  24
ENDBRANCH   3   5
ENDBRANCH   2   3
ENDBRANCH   1   2
BRANCH   1  28
ATOM     28  C   UNL A   1      33.473  31.136  27.626  1.00  0.00     0.275 C 
BRANCH  28  29
ATOM     29  O   UNL A   1      34.745  31.769  27.877  1.00  0.00    -0.458 OA
BRANCH  29  30
ATOM     30  C   UNL A   1      35.330  31.456  29.054  1.00  0.00     0.338 C 
ATOM     31  O   UNL A   1      35.039  31.910  30.151  1.00  0.00    -0.246 OA
BRANCH  30  32
ATOM     32  C   UNL A   1      36.401  30.441  28.912  1.00  0.00     0.060 A 
ATOM     33  C   UNL A   1      36.909  29.740  30.005  1.00  0.00     0.016 A 
ATOM     34  C   UNL A   1      37.060  30.351  27.686  1.00  0.00     0.016 A 
ATOM     35  C   UNL A   1      38.154  29.117  29.931  1.00  0.00     0.010 A 
ATOM     36  C   UNL A   1      38.250  29.625  27.583  1.00  0.00     0.010 A 
ATOM     37  C   UNL A   1      38.857  29.070  28.724  1.00  0.00    -0.014 A 
BRANCH  37  38
ATOM     38  C   UNL A   1      40.265  28.585  28.649  1.00  0.00     0.031 A 
ATOM     39  C   UNL A   1      41.379  29.562  28.925  1.00  0.00     0.074 A 
ATOM     40  C   UNL A   1      40.591  27.306  28.379  1.00  0.00     0.049 A 
ATOM     41  N   UNL A   1      42.630  29.528  28.547  1.00  0.00    -0.248 NA
ATOM     42  C   UNL A   1      41.021  30.755  29.711  1.00  0.00     0.031 C 
ATOM     43  C   UNL A   1      39.659  26.192  28.222  1.00  0.00     0.029 A 
ATOM     44  N   UNL A   1      41.826  26.732  28.192  1.00  0.00    -0.354 N 
ATOM     45  C   UNL A   1      43.174  30.743  28.944  1.00  0.00     0.074 A 
ATOM     46  C   UNL A   1      42.132  31.473  29.631  1.00  0.00     0.031 C 
ATOM     47  C   UNL A   1      40.354  25.061  28.015  1.00  0.00     0.029 A 
ATOM     48  C   UNL A   1      41.768  25.394  27.889  1.00  0.00     0.049 A 
ATOM     49  H   UNL A   1      42.670  27.232  28.267  1.00  0.00     0.167 HD
ATOM     50  C   UNL A   1      44.426  31.211  28.723  1.00  0.00     0.037 A 
ATOM     51  C   UNL A   1      42.732  24.545  27.481  1.00  0.00     0.037 A 
ATOM     52  C   UNL A   1      45.478  30.430  28.130  1.00  0.00     0.049 A 
ATOM     53  C   UNL A   1      44.114  25.074  27.222  1.00  0.00     0.074 A 
ATOM     54  C   UNL A   1      46.773  30.808  27.819  1.00  0.00     0.029 A 
ATOM     55  N   UNL A   1      45.363  29.088  27.804  1.00  0.00    -0.354 N 
ATOM     56  N   UNL A   1      44.581  26.287  27.394  1.00  0.00    -0.248 NA
ATOM     57  C   UNL A   1      45.088  24.128  26.660  1.00  0.00     0.031 C 
ATOM     58  C   UNL A   1      47.439  29.692  27.296  1.00  0.00     0.029 A 
ATOM     59  C   UNL A   1      46.565  28.616  27.308  1.00  0.00     0.049 A 
ATOM     60  H   UNL A   1      44.546  28.549  27.909  1.00  0.00     0.167 HD
ATOM     61  C   UNL A   1      45.900  26.250  26.960  1.00  0.00     0.074 A 
ATOM     62  C   UNL A   1      46.166  24.891  26.537  1.00  0.00     0.031 C 
ATOM     63  C   UNL A   1      46.807  27.256  26.903  1.00  0.00     0.037 A 
BRANCH  50  64
ATOM     64  C   UNL A   1      44.695  32.647  29.058  1.00  0.00     0.057 A 
ATOM     65  C   UNL A   1      44.412  33.696  28.177  1.00  0.00     0.134 A 
ATOM     66  C   UNL A   1      45.251  32.980  30.301  1.00  0.00     0.134 A 
ATOM     67  F   UNL A   1      43.900  33.443  26.962  1.00  0.00    -0.206 F 
ATOM     68  C   UNL A   1      44.692  35.022  28.510  1.00  0.00     0.040 A 
ATOM     69  C   UNL A   1      45.514  34.304  30.656  1.00  0.00     0.040 A 
ATOM     70  F   UNL A   1      45.546  32.022  31.194  1.00  0.00    -0.206 F 
ATOM     71  C   UNL A   1      45.241  35.330  29.755  1.00  0.00     0.006 A 
ENDBRANCH  50  64
BRANCH  51  72
ATOM     72  C   UNL A   1      42.400  23.123  27.215  1.00  0.00     0.057 A 
ATOM     73  C   UNL A   1      42.274  22.647  25.906  1.00  0.00     0.134 A 
ATOM     74  C   UNL A   1      42.216  22.204  28.256  1.00  0.00     0.134 A 
ATOM     75  F   UNL A   1      42.410  23.486  24.868  1.00  0.00    -0.206 F 
ATOM     76  C   UNL A   1      41.983  21.308  25.639  1.00  0.00     0.040 A 
ATOM     77  C   UNL A   1      41.951  20.857  28.005  1.00  0.00     0.040 A 
ATOM     78  F   UNL A   1      42.319  22.598  29.534  1.00  0.00    -0.206 F 
ATOM     79  C   UNL A   1      41.831  20.407  26.692  1.00  0.00     0.006 A 
ENDBRANCH  51  72
BRANCH  63  80
ATOM     80  C   UNL A   1      48.172  26.914  26.394  1.00  0.00     0.057 A 
ATOM     81  C   UNL A   1      49.187  26.480  27.254  1.00  0.00     0.134 A 
ATOM     82  C   UNL A   1      48.460  26.981  25.025  1.00  0.00     0.134 A 
ATOM     83  F   UNL A   1      48.974  26.406  28.577  1.00  0.00    -0.206 F 
ATOM     84  C   UNL A   1      50.451  26.137  26.771  1.00  0.00     0.040 A 
ATOM     85  C   UNL A   1      49.714  26.627  24.529  1.00  0.00     0.040 A 
ATOM     86  F   UNL A   1      47.525  27.386  24.153  1.00  0.00    -0.206 F 
ATOM     87  C   UNL A   1      50.714  26.206  25.404  1.00  0.00     0.006 A 
ENDBRANCH  63  80
ENDBRANCH  37  38
ENDBRANCH  30  32
ENDBRANCH  29  30
ENDBRANCH  28  29
ENDBRANCH   1  28
TORSDOF 17
ENDMDL
MODEL 2
REMARK VINA RESULT:     -12.1      3.961      7.292
REMARK SMILES CC[C@@H](C(=O)Nc1ccc(OC(C)=O)cc1C(=O)OCCOC(=O)c1ccc(-c2c3nc(c(-c4c(F)cccc4F)c4ccc([nH]4)c(-c4c(F)cccc4F)c4nc(c(-c5c(F)cccc5F)c5ccc2[nH]5)C=C4)C=C3)cc1)c1ccccc1
REMARK SMILES IDX 20 1 19 2 17 3 18 4 16 5 7 6 8 7 9 8 15 9 10 10 6 11 4 12
REMARK SMILES IDX 5 13 3 15 2 16 1 17 79 18 80 19 84 20 81 21 83 22 82 23
REMARK SMILES IDX 11 24 12 25 13 26 14 27 21 28 22 29 23 30 24 31 25 32 26 33
REMARK SMILES IDX 78 34 27 35 77 36 28 37 29 38 30 39 71 40 31 41 76 42 70 43
REMARK SMILES IDX 72 44 32 45 75 46 69 47 68 48 33 50 59 51 42 52 58 53 43 54
REMARK SMILES IDX 46 55 57 56 73 57 44 58 45 59 56 61 74 62 47 63 34 64 35 65
REMARK SMILES IDX 40 66 36 67 37 68 39 69 41 70 38 71 60 72 61 73 66 74 62 75
REMARK SMILES IDX 63 76 65 77 67 78 64 79 48 80 49 81 54 82 50 83 51 84 53 85
REMARK SMILES IDX 55 86 52 87
REMARK H PARENT 6 14 72 49 46 60
REMARK Flexibility Score: inf
ROOT
ATOM      1  C   UNL A   1      33.047  29.328  24.665  1.00  0.00     0.275 C 
ENDROOT
BRANCH   1   2
ATOM      2  O   UNL A   1      32.608  28.945  23.341  1.00  0.00    -0.458 OA
BRANCH   2   3
ATOM      3  C   UNL A   1      32.369  27.626  23.219  1.00  0.00     0.340 C 
ATOM      4  O   UNL A   1      33.156  26.774  22.855  1.00  0.00    -0.246 OA
BRANCH   3   5
ATOM      5  C   UNL A   1      30.995  27.227  23.502  1.00  0.00     0.087 A 
ATOM      6  C   UNL A   1      30.657  26.334  24.531  1.00  0.00     0.056 A 
ATOM      7  C   UNL A   1      29.300  26.058  24.759  1.00  0.00     0.031 A 
ATOM      8  C   UNL A   1      28.306  26.788  24.100  1.00  0.00     0.049 A 
ATOM      9  C   UNL A   1      30.001  27.932  22.806  1.00  0.00     0.065 A 
ATOM     10  C   UNL A   1      28.672  27.753  23.167  1.00  0.00     0.131 A 
BRANCH   6  11
ATOM     11  N   UNL A   1      31.557  25.707  25.419  1.00  0.00    -0.325 N 
ATOM     12  C   UNL A   1      31.481  24.448  25.965  1.00  0.00     0.231 C 
ATOM     13  O   UNL A   1      31.327  24.371  27.188  1.00  0.00    -0.274 OA
ATOM     14  H   UNL A   1      32.343  26.241  25.681  1.00  0.00     0.169 HD
BRANCH  12  15
ATOM     15  C   UNL A   1      31.969  23.239  25.093  1.00  0.00     0.108 C 
BRANCH  15  16
ATOM     16  C   UNL A   1      31.607  21.799  25.503  1.00  0.00     0.015 C 
ATOM     17  C   UNL A   1      32.293  20.676  24.744  1.00  0.00     0.005 C 
ENDBRANCH  15  16
BRANCH  15  18
ATOM     18  C   UNL A   1      33.495  23.329  24.921  1.00  0.00    -0.036 A 
ATOM     19  C   UNL A   1      34.366  23.392  26.026  1.00  0.00     0.004 A 
ATOM     20  C   UNL A   1      34.046  23.394  23.633  1.00  0.00     0.004 A 
ATOM     21  C   UNL A   1      35.746  23.482  25.846  1.00  0.00     0.000 A 
ATOM     22  C   UNL A   1      35.427  23.494  23.456  1.00  0.00     0.000 A 
ATOM     23  C   UNL A   1      36.276  23.530  24.560  1.00  0.00     0.000 A 
ENDBRANCH  15  18
ENDBRANCH  12  15
ENDBRANCH   6  11
BRANCH  10  24
ATOM     24  O   UNL A   1      27.653  28.511  22.571  1.00  0.00    -0.427 OA
BRANCH  24  25
ATOM     25  C   UNL A   1      27.876  29.846  22.229  1.00  0.00     0.308 C 
ATOM     26  C   UNL A   1      27.780  30.847  23.347  1.00  0.00     0.139 C 
ATOM     27  O   UNL A   1      28.201  30.164  21.089  1.00  0.00    -0.252 OA
ENDBRANCH  24  25
ENDBRANCH  10  24
ENDBRANCH   3   5
ENDBRANCH   2   3
ENDBRANCH   1   2
BRANCH   1  28
ATOM     28  C   UNL A   1      31.966  30.007  25.510  1.00  0.00     0.275 C 
BRANCH  28  29
ATOM     29  O   UNL A   1      32.338  30.067  26.903  1.00  0.00    -0.458 OA
BRANCH  29  30
ATOM     30  C   UNL A   1      33.041  31.161  27.272  1.00  0.00     0.338 C 
ATOM     31  O   UNL A   1      32.600  32.292  27.415  1.00  0.00    -0.246 OA
BRANCH  30  32
ATOM     32  C   UNL A   1      34.471  30.866  27.529  1.00  0.00     0.060 A 
ATOM     33  C   UNL A   1      34.932  29.569  27.750  1.00  0.00     0.016 A 
ATOM     34  C   UNL A   1      35.329  31.938  27.771  1.00  0.00     0.016 A 
ATOM     35  C   UNL A   1      36.155  29.349  28.382  1.00  0.00     0.010 A 
ATOM     36  C   UNL A   1      36.604  31.709  28.296  1.00  0.00     0.010 A 
ATOM     37  C   UNL A   1      37.002  30.418  28.687  1.00  0.00    -0.014 A 
BRANCH  37  38
ATOM     38  C   UNL A   1      38.221  30.244  29.527  1.00  0.00     0.031 A 
ATOM     39  C   UNL A   1      39.385  29.474  28.957  1.00  0.00     0.074 A 
ATOM     40  C   UNL A   1      38.348  30.772  30.761  1.00  0.00     0.049 A 
ATOM     41  N   UNL A   1      40.351  28.847  29.575  1.00  0.00    -0.248 NA
ATOM     42  C   UNL A   1      39.447  29.376  27.489  1.00  0.00     0.031 C 
ATOM     43  C   UNL A   1      37.394  31.658  31.423  1.00  0.00     0.029 A 
ATOM     44  N   UNL A   1      39.360  30.629  31.680  1.00  0.00    -0.354 N 
ATOM     45  C   UNL A   1      41.062  28.184  28.583  1.00  0.00     0.074 A 
ATOM     46  C   UNL A   1      40.444  28.521  27.319  1.00  0.00     0.031 C 
ATOM     47  C   UNL A   1      37.887  32.022  32.618  1.00  0.00     0.029 A 
ATOM     48  C   UNL A   1      39.124  31.289  32.861  1.00  0.00     0.049 A 
ATOM     49  H   UNL A   1      40.175  30.105  31.509  1.00  0.00     0.167 HD
ATOM     50  C   UNL A   1      42.117  27.346  28.726  1.00  0.00     0.037 A 
ATOM     51  C   UNL A   1      39.785  31.249  34.035  1.00  0.00     0.037 A 
ATOM     52  C   UNL A   1      42.782  27.106  29.978  1.00  0.00     0.049 A 
ATOM     53  C   UNL A   1      40.943  30.306  34.193  1.00  0.00     0.074 A 
ATOM     54  C   UNL A   1      43.833  26.250  30.255  1.00  0.00     0.029 A 
ATOM     55  N   UNL A   1      42.483  27.769  31.158  1.00  0.00    -0.354 N 
ATOM     56  N   UNL A   1      41.489  29.509  33.305  1.00  0.00    -0.248 NA
ATOM     57  C   UNL A   1      41.544  30.216  35.531  1.00  0.00     0.031 C 
ATOM     58  C   UNL A   1      44.165  26.390  31.609  1.00  0.00     0.029 A 
ATOM     59  C   UNL A   1      43.338  27.354  32.164  1.00  0.00     0.049 A 
ATOM     60  H   UNL A   1      41.769  28.437  31.266  1.00  0.00     0.167 HD
ATOM     61  C   UNL A   1      42.492  28.823  33.976  1.00  0.00     0.074 A 
ATOM     62  C   UNL A   1      42.496  29.312  35.340  1.00  0.00     0.031 C 
ATOM     63  C   UNL A   1      43.327  27.863  33.510  1.00  0.00     0.037 A 
BRANCH  50  64
ATOM     64  C   UNL A   1      42.562  26.583  27.516  1.00  0.00     0.057 A 
ATOM     65  C   UNL A   1      42.039  25.331  27.176  1.00  0.00     0.134 A 
ATOM     66  C   UNL A   1      43.539  27.126  26.669  1.00  0.00     0.134 A 
ATOM     67  F   UNL A   1      41.117  24.745  27.956  1.00  0.00    -0.206 F 
ATOM     68  C   UNL A   1      42.488  24.635  26.052  1.00  0.00     0.040 A 
ATOM     69  C   UNL A   1      43.980  26.451  25.530  1.00  0.00     0.040 A 
ATOM     70  F   UNL A   1      44.082  28.324  26.936  1.00  0.00    -0.206 F 
ATOM     71  C   UNL A   1      43.458  25.197  25.223  1.00  0.00     0.006 A 
ENDBRANCH  50  64
BRANCH  51  72
ATOM     72  C   UNL A   1      39.313  32.071  35.177  1.00  0.00     0.057 A 
ATOM     73  C   UNL A   1      39.737  33.395  35.333  1.00  0.00     0.134 A 
ATOM     74  C   UNL A   1      38.419  31.563  36.129  1.00  0.00     0.134 A 
ATOM     75  F   UNL A   1      40.615  33.928  34.471  1.00  0.00    -0.206 F 
ATOM     76  C   UNL A   1      39.285  34.187  36.390  1.00  0.00     0.040 A 
ATOM     77  C   UNL A   1      37.939  32.350  37.175  1.00  0.00     0.040 A 
ATOM     78  F   UNL A   1      37.978  30.299  36.037  1.00  0.00    -0.206 F 
ATOM     79  C   UNL A   1      38.375  33.667  37.309  1.00  0.00     0.006 A 
ENDBRANCH  51  72
BRANCH  63  80
ATOM     80  C   UNL A   1      44.329  27.306  34.473  1.00  0.00     0.057 A 
ATOM     81  C   UNL A   1      44.061  26.157  35.227  1.00  0.00     0.134 A 
ATOM     82  C   UNL A   1      45.587  27.903  34.617  1.00  0.00     0.134 A 
ATOM     83  F   UNL A   1      42.869  25.548  35.139  1.00  0.00    -0.206 F 
ATOM     84  C   UNL A   1      45.009  25.627  36.104  1.00  0.00     0.040 A 
ATOM     85  C   UNL A   1      46.547  27.374  35.479  1.00  0.00     0.040 A 
ATOM     86  F   UNL A   1      45.901  29.003  33.918  1.00  0.00    -0.206 F 
ATOM     87  C   UNL A   1      46.257  26.234  36.228  1.00  0.00     0.006 A 
ENDBRANCH  63  80
ENDBRANCH  37  38
ENDBRANCH  30  32
ENDBRANCH  29  30
ENDBRANCH  28  29
ENDBRANCH   1  28
TORSDOF 17
ENDMDL
MODEL 3
REMARK VINA RESULT:     -12.0      0.685      1.791
REMARK SMILES CC[C@@H](C(=O)Nc1ccc(OC(C)=O)cc1C(=O)OCCOC(=O)c1ccc(-c2c3nc(c(-c4c(F)cccc4F)c4ccc([nH]4)c(-c4c(F)cccc4F)c4nc(c(-c5c(F)cccc5F)c5ccc2[nH]5)C=C4)C=C3)cc1)c1ccccc1
REMARK SMILES IDX 20 1 19 2 17 3 18 4 16 5 7 6 8 7 9 8 15 9 10 10 6 11 4 12
REMARK SMILES IDX 5 13 3 15 2 16 1 17 79 18 80 19 84 20 81 21 83 22 82 23
REMARK SMILES IDX 11 24 12 25 13 26 14 27 21 28 22 29 23 30 24 31 25 32 26 33
REMARK SMILES IDX 78 34 27 35 77 36 28 37 29 38 30 39 71 40 31 41 76 42 70 43
REMARK SMILES IDX 72 44 32 45 75 46 69 47 68 48 33 50 59 51 42 52 58 53 43 54
REMARK SMILES IDX 46 55 57 56 73 57 44 58 45 59 56 61 74 62 47 63 34 64 35 65
REMARK SMILES IDX 40 66 36 67 37 68 39 69 41 70 38 71 60 72 61 73 66 74 62 75
REMARK SMILES IDX 63 76 65 77 67 78 64 79 48 80 49 81 54 82 50 83 51 84 53 85
REMARK SMILES IDX 55 86 52 87
REMARK H PARENT 6 14 72 49 46 60
REMARK Flexibility Score: inf
ROOT
ATOM      1  C   UNL A   1      33.497  29.511  27.426  1.00  0.00     0.275 C 
ENDROOT
BRANCH   1   2
ATOM      2  O   UNL A   1      32.287  29.054  26.778  1.00  0.00    -0.458 OA
BRANCH   2   3
ATOM      3  C   UNL A   1      32.425  28.885  25.449  1.00  0.00     0.340 C 
ATOM      4  O   UNL A   1      33.312  29.328  24.747  1.00  0.00    -0.246 OA
BRANCH   3   5
ATOM      5  C   UNL A   1      31.344  28.140  24.815  1.00  0.00     0.087 A 
ATOM      6  C   UNL A   1      30.869  26.915  25.309  1.00  0.00     0.056 A 
ATOM      7  C   UNL A   1      29.785  26.305  24.658  1.00  0.00     0.031 A 
ATOM      8  C   UNL A   1      29.083  26.984  23.658  1.00  0.00     0.049 A 
ATOM      9  C   UNL A   1      30.669  28.808  23.781  1.00  0.00     0.065 A 
ATOM     10  C   UNL A   1      29.506  28.252  23.267  1.00  0.00     0.131 A 
BRANCH   6  11
ATOM     11  N   UNL A   1      31.344  26.238  26.453  1.00  0.00    -0.325 N 
ATOM     12  C   UNL A   1      31.768  24.935  26.559  1.00  0.00     0.231 C 
ATOM     13  O   UNL A   1      31.092  24.176  27.262  1.00  0.00    -0.274 OA
ATOM     14  H   UNL A   1      31.375  26.769  27.283  1.00  0.00     0.169 HD
BRANCH  12  15
ATOM     15  C   UNL A   1      33.238  24.604  26.123  1.00  0.00     0.108 C 
BRANCH  15  16
ATOM     16  C   UNL A   1      34.021  25.596  25.242  1.00  0.00     0.015 C 
ATOM     17  C   UNL A   1      33.727  25.572  23.752  1.00  0.00     0.005 C 
ENDBRANCH  15  16
BRANCH  15  18
ATOM     18  C   UNL A   1      33.259  23.224  25.442  1.00  0.00    -0.036 A 
ATOM     19  C   UNL A   1      32.135  22.710  24.767  1.00  0.00     0.004 A 
ATOM     20  C   UNL A   1      34.410  22.427  25.525  1.00  0.00     0.004 A 
ATOM     21  C   UNL A   1      32.176  21.452  24.165  1.00  0.00     0.000 A 
ATOM     22  C   UNL A   1      34.445  21.165  24.930  1.00  0.00     0.000 A 
ATOM     23  C   UNL A   1      33.332  20.682  24.244  1.00  0.00     0.000 A 
ENDBRANCH  15  18
ENDBRANCH  12  15
ENDBRANCH   6  11
BRANCH  10  24
ATOM     24  O   UNL A   1      28.743  28.932  22.306  1.00  0.00    -0.427 OA
BRANCH  24  25
ATOM     25  C   UNL A   1      27.909  29.985  22.685  1.00  0.00     0.308 C 
ATOM     26  C   UNL A   1      28.262  31.344  22.147  1.00  0.00     0.139 C 
ATOM     27  O   UNL A   1      26.906  29.788  23.363  1.00  0.00    -0.252 OA
ENDBRANCH  24  25
ENDBRANCH  10  24
ENDBRANCH   3   5
ENDBRANCH   2   3
ENDBRANCH   1   2
BRANCH   1  28
ATOM     28  C   UNL A   1      33.569  31.027  27.617  1.00  0.00     0.275 C 
BRANCH  28  29
ATOM     29  O   UNL A   1      34.930  31.480  27.776  1.00  0.00    -0.458 OA
BRANCH  29  30
ATOM     30  C   UNL A   1      35.512  31.174  28.958  1.00  0.00     0.338 C 
ATOM     31  O   UNL A   1      35.205  31.620  30.053  1.00  0.00    -0.246 OA
BRANCH  30  32
ATOM     32  C   UNL A   1      36.602  30.179  28.820  1.00  0.00     0.060 A 
ATOM     33  C   UNL A   1      37.171  29.545  29.924  1.00  0.00     0.016 A 
ATOM     34  C   UNL A   1      37.213  30.044  27.574  1.00  0.00     0.016 A 
ATOM     35  C   UNL A   1      38.428  28.948  29.829  1.00  0.00     0.010 A 
ATOM     36  C   UNL A   1      38.416  29.342  27.457  1.00  0.00     0.010 A 
ATOM     37  C   UNL A   1      39.082  28.858  28.598  1.00  0.00    -0.014 A 
BRANCH  37  38
ATOM     38  C   UNL A   1      40.498  28.403  28.488  1.00  0.00     0.031 A 
ATOM     39  C   UNL A   1      41.598  29.411  28.707  1.00  0.00     0.074 A 
ATOM     40  C   UNL A   1      40.845  27.126  28.234  1.00  0.00     0.049 A 
ATOM     41  N   UNL A   1      42.836  29.397  28.290  1.00  0.00    -0.248 NA
ATOM     42  C   UNL A   1      41.237  30.613  29.479  1.00  0.00     0.031 C 
ATOM     43  C   UNL A   1      39.934  25.988  28.131  1.00  0.00     0.029 A 
ATOM     44  N   UNL A   1      42.086  26.576  28.020  1.00  0.00    -0.354 N 
ATOM     45  C   UNL A   1      43.365  30.632  28.643  1.00  0.00     0.074 A 
ATOM     46  C   UNL A   1      42.328  31.354  29.348  1.00  0.00     0.031 C 
ATOM     47  C   UNL A   1      40.648  24.870  27.926  1.00  0.00     0.029 A 
ATOM     48  C   UNL A   1      42.050  25.231  27.748  1.00  0.00     0.049 A 
ATOM     49  H   UNL A   1      42.921  27.096  28.057  1.00  0.00     0.167 HD
ATOM     50  C   UNL A   1      44.598  31.123  28.373  1.00  0.00     0.037 A 
ATOM     51  C   UNL A   1      43.019  24.395  27.327  1.00  0.00     0.037 A 
ATOM     52  C   UNL A   1      45.649  30.353  27.763  1.00  0.00     0.049 A 
ATOM     53  C   UNL A   1      44.380  24.949  27.013  1.00  0.00     0.074 A 
ATOM     54  C   UNL A   1      46.924  30.753  27.403  1.00  0.00     0.029 A 
ATOM     55  N   UNL A   1      45.554  29.002  27.470  1.00  0.00    -0.354 N 
ATOM     56  N   UNL A   1      44.825  26.176  27.144  1.00  0.00    -0.248 NA
ATOM     57  C   UNL A   1      45.358  24.013  26.440  1.00  0.00     0.031 C 
ATOM     58  C   UNL A   1      47.599  29.641  26.883  1.00  0.00     0.029 A 
ATOM     59  C   UNL A   1      46.751  28.546  26.946  1.00  0.00     0.049 A 
ATOM     60  H   UNL A   1      44.753  28.447  27.612  1.00  0.00     0.167 HD
ATOM     61  C   UNL A   1      46.130  26.159  26.669  1.00  0.00     0.074 A 
ATOM     62  C   UNL A   1      46.413  24.797  26.267  1.00  0.00     0.031 C 
ATOM     63  C   UNL A   1      47.011  27.184  26.562  1.00  0.00     0.037 A 
BRANCH  50  64
ATOM     64  C   UNL A   1      44.844  32.571  28.669  1.00  0.00     0.057 A 
ATOM     65  C   UNL A   1      45.418  33.011  29.867  1.00  0.00     0.134 A 
ATOM     66  C   UNL A   1      44.499  33.546  27.722  1.00  0.00     0.134 A 
ATOM     67  F   UNL A   1      45.751  32.132  30.824  1.00  0.00    -0.206 F 
ATOM     68  C   UNL A   1      45.618  34.370  30.123  1.00  0.00     0.040 A 
ATOM     69  C   UNL A   1      44.714  34.905  27.956  1.00  0.00     0.040 A 
ATOM     70  F   UNL A   1      43.945  33.192  26.552  1.00  0.00    -0.206 F 
ATOM     71  C   UNL A   1      45.269  35.320  29.164  1.00  0.00     0.006 A 
ENDBRANCH  50  64
BRANCH  51  72
ATOM     72  C   UNL A   1      42.712  22.961  27.102  1.00  0.00     0.057 A 
ATOM     73  C   UNL A   1      42.571  22.078  28.177  1.00  0.00     0.134 A 
ATOM     74  C   UNL A   1      42.537  22.441  25.812  1.00  0.00     0.134 A 
ATOM     75  F   UNL A   1      42.756  22.510  29.433  1.00  0.00    -0.206 F 
ATOM     76  C   UNL A   1      42.261  20.731  27.981  1.00  0.00     0.040 A 
ATOM     77  C   UNL A   1      42.201  21.103  25.602  1.00  0.00     0.040 A 
ATOM     78  F   UNL A   1      42.663  23.235  24.739  1.00  0.00    -0.206 F 
ATOM     79  C   UNL A   1      42.066  20.243  26.690  1.00  0.00     0.006 A 
ENDBRANCH  51  72
BRANCH  63  80
ATOM     80  C   UNL A   1      48.367  26.861  26.017  1.00  0.00     0.057 A 
ATOM     81  C   UNL A   1      48.663  27.000  24.657  1.00  0.00     0.134 A 
ATOM     82  C   UNL A   1      49.396  26.444  26.870  1.00  0.00     0.134 A 
ATOM     83  F   UNL A   1      47.714  27.385  23.789  1.00  0.00    -0.206 F 
ATOM     84  C   UNL A   1      49.937  26.722  24.158  1.00  0.00     0.040 A 
ATOM     85  C   UNL A   1      50.677  26.177  26.387  1.00  0.00     0.040 A 
ATOM     86  F   UNL A   1      49.173  26.296  28.184  1.00  0.00    -0.206 F 
ATOM     87  C   UNL A   1      50.949  26.315  25.026  1.00  0.00     0.006 A 
ENDBRANCH  63  80
ENDBRANCH  37  38
ENDBRANCH  30  32
ENDBRANCH  29  30
ENDBRANCH  28  29
ENDBRANCH   1  28
TORSDOF 17
ENDMDL
