MODEL 1
REMARK VINA RESULT:     -11.2      0.000      0.000
REMARK SMILES Cc1cc(OCC(C)(C)C(=O)OCCOC(=O)c2ccc(-c3c4nc(c(-c5c(F)cccc5F)c5ccc([nH]5)c(-c5c(F)cccc5F)c5nc(c(-c6c(F)cccc6F)c6ccc3[nH]6)C=C5)C=C4)cc2)cc(C(C)C)c1
REMARK SMILES IDX 13 1 12 2 10 3 11 4 7 5 8 6 9 7 6 8 5 9 4 10 1 11 2 12 3 13
REMARK SMILES IDX 77 14 73 15 72 16 74 17 75 18 76 19 14 20 15 21 16 22 17 23
REMARK SMILES IDX 18 24 19 25 71 26 20 27 70 28 21 29 22 30 23 31 64 32 24 33
REMARK SMILES IDX 69 34 63 35 65 36 25 37 68 38 62 39 61 40 26 42 52 43 35 44
REMARK SMILES IDX 51 45 36 46 39 47 50 48 66 49 37 50 38 51 49 53 67 54 40 55
REMARK SMILES IDX 27 56 28 57 33 58 29 59 30 60 32 61 34 62 31 63 53 64 54 65
REMARK SMILES IDX 59 66 55 67 56 68 58 69 60 70 57 71 41 72 42 73 47 74 43 75
REMARK SMILES IDX 44 76 46 77 48 78 45 79
REMARK H PARENT 65 41 39 52
REMARK Flexibility Score: inf
ROOT
ATOM      1  C   UNL A   1      33.565  29.347  25.745  1.00  0.00     0.274 C 
ENDROOT
BRANCH   1   2
ATOM      2  O   UNL A   1      33.657  28.471  24.609  1.00  0.00    -0.462 OA
BRANCH   2   3
ATOM      3  C   UNL A   1      32.508  27.742  24.419  1.00  0.00     0.315 C 
ATOM      4  O   UNL A   1      31.397  28.217  24.529  1.00  0.00    -0.251 OA
BRANCH   3   5
ATOM      5  C   UNL A   1      32.758  26.243  24.222  1.00  0.00     0.096 C 
ATOM      6  C   UNL A   1      31.361  25.635  24.000  1.00  0.00     0.027 C 
ATOM      7  C   UNL A   1      33.283  25.646  25.543  1.00  0.00     0.027 C 
BRANCH   5   8
ATOM      8  C   UNL A   1      33.764  25.881  23.091  1.00  0.00     0.247 C 
BRANCH   8   9
ATOM      9  O   UNL A   1      33.655  24.608  22.442  1.00  0.00    -0.492 OA
BRANCH   9  10
ATOM     10  C   UNL A   1      34.093  23.451  23.028  1.00  0.00     0.119 A 
ATOM     11  C   UNL A   1      32.318  20.290  24.262  1.00  0.00     0.044 C 
ATOM     12  C   UNL A   1      33.374  21.331  24.027  1.00  0.00    -0.047 A 
ATOM     13  C   UNL A   1      33.139  22.444  23.203  1.00  0.00     0.049 A 
ATOM     14  C   UNL A   1      34.568  21.276  24.740  1.00  0.00     0.007 A 
ATOM     15  C   UNL A   1      35.558  22.243  24.540  1.00  0.00    -0.042 A 
ATOM     16  C   UNL A   1      35.337  23.270  23.606  1.00  0.00     0.050 A 
BRANCH  15  17
ATOM     17  C   UNL A   1      36.774  22.261  25.447  1.00  0.00     0.013 C 
ATOM     18  C   UNL A   1      37.849  21.272  25.006  1.00  0.00     0.012 C 
ATOM     19  C   UNL A   1      37.335  23.687  25.528  1.00  0.00     0.012 C 
ENDBRANCH  15  17
ENDBRANCH   9  10
ENDBRANCH   8   9
ENDBRANCH   5   8
ENDBRANCH   3   5
ENDBRANCH   2   3
ENDBRANCH   1   2
BRANCH   1  20
ATOM     20  C   UNL A   1      34.514  28.978  26.889  1.00  0.00     0.275 C 
BRANCH  20  21
ATOM     21  O   UNL A   1      34.782  29.986  27.899  1.00  0.00    -0.458 OA
BRANCH  21  22
ATOM     22  C   UNL A   1      35.955  30.605  28.169  1.00  0.00     0.338 C 
ATOM     23  O   UNL A   1      36.027  31.798  28.437  1.00  0.00    -0.246 OA
BRANCH  22  24
ATOM     24  C   UNL A   1      37.157  29.770  28.217  1.00  0.00     0.060 A 
ATOM     25  C   UNL A   1      38.056  29.844  27.147  1.00  0.00     0.016 A 
ATOM     26  C   UNL A   1      37.430  28.996  29.343  1.00  0.00     0.016 A 
ATOM     27  C   UNL A   1      39.303  29.233  27.256  1.00  0.00     0.010 A 
ATOM     28  C   UNL A   1      38.680  28.413  29.458  1.00  0.00     0.010 A 
ATOM     29  C   UNL A   1      39.625  28.547  28.428  1.00  0.00    -0.014 A 
BRANCH  29  30
ATOM     30  C   UNL A   1      40.825  27.726  28.540  1.00  0.00     0.031 A 
ATOM     31  C   UNL A   1      40.880  26.273  28.253  1.00  0.00     0.074 A 
ATOM     32  C   UNL A   1      41.909  28.389  28.994  1.00  0.00     0.049 A 
ATOM     33  N   UNL A   1      41.709  25.456  28.820  1.00  0.00    -0.248 NA
ATOM     34  C   UNL A   1      39.985  25.605  27.312  1.00  0.00     0.031 C 
ATOM     35  C   UNL A   1      43.288  27.943  29.047  1.00  0.00     0.029 A 
ATOM     36  N   UNL A   1      41.895  29.576  29.737  1.00  0.00    -0.354 N 
ATOM     37  C   UNL A   1      41.643  24.255  28.145  1.00  0.00     0.074 A 
ATOM     38  C   UNL A   1      40.485  24.362  27.289  1.00  0.00     0.031 C 
ATOM     39  C   UNL A   1      43.916  28.647  30.006  1.00  0.00     0.029 A 
ATOM     40  C   UNL A   1      42.902  29.443  30.689  1.00  0.00     0.049 A 
ATOM     41  H   UNL A   1      41.296  30.347  29.613  1.00  0.00     0.167 HD
ATOM     42  C   UNL A   1      42.668  23.357  28.235  1.00  0.00     0.037 A 
ATOM     43  C   UNL A   1      42.672  29.444  32.032  1.00  0.00     0.037 A 
ATOM     44  C   UNL A   1      43.717  23.848  29.113  1.00  0.00     0.049 A 
ATOM     45  C   UNL A   1      43.250  28.211  32.685  1.00  0.00     0.074 A 
ATOM     46  C   UNL A   1      44.850  24.597  28.843  1.00  0.00     0.029 A 
ATOM     47  N   UNL A   1      43.509  23.912  30.485  1.00  0.00    -0.354 N 
ATOM     48  N   UNL A   1      43.345  27.048  32.100  1.00  0.00    -0.248 NA
ATOM     49  C   UNL A   1      43.811  28.216  34.031  1.00  0.00     0.031 C 
ATOM     50  C   UNL A   1      45.285  25.181  30.052  1.00  0.00     0.029 A 
ATOM     51  C   UNL A   1      44.443  24.750  31.062  1.00  0.00     0.049 A 
ATOM     52  H   UNL A   1      42.800  23.434  30.973  1.00  0.00     0.167 HD
ATOM     53  C   UNL A   1      44.067  26.202  32.906  1.00  0.00     0.074 A 
ATOM     54  C   UNL A   1      44.298  26.965  34.120  1.00  0.00     0.031 C 
ATOM     55  C   UNL A   1      44.486  24.968  32.495  1.00  0.00     0.037 A 
BRANCH  42  56
ATOM     56  C   UNL A   1      42.860  22.240  27.239  1.00  0.00     0.057 A 
ATOM     57  C   UNL A   1      42.083  21.064  27.297  1.00  0.00     0.134 A 
ATOM     58  C   UNL A   1      43.836  22.250  26.231  1.00  0.00     0.134 A 
ATOM     59  F   UNL A   1      41.059  20.934  28.151  1.00  0.00    -0.206 F 
ATOM     60  C   UNL A   1      42.331  19.945  26.494  1.00  0.00     0.040 A 
ATOM     61  C   UNL A   1      44.116  21.124  25.438  1.00  0.00     0.040 A 
ATOM     62  F   UNL A   1      44.549  23.357  25.973  1.00  0.00    -0.206 F 
ATOM     63  C   UNL A   1      43.373  19.958  25.581  1.00  0.00     0.006 A 
ENDBRANCH  42  56
BRANCH  43  64
ATOM     64  C   UNL A   1      41.432  30.138  32.483  1.00  0.00     0.057 A 
ATOM     65  C   UNL A   1      40.270  29.403  32.759  1.00  0.00     0.134 A 
ATOM     66  C   UNL A   1      41.458  31.455  32.946  1.00  0.00     0.134 A 
ATOM     67  F   UNL A   1      40.176  28.123  32.373  1.00  0.00    -0.206 F 
ATOM     68  C   UNL A   1      39.210  29.936  33.507  1.00  0.00     0.040 A 
ATOM     69  C   UNL A   1      40.401  32.005  33.685  1.00  0.00     0.040 A 
ATOM     70  F   UNL A   1      42.561  32.192  32.787  1.00  0.00    -0.206 F 
ATOM     71  C   UNL A   1      39.282  31.239  33.988  1.00  0.00     0.006 A 
ENDBRANCH  43  64
BRANCH  55  72
ATOM     72  C   UNL A   1      45.142  23.910  33.347  1.00  0.00     0.057 A 
ATOM     73  C   UNL A   1      46.446  24.010  33.848  1.00  0.00     0.134 A 
ATOM     74  C   UNL A   1      44.401  22.802  33.826  1.00  0.00     0.134 A 
ATOM     75  F   UNL A   1      47.224  25.065  33.568  1.00  0.00    -0.206 F 
ATOM     76  C   UNL A   1      46.993  23.051  34.714  1.00  0.00     0.040 A 
ATOM     77  C   UNL A   1      44.919  21.869  34.727  1.00  0.00     0.040 A 
ATOM     78  F   UNL A   1      43.130  22.584  33.460  1.00  0.00    -0.206 F 
ATOM     79  C   UNL A   1      46.226  21.984  35.165  1.00  0.00     0.006 A 
ENDBRANCH  55  72
ENDBRANCH  29  30
ENDBRANCH  22  24
ENDBRANCH  21  22
ENDBRANCH  20  21
ENDBRANCH   1  20
TORSDOF 15
ENDMDL
MODEL 2
REMARK VINA RESULT:     -11.1      1.016      1.860
REMARK SMILES Cc1cc(OCC(C)(C)C(=O)OCCOC(=O)c2ccc(-c3c4nc(c(-c5c(F)cccc5F)c5ccc([nH]5)c(-c5c(F)cccc5F)c5nc(c(-c6c(F)cccc6F)c6ccc3[nH]6)C=C5)C=C4)cc2)cc(C(C)C)c1
REMARK SMILES IDX 13 1 12 2 10 3 11 4 7 5 8 6 9 7 6 8 5 9 4 10 1 11 2 12 3 13
REMARK SMILES IDX 77 14 73 15 72 16 74 17 75 18 76 19 14 20 15 21 16 22 17 23
REMARK SMILES IDX 18 24 19 25 71 26 20 27 70 28 21 29 22 30 23 31 64 32 24 33
REMARK SMILES IDX 69 34 63 35 65 36 25 37 68 38 62 39 61 40 26 42 52 43 35 44
REMARK SMILES IDX 51 45 36 46 39 47 50 48 66 49 37 50 38 51 49 53 67 54 40 55
REMARK SMILES IDX 27 56 28 57 33 58 29 59 30 60 32 61 34 62 31 63 53 64 54 65
REMARK SMILES IDX 59 66 55 67 56 68 58 69 60 70 57 71 41 72 42 73 47 74 43 75
REMARK SMILES IDX 44 76 46 77 48 78 45 79
REMARK H PARENT 65 41 39 52
REMARK Flexibility Score: inf
ROOT
ATOM      1  C   UNL A   1      32.720  28.996  26.819  1.00  0.00     0.274 C 
ENDROOT
BRANCH   1   2
ATOM      2  O   UNL A   1      32.487  28.139  25.688  1.00  0.00    -0.462 OA
BRANCH   2   3
ATOM      3  C   UNL A   1      32.030  26.898  26.060  1.00  0.00     0.315 C 
ATOM      4  O   UNL A   1      31.401  26.702  27.079  1.00  0.00    -0.251 OA
BRANCH   3   5
ATOM      5  C   UNL A   1      32.532  25.764  25.159  1.00  0.00     0.096 C 
ATOM      6  C   UNL A   1      33.872  26.270  24.596  1.00  0.00     0.027 C 
ATOM      7  C   UNL A   1      31.581  25.627  23.952  1.00  0.00     0.027 C 
BRANCH   5   8
ATOM      8  C   UNL A   1      32.649  24.372  25.846  1.00  0.00     0.247 C 
BRANCH   8   9
ATOM      9  O   UNL A   1      33.878  24.012  26.488  1.00  0.00    -0.492 OA
BRANCH   9  10
ATOM     10  C   UNL A   1      34.513  22.827  26.233  1.00  0.00     0.119 A 
ATOM     11  C   UNL A   1      38.133  21.913  25.376  1.00  0.00     0.044 C 
ATOM     12  C   UNL A   1      36.648  21.816  25.574  1.00  0.00    -0.047 A 
ATOM     13  C   UNL A   1      35.905  22.884  26.103  1.00  0.00     0.049 A 
ATOM     14  C   UNL A   1      35.961  20.700  25.103  1.00  0.00     0.007 A 
ATOM     15  C   UNL A   1      34.576  20.599  25.271  1.00  0.00    -0.042 A 
ATOM     16  C   UNL A   1      33.885  21.633  25.926  1.00  0.00     0.050 A 
BRANCH  15  17
ATOM     17  C   UNL A   1      33.827  19.461  24.603  1.00  0.00     0.013 C 
ATOM     18  C   UNL A   1      34.675  18.198  24.471  1.00  0.00     0.012 C 
ATOM     19  C   UNL A   1      32.529  19.177  25.371  1.00  0.00     0.012 C 
ENDBRANCH  15  17
ENDBRANCH   9  10
ENDBRANCH   8   9
ENDBRANCH   5   8
ENDBRANCH   3   5
ENDBRANCH   2   3
ENDBRANCH   1   2
BRANCH   1  20
ATOM     20  C   UNL A   1      34.186  29.056  27.258  1.00  0.00     0.275 C 
BRANCH  20  21
ATOM     21  O   UNL A   1      34.806  30.363  27.373  1.00  0.00    -0.458 OA
BRANCH  21  22
ATOM     22  C   UNL A   1      35.682  30.792  28.312  1.00  0.00     0.338 C 
ATOM     23  O   UNL A   1      35.424  31.699  29.092  1.00  0.00    -0.246 OA
BRANCH  22  24
ATOM     24  C   UNL A   1      36.947  30.062  28.429  1.00  0.00     0.060 A 
ATOM     25  C   UNL A   1      37.167  29.303  29.584  1.00  0.00     0.016 A 
ATOM     26  C   UNL A   1      37.857  30.060  27.374  1.00  0.00     0.016 A 
ATOM     27  C   UNL A   1      38.253  28.433  29.635  1.00  0.00     0.010 A 
ATOM     28  C   UNL A   1      38.920  29.175  27.418  1.00  0.00     0.010 A 
ATOM     29  C   UNL A   1      39.108  28.345  28.536  1.00  0.00    -0.014 A 
BRANCH  29  30
ATOM     30  C   UNL A   1      40.365  27.606  28.589  1.00  0.00     0.031 A 
ATOM     31  C   UNL A   1      40.502  26.159  28.303  1.00  0.00     0.074 A 
ATOM     32  C   UNL A   1      41.424  28.343  28.984  1.00  0.00     0.049 A 
ATOM     33  N   UNL A   1      41.412  25.402  28.830  1.00  0.00    -0.248 NA
ATOM     34  C   UNL A   1      39.607  25.426  27.412  1.00  0.00     0.031 C 
ATOM     35  C   UNL A   1      42.830  27.991  28.967  1.00  0.00     0.029 A 
ATOM     36  N   UNL A   1      41.368  29.532  29.723  1.00  0.00    -0.354 N 
ATOM     37  C   UNL A   1      41.391  24.195  28.162  1.00  0.00     0.074 A 
ATOM     38  C   UNL A   1      40.187  24.220  27.367  1.00  0.00     0.031 C 
ATOM     39  C   UNL A   1      43.458  28.741  29.890  1.00  0.00     0.029 A 
ATOM     40  C   UNL A   1      42.429  29.472  30.623  1.00  0.00     0.049 A 
ATOM     41  H   UNL A   1      40.714  30.260  29.628  1.00  0.00     0.167 HD
ATOM     42  C   UNL A   1      42.478  23.369  28.203  1.00  0.00     0.037 A 
ATOM     43  C   UNL A   1      42.269  29.466  31.975  1.00  0.00     0.037 A 
ATOM     44  C   UNL A   1      43.535  23.934  29.024  1.00  0.00     0.049 A 
ATOM     45  C   UNL A   1      42.961  28.279  32.602  1.00  0.00     0.074 A 
ATOM     46  C   UNL A   1      44.600  24.755  28.693  1.00  0.00     0.029 A 
ATOM     47  N   UNL A   1      43.394  23.993  30.404  1.00  0.00    -0.354 N 
ATOM     48  N   UNL A   1      43.104  27.121  32.016  1.00  0.00    -0.248 NA
ATOM     49  C   UNL A   1      43.589  28.330  33.917  1.00  0.00     0.031 C 
ATOM     50  C   UNL A   1      45.057  25.375  29.876  1.00  0.00     0.029 A 
ATOM     51  C   UNL A   1      44.299  24.894  30.930  1.00  0.00     0.049 A 
ATOM     52  H   UNL A   1      42.745  23.471  30.930  1.00  0.00     0.167 HD
ATOM     53  C   UNL A   1      43.921  26.330  32.786  1.00  0.00     0.074 A 
ATOM     54  C   UNL A   1      44.162  27.115  33.984  1.00  0.00     0.031 C 
ATOM     55  C   UNL A   1      44.400  25.124  32.357  1.00  0.00     0.037 A 
BRANCH  42  56
ATOM     56  C   UNL A   1      42.692  22.260  27.201  1.00  0.00     0.057 A 
ATOM     57  C   UNL A   1      41.951  21.062  27.263  1.00  0.00     0.134 A 
ATOM     58  C   UNL A   1      43.658  22.301  26.184  1.00  0.00     0.134 A 
ATOM     59  F   UNL A   1      40.940  20.899  28.126  1.00  0.00    -0.206 F 
ATOM     60  C   UNL A   1      42.224  19.952  26.454  1.00  0.00     0.040 A 
ATOM     61  C   UNL A   1      43.963  21.186  25.384  1.00  0.00     0.040 A 
ATOM     62  F   UNL A   1      44.336  23.429  25.922  1.00  0.00    -0.206 F 
ATOM     63  C   UNL A   1      43.256  19.999  25.531  1.00  0.00     0.006 A 
ENDBRANCH  42  56
BRANCH  43  64
ATOM     64  C   UNL A   1      41.011  30.079  32.488  1.00  0.00     0.057 A 
ATOM     65  C   UNL A   1      39.909  29.272  32.808  1.00  0.00     0.134 A 
ATOM     66  C   UNL A   1      40.977  31.392  32.962  1.00  0.00     0.134 A 
ATOM     67  F   UNL A   1      39.877  27.991  32.413  1.00  0.00    -0.206 F 
ATOM     68  C   UNL A   1      38.854  29.733  33.606  1.00  0.00     0.040 A 
ATOM     69  C   UNL A   1      39.921  31.870  33.753  1.00  0.00     0.040 A 
ATOM     70  F   UNL A   1      42.024  32.197  32.762  1.00  0.00    -0.206 F 
ATOM     71  C   UNL A   1      38.867  31.034  34.098  1.00  0.00     0.006 A 
ENDBRANCH  43  64
BRANCH  55  72
ATOM     72  C   UNL A   1      45.169  24.118  33.178  1.00  0.00     0.057 A 
ATOM     73  C   UNL A   1      46.474  24.323  33.642  1.00  0.00     0.134 A 
ATOM     74  C   UNL A   1      44.538  22.946  33.665  1.00  0.00     0.134 A 
ATOM     75  F   UNL A   1      47.151  25.443  33.351  1.00  0.00    -0.206 F 
ATOM     76  C   UNL A   1      47.125  23.407  34.480  1.00  0.00     0.040 A 
ATOM     77  C   UNL A   1      45.160  22.053  34.540  1.00  0.00     0.040 A 
ATOM     78  F   UNL A   1      43.279  22.625  33.333  1.00  0.00    -0.206 F 
ATOM     79  C   UNL A   1      46.465  22.274  34.941  1.00  0.00     0.006 A 
ENDBRANCH  55  72
ENDBRANCH  29  30
ENDBRANCH  22  24
ENDBRANCH  21  22
ENDBRANCH  20  21
ENDBRANCH   1  20
TORSDOF 15
ENDMDL
MODEL 3
REMARK VINA RESULT:     -10.7      0.983      1.441
REMARK SMILES Cc1cc(OCC(C)(C)C(=O)OCCOC(=O)c2ccc(-c3c4nc(c(-c5c(F)cccc5F)c5ccc([nH]5)c(-c5c(F)cccc5F)c5nc(c(-c6c(F)cccc6F)c6ccc3[nH]6)C=C5)C=C4)cc2)cc(C(C)C)c1
REMARK SMILES IDX 13 1 12 2 10 3 11 4 7 5 8 6 9 7 6 8 5 9 4 10 1 11 2 12 3 13
REMARK SMILES IDX 77 14 73 15 72 16 74 17 75 18 76 19 14 20 15 21 16 22 17 23
REMARK SMILES IDX 18 24 19 25 71 26 20 27 70 28 21 29 22 30 23 31 64 32 24 33
REMARK SMILES IDX 69 34 63 35 65 36 25 37 68 38 62 39 61 40 26 42 52 43 35 44
REMARK SMILES IDX 51 45 36 46 39 47 50 48 66 49 37 50 38 51 49 53 67 54 40 55
REMARK SMILES IDX 27 56 28 57 33 58 29 59 30 60 32 61 34 62 31 63 53 64 54 65
REMARK SMILES IDX 59 66 55 67 56 68 58 69 60 70 57 71 41 72 42 73 47 74 43 75
REMARK SMILES IDX 44 76 46 77 48 78 45 79
REMARK H PARENT 65 41 39 52
REMARK Flexibility Score: inf
ROOT
ATOM      1  C   UNL A   1      32.677  30.943  26.891  1.00  0.00     0.274 C 
ENDROOT
BRANCH   1   2
ATOM      2  O   UNL A   1      33.021  29.939  25.922  1.00  0.00    -0.462 OA
BRANCH   2   3
ATOM      3  C   UNL A   1      31.921  29.462  25.251  1.00  0.00     0.315 C 
ATOM      4  O   UNL A   1      30.971  30.158  24.959  1.00  0.00    -0.251 OA
BRANCH   3   5
ATOM      5  C   UNL A   1      31.933  27.942  25.056  1.00  0.00     0.096 C 
ATOM      6  C   UNL A   1      30.830  27.668  24.017  1.00  0.00     0.027 C 
ATOM      7  C   UNL A   1      31.470  27.266  26.363  1.00  0.00     0.027 C 
BRANCH   5   8
ATOM      8  C   UNL A   1      33.308  27.334  24.655  1.00  0.00     0.247 C 
BRANCH   8   9
ATOM      9  O   UNL A   1      33.350  26.287  23.679  1.00  0.00    -0.492 OA
BRANCH   9  10
ATOM     10  C   UNL A   1      33.518  24.973  24.026  1.00  0.00     0.119 A 
ATOM     11  C   UNL A   1      31.273  22.401  25.762  1.00  0.00     0.044 C 
ATOM     12  C   UNL A   1      32.480  23.069  25.170  1.00  0.00    -0.047 A 
ATOM     13  C   UNL A   1      32.390  24.313  24.524  1.00  0.00     0.049 A 
ATOM     14  C   UNL A   1      33.743  22.520  25.377  1.00  0.00     0.007 A 
ATOM     15  C   UNL A   1      34.879  23.136  24.841  1.00  0.00    -0.042 A 
ATOM     16  C   UNL A   1      34.732  24.312  24.086  1.00  0.00     0.050 A 
BRANCH  15  17
ATOM     17  C   UNL A   1      36.253  22.618  25.220  1.00  0.00     0.013 C 
ATOM     18  C   UNL A   1      36.992  21.993  24.038  1.00  0.00     0.012 C 
ATOM     19  C   UNL A   1      37.076  23.750  25.849  1.00  0.00     0.012 C 
ENDBRANCH  15  17
ENDBRANCH   9  10
ENDBRANCH   8   9
ENDBRANCH   5   8
ENDBRANCH   3   5
ENDBRANCH   2   3
ENDBRANCH   1   2
BRANCH   1  20
ATOM     20  C   UNL A   1      33.883  31.530  27.630  1.00  0.00     0.275 C 
BRANCH  20  21
ATOM     21  O   UNL A   1      34.978  30.635  27.957  1.00  0.00    -0.458 OA
BRANCH  21  22
ATOM     22  C   UNL A   1      35.804  30.684  29.028  1.00  0.00     0.338 C 
ATOM     23  O   UNL A   1      35.541  31.325  30.038  1.00  0.00    -0.246 OA
BRANCH  22  24
ATOM     24  C   UNL A   1      37.013  29.859  28.979  1.00  0.00     0.060 A 
ATOM     25  C   UNL A   1      37.815  29.929  27.833  1.00  0.00     0.016 A 
ATOM     26  C   UNL A   1      37.391  29.099  30.084  1.00  0.00     0.016 A 
ATOM     27  C   UNL A   1      39.071  29.329  27.838  1.00  0.00     0.010 A 
ATOM     28  C   UNL A   1      38.651  28.526  30.095  1.00  0.00     0.010 A 
ATOM     29  C   UNL A   1      39.501  28.658  28.984  1.00  0.00    -0.014 A 
BRANCH  29  30
ATOM     30  C   UNL A   1      40.714  27.847  28.998  1.00  0.00     0.031 A 
ATOM     31  C   UNL A   1      40.767  26.408  28.649  1.00  0.00     0.074 A 
ATOM     32  C   UNL A   1      41.814  28.504  29.420  1.00  0.00     0.049 A 
ATOM     33  N   UNL A   1      41.633  25.579  29.137  1.00  0.00    -0.248 NA
ATOM     34  C   UNL A   1      39.830  25.768  27.731  1.00  0.00     0.031 C 
ATOM     35  C   UNL A   1      43.198  28.073  29.382  1.00  0.00     0.029 A 
ATOM     36  N   UNL A   1      41.828  29.660  30.212  1.00  0.00    -0.354 N 
ATOM     37  C   UNL A   1      41.543  24.405  28.418  1.00  0.00     0.074 A 
ATOM     38  C   UNL A   1      40.340  24.533  27.630  1.00  0.00     0.031 C 
ATOM     39  C   UNL A   1      43.869  28.746  30.334  1.00  0.00     0.029 A 
ATOM     40  C   UNL A   1      42.885  29.500  31.103  1.00  0.00     0.049 A 
ATOM     41  H   UNL A   1      41.215  30.428  30.151  1.00  0.00     0.167 HD
ATOM     42  C   UNL A   1      42.580  23.517  28.417  1.00  0.00     0.037 A 
ATOM     43  C   UNL A   1      42.728  29.445  32.454  1.00  0.00     0.037 A 
ATOM     44  C   UNL A   1      43.670  23.985  29.257  1.00  0.00     0.049 A 
ATOM     45  C   UNL A   1      43.352  28.194  33.025  1.00  0.00     0.074 A 
ATOM     46  C   UNL A   1      44.779  24.758  28.958  1.00  0.00     0.029 A 
ATOM     47  N   UNL A   1      43.535  23.991  30.640  1.00  0.00    -0.354 N 
ATOM     48  N   UNL A   1      43.428  27.056  32.388  1.00  0.00    -0.248 NA
ATOM     49  C   UNL A   1      43.985  28.150  34.338  1.00  0.00     0.031 C 
ATOM     50  C   UNL A   1      45.273  25.297  30.165  1.00  0.00     0.029 A 
ATOM     51  C   UNL A   1      44.491  24.815  31.200  1.00  0.00     0.049 A 
ATOM     52  H   UNL A   1      42.859  23.484  31.144  1.00  0.00     0.167 HD
ATOM     53  C   UNL A   1      44.200  26.187  33.119  1.00  0.00     0.074 A 
ATOM     54  C   UNL A   1      44.488  26.903  34.349  1.00  0.00     0.031 C 
ATOM     55  C   UNL A   1      44.609  24.975  32.636  1.00  0.00     0.037 A 
BRANCH  42  56
ATOM     56  C   UNL A   1      42.729  22.443  27.367  1.00  0.00     0.057 A 
ATOM     57  C   UNL A   1      41.976  21.253  27.423  1.00  0.00     0.134 A 
ATOM     58  C   UNL A   1      43.643  22.510  26.304  1.00  0.00     0.134 A 
ATOM     59  F   UNL A   1      41.007  21.071  28.329  1.00  0.00    -0.206 F 
ATOM     60  C   UNL A   1      42.192  20.170  26.562  1.00  0.00     0.040 A 
ATOM     61  C   UNL A   1      43.892  21.421  25.450  1.00  0.00     0.040 A 
ATOM     62  F   UNL A   1      44.323  23.639  26.049  1.00  0.00    -0.206 F 
ATOM     63  C   UNL A   1      43.178  20.238  25.590  1.00  0.00     0.006 A 
ENDBRANCH  42  56
BRANCH  43  64
ATOM     64  C   UNL A   1      41.508  30.105  32.999  1.00  0.00     0.057 A 
ATOM     65  C   UNL A   1      41.417  31.504  33.038  1.00  0.00     0.134 A 
ATOM     66  C   UNL A   1      40.317  29.401  33.186  1.00  0.00     0.134 A 
ATOM     67  F   UNL A   1      42.511  32.254  32.840  1.00  0.00    -0.206 F 
ATOM     68  C   UNL A   1      40.193  32.168  33.200  1.00  0.00     0.040 A 
ATOM     69  C   UNL A   1      39.087  30.052  33.362  1.00  0.00     0.040 A 
ATOM     70  F   UNL A   1      40.311  28.068  33.087  1.00  0.00    -0.206 F 
ATOM     71  C   UNL A   1      39.018  31.440  33.345  1.00  0.00     0.006 A 
ENDBRANCH  43  64
BRANCH  55  72
ATOM     72  C   UNL A   1      45.320  23.892  33.408  1.00  0.00     0.057 A 
ATOM     73  C   UNL A   1      46.650  23.985  33.838  1.00  0.00     0.134 A 
ATOM     74  C   UNL A   1      44.616  22.759  33.884  1.00  0.00     0.134 A 
ATOM     75  F   UNL A   1      47.402  25.057  33.555  1.00  0.00    -0.206 F 
ATOM     76  C   UNL A   1      47.251  22.999  34.633  1.00  0.00     0.040 A 
ATOM     77  C   UNL A   1      45.190  21.797  34.718  1.00  0.00     0.040 A 
ATOM     78  F   UNL A   1      43.327  22.543  33.582  1.00  0.00    -0.206 F 
ATOM     79  C   UNL A   1      46.520  21.907  35.084  1.00  0.00     0.006 A 
ENDBRANCH  55  72
ENDBRANCH  29  30
ENDBRANCH  22  24
ENDBRANCH  21  22
ENDBRANCH  20  21
ENDBRANCH   1  20
TORSDOF 15
ENDMDL
