MODEL 1
REMARK VINA RESULT:     -10.9      0.000      0.000
REMARK SMILES C[C@@H]1CN(C(=O)C[N@H+]2CCO[C@H](CC(=O)OCCOC(=O)c3ccc(-c4c5nc(c(-c6c(F)cccc6F)c6ccc([nH]6)c(-c6c(F)cccc6F)c6nc(c(-c7c(F)cccc7F)c7ccc4[nH]7)C=C6)C=C5)cc3)C2)C[C@H](C)O1
REMARK SMILES IDX 17 1 16 2 14 3 15 4 13 5 12 6 8 7 9 8 76 9 10 11 11 12 7 13
REMARK SMILES IDX 5 14 6 15 4 16 1 17 2 18 3 19 80 20 78 21 77 22 79 23 18 24
REMARK SMILES IDX 19 25 20 26 21 27 22 28 23 29 75 30 24 31 74 32 25 33 26 34
REMARK SMILES IDX 27 35 68 36 28 37 73 38 67 39 69 40 29 41 72 42 66 43 65 44
REMARK SMILES IDX 30 46 56 47 39 48 55 49 40 50 43 51 54 52 70 53 41 54 42 55
REMARK SMILES IDX 53 57 71 58 44 59 31 60 32 61 37 62 33 63 34 64 36 65 38 66
REMARK SMILES IDX 35 67 57 68 58 69 63 70 59 71 60 72 62 73 64 74 61 75 45 76
REMARK SMILES IDX 46 77 51 78 47 79 48 80 50 81 52 82 49 83
REMARK H PARENT 8 10 69 45 43 56
REMARK Flexibility Score: inf
ROOT
ATOM      1  C   UNL A   1      41.705  20.342  26.387  1.00  0.00     0.274 C 
ENDROOT
BRANCH   1   2
ATOM      2  O   UNL A   1      40.477  21.063  26.647  1.00  0.00    -0.462 OA
BRANCH   2   3
ATOM      3  C   UNL A   1      39.407  20.762  25.870  1.00  0.00     0.308 C 
ATOM      4  O   UNL A   1      39.202  19.659  25.374  1.00  0.00    -0.252 OA
BRANCH   3   5
ATOM      5  C   UNL A   1      38.533  21.967  25.575  1.00  0.00     0.160 C 
BRANCH   5   6
ATOM      6  C   UNL A   1      37.201  21.758  24.829  1.00  0.00     0.184 C 
ATOM      7  N   UNL A   1      35.250  23.487  24.508  1.00  0.00    -0.323 N 
ATOM      8  C   UNL A   1      35.171  23.184  25.924  1.00  0.00     0.291 C 
ATOM      9  C   UNL A   1      36.606  23.024  24.111  1.00  0.00     0.295 C 
ATOM     10  H   UNL A   1      35.120  24.480  24.317  1.00  0.00     0.348 HD
ATOM     11  C   UNL A   1      35.206  21.677  26.190  1.00  0.00     0.222 C 
ATOM     12  O   UNL A   1      36.309  20.982  25.626  1.00  0.00    -0.366 OA
BRANCH   7  13
ATOM     13  C   UNL A   1      34.161  22.846  23.724  1.00  0.00     0.363 C 
BRANCH  13  14
ATOM     14  C   UNL A   1      33.327  23.786  22.805  1.00  0.00     0.277 C 
ATOM     15  O   UNL A   1      33.653  23.835  21.608  1.00  0.00    -0.268 OA
BRANCH  14  16
ATOM     16  N   UNL A   1      32.161  24.433  23.209  1.00  0.00    -0.333 N 
ATOM     17  C   UNL A   1      33.128  26.173  25.737  1.00  0.00     0.040 C 
ATOM     18  C   UNL A   1      31.732  25.890  25.177  1.00  0.00     0.135 C 
ATOM     19  C   UNL A   1      31.507  24.500  24.516  1.00  0.00     0.151 C 
ATOM     20  O   UNL A   1      31.326  26.956  24.297  1.00  0.00    -0.372 OA
ATOM     21  C   UNL A   1      31.788  26.868  22.935  1.00  0.00     0.135 C 
ATOM     22  C   UNL A   1      31.601  25.465  22.332  1.00  0.00     0.151 C 
ATOM     23  C   UNL A   1      33.208  27.392  22.763  1.00  0.00     0.040 C 
ENDBRANCH  14  16
ENDBRANCH  13  14
ENDBRANCH   7  13
ENDBRANCH   5   6
ENDBRANCH   3   5
ENDBRANCH   2   3
ENDBRANCH   1   2
BRANCH   1  24
ATOM     24  C   UNL A   1      42.715  21.198  25.618  1.00  0.00     0.275 C 
BRANCH  24  25
ATOM     25  O   UNL A   1      42.161  22.504  25.400  1.00  0.00    -0.458 OA
BRANCH  25  26
ATOM     26  C   UNL A   1      43.044  23.523  25.372  1.00  0.00     0.338 C 
ATOM     27  O   UNL A   1      43.982  23.658  24.589  1.00  0.00    -0.246 OA
BRANCH  26  28
ATOM     28  C   UNL A   1      42.692  24.511  26.409  1.00  0.00     0.060 A 
ATOM     29  C   UNL A   1      41.750  24.214  27.403  1.00  0.00     0.016 A 
ATOM     30  C   UNL A   1      43.278  25.775  26.358  1.00  0.00     0.016 A 
ATOM     31  C   UNL A   1      41.396  25.176  28.348  1.00  0.00     0.010 A 
ATOM     32  C   UNL A   1      42.969  26.716  27.339  1.00  0.00     0.010 A 
ATOM     33  C   UNL A   1      42.025  26.426  28.341  1.00  0.00    -0.014 A 
BRANCH  33  34
ATOM     34  C   UNL A   1      41.732  27.444  29.379  1.00  0.00     0.031 A 
ATOM     35  C   UNL A   1      42.481  27.428  30.679  1.00  0.00     0.074 A 
ATOM     36  C   UNL A   1      40.735  28.329  29.184  1.00  0.00     0.049 A 
ATOM     37  N   UNL A   1      42.233  28.079  31.786  1.00  0.00    -0.248 NA
ATOM     38  C   UNL A   1      43.660  26.550  30.745  1.00  0.00     0.031 C 
ATOM     39  C   UNL A   1      39.949  28.463  27.956  1.00  0.00     0.029 A 
ATOM     40  N   UNL A   1      40.195  29.265  30.030  1.00  0.00    -0.354 N 
ATOM     41  C   UNL A   1      43.204  27.668  32.690  1.00  0.00     0.074 A 
ATOM     42  C   UNL A   1      44.036  26.700  32.007  1.00  0.00     0.031 C 
ATOM     43  C   UNL A   1      39.021  29.416  28.132  1.00  0.00     0.029 A 
ATOM     44  C   UNL A   1      39.107  29.915  29.500  1.00  0.00     0.049 A 
ATOM     45  H   UNL A   1      40.552  29.451  30.928  1.00  0.00     0.167 HD
ATOM     46  C   UNL A   1      43.382  28.066  33.972  1.00  0.00     0.037 A 
ATOM     47  C   UNL A   1      38.248  30.783  30.067  1.00  0.00     0.037 A 
ATOM     48  C   UNL A   1      42.560  29.042  34.640  1.00  0.00     0.049 A 
ATOM     49  C   UNL A   1      38.429  31.161  31.510  1.00  0.00     0.074 A 
ATOM     50  C   UNL A   1      42.680  29.534  35.928  1.00  0.00     0.029 A 
ATOM     51  N   UNL A   1      41.465  29.674  34.070  1.00  0.00    -0.354 N 
ATOM     52  N   UNL A   1      39.350  30.769  32.357  1.00  0.00    -0.248 NA
ATOM     53  C   UNL A   1      37.446  32.093  32.079  1.00  0.00     0.031 C 
ATOM     54  C   UNL A   1      41.631  30.433  36.151  1.00  0.00     0.029 A 
ATOM     55  C   UNL A   1      40.885  30.534  34.988  1.00  0.00     0.049 A 
ATOM     56  H   UNL A   1      41.147  29.531  33.149  1.00  0.00     0.167 HD
ATOM     57  C   UNL A   1      39.071  31.423  33.551  1.00  0.00     0.074 A 
ATOM     58  C   UNL A   1      37.902  32.245  33.315  1.00  0.00     0.031 C 
ATOM     59  C   UNL A   1      39.725  31.349  34.735  1.00  0.00     0.037 A 
BRANCH  46  60
ATOM     60  C   UNL A   1      44.497  27.427  34.747  1.00  0.00     0.057 A 
ATOM     61  C   UNL A   1      44.311  26.247  35.477  1.00  0.00     0.134 A 
ATOM     62  C   UNL A   1      45.784  27.981  34.729  1.00  0.00     0.134 A 
ATOM     63  F   UNL A   1      43.101  25.673  35.544  1.00  0.00    -0.206 F 
ATOM     64  C   UNL A   1      45.360  25.650  36.179  1.00  0.00     0.040 A 
ATOM     65  C   UNL A   1      46.846  27.381  35.408  1.00  0.00     0.040 A 
ATOM     66  F   UNL A   1      46.032  29.108  34.046  1.00  0.00    -0.206 F 
ATOM     67  C   UNL A   1      46.634  26.214  36.140  1.00  0.00     0.006 A 
ENDBRANCH  46  60
BRANCH  47  68
ATOM     68  C   UNL A   1      37.121  31.333  29.275  1.00  0.00     0.057 A 
ATOM     69  C   UNL A   1      35.966  30.577  29.044  1.00  0.00     0.134 A 
ATOM     70  C   UNL A   1      37.168  32.621  28.729  1.00  0.00     0.134 A 
ATOM     71  F   UNL A   1      35.873  29.327  29.522  1.00  0.00    -0.206 F 
ATOM     72  C   UNL A   1      34.904  31.076  28.291  1.00  0.00     0.040 A 
ATOM     73  C   UNL A   1      36.104  33.144  27.994  1.00  0.00     0.040 A 
ATOM     74  F   UNL A   1      38.247  33.397  28.917  1.00  0.00    -0.206 F 
ATOM     75  C   UNL A   1      34.969  32.368  27.769  1.00  0.00     0.006 A 
ENDBRANCH  47  68
BRANCH  59  76
ATOM     76  C   UNL A   1      39.212  32.205  35.855  1.00  0.00     0.057 A 
ATOM     77  C   UNL A   1      39.630  33.531  36.020  1.00  0.00     0.134 A 
ATOM     78  C   UNL A   1      38.257  31.708  36.750  1.00  0.00     0.134 A 
ATOM     79  F   UNL A   1      40.553  34.060  35.204  1.00  0.00    -0.206 F 
ATOM     80  C   UNL A   1      39.129  34.327  37.051  1.00  0.00     0.040 A 
ATOM     81  C   UNL A   1      37.732  32.502  37.769  1.00  0.00     0.040 A 
ATOM     82  F   UNL A   1      37.811  30.447  36.641  1.00  0.00    -0.206 F 
ATOM     83  C   UNL A   1      38.171  33.815  37.925  1.00  0.00     0.006 A 
ENDBRANCH  59  76
ENDBRANCH  33  34
ENDBRANCH  26  28
ENDBRANCH  25  26
ENDBRANCH  24  25
ENDBRANCH   1  24
TORSDOF 15
ENDMDL
MODEL 2
REMARK VINA RESULT:     -10.7      3.965      7.781
REMARK SMILES C[C@@H]1CN(C(=O)C[N@H+]2CCO[C@H](CC(=O)OCCOC(=O)c3ccc(-c4c5nc(c(-c6c(F)cccc6F)c6ccc([nH]6)c(-c6c(F)cccc6F)c6nc(c(-c7c(F)cccc7F)c7ccc4[nH]7)C=C6)C=C5)cc3)C2)C[C@H](C)O1
REMARK SMILES IDX 17 1 16 2 14 3 15 4 13 5 12 6 8 7 9 8 76 9 10 11 11 12 7 13
REMARK SMILES IDX 5 14 6 15 4 16 1 17 2 18 3 19 80 20 78 21 77 22 79 23 18 24
REMARK SMILES IDX 19 25 20 26 21 27 22 28 23 29 75 30 24 31 74 32 25 33 26 34
REMARK SMILES IDX 27 35 68 36 28 37 73 38 67 39 69 40 29 41 72 42 66 43 65 44
REMARK SMILES IDX 30 46 56 47 39 48 55 49 40 50 43 51 54 52 70 53 41 54 42 55
REMARK SMILES IDX 53 57 71 58 44 59 31 60 32 61 37 62 33 63 34 64 36 65 38 66
REMARK SMILES IDX 35 67 57 68 58 69 63 70 59 71 60 72 62 73 64 74 61 75 45 76
REMARK SMILES IDX 46 77 51 78 47 79 48 80 50 81 52 82 49 83
REMARK H PARENT 8 10 69 45 43 56
REMARK Flexibility Score: inf
ROOT
ATOM      1  C   UNL A   1      37.754  20.682  25.061  1.00  0.00     0.274 C 
ENDROOT
BRANCH   1   2
ATOM      2  O   UNL A   1      38.263  21.921  25.610  1.00  0.00    -0.462 OA
BRANCH   2   3
ATOM      3  C   UNL A   1      37.495  23.028  25.453  1.00  0.00     0.308 C 
ATOM      4  O   UNL A   1      37.522  23.998  26.202  1.00  0.00    -0.252 OA
BRANCH   3   5
ATOM      5  C   UNL A   1      36.505  22.902  24.310  1.00  0.00     0.160 C 
BRANCH   5   6
ATOM      6  C   UNL A   1      35.286  23.845  24.273  1.00  0.00     0.184 C 
ATOM      7  N   UNL A   1      32.802  23.284  24.919  1.00  0.00    -0.323 N 
ATOM      8  C   UNL A   1      32.986  22.531  23.694  1.00  0.00     0.291 C 
ATOM      9  C   UNL A   1      34.186  23.592  25.368  1.00  0.00     0.295 C 
ATOM     10  H   UNL A   1      32.286  22.758  25.623  1.00  0.00     0.348 HD
ATOM     11  C   UNL A   1      33.618  23.381  22.588  1.00  0.00     0.222 C 
ATOM     12  O   UNL A   1      34.840  24.018  22.931  1.00  0.00    -0.366 OA
BRANCH   7  13
ATOM     13  C   UNL A   1      31.967  24.499  24.725  1.00  0.00     0.363 C 
BRANCH  13  14
ATOM     14  C   UNL A   1      31.791  25.421  25.966  1.00  0.00     0.277 C 
ATOM     15  O   UNL A   1      31.221  24.930  26.955  1.00  0.00    -0.268 OA
BRANCH  14  16
ATOM     16  N   UNL A   1      32.369  26.684  26.085  1.00  0.00    -0.333 N 
ATOM     17  C   UNL A   1      33.513  27.246  23.130  1.00  0.00     0.040 C 
ATOM     18  C   UNL A   1      33.694  28.003  24.447  1.00  0.00     0.135 C 
ATOM     19  C   UNL A   1      33.713  27.155  25.751  1.00  0.00     0.151 C 
ATOM     20  O   UNL A   1      32.734  29.075  24.538  1.00  0.00    -0.372 OA
ATOM     21  C   UNL A   1      31.428  28.720  25.031  1.00  0.00     0.135 C 
ATOM     22  C   UNL A   1      31.486  27.835  26.287  1.00  0.00     0.151 C 
ATOM     23  C   UNL A   1      30.532  28.134  23.945  1.00  0.00     0.040 C 
ENDBRANCH  14  16
ENDBRANCH  13  14
ENDBRANCH   7  13
ENDBRANCH   5   6
ENDBRANCH   3   5
ENDBRANCH   2   3
ENDBRANCH   1   2
BRANCH   1  24
ATOM     24  C   UNL A   1      38.858  19.631  24.912  1.00  0.00     0.275 C 
BRANCH  24  25
ATOM     25  O   UNL A   1      39.588  19.533  26.143  1.00  0.00    -0.458 OA
BRANCH  25  26
ATOM     26  C   UNL A   1      40.931  19.609  26.040  1.00  0.00     0.338 C 
ATOM     27  O   UNL A   1      41.678  18.764  25.551  1.00  0.00    -0.246 OA
BRANCH  26  28
ATOM     28  C   UNL A   1      41.394  20.908  26.563  1.00  0.00     0.060 A 
ATOM     29  C   UNL A   1      41.711  21.966  25.700  1.00  0.00     0.016 A 
ATOM     30  C   UNL A   1      41.559  21.057  27.939  1.00  0.00     0.016 A 
ATOM     31  C   UNL A   1      42.191  23.172  26.211  1.00  0.00     0.010 A 
ATOM     32  C   UNL A   1      41.980  22.283  28.454  1.00  0.00     0.010 A 
ATOM     33  C   UNL A   1      42.301  23.350  27.594  1.00  0.00    -0.014 A 
BRANCH  33  34
ATOM     34  C   UNL A   1      42.729  24.646  28.174  1.00  0.00     0.031 A 
ATOM     35  C   UNL A   1      41.716  25.720  28.444  1.00  0.00     0.074 A 
ATOM     36  C   UNL A   1      44.039  24.885  28.380  1.00  0.00     0.049 A 
ATOM     37  N   UNL A   1      41.903  26.980  28.738  1.00  0.00    -0.248 NA
ATOM     38  C   UNL A   1      40.302  25.323  28.358  1.00  0.00     0.031 C 
ATOM     39  C   UNL A   1      45.119  23.916  28.181  1.00  0.00     0.029 A 
ATOM     40  N   UNL A   1      44.685  26.029  28.775  1.00  0.00    -0.354 N 
ATOM     41  C   UNL A   1      40.635  27.535  28.841  1.00  0.00     0.074 A 
ATOM     42  C   UNL A   1      39.686  26.478  28.563  1.00  0.00     0.031 C 
ATOM     43  C   UNL A   1      46.293  24.510  28.443  1.00  0.00     0.029 A 
ATOM     44  C   UNL A   1      46.054  25.912  28.769  1.00  0.00     0.049 A 
ATOM     45  H   UNL A   1      44.214  26.853  29.037  1.00  0.00     0.167 HD
ATOM     46  C   UNL A   1      40.297  28.812  29.142  1.00  0.00     0.037 A 
ATOM     47  C   UNL A   1      47.010  26.840  28.960  1.00  0.00     0.037 A 
ATOM     48  C   UNL A   1      41.246  29.855  29.433  1.00  0.00     0.049 A 
ATOM     49  C   UNL A   1      46.610  28.264  29.231  1.00  0.00     0.074 A 
ATOM     50  C   UNL A   1      41.001  31.172  29.779  1.00  0.00     0.029 A 
ATOM     51  N   UNL A   1      42.623  29.696  29.412  1.00  0.00    -0.354 N 
ATOM     52  N   UNL A   1      45.409  28.780  29.328  1.00  0.00    -0.248 NA
ATOM     53  C   UNL A   1      47.699  29.235  29.406  1.00  0.00     0.031 C 
ATOM     54  C   UNL A   1      42.231  31.821  29.926  1.00  0.00     0.029 A 
ATOM     55  C   UNL A   1      43.242  30.898  29.716  1.00  0.00     0.049 A 
ATOM     56  H   UNL A   1      43.092  28.854  29.210  1.00  0.00     0.167 HD
ATOM     57  C   UNL A   1      45.597  30.129  29.598  1.00  0.00     0.074 A 
ATOM     58  C   UNL A   1      47.027  30.349  29.660  1.00  0.00     0.031 C 
ATOM     59  C   UNL A   1      44.667  31.099  29.779  1.00  0.00     0.037 A 
BRANCH  46  60
ATOM     60  C   UNL A   1      38.837  29.158  29.148  1.00  0.00     0.057 A 
ATOM     61  C   UNL A   1      38.164  29.552  27.985  1.00  0.00     0.134 A 
ATOM     62  C   UNL A   1      38.087  29.059  30.327  1.00  0.00     0.134 A 
ATOM     63  F   UNL A   1      38.826  29.678  26.826  1.00  0.00    -0.206 F 
ATOM     64  C   UNL A   1      36.800  29.854  27.998  1.00  0.00     0.040 A 
ATOM     65  C   UNL A   1      36.719  29.336  30.349  1.00  0.00     0.040 A 
ATOM     66  F   UNL A   1      38.670  28.684  31.476  1.00  0.00    -0.206 F 
ATOM     67  C   UNL A   1      36.073  29.740  29.182  1.00  0.00     0.006 A 
ENDBRANCH  46  60
BRANCH  47  68
ATOM     68  C   UNL A   1      48.440  26.457  28.875  1.00  0.00     0.057 A 
ATOM     69  C   UNL A   1      49.153  26.079  30.018  1.00  0.00     0.134 A 
ATOM     70  C   UNL A   1      49.129  26.457  27.656  1.00  0.00     0.134 A 
ATOM     71  F   UNL A   1      48.554  26.081  31.218  1.00  0.00    -0.206 F 
ATOM     72  C   UNL A   1      50.502  25.728  29.956  1.00  0.00     0.040 A 
ATOM     73  C   UNL A   1      50.471  26.085  27.574  1.00  0.00     0.040 A 
ATOM     74  F   UNL A   1      48.500  26.808  26.524  1.00  0.00    -0.206 F 
ATOM     75  C   UNL A   1      51.163  25.723  28.728  1.00  0.00     0.006 A 
ENDBRANCH  47  68
BRANCH  59  76
ATOM     76  C   UNL A   1      45.168  32.476  30.096  1.00  0.00     0.057 A 
ATOM     77  C   UNL A   1      45.410  33.421  29.092  1.00  0.00     0.134 A 
ATOM     78  C   UNL A   1      45.368  32.872  31.424  1.00  0.00     0.134 A 
ATOM     79  F   UNL A   1      45.251  33.098  27.800  1.00  0.00    -0.206 F 
ATOM     80  C   UNL A   1      45.855  34.709  29.398  1.00  0.00     0.040 A 
ATOM     81  C   UNL A   1      45.789  34.163  31.743  1.00  0.00     0.040 A 
ATOM     82  F   UNL A   1      45.147  32.015  32.432  1.00  0.00    -0.206 F 
ATOM     83  C   UNL A   1      46.037  35.085  30.728  1.00  0.00     0.006 A 
ENDBRANCH  59  76
ENDBRANCH  33  34
ENDBRANCH  26  28
ENDBRANCH  25  26
ENDBRANCH  24  25
ENDBRANCH   1  24
TORSDOF 15
ENDMDL
MODEL 3
REMARK VINA RESULT:     -10.7      5.094     11.302
REMARK SMILES C[C@@H]1CN(C(=O)C[N@H+]2CCO[C@H](CC(=O)OCCOC(=O)c3ccc(-c4c5nc(c(-c6c(F)cccc6F)c6ccc([nH]6)c(-c6c(F)cccc6F)c6nc(c(-c7c(F)cccc7F)c7ccc4[nH]7)C=C6)C=C5)cc3)C2)C[C@H](C)O1
REMARK SMILES IDX 17 1 16 2 14 3 15 4 13 5 12 6 8 7 9 8 76 9 10 11 11 12 7 13
REMARK SMILES IDX 5 14 6 15 4 16 1 17 2 18 3 19 80 20 78 21 77 22 79 23 18 24
REMARK SMILES IDX 19 25 20 26 21 27 22 28 23 29 75 30 24 31 74 32 25 33 26 34
REMARK SMILES IDX 27 35 68 36 28 37 73 38 67 39 69 40 29 41 72 42 66 43 65 44
REMARK SMILES IDX 30 46 56 47 39 48 55 49 40 50 43 51 54 52 70 53 41 54 42 55
REMARK SMILES IDX 53 57 71 58 44 59 31 60 32 61 37 62 33 63 34 64 36 65 38 66
REMARK SMILES IDX 35 67 57 68 58 69 63 70 59 71 60 72 62 73 64 74 61 75 45 76
REMARK SMILES IDX 46 77 51 78 47 79 48 80 50 81 52 82 49 83
REMARK H PARENT 8 10 69 45 43 56
REMARK Flexibility Score: inf
ROOT
ATOM      1  C   UNL A   1      33.350  36.334  31.948  1.00  0.00     0.274 C 
ENDROOT
BRANCH   1   2
ATOM      2  O   UNL A   1      34.517  35.556  32.307  1.00  0.00    -0.462 OA
BRANCH   2   3
ATOM      3  C   UNL A   1      34.339  34.552  33.201  1.00  0.00     0.308 C 
ATOM      4  O   UNL A   1      33.416  33.747  33.160  1.00  0.00    -0.252 OA
BRANCH   3   5
ATOM      5  C   UNL A   1      35.344  34.589  34.337  1.00  0.00     0.160 C 
BRANCH   5   6
ATOM      6  C   UNL A   1      36.747  33.991  34.112  1.00  0.00     0.184 C 
ATOM      7  N   UNL A   1      37.829  31.928  35.325  1.00  0.00    -0.323 N 
ATOM      8  C   UNL A   1      37.790  32.926  36.377  1.00  0.00     0.291 C 
ATOM      9  C   UNL A   1      36.874  32.436  34.306  1.00  0.00     0.295 C 
ATOM     10  H   UNL A   1      37.566  31.003  35.661  1.00  0.00     0.348 HD
ATOM     11  C   UNL A   1      38.339  34.275  35.907  1.00  0.00     0.222 C 
ATOM     12  O   UNL A   1      37.734  34.808  34.737  1.00  0.00    -0.366 OA
BRANCH   7  13
ATOM     13  C   UNL A   1      39.200  31.716  34.788  1.00  0.00     0.363 C 
BRANCH  13  14
ATOM     14  C   UNL A   1      40.043  30.601  35.471  1.00  0.00     0.277 C 
ATOM     15  O   UNL A   1      39.443  29.834  36.241  1.00  0.00    -0.268 OA
BRANCH  14  16
ATOM     16  N   UNL A   1      41.370  30.321  35.146  1.00  0.00    -0.333 N 
ATOM     17  C   UNL A   1      41.797  27.354  36.316  1.00  0.00     0.040 C 
ATOM     18  C   UNL A   1      42.786  28.365  35.733  1.00  0.00     0.135 C 
ATOM     19  C   UNL A   1      42.484  29.871  35.980  1.00  0.00     0.151 C 
ATOM     20  O   UNL A   1      42.997  28.100  34.332  1.00  0.00    -0.372 OA
ATOM     21  C   UNL A   1      42.030  28.664  33.425  1.00  0.00     0.135 C 
ATOM     22  C   UNL A   1      41.713  30.137  33.733  1.00  0.00     0.151 C 
ATOM     23  C   UNL A   1      40.773  27.810  33.303  1.00  0.00     0.040 C 
ENDBRANCH  14  16
ENDBRANCH  13  14
ENDBRANCH   7  13
ENDBRANCH   5   6
ENDBRANCH   3   5
ENDBRANCH   2   3
ENDBRANCH   1   2
BRANCH   1  24
ATOM     24  C   UNL A   1      33.055  36.256  30.447  1.00  0.00     0.275 C 
BRANCH  24  25
ATOM     25  O   UNL A   1      32.679  34.913  30.107  1.00  0.00    -0.458 OA
BRANCH  25  26
ATOM     26  C   UNL A   1      33.192  34.430  28.957  1.00  0.00     0.338 C 
ATOM     27  O   UNL A   1      32.686  34.506  27.839  1.00  0.00    -0.246 OA
BRANCH  26  28
ATOM     28  C   UNL A   1      34.510  33.823  29.220  1.00  0.00     0.060 A 
ATOM     29  C   UNL A   1      35.636  34.180  28.466  1.00  0.00     0.016 A 
ATOM     30  C   UNL A   1      34.613  32.846  30.209  1.00  0.00     0.016 A 
ATOM     31  C   UNL A   1      36.864  33.562  28.699  1.00  0.00     0.010 A 
ATOM     32  C   UNL A   1      35.855  32.273  30.483  1.00  0.00     0.010 A 
ATOM     33  C   UNL A   1      36.990  32.625  29.730  1.00  0.00    -0.014 A 
BRANCH  33  34
ATOM     34  C   UNL A   1      38.299  32.009  30.058  1.00  0.00     0.031 A 
ATOM     35  C   UNL A   1      39.329  32.794  30.816  1.00  0.00     0.074 A 
ATOM     36  C   UNL A   1      38.589  30.775  29.603  1.00  0.00     0.049 A 
ATOM     37  N   UNL A   1      40.594  32.528  31.012  1.00  0.00    -0.248 NA
ATOM     38  C   UNL A   1      38.876  34.056  31.422  1.00  0.00     0.031 C 
ATOM     39  C   UNL A   1      37.666  29.900  28.877  1.00  0.00     0.029 A 
ATOM     40  N   UNL A   1      39.756  30.055  29.660  1.00  0.00    -0.354 N 
ATOM     41  C   UNL A   1      41.097  33.600  31.736  1.00  0.00     0.074 A 
ATOM     42  C   UNL A   1      40.004  34.529  31.932  1.00  0.00     0.031 C 
ATOM     43  C   UNL A   1      38.305  28.767  28.547  1.00  0.00     0.029 A 
ATOM     44  C   UNL A   1      39.694  28.862  28.983  1.00  0.00     0.049 A 
ATOM     45  H   UNL A   1      40.559  30.364  30.140  1.00  0.00     0.167 HD
ATOM     46  C   UNL A   1      42.357  33.789  32.196  1.00  0.00     0.037 A 
ATOM     47  C   UNL A   1      40.659  27.965  28.705  1.00  0.00     0.037 A 
ATOM     48  C   UNL A   1      43.436  32.853  32.012  1.00  0.00     0.049 A 
ATOM     49  C   UNL A   1      42.064  28.226  29.172  1.00  0.00     0.074 A 
ATOM     50  C   UNL A   1      44.741  32.939  32.466  1.00  0.00     0.029 A 
ATOM     51  N   UNL A   1      43.333  31.658  31.316  1.00  0.00    -0.354 N 
ATOM     52  N   UNL A   1      42.530  29.242  29.857  1.00  0.00    -0.248 NA
ATOM     53  C   UNL A   1      43.077  27.223  28.817  1.00  0.00     0.031 C 
ATOM     54  C   UNL A   1      45.438  31.816  32.009  1.00  0.00     0.029 A 
ATOM     55  C   UNL A   1      44.557  31.009  31.308  1.00  0.00     0.049 A 
ATOM     56  H   UNL A   1      42.512  31.321  30.889  1.00  0.00     0.167 HD
ATOM     57  C   UNL A   1      43.885  28.990  30.034  1.00  0.00     0.074 A 
ATOM     58  C   UNL A   1      44.162  27.720  29.395  1.00  0.00     0.031 C 
ATOM     59  C   UNL A   1      44.815  29.743  30.671  1.00  0.00     0.037 A 
BRANCH  46  60
ATOM     60  C   UNL A   1      42.645  35.069  32.924  1.00  0.00     0.057 A 
ATOM     61  C   UNL A   1      43.250  36.162  32.291  1.00  0.00     0.134 A 
ATOM     62  C   UNL A   1      42.275  35.222  34.266  1.00  0.00     0.134 A 
ATOM     63  F   UNL A   1      43.639  36.076  31.010  1.00  0.00    -0.206 F 
ATOM     64  C   UNL A   1      43.496  37.356  32.972  1.00  0.00     0.040 A 
ATOM     65  C   UNL A   1      42.494  36.419  34.952  1.00  0.00     0.040 A 
ATOM     66  F   UNL A   1      41.687  34.216  34.931  1.00  0.00    -0.206 F 
ATOM     67  C   UNL A   1      43.111  37.488  34.306  1.00  0.00     0.006 A 
ENDBRANCH  46  60
BRANCH  47  68
ATOM     68  C   UNL A   1      40.334  26.748  27.922  1.00  0.00     0.057 A 
ATOM     69  C   UNL A   1      39.582  25.710  28.483  1.00  0.00     0.134 A 
ATOM     70  C   UNL A   1      40.765  26.590  26.599  1.00  0.00     0.134 A 
ATOM     71  F   UNL A   1      39.160  25.794  29.754  1.00  0.00    -0.206 F 
ATOM     72  C   UNL A   1      39.278  24.554  27.763  1.00  0.00     0.040 A 
ATOM     73  C   UNL A   1      40.449  25.451  25.858  1.00  0.00     0.040 A 
ATOM     74  F   UNL A   1      41.488  27.550  26.004  1.00  0.00    -0.206 F 
ATOM     75  C   UNL A   1      39.707  24.426  26.443  1.00  0.00     0.006 A 
ENDBRANCH  47  68
BRANCH  59  76
ATOM     76  C   UNL A   1      46.209  29.196  30.737  1.00  0.00     0.057 A 
ATOM     77  C   UNL A   1      47.180  29.537  29.788  1.00  0.00     0.134 A 
ATOM     78  C   UNL A   1      46.593  28.352  31.786  1.00  0.00     0.134 A 
ATOM     79  F   UNL A   1      46.870  30.328  28.751  1.00  0.00    -0.206 F 
ATOM     80  C   UNL A   1      48.482  29.040  29.871  1.00  0.00     0.040 A 
ATOM     81  C   UNL A   1      47.898  27.869  31.892  1.00  0.00     0.040 A 
ATOM     82  F   UNL A   1      45.711  27.994  32.731  1.00  0.00    -0.206 F 
ATOM     83  C   UNL A   1      48.846  28.210  30.930  1.00  0.00     0.006 A 
ENDBRANCH  59  76
ENDBRANCH  33  34
ENDBRANCH  26  28
ENDBRANCH  25  26
ENDBRANCH  24  25
ENDBRANCH   1  24
TORSDOF 15
ENDMDL
