MODEL 1
REMARK VINA RESULT:     -11.3      0.000      0.000
REMARK SMILES Cc1cc(C(=O)OCCOC(=O)c2ccc(-c3c4nc(c(-c5c(F)cccc5F)c5ccc([nH]5)c(-c5c(F)cccc5F)c5nc(c(-c6c(F)cccc6F)c6ccc3[nH]6)C=C5)C=C4)cc2)c([N+](=O)[O-])cc1[N+](=O)[O-]
REMARK SMILES IDX 9 1 8 2 7 3 5 4 6 5 4 6 1 7 2 8 3 9 72 10 71 11 67 12 73 13
REMARK SMILES IDX 74 14 75 15 68 16 69 17 70 18 10 19 11 20 12 21 13 22 14 23
REMARK SMILES IDX 66 24 15 25 65 26 16 27 17 28 18 29 59 30 19 31 64 32 58 33
REMARK SMILES IDX 60 34 20 35 63 36 57 37 56 38 21 40 47 41 30 42 46 43 31 44
REMARK SMILES IDX 34 45 45 46 61 47 32 48 33 49 44 51 62 52 35 53 22 54 23 55
REMARK SMILES IDX 28 56 24 57 25 58 27 59 29 60 26 61 48 62 49 63 54 64 50 65
REMARK SMILES IDX 51 66 53 67 55 68 52 69 36 70 37 71 42 72 38 73 39 74 41 75
REMARK SMILES IDX 43 76 40 77
REMARK H PARENT 60 39 34 50
REMARK Flexibility Score: inf
ROOT
ATOM      1  C   UNL A   1      37.661  32.394  28.776  1.00  0.00     0.275 C 
ENDROOT
BRANCH   1   2
ATOM      2  C   UNL A   1      37.388  33.490  29.815  1.00  0.00     0.275 C 
BRANCH   2   3
ATOM      3  O   UNL A   1      37.599  33.084  31.180  1.00  0.00    -0.458 OA
BRANCH   3   4
ATOM      4  C   UNL A   1      36.469  32.580  31.731  1.00  0.00     0.345 C 
ATOM      5  O   UNL A   1      36.226  31.399  31.927  1.00  0.00    -0.246 OA
BRANCH   4   6
ATOM      6  C   UNL A   1      35.435  33.573  32.058  1.00  0.00     0.138 A 
ATOM      7  C   UNL A   1      32.878  35.588  30.098  1.00  0.00     0.052 C 
ATOM      8  C   UNL A   1      33.727  35.164  31.273  1.00  0.00     0.028 A 
ATOM      9  C   UNL A   1      34.471  33.965  31.118  1.00  0.00     0.033 A 
ATOM     10  C   UNL A   1      33.933  35.936  32.443  1.00  0.00     0.279 A 
ATOM     11  C   UNL A   1      34.856  35.510  33.418  1.00  0.00     0.172 A 
ATOM     12  C   UNL A   1      35.607  34.349  33.205  1.00  0.00     0.290 A 
BRANCH  10  13
ATOM     13  N   UNL A   1      33.234  37.214  32.715  1.00  0.00     0.063 N 
ATOM     14  O   UNL A   1      32.036  37.146  33.024  1.00  0.00    -0.258 OA
ATOM     15  O   UNL A   1      33.868  38.271  32.636  1.00  0.00    -0.258 OA
ENDBRANCH  10  13
BRANCH  12  16
ATOM     16  N   UNL A   1      36.590  33.968  34.211  1.00  0.00     0.063 N 
ATOM     17  O   UNL A   1      37.638  34.627  34.256  1.00  0.00    -0.258 OA
ATOM     18  O   UNL A   1      36.328  32.979  34.907  1.00  0.00    -0.258 OA
ENDBRANCH  12  16
ENDBRANCH   4   6
ENDBRANCH   3   4
ENDBRANCH   2   3
ENDBRANCH   1   2
BRANCH   1  19
ATOM     19  O   UNL A   1      36.572  31.526  28.347  1.00  0.00    -0.458 OA
BRANCH  19  20
ATOM     20  C   UNL A   1      36.519  30.177  28.303  1.00  0.00     0.338 C 
ATOM     21  O   UNL A   1      35.462  29.567  28.149  1.00  0.00    -0.246 OA
BRANCH  20  22
ATOM     22  C   UNL A   1      37.779  29.435  28.400  1.00  0.00     0.060 A 
ATOM     23  C   UNL A   1      38.606  29.349  27.266  1.00  0.00     0.016 A 
ATOM     24  C   UNL A   1      38.169  28.904  29.622  1.00  0.00     0.016 A 
ATOM     25  C   UNL A   1      39.880  28.819  27.377  1.00  0.00     0.010 A 
ATOM     26  C   UNL A   1      39.473  28.524  29.778  1.00  0.00     0.010 A 
ATOM     27  C   UNL A   1      40.293  28.419  28.644  1.00  0.00    -0.014 A 
BRANCH  27  28
ATOM     28  C   UNL A   1      41.397  27.504  28.850  1.00  0.00     0.031 A 
ATOM     29  C   UNL A   1      41.254  26.074  28.561  1.00  0.00     0.074 A 
ATOM     30  C   UNL A   1      42.517  28.197  29.156  1.00  0.00     0.049 A 
ATOM     31  N   UNL A   1      41.981  25.153  29.083  1.00  0.00    -0.248 NA
ATOM     32  C   UNL A   1      40.207  25.530  27.702  1.00  0.00     0.031 C 
ATOM     33  C   UNL A   1      43.920  27.847  29.151  1.00  0.00     0.029 A 
ATOM     34  N   UNL A   1      42.503  29.499  29.695  1.00  0.00    -0.354 N 
ATOM     35  C   UNL A   1      41.769  24.003  28.342  1.00  0.00     0.074 A 
ATOM     36  C   UNL A   1      40.526  24.232  27.658  1.00  0.00     0.031 C 
ATOM     37  C   UNL A   1      44.576  28.727  29.939  1.00  0.00     0.029 A 
ATOM     38  C   UNL A   1      43.576  29.586  30.574  1.00  0.00     0.049 A 
ATOM     39  H   UNL A   1      41.856  30.212  29.489  1.00  0.00     0.167 HD
ATOM     40  C   UNL A   1      42.799  23.113  28.230  1.00  0.00     0.037 A 
ATOM     41  C   UNL A   1      43.276  29.624  31.906  1.00  0.00     0.037 A 
ATOM     42  C   UNL A   1      43.921  23.605  29.034  1.00  0.00     0.049 A 
ATOM     43  C   UNL A   1      43.715  28.330  32.544  1.00  0.00     0.074 A 
ATOM     44  C   UNL A   1      45.020  24.376  28.689  1.00  0.00     0.029 A 
ATOM     45  N   UNL A   1      43.776  23.711  30.411  1.00  0.00    -0.354 N 
ATOM     46  N   UNL A   1      43.663  27.160  31.959  1.00  0.00    -0.248 NA
ATOM     47  C   UNL A   1      44.389  28.300  33.836  1.00  0.00     0.031 C 
ATOM     48  C   UNL A   1      45.463  25.039  29.866  1.00  0.00     0.029 A 
ATOM     49  C   UNL A   1      44.634  24.671  30.915  1.00  0.00     0.049 A 
ATOM     50  H   UNL A   1      43.151  23.177  30.953  1.00  0.00     0.167 HD
ATOM     51  C   UNL A   1      44.370  26.261  32.715  1.00  0.00     0.074 A 
ATOM     52  C   UNL A   1      44.778  27.016  33.888  1.00  0.00     0.031 C 
ATOM     53  C   UNL A   1      44.642  24.977  32.336  1.00  0.00     0.037 A 
BRANCH  40  54
ATOM     54  C   UNL A   1      42.961  22.016  27.189  1.00  0.00     0.057 A 
ATOM     55  C   UNL A   1      42.119  20.881  27.228  1.00  0.00     0.134 A 
ATOM     56  C   UNL A   1      43.920  21.969  26.160  1.00  0.00     0.134 A 
ATOM     57  F   UNL A   1      41.105  20.787  28.099  1.00  0.00    -0.206 F 
ATOM     58  C   UNL A   1      42.263  19.777  26.374  1.00  0.00     0.040 A 
ATOM     59  C   UNL A   1      44.086  20.863  25.307  1.00  0.00     0.040 A 
ATOM     60  F   UNL A   1      44.728  22.996  25.889  1.00  0.00    -0.206 F 
ATOM     61  C   UNL A   1      43.262  19.756  25.416  1.00  0.00     0.006 A 
ENDBRANCH  40  54
BRANCH  41  62
ATOM     62  C   UNL A   1      42.041  30.418  32.238  1.00  0.00     0.057 A 
ATOM     63  C   UNL A   1      40.955  29.752  32.856  1.00  0.00     0.134 A 
ATOM     64  C   UNL A   1      41.966  31.815  32.223  1.00  0.00     0.134 A 
ATOM     65  F   UNL A   1      40.927  28.409  32.900  1.00  0.00    -0.206 F 
ATOM     66  C   UNL A   1      39.924  30.429  33.519  1.00  0.00     0.040 A 
ATOM     67  C   UNL A   1      40.917  32.507  32.861  1.00  0.00     0.040 A 
ATOM     68  F   UNL A   1      42.937  32.548  31.662  1.00  0.00    -0.206 F 
ATOM     69  C   UNL A   1      39.914  31.817  33.541  1.00  0.00     0.006 A 
ENDBRANCH  41  62
BRANCH  53  70
ATOM     70  C   UNL A   1      45.038  23.888  33.298  1.00  0.00     0.057 A 
ATOM     71  C   UNL A   1      46.325  23.776  33.842  1.00  0.00     0.134 A 
ATOM     72  C   UNL A   1      44.070  23.023  33.857  1.00  0.00     0.134 A 
ATOM     73  F   UNL A   1      47.308  24.624  33.509  1.00  0.00    -0.206 F 
ATOM     74  C   UNL A   1      46.649  22.820  34.807  1.00  0.00     0.040 A 
ATOM     75  C   UNL A   1      44.365  22.120  34.877  1.00  0.00     0.040 A 
ATOM     76  F   UNL A   1      42.787  23.043  33.467  1.00  0.00    -0.206 F 
ATOM     77  C   UNL A   1      45.665  21.998  35.338  1.00  0.00     0.006 A 
ENDBRANCH  53  70
ENDBRANCH  27  28
ENDBRANCH  20  22
ENDBRANCH  19  20
ENDBRANCH   1  19
TORSDOF 13
ENDMDL
MODEL 2
REMARK VINA RESULT:     -11.0      4.253      6.025
REMARK SMILES Cc1cc(C(=O)OCCOC(=O)c2ccc(-c3c4nc(c(-c5c(F)cccc5F)c5ccc([nH]5)c(-c5c(F)cccc5F)c5nc(c(-c6c(F)cccc6F)c6ccc3[nH]6)C=C5)C=C4)cc2)c([N+](=O)[O-])cc1[N+](=O)[O-]
REMARK SMILES IDX 9 1 8 2 7 3 5 4 6 5 4 6 1 7 2 8 3 9 72 10 71 11 67 12 73 13
REMARK SMILES IDX 74 14 75 15 68 16 69 17 70 18 10 19 11 20 12 21 13 22 14 23
REMARK SMILES IDX 66 24 15 25 65 26 16 27 17 28 18 29 59 30 19 31 64 32 58 33
REMARK SMILES IDX 60 34 20 35 63 36 57 37 56 38 21 40 47 41 30 42 46 43 31 44
REMARK SMILES IDX 34 45 45 46 61 47 32 48 33 49 44 51 62 52 35 53 22 54 23 55
REMARK SMILES IDX 28 56 24 57 25 58 27 59 29 60 26 61 48 62 49 63 54 64 50 65
REMARK SMILES IDX 51 66 53 67 55 68 52 69 36 70 37 71 42 72 38 73 39 74 41 75
REMARK SMILES IDX 43 76 40 77
REMARK H PARENT 60 39 34 50
REMARK Flexibility Score: inf
ROOT
ATOM      1  C   UNL A   1      33.151  30.132  27.266  1.00  0.00     0.275 C 
ENDROOT
BRANCH   1   2
ATOM      2  C   UNL A   1      33.193  28.601  27.357  1.00  0.00     0.275 C 
BRANCH   2   3
ATOM      3  O   UNL A   1      32.164  27.930  26.607  1.00  0.00    -0.458 OA
BRANCH   3   4
ATOM      4  C   UNL A   1      32.485  27.836  25.294  1.00  0.00     0.345 C 
ATOM      5  O   UNL A   1      33.555  27.465  24.838  1.00  0.00    -0.246 OA
BRANCH   4   6
ATOM      6  C   UNL A   1      31.442  28.286  24.361  1.00  0.00     0.138 A 
ATOM      7  C   UNL A   1      29.404  31.457  23.878  1.00  0.00     0.052 C 
ATOM      8  C   UNL A   1      29.817  30.015  23.701  1.00  0.00     0.028 A 
ATOM      9  C   UNL A   1      31.049  29.631  24.294  1.00  0.00     0.033 A 
ATOM     10  C   UNL A   1      29.010  29.009  23.114  1.00  0.00     0.279 A 
ATOM     11  C   UNL A   1      29.435  27.666  23.126  1.00  0.00     0.172 A 
ATOM     12  C   UNL A   1      30.631  27.320  23.764  1.00  0.00     0.290 A 
BRANCH  10  13
ATOM     13  N   UNL A   1      27.697  29.276  22.481  1.00  0.00     0.063 N 
ATOM     14  O   UNL A   1      26.687  29.007  23.147  1.00  0.00    -0.258 OA
ATOM     15  O   UNL A   1      27.668  29.757  21.344  1.00  0.00    -0.258 OA
ENDBRANCH  10  13
BRANCH  12  16
ATOM     16  N   UNL A   1      31.012  25.914  23.802  1.00  0.00     0.063 N 
ATOM     17  O   UNL A   1      31.615  25.463  22.819  1.00  0.00    -0.258 OA
ATOM     18  O   UNL A   1      30.655  25.261  24.791  1.00  0.00    -0.258 OA
ENDBRANCH  12  16
ENDBRANCH   4   6
ENDBRANCH   3   4
ENDBRANCH   2   3
ENDBRANCH   1   2
BRANCH   1  19
ATOM     19  O   UNL A   1      34.385  30.893  27.411  1.00  0.00    -0.458 OA
BRANCH  19  20
ATOM     20  C   UNL A   1      35.130  31.113  28.517  1.00  0.00     0.338 C 
ATOM     21  O   UNL A   1      34.762  31.868  29.416  1.00  0.00    -0.246 OA
BRANCH  20  22
ATOM     22  C   UNL A   1      36.394  30.384  28.652  1.00  0.00     0.060 A 
ATOM     23  C   UNL A   1      36.616  29.616  29.808  1.00  0.00     0.016 A 
ATOM     24  C   UNL A   1      37.308  30.399  27.607  1.00  0.00     0.016 A 
ATOM     25  C   UNL A   1      37.712  28.773  29.879  1.00  0.00     0.010 A 
ATOM     26  C   UNL A   1      38.303  29.461  27.600  1.00  0.00     0.010 A 
ATOM     27  C   UNL A   1      38.537  28.708  28.761  1.00  0.00    -0.014 A 
BRANCH  27  28
ATOM     28  C   UNL A   1      39.895  28.208  28.824  1.00  0.00     0.031 A 
ATOM     29  C   UNL A   1      40.206  26.823  28.460  1.00  0.00     0.074 A 
ATOM     30  C   UNL A   1      40.747  29.226  29.083  1.00  0.00     0.049 A 
ATOM     31  N   UNL A   1      41.242  26.182  28.865  1.00  0.00    -0.248 NA
ATOM     32  C   UNL A   1      39.322  25.987  27.653  1.00  0.00     0.031 C 
ATOM     33  C   UNL A   1      42.180  29.366  28.947  1.00  0.00     0.029 A 
ATOM     34  N   UNL A   1      40.354  30.430  29.701  1.00  0.00    -0.354 N 
ATOM     35  C   UNL A   1      41.353  25.051  28.074  1.00  0.00     0.074 A 
ATOM     36  C   UNL A   1      40.045  24.873  27.505  1.00  0.00     0.031 C 
ATOM     37  C   UNL A   1      42.579  30.389  29.734  1.00  0.00     0.029 A 
ATOM     38  C   UNL A   1      41.416  30.843  30.497  1.00  0.00     0.049 A 
ATOM     39  H   UNL A   1      39.492  30.892  29.590  1.00  0.00     0.167 HD
ATOM     40  C   UNL A   1      42.604  24.561  27.828  1.00  0.00     0.037 A 
ATOM     41  C   UNL A   1      41.247  30.737  31.848  1.00  0.00     0.037 A 
ATOM     42  C   UNL A   1      43.571  25.374  28.570  1.00  0.00     0.049 A 
ATOM     43  C   UNL A   1      42.147  29.644  32.370  1.00  0.00     0.074 A 
ATOM     44  C   UNL A   1      44.315  26.479  28.188  1.00  0.00     0.029 A 
ATOM     45  N   UNL A   1      43.529  25.382  29.959  1.00  0.00    -0.354 N 
ATOM     46  N   UNL A   1      42.429  28.543  31.719  1.00  0.00    -0.248 NA
ATOM     47  C   UNL A   1      42.912  29.800  33.600  1.00  0.00     0.031 C 
ATOM     48  C   UNL A   1      44.623  27.215  29.365  1.00  0.00     0.029 A 
ATOM     49  C   UNL A   1      44.065  26.557  30.452  1.00  0.00     0.049 A 
ATOM     50  H   UNL A   1      43.170  24.653  30.514  1.00  0.00     0.167 HD
ATOM     51  C   UNL A   1      43.461  27.909  32.361  1.00  0.00     0.074 A 
ATOM     52  C   UNL A   1      43.706  28.719  33.543  1.00  0.00     0.031 C 
ATOM     53  C   UNL A   1      44.105  26.802  31.884  1.00  0.00     0.037 A 
BRANCH  40  54
ATOM     54  C   UNL A   1      43.020  23.615  26.712  1.00  0.00     0.057 A 
ATOM     55  C   UNL A   1      42.976  22.218  26.922  1.00  0.00     0.134 A 
ATOM     56  C   UNL A   1      43.506  23.977  25.441  1.00  0.00     0.134 A 
ATOM     57  F   UNL A   1      42.477  21.692  28.049  1.00  0.00    -0.206 F 
ATOM     58  C   UNL A   1      43.437  21.277  25.989  1.00  0.00     0.040 A 
ATOM     59  C   UNL A   1      43.985  23.046  24.502  1.00  0.00     0.040 A 
ATOM     60  F   UNL A   1      43.514  25.241  25.013  1.00  0.00    -0.206 F 
ATOM     61  C   UNL A   1      43.960  21.690  24.776  1.00  0.00     0.006 A 
ENDBRANCH  40  54
BRANCH  41  62
ATOM     62  C   UNL A   1      39.856  31.061  32.324  1.00  0.00     0.057 A 
ATOM     63  C   UNL A   1      39.064  30.016  32.859  1.00  0.00     0.134 A 
ATOM     64  C   UNL A   1      39.365  32.355  32.521  1.00  0.00     0.134 A 
ATOM     65  F   UNL A   1      39.443  28.736  32.701  1.00  0.00    -0.206 F 
ATOM     66  C   UNL A   1      37.925  30.247  33.640  1.00  0.00     0.040 A 
ATOM     67  C   UNL A   1      38.203  32.599  33.279  1.00  0.00     0.040 A 
ATOM     68  F   UNL A   1      40.031  33.420  32.054  1.00  0.00    -0.206 F 
ATOM     69  C   UNL A   1      37.500  31.548  33.871  1.00  0.00     0.006 A 
ENDBRANCH  41  62
BRANCH  53  70
ATOM     70  C   UNL A   1      44.928  25.879  32.743  1.00  0.00     0.057 A 
ATOM     71  C   UNL A   1      46.328  25.829  32.694  1.00  0.00     0.134 A 
ATOM     72  C   UNL A   1      44.335  25.141  33.793  1.00  0.00     0.134 A 
ATOM     73  F   UNL A   1      47.031  26.588  31.841  1.00  0.00    -0.206 F 
ATOM     74  C   UNL A   1      47.080  25.039  33.565  1.00  0.00     0.040 A 
ATOM     75  C   UNL A   1      45.082  24.412  34.717  1.00  0.00     0.040 A 
ATOM     76  F   UNL A   1      43.009  25.126  33.992  1.00  0.00    -0.206 F 
ATOM     77  C   UNL A   1      46.459  24.339  34.591  1.00  0.00     0.006 A 
ENDBRANCH  53  70
ENDBRANCH  27  28
ENDBRANCH  20  22
ENDBRANCH  19  20
ENDBRANCH   1  19
TORSDOF 13
ENDMDL
MODEL 3
REMARK VINA RESULT:     -11.0      3.520      6.239
REMARK SMILES Cc1cc(C(=O)OCCOC(=O)c2ccc(-c3c4nc(c(-c5c(F)cccc5F)c5ccc([nH]5)c(-c5c(F)cccc5F)c5nc(c(-c6c(F)cccc6F)c6ccc3[nH]6)C=C5)C=C4)cc2)c([N+](=O)[O-])cc1[N+](=O)[O-]
REMARK SMILES IDX 9 1 8 2 7 3 5 4 6 5 4 6 1 7 2 8 3 9 72 10 71 11 67 12 73 13
REMARK SMILES IDX 74 14 75 15 68 16 69 17 70 18 10 19 11 20 12 21 13 22 14 23
REMARK SMILES IDX 66 24 15 25 65 26 16 27 17 28 18 29 59 30 19 31 64 32 58 33
REMARK SMILES IDX 60 34 20 35 63 36 57 37 56 38 21 40 47 41 30 42 46 43 31 44
REMARK SMILES IDX 34 45 45 46 61 47 32 48 33 49 44 51 62 52 35 53 22 54 23 55
REMARK SMILES IDX 28 56 24 57 25 58 27 59 29 60 26 61 48 62 49 63 54 64 50 65
REMARK SMILES IDX 51 66 53 67 55 68 52 69 36 70 37 71 42 72 38 73 39 74 41 75
REMARK SMILES IDX 43 76 40 77
REMARK H PARENT 60 39 34 50
REMARK Flexibility Score: inf
ROOT
ATOM      1  C   UNL A   1      34.135  30.536  27.391  1.00  0.00     0.275 C 
ENDROOT
BRANCH   1   2
ATOM      2  C   UNL A   1      33.237  29.402  26.879  1.00  0.00     0.275 C 
BRANCH   2   3
ATOM      3  O   UNL A   1      33.881  28.116  26.807  1.00  0.00    -0.458 OA
BRANCH   3   4
ATOM      4  C   UNL A   1      33.730  27.550  25.586  1.00  0.00     0.345 C 
ATOM      5  O   UNL A   1      33.714  28.137  24.515  1.00  0.00    -0.246 OA
BRANCH   4   6
ATOM      6  C   UNL A   1      33.508  26.096  25.593  1.00  0.00     0.138 A 
ATOM      7  C   UNL A   1      35.484  23.036  24.512  1.00  0.00     0.052 C 
ATOM      8  C   UNL A   1      34.295  23.849  24.966  1.00  0.00     0.028 A 
ATOM      9  C   UNL A   1      34.551  25.195  25.338  1.00  0.00     0.033 A 
ATOM     10  C   UNL A   1      32.948  23.409  24.919  1.00  0.00     0.279 A 
ATOM     11  C   UNL A   1      31.903  24.299  25.236  1.00  0.00     0.172 A 
ATOM     12  C   UNL A   1      32.193  25.631  25.548  1.00  0.00     0.290 A 
BRANCH  10  13
ATOM     13  N   UNL A   1      32.547  22.037  24.528  1.00  0.00     0.063 N 
ATOM     14  O   UNL A   1      31.965  21.356  25.384  1.00  0.00    -0.258 OA
ATOM     15  O   UNL A   1      32.794  21.645  23.384  1.00  0.00    -0.258 OA
ENDBRANCH  10  13
BRANCH  12  16
ATOM     16  N   UNL A   1      31.082  26.535  25.819  1.00  0.00     0.063 N 
ATOM     17  O   UNL A   1      30.742  26.676  27.001  1.00  0.00    -0.258 OA
ATOM     18  O   UNL A   1      30.527  27.052  24.841  1.00  0.00    -0.258 OA
ENDBRANCH  12  16
ENDBRANCH   4   6
ENDBRANCH   3   4
ENDBRANCH   2   3
ENDBRANCH   1   2
BRANCH   1  19
ATOM     19  O   UNL A   1      35.582  30.414  27.273  1.00  0.00    -0.458 OA
BRANCH  19  20
ATOM     20  C   UNL A   1      36.546  30.757  28.155  1.00  0.00     0.338 C 
ATOM     21  O   UNL A   1      36.500  31.802  28.802  1.00  0.00    -0.246 OA
BRANCH  20  22
ATOM     22  C   UNL A   1      37.651  29.819  28.368  1.00  0.00     0.060 A 
ATOM     23  C   UNL A   1      37.620  28.975  29.492  1.00  0.00     0.016 A 
ATOM     24  C   UNL A   1      38.659  29.723  27.418  1.00  0.00     0.016 A 
ATOM     25  C   UNL A   1      38.549  27.956  29.618  1.00  0.00     0.010 A 
ATOM     26  C   UNL A   1      39.481  28.630  27.452  1.00  0.00     0.010 A 
ATOM     27  C   UNL A   1      39.464  27.799  28.583  1.00  0.00    -0.014 A 
BRANCH  27  28
ATOM     28  C   UNL A   1      40.707  27.073  28.747  1.00  0.00     0.031 A 
ATOM     29  C   UNL A   1      40.786  25.640  28.453  1.00  0.00     0.074 A 
ATOM     30  C   UNL A   1      41.711  27.937  29.020  1.00  0.00     0.049 A 
ATOM     31  N   UNL A   1      41.670  24.847  28.945  1.00  0.00    -0.248 NA
ATOM     32  C   UNL A   1      39.813  24.934  27.626  1.00  0.00     0.031 C 
ATOM     33  C   UNL A   1      43.151  27.819  28.966  1.00  0.00     0.029 A 
ATOM     34  N   UNL A   1      41.505  29.219  29.568  1.00  0.00    -0.354 N 
ATOM     35  C   UNL A   1      41.621  23.679  28.204  1.00  0.00     0.074 A 
ATOM     36  C   UNL A   1      40.334  23.705  27.563  1.00  0.00     0.031 C 
ATOM     37  C   UNL A   1      43.682  28.792  29.738  1.00  0.00     0.029 A 
ATOM     38  C   UNL A   1      42.579  29.477  30.411  1.00  0.00     0.049 A 
ATOM     39  H   UNL A   1      40.745  29.819  29.387  1.00  0.00     0.167 HD
ATOM     40  C   UNL A   1      42.777  22.966  28.052  1.00  0.00     0.037 A 
ATOM     41  C   UNL A   1      42.322  29.466  31.752  1.00  0.00     0.037 A 
ATOM     42  C   UNL A   1      43.831  23.632  28.821  1.00  0.00     0.049 A 
ATOM     43  C   UNL A   1      42.985  28.258  32.368  1.00  0.00     0.074 A 
ATOM     44  C   UNL A   1      44.779  24.570  28.445  1.00  0.00     0.029 A 
ATOM     45  N   UNL A   1      43.717  23.712  30.204  1.00  0.00    -0.354 N 
ATOM     46  N   UNL A   1      43.102  27.096  31.777  1.00  0.00    -0.248 NA
ATOM     47  C   UNL A   1      43.699  28.336  33.636  1.00  0.00     0.031 C 
ATOM     48  C   UNL A   1      45.149  25.296  29.611  1.00  0.00     0.029 A 
ATOM     49  C   UNL A   1      44.426  24.797  30.685  1.00  0.00     0.049 A 
ATOM     50  H   UNL A   1      43.205  23.084  30.763  1.00  0.00     0.167 HD
ATOM     51  C   UNL A   1      43.970  26.322  32.503  1.00  0.00     0.074 A 
ATOM     52  C   UNL A   1      44.291  27.132  33.667  1.00  0.00     0.031 C 
ATOM     53  C   UNL A   1      44.432  25.099  32.107  1.00  0.00     0.037 A 
BRANCH  40  54
ATOM     54  C   UNL A   1      43.078  21.911  26.999  1.00  0.00     0.057 A 
ATOM     55  C   UNL A   1      42.379  20.682  27.017  1.00  0.00     0.134 A 
ATOM     56  C   UNL A   1      44.043  21.994  25.979  1.00  0.00     0.134 A 
ATOM     57  F   UNL A   1      41.377  20.454  27.877  1.00  0.00    -0.206 F 
ATOM     58  C   UNL A   1      42.662  19.615  26.151  1.00  0.00     0.040 A 
ATOM     59  C   UNL A   1      44.348  20.928  25.114  1.00  0.00     0.040 A 
ATOM     60  F   UNL A   1      44.723  23.115  25.728  1.00  0.00    -0.206 F 
ATOM     61  C   UNL A   1      43.664  19.728  25.201  1.00  0.00     0.006 A 
ENDBRANCH  40  54
BRANCH  41  62
ATOM     62  C   UNL A   1      40.987  30.050  32.131  1.00  0.00     0.057 A 
ATOM     63  C   UNL A   1      39.980  29.179  32.613  1.00  0.00     0.134 A 
ATOM     64  C   UNL A   1      40.734  31.416  32.289  1.00  0.00     0.134 A 
ATOM     65  F   UNL A   1      40.124  27.849  32.487  1.00  0.00    -0.206 F 
ATOM     66  C   UNL A   1      38.855  29.630  33.313  1.00  0.00     0.040 A 
ATOM     67  C   UNL A   1      39.589  31.883  32.965  1.00  0.00     0.040 A 
ATOM     68  F   UNL A   1      41.616  32.331  31.866  1.00  0.00    -0.206 F 
ATOM     69  C   UNL A   1      38.666  30.991  33.510  1.00  0.00     0.006 A 
ENDBRANCH  41  62
BRANCH  53  70
ATOM     70  C   UNL A   1      45.032  24.087  33.048  1.00  0.00     0.057 A 
ATOM     71  C   UNL A   1      46.305  24.227  33.616  1.00  0.00     0.134 A 
ATOM     72  C   UNL A   1      44.255  23.024  33.563  1.00  0.00     0.134 A 
ATOM     73  F   UNL A   1      47.095  25.270  33.326  1.00  0.00    -0.206 F 
ATOM     74  C   UNL A   1      46.806  23.330  34.562  1.00  0.00     0.040 A 
ATOM     75  C   UNL A   1      44.716  22.171  34.565  1.00  0.00     0.040 A 
ATOM     76  F   UNL A   1      43.002  22.790  33.147  1.00  0.00    -0.206 F 
ATOM     77  C   UNL A   1      46.005  22.307  35.051  1.00  0.00     0.006 A 
ENDBRANCH  53  70
ENDBRANCH  27  28
ENDBRANCH  20  22
ENDBRANCH  19  20
ENDBRANCH   1  19
TORSDOF 13
ENDMDL
