MODEL 1
REMARK VINA RESULT:      -9.4      0.000      0.000
REMARK SMILES COCC[NH2+]CC(=O)N1C[C@H](OC)C[C@@H]1C(=O)OCCOC(=O)c1ccc(-c2c3nc(c(-c4c(F)cccc4F)c4ccc([nH]4)c(-c4c(F)cccc4F)c4nc(c(-c5c(F)cccc5F)c5ccc2[nH]5)C=C4)C=C3)cc1
REMARK SMILES IDX 16 1 17 2 15 3 9 4 10 5 11 6 14 7 7 8 8 9 6 10 5 11 4 14
REMARK SMILES IDX 3 15 2 16 1 17 12 18 13 19 18 20 19 21 20 22 21 23 22 24
REMARK SMILES IDX 23 25 24 26 25 27 77 28 26 29 76 30 27 31 28 32 29 33 70 34
REMARK SMILES IDX 30 35 75 36 69 37 71 38 31 39 74 40 68 41 67 42 32 44 58 45
REMARK SMILES IDX 41 46 57 47 42 48 45 49 56 50 72 51 43 52 44 53 55 55 73 56
REMARK SMILES IDX 46 57 33 58 34 59 39 60 35 61 36 62 38 63 40 64 37 65 59 66
REMARK SMILES IDX 60 67 65 68 61 69 62 70 64 71 66 72 63 73 47 74 48 75 53 76
REMARK SMILES IDX 49 77 50 78 52 79 54 80 51 81
REMARK H PARENT 5 12 5 13 71 43 45 54
REMARK Flexibility Score: inf
ROOT
ATOM      1  C   UNL A   1      31.924  27.105  26.457  1.00  0.00     0.329 C 
ATOM      2  O   UNL A   1      30.829  26.562  26.565  1.00  0.00    -0.250 OA
ENDROOT
BRANCH   1   3
ATOM      3  C   UNL A   1      32.956  26.695  25.400  1.00  0.00     0.198 C 
ATOM      4  N   UNL A   1      32.461  26.884  24.046  1.00  0.00    -0.321 N 
ATOM      5  C   UNL A   1      33.138  25.928  23.188  1.00  0.00     0.152 C 
ATOM      6  C   UNL A   1      33.329  24.694  24.054  1.00  0.00     0.140 C 
ATOM      7  C   UNL A   1      33.483  25.249  25.467  1.00  0.00     0.071 C 
BRANCH   4   8
ATOM      8  C   UNL A   1      32.281  28.183  23.585  1.00  0.00     0.278 C 
ATOM      9  O   UNL A   1      33.058  29.098  23.840  1.00  0.00    -0.268 OA
BRANCH   8  10
ATOM     10  C   UNL A   1      31.064  28.331  22.661  1.00  0.00     0.362 C 
BRANCH  10  11
ATOM     11  N   UNL A   1      30.996  29.670  22.031  1.00  0.00    -0.337 N 
ATOM     12  H   UNL A   1      31.558  30.323  22.578  1.00  0.00     0.346 HD
ATOM     13  H   UNL A   1      31.355  29.595  21.079  1.00  0.00     0.346 HD
BRANCH  11  14
ATOM     14  C   UNL A   1      29.612  30.163  21.971  1.00  0.00     0.289 C 
BRANCH  14  15
ATOM     15  C   UNL A   1      28.622  29.422  22.876  1.00  0.00     0.221 C 
BRANCH  15  16
ATOM     16  O   UNL A   1      27.398  30.138  23.066  1.00  0.00    -0.379 OA
ATOM     17  C   UNL A   1      27.583  31.491  23.450  1.00  0.00     0.195 C 
ENDBRANCH  15  16
ENDBRANCH  14  15
ENDBRANCH  11  14
ENDBRANCH  10  11
ENDBRANCH   8  10
ENDBRANCH   4   8
BRANCH   6  18
ATOM     18  O   UNL A   1      32.279  23.733  23.899  1.00  0.00    -0.380 OA
ATOM     19  C   UNL A   1      31.183  23.803  24.799  1.00  0.00     0.195 C 
ENDBRANCH   6  18
ENDBRANCH   1   3
BRANCH   1  20
ATOM     20  O   UNL A   1      32.375  28.090  27.268  1.00  0.00    -0.461 OA
BRANCH  20  21
ATOM     21  C   UNL A   1      31.784  29.393  27.122  1.00  0.00     0.274 C 
BRANCH  21  22
ATOM     22  C   UNL A   1      32.895  30.441  27.179  1.00  0.00     0.275 C 
BRANCH  22  23
ATOM     23  O   UNL A   1      34.142  29.840  27.588  1.00  0.00    -0.458 OA
BRANCH  23  24
ATOM     24  C   UNL A   1      34.938  30.615  28.358  1.00  0.00     0.338 C 
ATOM     25  O   UNL A   1      34.618  31.594  29.015  1.00  0.00    -0.246 OA
BRANCH  24  26
ATOM     26  C   UNL A   1      36.284  30.035  28.421  1.00  0.00     0.060 A 
ATOM     27  C   UNL A   1      36.730  29.526  29.643  1.00  0.00     0.016 A 
ATOM     28  C   UNL A   1      37.134  30.081  27.318  1.00  0.00     0.016 A 
ATOM     29  C   UNL A   1      38.031  29.057  29.775  1.00  0.00     0.010 A 
ATOM     30  C   UNL A   1      38.442  29.607  27.448  1.00  0.00     0.010 A 
ATOM     31  C   UNL A   1      38.899  29.101  28.679  1.00  0.00    -0.014 A 
BRANCH  31  32
ATOM     32  C   UNL A   1      40.305  28.668  28.838  1.00  0.00     0.031 A 
ATOM     33  C   UNL A   1      41.318  29.625  29.391  1.00  0.00     0.074 A 
ATOM     34  C   UNL A   1      40.661  27.413  28.508  1.00  0.00     0.049 A 
ATOM     35  N   UNL A   1      42.616  29.495  29.483  1.00  0.00    -0.248 NA
ATOM     36  C   UNL A   1      40.800  30.900  29.912  1.00  0.00     0.031 C 
ATOM     37  C   UNL A   1      39.749  26.372  28.033  1.00  0.00     0.029 A 
ATOM     38  N   UNL A   1      41.889  26.804  28.521  1.00  0.00    -0.354 N 
ATOM     39  C   UNL A   1      43.074  30.676  30.052  1.00  0.00     0.074 A 
ATOM     40  C   UNL A   1      41.916  31.516  30.275  1.00  0.00     0.031 C 
ATOM     41  C   UNL A   1      40.450  25.251  27.799  1.00  0.00     0.029 A 
ATOM     42  C   UNL A   1      41.864  25.513  28.054  1.00  0.00     0.049 A 
ATOM     43  H   UNL A   1      42.710  27.249  28.834  1.00  0.00     0.167 HD
ATOM     44  C   UNL A   1      44.345  31.022  30.360  1.00  0.00     0.037 A 
ATOM     45  C   UNL A   1      42.873  24.654  27.824  1.00  0.00     0.037 A 
ATOM     46  C   UNL A   1      45.489  30.177  30.143  1.00  0.00     0.049 A 
ATOM     47  C   UNL A   1      44.285  25.094  28.097  1.00  0.00     0.074 A 
ATOM     48  C   UNL A   1      46.824  30.445  30.390  1.00  0.00     0.029 A 
ATOM     49  N   UNL A   1      45.429  28.890  29.631  1.00  0.00    -0.354 N 
ATOM     50  N   UNL A   1      44.715  26.233  28.584  1.00  0.00    -0.248 NA
ATOM     51  C   UNL A   1      45.350  24.136  27.773  1.00  0.00     0.031 C 
ATOM     52  C   UNL A   1      47.574  29.329  30.002  1.00  0.00     0.029 A 
ATOM     53  C   UNL A   1      46.702  28.353  29.547  1.00  0.00     0.049 A 
ATOM     54  H   UNL A   1      44.602  28.425  29.367  1.00  0.00     0.167 HD
ATOM     55  C   UNL A   1      46.097  26.121  28.647  1.00  0.00     0.074 A 
ATOM     56  C   UNL A   1      46.433  24.798  28.158  1.00  0.00     0.031 C 
ATOM     57  C   UNL A   1      47.008  27.030  29.068  1.00  0.00     0.037 A 
BRANCH  44  58
ATOM     58  C   UNL A   1      44.565  32.388  30.939  1.00  0.00     0.057 A 
ATOM     59  C   UNL A   1      44.662  33.526  30.129  1.00  0.00     0.134 A 
ATOM     60  C   UNL A   1      44.657  32.568  32.325  1.00  0.00     0.134 A 
ATOM     61  F   UNL A   1      44.601  33.418  28.794  1.00  0.00    -0.206 F 
ATOM     62  C   UNL A   1      44.860  34.794  30.678  1.00  0.00     0.040 A 
ATOM     63  C   UNL A   1      44.833  33.834  32.886  1.00  0.00     0.040 A 
ATOM     64  F   UNL A   1      44.570  31.518  33.156  1.00  0.00    -0.206 F 
ATOM     65  C   UNL A   1      44.941  34.951  32.061  1.00  0.00     0.006 A 
ENDBRANCH  44  58
BRANCH  45  66
ATOM     66  C   UNL A   1      42.593  23.304  27.276  1.00  0.00     0.057 A 
ATOM     67  C   UNL A   1      42.259  22.237  28.118  1.00  0.00     0.134 A 
ATOM     68  C   UNL A   1      42.669  23.044  25.903  1.00  0.00     0.134 A 
ATOM     69  F   UNL A   1      42.195  22.420  29.445  1.00  0.00    -0.206 F 
ATOM     70  C   UNL A   1      42.023  20.956  27.615  1.00  0.00     0.040 A 
ATOM     71  C   UNL A   1      42.413  21.774  25.384  1.00  0.00     0.040 A 
ATOM     72  F   UNL A   1      42.986  24.024  25.043  1.00  0.00    -0.206 F 
ATOM     73  C   UNL A   1      42.095  20.723  26.242  1.00  0.00     0.006 A 
ENDBRANCH  45  66
BRANCH  57  74
ATOM     74  C   UNL A   1      48.447  26.609  29.053  1.00  0.00     0.057 A 
ATOM     75  C   UNL A   1      49.009  25.872  30.102  1.00  0.00     0.134 A 
ATOM     76  C   UNL A   1      49.268  26.921  27.962  1.00  0.00     0.134 A 
ATOM     77  F   UNL A   1      48.277  25.556  31.181  1.00  0.00    -0.206 F 
ATOM     78  C   UNL A   1      50.347  25.475  30.076  1.00  0.00     0.040 A 
ATOM     79  C   UNL A   1      50.601  26.513  27.916  1.00  0.00     0.040 A 
ATOM     80  F   UNL A   1      48.785  27.620  26.925  1.00  0.00    -0.206 F 
ATOM     81  C   UNL A   1      51.145  25.792  28.977  1.00  0.00     0.006 A 
ENDBRANCH  57  74
ENDBRANCH  31  32
ENDBRANCH  24  26
ENDBRANCH  23  24
ENDBRANCH  22  23
ENDBRANCH  21  22
ENDBRANCH  20  21
ENDBRANCH   1  20
TORSDOF 18
ENDMDL
MODEL 2
REMARK VINA RESULT:      -9.4      3.727      7.436
REMARK SMILES COCC[NH2+]CC(=O)N1C[C@H](OC)C[C@@H]1C(=O)OCCOC(=O)c1ccc(-c2c3nc(c(-c4c(F)cccc4F)c4ccc([nH]4)c(-c4c(F)cccc4F)c4nc(c(-c5c(F)cccc5F)c5ccc2[nH]5)C=C4)C=C3)cc1
REMARK SMILES IDX 16 1 17 2 15 3 9 4 10 5 11 6 14 7 7 8 8 9 6 10 5 11 4 14
REMARK SMILES IDX 3 15 2 16 1 17 12 18 13 19 18 20 19 21 20 22 21 23 22 24
REMARK SMILES IDX 23 25 24 26 25 27 77 28 26 29 76 30 27 31 28 32 29 33 70 34
REMARK SMILES IDX 30 35 75 36 69 37 71 38 31 39 74 40 68 41 67 42 32 44 58 45
REMARK SMILES IDX 41 46 57 47 42 48 45 49 56 50 72 51 43 52 44 53 55 55 73 56
REMARK SMILES IDX 46 57 33 58 34 59 39 60 35 61 36 62 38 63 40 64 37 65 59 66
REMARK SMILES IDX 60 67 65 68 61 69 62 70 64 71 66 72 63 73 47 74 48 75 53 76
REMARK SMILES IDX 49 77 50 78 52 79 54 80 51 81
REMARK H PARENT 5 12 5 13 71 43 45 54
REMARK Flexibility Score: inf
ROOT
ATOM      1  C   UNL A   1      31.772  27.243  26.321  1.00  0.00     0.329 C 
ATOM      2  O   UNL A   1      31.026  27.410  27.281  1.00  0.00    -0.250 OA
ENDROOT
BRANCH   1   3
ATOM      3  C   UNL A   1      31.999  25.873  25.671  1.00  0.00     0.198 C 
ATOM      4  N   UNL A   1      30.776  25.323  25.107  1.00  0.00    -0.321 N 
ATOM      5  C   UNL A   1      30.891  23.875  25.124  1.00  0.00     0.152 C 
ATOM      6  C   UNL A   1      31.678  23.562  26.385  1.00  0.00     0.140 C 
ATOM      7  C   UNL A   1      32.595  24.769  26.564  1.00  0.00     0.071 C 
BRANCH   4   8
ATOM      8  C   UNL A   1      30.233  25.937  23.984  1.00  0.00     0.278 C 
ATOM      9  O   UNL A   1      29.293  26.724  24.041  1.00  0.00    -0.268 OA
BRANCH   8  10
ATOM     10  C   UNL A   1      30.982  25.594  22.689  1.00  0.00     0.362 C 
BRANCH  10  11
ATOM     11  N   UNL A   1      31.737  26.752  22.155  1.00  0.00    -0.337 N 
ATOM     12  H   UNL A   1      31.277  27.085  21.308  1.00  0.00     0.346 HD
ATOM     13  H   UNL A   1      31.753  27.481  22.868  1.00  0.00     0.346 HD
BRANCH  11  14
ATOM     14  C   UNL A   1      33.124  26.383  21.834  1.00  0.00     0.289 C 
BRANCH  14  15
ATOM     15  C   UNL A   1      33.744  25.332  22.762  1.00  0.00     0.221 C 
BRANCH  15  16
ATOM     16  O   UNL A   1      34.013  24.093  22.099  1.00  0.00    -0.379 OA
ATOM     17  C   UNL A   1      33.816  22.953  22.921  1.00  0.00     0.195 C 
ENDBRANCH  15  16
ENDBRANCH  14  15
ENDBRANCH  11  14
ENDBRANCH  10  11
ENDBRANCH   8  10
ENDBRANCH   4   8
BRANCH   6  18
ATOM     18  O   UNL A   1      30.842  23.273  27.511  1.00  0.00    -0.380 OA
ATOM     19  C   UNL A   1      29.554  22.734  27.253  1.00  0.00     0.195 C 
ENDBRANCH   6  18
ENDBRANCH   1   3
BRANCH   1  20
ATOM     20  O   UNL A   1      32.514  28.219  25.748  1.00  0.00    -0.461 OA
BRANCH  20  21
ATOM     21  C   UNL A   1      31.837  29.141  24.876  1.00  0.00     0.274 C 
BRANCH  21  22
ATOM     22  C   UNL A   1      31.606  30.448  25.633  1.00  0.00     0.275 C 
BRANCH  22  23
ATOM     23  O   UNL A   1      32.336  30.452  26.878  1.00  0.00    -0.458 OA
BRANCH  23  24
ATOM     24  C   UNL A   1      32.977  31.604  27.175  1.00  0.00     0.338 C 
ATOM     25  O   UNL A   1      32.545  32.744  27.085  1.00  0.00    -0.246 OA
BRANCH  24  26
ATOM     26  C   UNL A   1      34.282  31.306  27.774  1.00  0.00     0.060 A 
ATOM     27  C   UNL A   1      34.531  30.002  28.207  1.00  0.00     0.016 A 
ATOM     28  C   UNL A   1      35.214  32.318  27.998  1.00  0.00     0.016 A 
ATOM     29  C   UNL A   1      35.713  29.695  28.869  1.00  0.00     0.010 A 
ATOM     30  C   UNL A   1      36.405  32.011  28.660  1.00  0.00     0.010 A 
ATOM     31  C   UNL A   1      36.657  30.700  29.106  1.00  0.00    -0.014 A 
BRANCH  31  32
ATOM     32  C   UNL A   1      37.884  30.390  29.873  1.00  0.00     0.031 A 
ATOM     33  C   UNL A   1      38.939  29.517  29.262  1.00  0.00     0.074 A 
ATOM     34  C   UNL A   1      38.055  30.910  31.101  1.00  0.00     0.049 A 
ATOM     35  N   UNL A   1      40.016  29.015  29.808  1.00  0.00    -0.248 NA
ATOM     36  C   UNL A   1      38.759  29.165  27.844  1.00  0.00     0.031 C 
ATOM     37  C   UNL A   1      37.132  31.831  31.766  1.00  0.00     0.029 A 
ATOM     38  N   UNL A   1      39.066  30.732  32.010  1.00  0.00    -0.354 N 
ATOM     39  C   UNL A   1      40.632  28.271  28.811  1.00  0.00     0.074 A 
ATOM     40  C   UNL A   1      39.805  28.378  27.629  1.00  0.00     0.031 C 
ATOM     41  C   UNL A   1      37.621  32.138  32.979  1.00  0.00     0.029 A 
ATOM     42  C   UNL A   1      38.858  31.392  33.195  1.00  0.00     0.049 A 
ATOM     43  H   UNL A   1      39.864  30.184  31.830  1.00  0.00     0.167 HD
ATOM     44  C   UNL A   1      41.785  27.566  28.880  1.00  0.00     0.037 A 
ATOM     45  C   UNL A   1      39.568  31.369  34.338  1.00  0.00     0.037 A 
ATOM     46  C   UNL A   1      42.607  27.472  30.058  1.00  0.00     0.049 A 
ATOM     47  C   UNL A   1      40.800  30.510  34.415  1.00  0.00     0.074 A 
ATOM     48  C   UNL A   1      43.778  26.757  30.244  1.00  0.00     0.029 A 
ATOM     49  N   UNL A   1      42.343  28.125  31.253  1.00  0.00    -0.354 N 
ATOM     50  N   UNL A   1      41.347  29.766  33.485  1.00  0.00    -0.248 NA
ATOM     51  C   UNL A   1      41.504  30.478  35.704  1.00  0.00     0.031 C 
ATOM     52  C   UNL A   1      44.208  26.957  31.560  1.00  0.00     0.029 A 
ATOM     53  C   UNL A   1      43.324  27.824  32.183  1.00  0.00     0.049 A 
ATOM     54  H   UNL A   1      41.573  28.716  31.417  1.00  0.00     0.167 HD
ATOM     55  C   UNL A   1      42.470  29.194  34.068  1.00  0.00     0.074 A 
ATOM     56  C   UNL A   1      42.532  29.688  35.429  1.00  0.00     0.031 C 
ATOM     57  C   UNL A   1      43.369  28.337  33.528  1.00  0.00     0.037 A 
BRANCH  44  58
ATOM     58  C   UNL A   1      42.208  26.816  27.653  1.00  0.00     0.057 A 
ATOM     59  C   UNL A   1      42.996  27.409  26.660  1.00  0.00     0.134 A 
ATOM     60  C   UNL A   1      41.839  25.476  27.474  1.00  0.00     0.134 A 
ATOM     61  F   UNL A   1      43.367  28.695  26.763  1.00  0.00    -0.206 F 
ATOM     62  C   UNL A   1      43.391  26.701  25.523  1.00  0.00     0.040 A 
ATOM     63  C   UNL A   1      42.244  24.752  26.352  1.00  0.00     0.040 A 
ATOM     64  F   UNL A   1      41.084  24.849  28.389  1.00  0.00    -0.206 F 
ATOM     65  C   UNL A   1      43.018  25.366  25.370  1.00  0.00     0.006 A 
ENDBRANCH  44  58
BRANCH  45  66
ATOM     66  C   UNL A   1      39.117  32.153  35.513  1.00  0.00     0.057 A 
ATOM     67  C   UNL A   1      38.244  31.602  36.457  1.00  0.00     0.134 A 
ATOM     68  C   UNL A   1      39.532  33.475  35.712  1.00  0.00     0.134 A 
ATOM     69  F   UNL A   1      37.792  30.348  36.308  1.00  0.00    -0.206 F 
ATOM     70  C   UNL A   1      37.789  32.341  37.551  1.00  0.00     0.040 A 
ATOM     71  C   UNL A   1      39.104  34.218  36.812  1.00  0.00     0.040 A 
ATOM     72  F   UNL A   1      40.368  34.061  34.841  1.00  0.00    -0.206 F 
ATOM     73  C   UNL A   1      38.224  33.653  37.733  1.00  0.00     0.006 A 
ENDBRANCH  45  66
BRANCH  57  74
ATOM     74  C   UNL A   1      44.511  27.911  34.400  1.00  0.00     0.057 A 
ATOM     75  C   UNL A   1      44.460  26.736  35.160  1.00  0.00     0.134 A 
ATOM     76  C   UNL A   1      45.685  28.673  34.456  1.00  0.00     0.134 A 
ATOM     77  F   UNL A   1      43.357  25.973  35.158  1.00  0.00    -0.206 F 
ATOM     78  C   UNL A   1      45.532  26.342  35.962  1.00  0.00     0.040 A 
ATOM     79  C   UNL A   1      46.770  28.279  35.240  1.00  0.00     0.040 A 
ATOM     80  F   UNL A   1      45.797  29.806  33.748  1.00  0.00    -0.206 F 
ATOM     81  C   UNL A   1      46.693  27.113  35.999  1.00  0.00     0.006 A 
ENDBRANCH  57  74
ENDBRANCH  31  32
ENDBRANCH  24  26
ENDBRANCH  23  24
ENDBRANCH  22  23
ENDBRANCH  21  22
ENDBRANCH  20  21
ENDBRANCH   1  20
TORSDOF 18
ENDMDL
MODEL 3
REMARK VINA RESULT:      -9.3      3.851      7.886
REMARK SMILES COCC[NH2+]CC(=O)N1C[C@H](OC)C[C@@H]1C(=O)OCCOC(=O)c1ccc(-c2c3nc(c(-c4c(F)cccc4F)c4ccc([nH]4)c(-c4c(F)cccc4F)c4nc(c(-c5c(F)cccc5F)c5ccc2[nH]5)C=C4)C=C3)cc1
REMARK SMILES IDX 16 1 17 2 15 3 9 4 10 5 11 6 14 7 7 8 8 9 6 10 5 11 4 14
REMARK SMILES IDX 3 15 2 16 1 17 12 18 13 19 18 20 19 21 20 22 21 23 22 24
REMARK SMILES IDX 23 25 24 26 25 27 77 28 26 29 76 30 27 31 28 32 29 33 70 34
REMARK SMILES IDX 30 35 75 36 69 37 71 38 31 39 74 40 68 41 67 42 32 44 58 45
REMARK SMILES IDX 41 46 57 47 42 48 45 49 56 50 72 51 43 52 44 53 55 55 73 56
REMARK SMILES IDX 46 57 33 58 34 59 39 60 35 61 36 62 38 63 40 64 37 65 59 66
REMARK SMILES IDX 60 67 65 68 61 69 62 70 64 71 66 72 63 73 47 74 48 75 53 76
REMARK SMILES IDX 49 77 50 78 52 79 54 80 51 81
REMARK H PARENT 5 12 5 13 71 43 45 54
REMARK Flexibility Score: inf
ROOT
ATOM      1  C   UNL A   1      31.053  26.822  25.956  1.00  0.00     0.329 C 
ATOM      2  O   UNL A   1      30.899  27.042  27.153  1.00  0.00    -0.250 OA
ENDROOT
BRANCH   1   3
ATOM      3  C   UNL A   1      30.395  25.639  25.235  1.00  0.00     0.198 C 
ATOM      4  N   UNL A   1      31.181  24.420  25.350  1.00  0.00    -0.321 N 
ATOM      5  C   UNL A   1      30.897  23.597  24.188  1.00  0.00     0.152 C 
ATOM      6  C   UNL A   1      30.685  24.586  23.054  1.00  0.00     0.140 C 
ATOM      7  C   UNL A   1      30.096  25.818  23.735  1.00  0.00     0.071 C 
BRANCH   4   8
ATOM      8  C   UNL A   1      31.271  23.809  26.595  1.00  0.00     0.278 C 
ATOM      9  O   UNL A   1      30.294  23.583  27.302  1.00  0.00    -0.268 OA
BRANCH   8  10
ATOM     10  C   UNL A   1      32.700  23.372  26.950  1.00  0.00     0.362 C 
BRANCH  10  11
ATOM     11  N   UNL A   1      32.759  21.965  27.408  1.00  0.00    -0.337 N 
ATOM     12  H   UNL A   1      33.098  21.943  28.370  1.00  0.00     0.346 HD
ATOM     13  H   UNL A   1      31.822  21.567  27.346  1.00  0.00     0.346 HD
BRANCH  11  14
ATOM     14  C   UNL A   1      33.660  21.166  26.563  1.00  0.00     0.289 C 
BRANCH  14  15
ATOM     15  C   UNL A   1      35.027  21.804  26.292  1.00  0.00     0.221 C 
BRANCH  15  16
ATOM     16  O   UNL A   1      35.558  21.458  25.010  1.00  0.00    -0.379 OA
ATOM     17  C   UNL A   1      35.107  22.300  23.960  1.00  0.00     0.195 C 
ENDBRANCH  15  16
ENDBRANCH  14  15
ENDBRANCH  11  14
ENDBRANCH  10  11
ENDBRANCH   8  10
ENDBRANCH   4   8
BRANCH   6  18
ATOM     18  O   UNL A   1      31.875  24.831  22.295  1.00  0.00    -0.380 OA
ATOM     19  C   UNL A   1      31.972  26.068  21.604  1.00  0.00     0.195 C 
ENDBRANCH   6  18
ENDBRANCH   1   3
BRANCH   1  20
ATOM     20  O   UNL A   1      31.845  27.553  25.138  1.00  0.00    -0.461 OA
BRANCH  20  21
ATOM     21  C   UNL A   1      31.461  28.916  24.887  1.00  0.00     0.274 C 
BRANCH  21  22
ATOM     22  C   UNL A   1      32.580  29.836  25.372  1.00  0.00     0.275 C 
BRANCH  22  23
ATOM     23  O   UNL A   1      32.339  30.259  26.731  1.00  0.00    -0.458 OA
BRANCH  23  24
ATOM     24  C   UNL A   1      32.919  31.426  27.089  1.00  0.00     0.338 C 
ATOM     25  O   UNL A   1      32.434  32.547  27.043  1.00  0.00    -0.246 OA
BRANCH  24  26
ATOM     26  C   UNL A   1      34.228  31.163  27.697  1.00  0.00     0.060 A 
ATOM     27  C   UNL A   1      34.530  29.854  28.081  1.00  0.00     0.016 A 
ATOM     28  C   UNL A   1      35.109  32.206  27.978  1.00  0.00     0.016 A 
ATOM     29  C   UNL A   1      35.715  29.574  28.749  1.00  0.00     0.010 A 
ATOM     30  C   UNL A   1      36.303  31.926  28.646  1.00  0.00     0.010 A 
ATOM     31  C   UNL A   1      36.608  30.610  29.042  1.00  0.00    -0.014 A 
BRANCH  31  32
ATOM     32  C   UNL A   1      37.837  30.324  29.816  1.00  0.00     0.031 A 
ATOM     33  C   UNL A   1      38.910  29.467  29.214  1.00  0.00     0.074 A 
ATOM     34  C   UNL A   1      37.994  30.853  31.043  1.00  0.00     0.049 A 
ATOM     35  N   UNL A   1      39.992  28.986  29.768  1.00  0.00    -0.248 NA
ATOM     36  C   UNL A   1      38.742  29.104  27.798  1.00  0.00     0.031 C 
ATOM     37  C   UNL A   1      37.053  31.762  31.700  1.00  0.00     0.029 A 
ATOM     38  N   UNL A   1      39.004  30.697  31.957  1.00  0.00    -0.354 N 
ATOM     39  C   UNL A   1      40.626  28.248  28.777  1.00  0.00     0.074 A 
ATOM     40  C   UNL A   1      39.801  28.335  27.590  1.00  0.00     0.031 C 
ATOM     41  C   UNL A   1      37.531  32.083  32.913  1.00  0.00     0.029 A 
ATOM     42  C   UNL A   1      38.780  31.360  33.138  1.00  0.00     0.049 A 
ATOM     43  H   UNL A   1      39.812  30.161  31.783  1.00  0.00     0.167 HD
ATOM     44  C   UNL A   1      41.790  27.562  28.855  1.00  0.00     0.037 A 
ATOM     45  C   UNL A   1      39.485  31.353  34.284  1.00  0.00     0.037 A 
ATOM     46  C   UNL A   1      42.608  27.488  30.037  1.00  0.00     0.049 A 
ATOM     47  C   UNL A   1      40.731  30.516  34.370  1.00  0.00     0.074 A 
ATOM     48  C   UNL A   1      43.789  26.794  30.231  1.00  0.00     0.029 A 
ATOM     49  N   UNL A   1      42.328  28.142  31.227  1.00  0.00    -0.354 N 
ATOM     50  N   UNL A   1      41.295  29.776  33.446  1.00  0.00    -0.248 NA
ATOM     51  C   UNL A   1      41.429  30.502  35.662  1.00  0.00     0.031 C 
ATOM     52  C   UNL A   1      44.210  27.007  31.548  1.00  0.00     0.029 A 
ATOM     53  C   UNL A   1      43.309  27.862  32.163  1.00  0.00     0.049 A 
ATOM     54  H   UNL A   1      41.547  28.720  31.384  1.00  0.00     0.167 HD
ATOM     55  C   UNL A   1      42.425  29.227  34.037  1.00  0.00     0.074 A 
ATOM     56  C   UNL A   1      42.472  29.728  35.396  1.00  0.00     0.031 C 
ATOM     57  C   UNL A   1      43.340  28.382  33.505  1.00  0.00     0.037 A 
BRANCH  44  58
ATOM     58  C   UNL A   1      42.230  26.814  27.632  1.00  0.00     0.057 A 
ATOM     59  C   UNL A   1      43.011  27.416  26.639  1.00  0.00     0.134 A 
ATOM     60  C   UNL A   1      41.887  25.466  27.460  1.00  0.00     0.134 A 
ATOM     61  F   UNL A   1      43.357  28.709  26.736  1.00  0.00    -0.206 F 
ATOM     62  C   UNL A   1      43.422  26.709  25.507  1.00  0.00     0.040 A 
ATOM     63  C   UNL A   1      42.310  24.744  26.344  1.00  0.00     0.040 A 
ATOM     64  F   UNL A   1      41.142  24.830  28.376  1.00  0.00    -0.206 F 
ATOM     65  C   UNL A   1      43.075  25.367  25.360  1.00  0.00     0.006 A 
ENDBRANCH  44  58
BRANCH  45  66
ATOM     66  C   UNL A   1      39.015  32.136  35.453  1.00  0.00     0.057 A 
ATOM     67  C   UNL A   1      39.370  33.480  35.613  1.00  0.00     0.134 A 
ATOM     68  C   UNL A   1      38.216  31.557  36.445  1.00  0.00     0.134 A 
ATOM     69  F   UNL A   1      40.154  34.083  34.707  1.00  0.00    -0.206 F 
ATOM     70  C   UNL A   1      38.957  34.217  36.725  1.00  0.00     0.040 A 
ATOM     71  C   UNL A   1      37.778  32.287  37.550  1.00  0.00     0.040 A 
ATOM     72  F   UNL A   1      37.843  30.271  36.351  1.00  0.00    -0.206 F 
ATOM     73  C   UNL A   1      38.154  33.621  37.695  1.00  0.00     0.006 A 
ENDBRANCH  45  66
BRANCH  57  74
ATOM     74  C   UNL A   1      44.486  27.980  34.384  1.00  0.00     0.057 A 
ATOM     75  C   UNL A   1      45.661  28.737  34.454  1.00  0.00     0.134 A 
ATOM     76  C   UNL A   1      44.398  26.836  35.188  1.00  0.00     0.134 A 
ATOM     77  F   UNL A   1      45.810  29.834  33.697  1.00  0.00    -0.206 F 
ATOM     78  C   UNL A   1      46.719  28.360  35.283  1.00  0.00     0.040 A 
ATOM     79  C   UNL A   1      45.441  26.461  36.034  1.00  0.00     0.040 A 
ATOM     80  F   UNL A   1      43.296  26.072  35.167  1.00  0.00    -0.206 F 
ATOM     81  C   UNL A   1      46.607  27.222  36.079  1.00  0.00     0.006 A 
ENDBRANCH  57  74
ENDBRANCH  31  32
ENDBRANCH  24  26
ENDBRANCH  23  24
ENDBRANCH  22  23
ENDBRANCH  21  22
ENDBRANCH  20  21
ENDBRANCH   1  20
TORSDOF 18
ENDMDL
