MODEL 1
REMARK VINA RESULT:     -10.6      0.000      0.000
REMARK SMILES CC(C)(C[NH2+]Cc1ccc2c(c1)OCO2)C(=O)OCCOC(=O)c1ccc(-c2c3nc(c(-c4c(F)cccc4F)c4ccc([nH]4)c(-c4c(F)cccc4F)c4nc(c(-c5c(F)cccc5F)c5ccc2[nH]5)C=C4)C=C3)cc1
REMARK SMILES IDX 19 1 18 2 16 3 17 4 2 5 1 6 3 7 4 8 5 9 6 12 7 13 8 14 12 15
REMARK SMILES IDX 9 16 11 17 10 18 13 19 15 20 14 21 20 22 21 23 22 24 23 25
REMARK SMILES IDX 24 26 25 27 77 28 26 29 76 30 27 31 28 32 29 33 70 34 30 35
REMARK SMILES IDX 75 36 69 37 71 38 31 39 74 40 68 41 67 42 32 44 58 45 41 46
REMARK SMILES IDX 57 47 42 48 45 49 56 50 72 51 43 52 44 53 55 55 73 56 46 57
REMARK SMILES IDX 33 58 34 59 39 60 35 61 36 62 38 63 40 64 37 65 59 66 60 67
REMARK SMILES IDX 65 68 61 69 62 70 64 71 66 72 63 73 47 74 48 75 53 76 49 77
REMARK SMILES IDX 50 78 52 79 54 80 51 81
REMARK H PARENT 5 10 5 11 71 43 45 54
REMARK Flexibility Score: inf
ROOT
ATOM      1  C   UNL A   1      33.508  36.397  28.761  1.00  0.00     0.274 C 
ENDROOT
BRANCH   1   2
ATOM      2  O   UNL A   1      34.145  35.125  28.992  1.00  0.00    -0.461 OA
BRANCH   2   3
ATOM      3  C   UNL A   1      33.580  34.048  28.382  1.00  0.00     0.317 C 
ATOM      4  O   UNL A   1      32.455  34.046  27.893  1.00  0.00    -0.251 OA
BRANCH   3   5
ATOM      5  C   UNL A   1      34.454  32.796  28.470  1.00  0.00     0.111 C 
ATOM      6  C   UNL A   1      34.570  32.342  29.941  1.00  0.00     0.029 C 
ATOM      7  C   UNL A   1      35.856  33.242  28.015  1.00  0.00     0.029 C 
BRANCH   5   8
ATOM      8  C   UNL A   1      33.975  31.638  27.550  1.00  0.00     0.279 C 
BRANCH   8   9
ATOM      9  N   UNL A   1      34.014  30.296  28.149  1.00  0.00    -0.342 N 
ATOM     10  H   UNL A   1      33.109  30.106  28.580  1.00  0.00     0.346 HD
ATOM     11  H   UNL A   1      34.769  30.288  28.833  1.00  0.00     0.346 HD
BRANCH   9  12
ATOM     12  C   UNL A   1      34.296  29.241  27.165  1.00  0.00     0.297 C 
BRANCH  12  13
ATOM     13  C   UNL A   1      33.092  28.648  26.443  1.00  0.00     0.010 A 
ATOM     14  C   UNL A   1      32.262  27.640  26.992  1.00  0.00     0.013 A 
ATOM     15  C   UNL A   1      32.808  29.107  25.142  1.00  0.00     0.060 A 
ATOM     16  C   UNL A   1      31.203  27.078  26.270  1.00  0.00     0.051 A 
ATOM     17  C   UNL A   1      31.748  28.545  24.455  1.00  0.00     0.166 A 
ATOM     18  C   UNL A   1      30.974  27.552  25.003  1.00  0.00     0.165 A 
ATOM     19  O   UNL A   1      31.349  28.874  23.197  1.00  0.00    -0.454 OA
ATOM     20  O   UNL A   1      29.997  27.123  24.162  1.00  0.00    -0.454 OA
ATOM     21  C   UNL A   1      30.240  27.966  23.018  1.00  0.00     0.468 C 
ENDBRANCH  12  13
ENDBRANCH   9  12
ENDBRANCH   8   9
ENDBRANCH   5   8
ENDBRANCH   3   5
ENDBRANCH   2   3
ENDBRANCH   1   2
BRANCH   1  22
ATOM     22  C   UNL A   1      33.136  37.043  30.093  1.00  0.00     0.275 C 
BRANCH  22  23
ATOM     23  O   UNL A   1      32.453  36.073  30.901  1.00  0.00    -0.458 OA
BRANCH  23  24
ATOM     24  C   UNL A   1      32.657  36.158  32.232  1.00  0.00     0.338 C 
ATOM     25  O   UNL A   1      32.083  36.898  33.021  1.00  0.00    -0.246 OA
BRANCH  24  26
ATOM     26  C   UNL A   1      33.759  35.254  32.614  1.00  0.00     0.060 A 
ATOM     27  C   UNL A   1      33.508  33.972  33.113  1.00  0.00     0.016 A 
ATOM     28  C   UNL A   1      35.071  35.706  32.499  1.00  0.00     0.016 A 
ATOM     29  C   UNL A   1      34.559  33.158  33.537  1.00  0.00     0.010 A 
ATOM     30  C   UNL A   1      36.127  34.861  32.846  1.00  0.00     0.010 A 
ATOM     31  C   UNL A   1      35.884  33.584  33.384  1.00  0.00    -0.014 A 
BRANCH  31  32
ATOM     32  C   UNL A   1      37.034  32.727  33.781  1.00  0.00     0.031 A 
ATOM     33  C   UNL A   1      37.713  32.962  35.101  1.00  0.00     0.074 A 
ATOM     34  C   UNL A   1      37.516  31.787  32.944  1.00  0.00     0.049 A 
ATOM     35  N   UNL A   1      38.886  32.557  35.517  1.00  0.00    -0.248 NA
ATOM     36  C   UNL A   1      36.978  33.782  36.078  1.00  0.00     0.031 C 
ATOM     37  C   UNL A   1      36.932  31.412  31.656  1.00  0.00     0.029 A 
ATOM     38  N   UNL A   1      38.631  30.990  33.048  1.00  0.00    -0.354 N 
ATOM     39  C   UNL A   1      39.057  33.126  36.773  1.00  0.00     0.074 A 
ATOM     40  C   UNL A   1      37.865  33.897  37.055  1.00  0.00     0.031 C 
ATOM     41  C   UNL A   1      37.689  30.458  31.091  1.00  0.00     0.029 A 
ATOM     42  C   UNL A   1      38.854  30.216  31.935  1.00  0.00     0.049 A 
ATOM     43  H   UNL A   1      39.212  30.974  33.842  1.00  0.00     0.167 HD
ATOM     44  C   UNL A   1      40.118  33.017  37.609  1.00  0.00     0.037 A 
ATOM     45  C   UNL A   1      39.906  29.445  31.599  1.00  0.00     0.037 A 
ATOM     46  C   UNL A   1      41.277  32.206  37.344  1.00  0.00     0.049 A 
ATOM     47  C   UNL A   1      41.087  29.367  32.523  1.00  0.00     0.074 A 
ATOM     48  C   UNL A   1      42.395  32.013  38.137  1.00  0.00     0.029 A 
ATOM     49  N   UNL A   1      41.459  31.441  36.202  1.00  0.00    -0.354 N 
ATOM     50  N   UNL A   1      41.270  29.952  33.681  1.00  0.00    -0.248 NA
ATOM     51  C   UNL A   1      42.220  28.542  32.081  1.00  0.00     0.031 C 
ATOM     52  C   UNL A   1      43.268  31.153  37.460  1.00  0.00     0.029 A 
ATOM     53  C   UNL A   1      42.676  30.782  36.264  1.00  0.00     0.049 A 
ATOM     54  H   UNL A   1      40.818  31.376  35.458  1.00  0.00     0.167 HD
ATOM     55  C   UNL A   1      42.527  29.554  34.115  1.00  0.00     0.074 A 
ATOM     56  C   UNL A   1      43.059  28.668  33.101  1.00  0.00     0.031 C 
ATOM     57  C   UNL A   1      43.184  29.895  35.250  1.00  0.00     0.037 A 
BRANCH  44  58
ATOM     58  C   UNL A   1      40.088  33.821  38.874  1.00  0.00     0.057 A 
ATOM     59  C   UNL A   1      40.709  35.071  38.979  1.00  0.00     0.134 A 
ATOM     60  C   UNL A   1      39.395  33.347  39.997  1.00  0.00     0.134 A 
ATOM     61  F   UNL A   1      41.400  35.575  37.945  1.00  0.00    -0.206 F 
ATOM     62  C   UNL A   1      40.660  35.813  40.161  1.00  0.00     0.040 A 
ATOM     63  C   UNL A   1      39.319  34.090  41.176  1.00  0.00     0.040 A 
ATOM     64  F   UNL A   1      38.773  32.159  39.963  1.00  0.00    -0.206 F 
ATOM     65  C   UNL A   1      39.958  35.325  41.262  1.00  0.00     0.006 A 
ENDBRANCH  44  58
BRANCH  45  66
ATOM     66  C   UNL A   1      39.909  28.722  30.302  1.00  0.00     0.057 A 
ATOM     67  C   UNL A   1      39.291  27.474  30.170  1.00  0.00     0.134 A 
ATOM     68  C   UNL A   1      40.521  29.264  29.164  1.00  0.00     0.134 A 
ATOM     69  F   UNL A   1      38.710  26.894  31.231  1.00  0.00    -0.206 F 
ATOM     70  C   UNL A   1      39.285  26.787  28.956  1.00  0.00     0.040 A 
ATOM     71  C   UNL A   1      40.500  28.600  27.937  1.00  0.00     0.040 A 
ATOM     72  F   UNL A   1      41.130  30.457  29.226  1.00  0.00    -0.206 F 
ATOM     73  C   UNL A   1      39.884  27.353  27.833  1.00  0.00     0.006 A 
ENDBRANCH  45  66
BRANCH  57  74
ATOM     74  C   UNL A   1      44.531  29.279  35.472  1.00  0.00     0.057 A 
ATOM     75  C   UNL A   1      44.679  28.044  36.115  1.00  0.00     0.134 A 
ATOM     76  C   UNL A   1      45.688  29.911  35.001  1.00  0.00     0.134 A 
ATOM     77  F   UNL A   1      43.609  27.398  36.601  1.00  0.00    -0.206 F 
ATOM     78  C   UNL A   1      45.937  27.465  36.295  1.00  0.00     0.040 A 
ATOM     79  C   UNL A   1      46.948  29.332  35.157  1.00  0.00     0.040 A 
ATOM     80  F   UNL A   1      45.610  31.094  34.372  1.00  0.00    -0.206 F 
ATOM     81  C   UNL A   1      47.075  28.108  35.808  1.00  0.00     0.006 A 
ENDBRANCH  57  74
ENDBRANCH  31  32
ENDBRANCH  24  26
ENDBRANCH  23  24
ENDBRANCH  22  23
ENDBRANCH   1  22
TORSDOF 15
ENDMDL
MODEL 2
REMARK VINA RESULT:     -10.4      3.248      6.479
REMARK SMILES CC(C)(C[NH2+]Cc1ccc2c(c1)OCO2)C(=O)OCCOC(=O)c1ccc(-c2c3nc(c(-c4c(F)cccc4F)c4ccc([nH]4)c(-c4c(F)cccc4F)c4nc(c(-c5c(F)cccc5F)c5ccc2[nH]5)C=C4)C=C3)cc1
REMARK SMILES IDX 19 1 18 2 16 3 17 4 2 5 1 6 3 7 4 8 5 9 6 12 7 13 8 14 12 15
REMARK SMILES IDX 9 16 11 17 10 18 13 19 15 20 14 21 20 22 21 23 22 24 23 25
REMARK SMILES IDX 24 26 25 27 77 28 26 29 76 30 27 31 28 32 29 33 70 34 30 35
REMARK SMILES IDX 75 36 69 37 71 38 31 39 74 40 68 41 67 42 32 44 58 45 41 46
REMARK SMILES IDX 57 47 42 48 45 49 56 50 72 51 43 52 44 53 55 55 73 56 46 57
REMARK SMILES IDX 33 58 34 59 39 60 35 61 36 62 38 63 40 64 37 65 59 66 60 67
REMARK SMILES IDX 65 68 61 69 62 70 64 71 66 72 63 73 47 74 48 75 53 76 49 77
REMARK SMILES IDX 50 78 52 79 54 80 51 81
REMARK H PARENT 5 10 5 11 71 43 45 54
REMARK Flexibility Score: inf
ROOT
ATOM      1  C   UNL A   1      33.988  34.755  28.610  1.00  0.00     0.274 C 
ENDROOT
BRANCH   1   2
ATOM      2  O   UNL A   1      33.691  34.823  30.019  1.00  0.00    -0.461 OA
BRANCH   2   3
ATOM      3  C   UNL A   1      33.203  36.008  30.476  1.00  0.00     0.317 C 
ATOM      4  O   UNL A   1      32.908  36.955  29.755  1.00  0.00    -0.251 OA
BRANCH   3   5
ATOM      5  C   UNL A   1      33.166  36.080  32.004  1.00  0.00     0.111 C 
ATOM      6  C   UNL A   1      31.709  35.953  32.498  1.00  0.00     0.029 C 
ATOM      7  C   UNL A   1      33.650  37.498  32.360  1.00  0.00     0.029 C 
BRANCH   5   8
ATOM      8  C   UNL A   1      34.098  35.045  32.696  1.00  0.00     0.279 C 
BRANCH   8   9
ATOM      9  N   UNL A   1      33.697  33.638  32.555  1.00  0.00    -0.342 N 
ATOM     10  H   UNL A   1      33.335  33.496  31.612  1.00  0.00     0.346 HD
ATOM     11  H   UNL A   1      32.990  33.449  33.266  1.00  0.00     0.346 HD
BRANCH   9  12
ATOM     12  C   UNL A   1      34.809  32.703  32.778  1.00  0.00     0.297 C 
BRANCH  12  13
ATOM     13  C   UNL A   1      36.190  33.179  32.344  1.00  0.00     0.010 A 
ATOM     14  C   UNL A   1      37.190  33.623  33.245  1.00  0.00     0.013 A 
ATOM     15  C   UNL A   1      36.477  33.212  30.965  1.00  0.00     0.060 A 
ATOM     16  C   UNL A   1      38.422  34.112  32.800  1.00  0.00     0.051 A 
ATOM     17  C   UNL A   1      37.708  33.686  30.553  1.00  0.00     0.166 A 
ATOM     18  C   UNL A   1      38.650  34.132  31.447  1.00  0.00     0.165 A 
ATOM     19  O   UNL A   1      38.134  33.785  29.265  1.00  0.00    -0.454 OA
ATOM     20  O   UNL A   1      39.782  34.574  30.841  1.00  0.00    -0.454 OA
ATOM     21  C   UNL A   1      39.449  34.350  29.456  1.00  0.00     0.468 C 
ENDBRANCH  12  13
ENDBRANCH   9  12
ENDBRANCH   8   9
ENDBRANCH   5   8
ENDBRANCH   3   5
ENDBRANCH   2   3
ENDBRANCH   1   2
BRANCH   1  22
ATOM     22  C   UNL A   1      33.531  33.412  28.046  1.00  0.00     0.275 C 
BRANCH  22  23
ATOM     23  O   UNL A   1      34.689  32.662  27.648  1.00  0.00    -0.458 OA
BRANCH  23  24
ATOM     24  C   UNL A   1      34.557  31.319  27.650  1.00  0.00     0.338 C 
ATOM     25  O   UNL A   1      33.577  30.672  27.304  1.00  0.00    -0.246 OA
BRANCH  24  26
ATOM     26  C   UNL A   1      35.777  30.712  28.217  1.00  0.00     0.060 A 
ATOM     27  C   UNL A   1      37.029  30.909  27.628  1.00  0.00     0.016 A 
ATOM     28  C   UNL A   1      35.664  29.905  29.347  1.00  0.00     0.016 A 
ATOM     29  C   UNL A   1      38.160  30.269  28.135  1.00  0.00     0.010 A 
ATOM     30  C   UNL A   1      36.808  29.331  29.904  1.00  0.00     0.010 A 
ATOM     31  C   UNL A   1      38.068  29.493  29.297  1.00  0.00    -0.014 A 
BRANCH  31  32
ATOM     32  C   UNL A   1      39.258  28.832  29.895  1.00  0.00     0.031 A 
ATOM     33  C   UNL A   1      39.881  29.407  31.136  1.00  0.00     0.074 A 
ATOM     34  C   UNL A   1      39.826  27.763  29.301  1.00  0.00     0.049 A 
ATOM     35  N   UNL A   1      41.065  29.190  31.650  1.00  0.00    -0.248 NA
ATOM     36  C   UNL A   1      39.066  30.373  31.889  1.00  0.00     0.031 C 
ATOM     37  C   UNL A   1      39.306  27.065  28.124  1.00  0.00     0.029 A 
ATOM     38  N   UNL A   1      40.987  27.090  29.600  1.00  0.00    -0.354 N 
ATOM     39  C   UNL A   1      41.162  30.040  32.745  1.00  0.00     0.074 A 
ATOM     40  C   UNL A   1      39.914  30.769  32.827  1.00  0.00     0.031 C 
ATOM     41  C   UNL A   1      40.140  26.064  27.803  1.00  0.00     0.029 A 
ATOM     42  C   UNL A   1      41.293  26.102  28.695  1.00  0.00     0.049 A 
ATOM     43  H   UNL A   1      41.544  27.296  30.384  1.00  0.00     0.167 HD
ATOM     44  C   UNL A   1      42.202  30.199  33.598  1.00  0.00     0.037 A 
ATOM     45  C   UNL A   1      42.402  25.351  28.559  1.00  0.00     0.037 A 
ATOM     46  C   UNL A   1      43.420  29.433  33.541  1.00  0.00     0.049 A 
ATOM     47  C   UNL A   1      43.559  25.568  29.492  1.00  0.00     0.074 A 
ATOM     48  C   UNL A   1      44.524  29.503  34.372  1.00  0.00     0.029 A 
ATOM     49  N   UNL A   1      43.685  28.442  32.606  1.00  0.00    -0.354 N 
ATOM     50  N   UNL A   1      43.668  26.412  30.490  1.00  0.00    -0.248 NA
ATOM     51  C   UNL A   1      44.756  24.746  29.267  1.00  0.00     0.031 C 
ATOM     52  C   UNL A   1      45.470  28.576  33.922  1.00  0.00     0.029 A 
ATOM     53  C   UNL A   1      44.940  27.903  32.834  1.00  0.00     0.049 A 
ATOM     54  H   UNL A   1      43.072  28.166  31.888  1.00  0.00     0.167 HD
ATOM     55  C   UNL A   1      44.935  26.212  31.020  1.00  0.00     0.074 A 
ATOM     56  C   UNL A   1      45.554  25.159  30.242  1.00  0.00     0.031 C 
ATOM     57  C   UNL A   1      45.534  26.847  32.056  1.00  0.00     0.037 A 
BRANCH  44  58
ATOM     58  C   UNL A   1      42.083  31.264  34.646  1.00  0.00     0.057 A 
ATOM     59  C   UNL A   1      41.596  30.998  35.931  1.00  0.00     0.134 A 
ATOM     60  C   UNL A   1      42.497  32.575  34.371  1.00  0.00     0.134 A 
ATOM     61  F   UNL A   1      41.170  29.767  36.253  1.00  0.00    -0.206 F 
ATOM     62  C   UNL A   1      41.504  31.999  36.898  1.00  0.00     0.040 A 
ATOM     63  C   UNL A   1      42.433  33.580  35.337  1.00  0.00     0.040 A 
ATOM     64  F   UNL A   1      42.979  32.898  33.161  1.00  0.00    -0.206 F 
ATOM     65  C   UNL A   1      41.930  33.294  36.605  1.00  0.00     0.006 A 
ENDBRANCH  44  58
BRANCH  45  66
ATOM     66  C   UNL A   1      42.491  24.355  27.461  1.00  0.00     0.057 A 
ATOM     67  C   UNL A   1      42.089  23.029  27.656  1.00  0.00     0.134 A 
ATOM     68  C   UNL A   1      42.971  24.706  26.193  1.00  0.00     0.134 A 
ATOM     69  F   UNL A   1      41.645  22.629  28.856  1.00  0.00    -0.206 F 
ATOM     70  C   UNL A   1      42.165  22.086  26.631  1.00  0.00     0.040 A 
ATOM     71  C   UNL A   1      43.028  23.779  25.152  1.00  0.00     0.040 A 
ATOM     72  F   UNL A   1      43.371  25.961  25.943  1.00  0.00    -0.206 F 
ATOM     73  C   UNL A   1      42.629  22.461  25.372  1.00  0.00     0.006 A 
ENDBRANCH  45  66
BRANCH  57  74
ATOM     74  C   UNL A   1      46.912  26.394  32.432  1.00  0.00     0.057 A 
ATOM     75  C   UNL A   1      47.121  25.347  33.337  1.00  0.00     0.134 A 
ATOM     76  C   UNL A   1      48.039  26.987  31.850  1.00  0.00     0.134 A 
ATOM     77  F   UNL A   1      46.082  24.749  33.939  1.00  0.00    -0.206 F 
ATOM     78  C   UNL A   1      48.409  24.914  33.662  1.00  0.00     0.040 A 
ATOM     79  C   UNL A   1      49.329  26.549  32.150  1.00  0.00     0.040 A 
ATOM     80  F   UNL A   1      47.902  27.991  30.970  1.00  0.00    -0.206 F 
ATOM     81  C   UNL A   1      49.516  25.512  33.061  1.00  0.00     0.006 A 
ENDBRANCH  57  74
ENDBRANCH  31  32
ENDBRANCH  24  26
ENDBRANCH  23  24
ENDBRANCH  22  23
ENDBRANCH   1  22
TORSDOF 15
ENDMDL
MODEL 3
REMARK VINA RESULT:     -10.3      4.506      9.558
REMARK SMILES CC(C)(C[NH2+]Cc1ccc2c(c1)OCO2)C(=O)OCCOC(=O)c1ccc(-c2c3nc(c(-c4c(F)cccc4F)c4ccc([nH]4)c(-c4c(F)cccc4F)c4nc(c(-c5c(F)cccc5F)c5ccc2[nH]5)C=C4)C=C3)cc1
REMARK SMILES IDX 19 1 18 2 16 3 17 4 2 5 1 6 3 7 4 8 5 9 6 12 7 13 8 14 12 15
REMARK SMILES IDX 9 16 11 17 10 18 13 19 15 20 14 21 20 22 21 23 22 24 23 25
REMARK SMILES IDX 24 26 25 27 77 28 26 29 76 30 27 31 28 32 29 33 70 34 30 35
REMARK SMILES IDX 75 36 69 37 71 38 31 39 74 40 68 41 67 42 32 44 58 45 41 46
REMARK SMILES IDX 57 47 42 48 45 49 56 50 72 51 43 52 44 53 55 55 73 56 46 57
REMARK SMILES IDX 33 58 34 59 39 60 35 61 36 62 38 63 40 64 37 65 59 66 60 67
REMARK SMILES IDX 65 68 61 69 62 70 64 71 66 72 63 73 47 74 48 75 53 76 49 77
REMARK SMILES IDX 50 78 52 79 54 80 51 81
REMARK H PARENT 5 10 5 11 71 43 45 54
REMARK Flexibility Score: inf
ROOT
ATOM      1  C   UNL A   1      43.723  23.334  24.688  1.00  0.00     0.274 C 
ENDROOT
BRANCH   1   2
ATOM      2  O   UNL A   1      42.390  22.907  25.032  1.00  0.00    -0.461 OA
BRANCH   2   3
ATOM      3  C   UNL A   1      42.296  21.817  25.840  1.00  0.00     0.317 C 
ATOM      4  O   UNL A   1      42.683  20.695  25.530  1.00  0.00    -0.251 OA
BRANCH   3   5
ATOM      5  C   UNL A   1      41.548  22.112  27.142  1.00  0.00     0.111 C 
ATOM      6  C   UNL A   1      42.549  22.562  28.228  1.00  0.00     0.029 C 
ATOM      7  C   UNL A   1      40.959  20.762  27.592  1.00  0.00     0.029 C 
BRANCH   5   8
ATOM      8  C   UNL A   1      40.388  23.133  26.974  1.00  0.00     0.279 C 
BRANCH   8   9
ATOM      9  N   UNL A   1      39.265  22.681  26.140  1.00  0.00    -0.342 N 
ATOM     10  H   UNL A   1      38.910  21.804  26.520  1.00  0.00     0.346 HD
ATOM     11  H   UNL A   1      39.615  22.570  25.189  1.00  0.00     0.346 HD
BRANCH   9  12
ATOM     12  C   UNL A   1      38.162  23.653  26.094  1.00  0.00     0.297 C 
BRANCH  12  13
ATOM     13  C   UNL A   1      36.785  23.098  25.755  1.00  0.00     0.010 A 
ATOM     14  C   UNL A   1      35.595  23.867  25.786  1.00  0.00     0.013 A 
ATOM     15  C   UNL A   1      36.684  21.732  25.422  1.00  0.00     0.060 A 
ATOM     16  C   UNL A   1      34.341  23.301  25.528  1.00  0.00     0.051 A 
ATOM     17  C   UNL A   1      35.436  21.202  25.159  1.00  0.00     0.166 A 
ATOM     18  C   UNL A   1      34.296  21.965  25.219  1.00  0.00     0.165 A 
ATOM     19  O   UNL A   1      35.172  19.909  24.829  1.00  0.00    -0.454 OA
ATOM     20  O   UNL A   1      33.171  21.254  24.945  1.00  0.00    -0.454 OA
ATOM     21  C   UNL A   1      33.734  19.950  24.697  1.00  0.00     0.468 C 
ENDBRANCH  12  13
ENDBRANCH   9  12
ENDBRANCH   8   9
ENDBRANCH   5   8
ENDBRANCH   3   5
ENDBRANCH   2   3
ENDBRANCH   1   2
BRANCH   1  22
ATOM     22  C   UNL A   1      43.895  24.816  25.012  1.00  0.00     0.275 C 
BRANCH  22  23
ATOM     23  O   UNL A   1      42.619  25.357  25.389  1.00  0.00    -0.458 OA
BRANCH  23  24
ATOM     24  C   UNL A   1      42.479  26.693  25.266  1.00  0.00     0.338 C 
ATOM     25  O   UNL A   1      42.710  27.371  24.273  1.00  0.00    -0.246 OA
BRANCH  24  26
ATOM     26  C   UNL A   1      42.062  27.259  26.563  1.00  0.00     0.060 A 
ATOM     27  C   UNL A   1      41.252  26.538  27.445  1.00  0.00     0.016 A 
ATOM     28  C   UNL A   1      42.466  28.551  26.894  1.00  0.00     0.016 A 
ATOM     29  C   UNL A   1      40.808  27.117  28.634  1.00  0.00     0.010 A 
ATOM     30  C   UNL A   1      42.089  29.100  28.122  1.00  0.00     0.010 A 
ATOM     31  C   UNL A   1      41.243  28.397  28.999  1.00  0.00    -0.014 A 
BRANCH  31  32
ATOM     32  C   UNL A   1      40.829  29.030  30.280  1.00  0.00     0.031 A 
ATOM     33  C   UNL A   1      39.660  29.973  30.297  1.00  0.00     0.074 A 
ATOM     34  C   UNL A   1      41.531  28.821  31.412  1.00  0.00     0.049 A 
ATOM     35  N   UNL A   1      39.312  30.852  31.203  1.00  0.00    -0.248 NA
ATOM     36  C   UNL A   1      38.772  29.936  29.124  1.00  0.00     0.031 C 
ATOM     37  C   UNL A   1      42.655  27.896  31.561  1.00  0.00     0.029 A 
ATOM     38  N   UNL A   1      41.410  29.398  32.654  1.00  0.00    -0.354 N 
ATOM     39  C   UNL A   1      38.208  31.514  30.682  1.00  0.00     0.074 A 
ATOM     40  C   UNL A   1      37.938  30.932  29.384  1.00  0.00     0.031 C 
ATOM     41  C   UNL A   1      43.118  27.965  32.818  1.00  0.00     0.029 A 
ATOM     42  C   UNL A   1      42.382  28.998  33.538  1.00  0.00     0.049 A 
ATOM     43  H   UNL A   1      40.698  30.036  32.886  1.00  0.00     0.167 HD
ATOM     44  C   UNL A   1      37.492  32.522  31.235  1.00  0.00     0.037 A 
ATOM     45  C   UNL A   1      42.689  29.450  34.769  1.00  0.00     0.037 A 
ATOM     46  C   UNL A   1      37.735  33.061  32.548  1.00  0.00     0.049 A 
ATOM     47  C   UNL A   1      41.906  30.593  35.350  1.00  0.00     0.074 A 
ATOM     48  C   UNL A   1      37.052  34.068  33.208  1.00  0.00     0.029 A 
ATOM     49  N   UNL A   1      38.732  32.624  33.408  1.00  0.00    -0.354 N 
ATOM     50  N   UNL A   1      40.901  31.255  34.830  1.00  0.00    -0.248 NA
ATOM     51  C   UNL A   1      42.315  31.069  36.679  1.00  0.00     0.031 C 
ATOM     52  C   UNL A   1      37.655  34.260  34.456  1.00  0.00     0.029 A 
ATOM     53  C   UNL A   1      38.688  33.348  34.587  1.00  0.00     0.049 A 
ATOM     54  H   UNL A   1      39.374  31.905  33.208  1.00  0.00     0.167 HD
ATOM     55  C   UNL A   1      40.547  32.211  35.772  1.00  0.00     0.074 A 
ATOM     56  C   UNL A   1      41.437  32.038  36.900  1.00  0.00     0.031 C 
ATOM     57  C   UNL A   1      39.575  33.153  35.705  1.00  0.00     0.037 A 
BRANCH  44  58
ATOM     58  C   UNL A   1      36.399  33.132  30.409  1.00  0.00     0.057 A 
ATOM     59  C   UNL A   1      36.663  34.019  29.359  1.00  0.00     0.134 A 
ATOM     60  C   UNL A   1      35.060  32.794  30.650  1.00  0.00     0.134 A 
ATOM     61  F   UNL A   1      37.922  34.393  29.087  1.00  0.00    -0.206 F 
ATOM     62  C   UNL A   1      35.634  34.566  28.591  1.00  0.00     0.040 A 
ATOM     63  C   UNL A   1      34.024  33.316  29.873  1.00  0.00     0.040 A 
ATOM     64  F   UNL A   1      34.737  31.945  31.637  1.00  0.00    -0.206 F 
ATOM     65  C   UNL A   1      34.310  34.210  28.844  1.00  0.00     0.006 A 
ENDBRANCH  44  58
BRANCH  45  66
ATOM     66  C   UNL A   1      43.825  28.852  35.516  1.00  0.00     0.057 A 
ATOM     67  C   UNL A   1      43.623  27.798  36.413  1.00  0.00     0.134 A 
ATOM     68  C   UNL A   1      45.136  29.314  35.344  1.00  0.00     0.134 A 
ATOM     69  F   UNL A   1      42.386  27.331  36.637  1.00  0.00    -0.206 F 
ATOM     70  C   UNL A   1      44.683  27.227  37.118  1.00  0.00     0.040 A 
ATOM     71  C   UNL A   1      46.209  28.735  36.023  1.00  0.00     0.040 A 
ATOM     72  F   UNL A   1      45.395  30.321  34.498  1.00  0.00    -0.206 F 
ATOM     73  C   UNL A   1      45.982  27.690  36.918  1.00  0.00     0.006 A 
ENDBRANCH  45  66
BRANCH  57  74
ATOM     74  C   UNL A   1      39.398  34.039  36.899  1.00  0.00     0.057 A 
ATOM     75  C   UNL A   1      38.669  33.627  38.021  1.00  0.00     0.134 A 
ATOM     76  C   UNL A   1      40.000  35.303  36.942  1.00  0.00     0.134 A 
ATOM     77  F   UNL A   1      38.057  32.433  38.034  1.00  0.00    -0.206 F 
ATOM     78  C   UNL A   1      38.531  34.450  39.140  1.00  0.00     0.040 A 
ATOM     79  C   UNL A   1      39.886  36.125  38.064  1.00  0.00     0.040 A 
ATOM     80  F   UNL A   1      40.717  35.752  35.901  1.00  0.00    -0.206 F 
ATOM     81  C   UNL A   1      39.147  35.701  39.165  1.00  0.00     0.006 A 
ENDBRANCH  57  74
ENDBRANCH  31  32
ENDBRANCH  24  26
ENDBRANCH  23  24
ENDBRANCH  22  23
ENDBRANCH   1  22
TORSDOF 15
ENDMDL
