MODEL 1
REMARK VINA RESULT:     -12.2      0.000      0.000
REMARK SMILES O=C(Nc1ccc(Br)cc1)Nc1ccc(CC(=O)OCCOC(=O)c2ccc(-c3c4nc(c(-c5c(F)cccc5F)c5ccc([nH]5)c(-c5c(F)cccc5F)c5nc(c(-c6c(F)cccc6F)c6ccc3[nH]6)C=C5)C=C4)cc2)cc1
REMARK SMILES IDX 20 1 19 2 17 3 18 4 16 5 15 6 12 7 13 8 80 9 14 10 79 11
REMARK SMILES IDX 11 12 1 13 2 14 3 15 4 18 5 19 10 20 6 21 9 22 7 23 8 24
REMARK SMILES IDX 21 25 22 26 23 27 24 28 25 29 26 30 78 31 27 32 77 33 28 34
REMARK SMILES IDX 29 35 30 36 71 37 31 38 76 39 70 40 72 41 32 42 75 43 69 44
REMARK SMILES IDX 68 45 33 47 59 48 42 49 58 50 43 51 46 52 57 53 73 54 44 55
REMARK SMILES IDX 45 56 56 58 74 59 47 60 34 61 35 62 40 63 36 64 37 65 39 66
REMARK SMILES IDX 41 67 38 68 60 69 61 70 66 71 62 72 63 73 65 74 67 75 64 76
REMARK SMILES IDX 48 77 49 78 54 79 50 80 51 81 53 82 55 83 52 84
REMARK H PARENT 3 16 11 17 72 46 46 57
REMARK Flexibility Score: inf
ROOT
ATOM      1  C   UNL A   1      40.930  20.366  26.135  1.00  0.00     0.274 C 
ENDROOT
BRANCH   1   2
ATOM      2  O   UNL A   1      39.862  20.999  26.865  1.00  0.00    -0.462 OA
BRANCH   2   3
ATOM      3  C   UNL A   1      38.999  21.739  26.122  1.00  0.00     0.310 C 
ATOM      4  O   UNL A   1      38.779  22.935  26.292  1.00  0.00    -0.252 OA
BRANCH   3   5
ATOM      5  C   UNL A   1      38.251  20.939  25.087  1.00  0.00     0.158 C 
BRANCH   5   6
ATOM      6  C   UNL A   1      36.875  21.410  24.685  1.00  0.00    -0.037 A 
ATOM      7  C   UNL A   1      34.302  22.445  24.166  1.00  0.00     0.042 A 
ATOM      8  C   UNL A   1      35.414  22.933  23.475  1.00  0.00     0.026 A 
ATOM      9  C   UNL A   1      34.474  21.406  25.078  1.00  0.00     0.026 A 
ATOM     10  C   UNL A   1      36.693  22.437  23.751  1.00  0.00     0.006 A 
ATOM     11  C   UNL A   1      35.747  20.887  25.330  1.00  0.00     0.006 A 
BRANCH   7  12
ATOM     12  N   UNL A   1      33.055  23.041  23.911  1.00  0.00    -0.308 N 
ATOM     13  O   UNL A   1      32.159  21.572  22.361  1.00  0.00    -0.248 OA
ATOM     14  C   UNL A   1      32.124  22.625  22.992  1.00  0.00     0.323 C 
ATOM     15  N   UNL A   1      30.999  23.406  22.903  1.00  0.00    -0.308 N 
ATOM     16  H   UNL A   1      30.181  22.927  22.641  1.00  0.00     0.171 HD
ATOM     17  H   UNL A   1      32.826  23.837  24.445  1.00  0.00     0.171 HD
BRANCH  15  18
ATOM     18  C   UNL A   1      30.834  24.782  23.127  1.00  0.00     0.042 A 
ATOM     19  C   UNL A   1      30.212  25.291  24.270  1.00  0.00     0.027 A 
ATOM     20  C   UNL A   1      31.396  25.664  22.199  1.00  0.00     0.027 A 
ATOM     21  C   UNL A   1      30.132  26.672  24.475  1.00  0.00     0.018 A 
ATOM     22  C   UNL A   1      31.297  27.046  22.390  1.00  0.00     0.018 A 
ATOM     23  C   UNL A   1      30.669  27.543  23.528  1.00  0.00     0.018 A 
ATOM     24  Br  UNL A   1      30.559  29.408  23.803  1.00  0.00    -0.051 Br
ENDBRANCH  15  18
ENDBRANCH   7  12
ENDBRANCH   5   6
ENDBRANCH   3   5
ENDBRANCH   2   3
ENDBRANCH   1   2
BRANCH   1  25
ATOM     25  C   UNL A   1      42.187  21.234  26.129  1.00  0.00     0.275 C 
BRANCH  25  26
ATOM     26  O   UNL A   1      41.926  22.487  25.475  1.00  0.00    -0.458 OA
BRANCH  26  27
ATOM     27  C   UNL A   1      42.937  23.382  25.496  1.00  0.00     0.338 C 
ATOM     28  O   UNL A   1      44.014  23.315  24.930  1.00  0.00    -0.246 OA
BRANCH  27  29
ATOM     29  C   UNL A   1      42.572  24.506  26.369  1.00  0.00     0.060 A 
ATOM     30  C   UNL A   1      43.159  25.763  26.194  1.00  0.00     0.016 A 
ATOM     31  C   UNL A   1      41.710  24.261  27.436  1.00  0.00     0.016 A 
ATOM     32  C   UNL A   1      42.898  26.782  27.112  1.00  0.00     0.010 A 
ATOM     33  C   UNL A   1      41.420  25.291  28.328  1.00  0.00     0.010 A 
ATOM     34  C   UNL A   1      42.025  26.552  28.184  1.00  0.00    -0.014 A 
BRANCH  34  35
ATOM     35  C   UNL A   1      41.737  27.593  29.199  1.00  0.00     0.031 A 
ATOM     36  C   UNL A   1      42.519  27.610  30.480  1.00  0.00     0.074 A 
ATOM     37  C   UNL A   1      40.728  28.460  29.013  1.00  0.00     0.049 A 
ATOM     38  N   UNL A   1      42.261  28.230  31.602  1.00  0.00    -0.248 NA
ATOM     39  C   UNL A   1      43.753  26.808  30.501  1.00  0.00     0.031 C 
ATOM     40  C   UNL A   1      39.929  28.584  27.794  1.00  0.00     0.029 A 
ATOM     41  N   UNL A   1      40.179  29.380  29.871  1.00  0.00    -0.354 N 
ATOM     42  C   UNL A   1      43.277  27.866  32.475  1.00  0.00     0.074 A 
ATOM     43  C   UNL A   1      44.155  26.968  31.753  1.00  0.00     0.031 C 
ATOM     44  C   UNL A   1      38.981  29.515  27.986  1.00  0.00     0.029 A 
ATOM     45  C   UNL A   1      39.065  30.001  29.361  1.00  0.00     0.049 A 
ATOM     46  H   UNL A   1      40.547  29.576  30.763  1.00  0.00     0.167 HD
ATOM     47  C   UNL A   1      43.455  28.243  33.763  1.00  0.00     0.037 A 
ATOM     48  C   UNL A   1      38.182  30.827  29.953  1.00  0.00     0.037 A 
ATOM     49  C   UNL A   1      42.584  29.146  34.469  1.00  0.00     0.049 A 
ATOM     50  C   UNL A   1      38.350  31.169  31.406  1.00  0.00     0.074 A 
ATOM     51  C   UNL A   1      42.676  29.592  35.776  1.00  0.00     0.029 A 
ATOM     52  N   UNL A   1      41.462  29.745  33.918  1.00  0.00    -0.354 N 
ATOM     53  N   UNL A   1      39.287  30.789  32.240  1.00  0.00    -0.248 NA
ATOM     54  C   UNL A   1      37.327  32.038  32.005  1.00  0.00     0.031 C 
ATOM     55  C   UNL A   1      41.589  30.439  36.024  1.00  0.00     0.029 A 
ATOM     56  C   UNL A   1      40.843  30.548  34.861  1.00  0.00     0.049 A 
ATOM     57  H   UNL A   1      41.149  29.617  32.993  1.00  0.00     0.167 HD
ATOM     58  C   UNL A   1      38.984  31.393  33.454  1.00  0.00     0.074 A 
ATOM     59  C   UNL A   1      37.775  32.164  33.247  1.00  0.00     0.031 C 
ATOM     60  C   UNL A   1      39.651  31.321  34.631  1.00  0.00     0.037 A 
BRANCH  47  61
ATOM     61  C   UNL A   1      44.618  27.650  34.500  1.00  0.00     0.057 A 
ATOM     62  C   UNL A   1      45.868  28.279  34.539  1.00  0.00     0.134 A 
ATOM     63  C   UNL A   1      44.480  26.442  35.196  1.00  0.00     0.134 A 
ATOM     64  F   UNL A   1      46.071  29.430  33.880  1.00  0.00    -0.206 F 
ATOM     65  C   UNL A   1      46.946  27.716  35.226  1.00  0.00     0.040 A 
ATOM     66  C   UNL A   1      45.543  25.881  35.903  1.00  0.00     0.040 A 
ATOM     67  F   UNL A   1      43.307  25.790  35.200  1.00  0.00    -0.206 F 
ATOM     68  C   UNL A   1      46.783  26.516  35.915  1.00  0.00     0.006 A 
ENDBRANCH  47  61
BRANCH  48  69
ATOM     69  C   UNL A   1      37.038  31.361  29.176  1.00  0.00     0.057 A 
ATOM     70  C   UNL A   1      35.920  30.564  28.908  1.00  0.00     0.134 A 
ATOM     71  C   UNL A   1      37.026  32.676  28.696  1.00  0.00     0.134 A 
ATOM     72  F   UNL A   1      35.885  29.289  29.323  1.00  0.00    -0.206 F 
ATOM     73  C   UNL A   1      34.832  31.052  28.183  1.00  0.00     0.040 A 
ATOM     74  C   UNL A   1      35.936  33.183  27.988  1.00  0.00     0.040 A 
ATOM     75  F   UNL A   1      38.068  33.488  28.921  1.00  0.00    -0.206 F 
ATOM     76  C   UNL A   1      34.836  32.369  27.727  1.00  0.00     0.006 A 
ENDBRANCH  48  69
BRANCH  60  77
ATOM     77  C   UNL A   1      39.118  32.133  35.771  1.00  0.00     0.057 A 
ATOM     78  C   UNL A   1      38.260  31.586  36.732  1.00  0.00     0.134 A 
ATOM     79  C   UNL A   1      39.512  33.467  35.934  1.00  0.00     0.134 A 
ATOM     80  F   UNL A   1      37.837  30.318  36.621  1.00  0.00    -0.206 F 
ATOM     81  C   UNL A   1      37.804  32.342  37.812  1.00  0.00     0.040 A 
ATOM     82  C   UNL A   1      39.077  34.227  37.020  1.00  0.00     0.040 A 
ATOM     83  F   UNL A   1      40.337  34.047  35.048  1.00  0.00    -0.206 F 
ATOM     84  C   UNL A   1      38.219  33.665  37.962  1.00  0.00     0.006 A 
ENDBRANCH  60  77
ENDBRANCH  34  35
ENDBRANCH  27  29
ENDBRANCH  26  27
ENDBRANCH  25  26
ENDBRANCH   1  25
TORSDOF 14
ENDMDL
MODEL 2
REMARK VINA RESULT:     -12.2      1.586      6.474
REMARK SMILES O=C(Nc1ccc(Br)cc1)Nc1ccc(CC(=O)OCCOC(=O)c2ccc(-c3c4nc(c(-c5c(F)cccc5F)c5ccc([nH]5)c(-c5c(F)cccc5F)c5nc(c(-c6c(F)cccc6F)c6ccc3[nH]6)C=C5)C=C4)cc2)cc1
REMARK SMILES IDX 20 1 19 2 17 3 18 4 16 5 15 6 12 7 13 8 80 9 14 10 79 11
REMARK SMILES IDX 11 12 1 13 2 14 3 15 4 18 5 19 10 20 6 21 9 22 7 23 8 24
REMARK SMILES IDX 21 25 22 26 23 27 24 28 25 29 26 30 78 31 27 32 77 33 28 34
REMARK SMILES IDX 29 35 30 36 71 37 31 38 76 39 70 40 72 41 32 42 75 43 69 44
REMARK SMILES IDX 68 45 33 47 59 48 42 49 58 50 43 51 46 52 57 53 73 54 44 55
REMARK SMILES IDX 45 56 56 58 74 59 47 60 34 61 35 62 40 63 36 64 37 65 39 66
REMARK SMILES IDX 41 67 38 68 60 69 61 70 66 71 62 72 63 73 65 74 67 75 64 76
REMARK SMILES IDX 48 77 49 78 54 79 50 80 51 81 53 82 55 83 52 84
REMARK H PARENT 3 16 11 17 72 46 46 57
REMARK Flexibility Score: inf
ROOT
ATOM      1  C   UNL A   1      43.888  22.028  25.450  1.00  0.00     0.274 C 
ENDROOT
BRANCH   1   2
ATOM      2  O   UNL A   1      42.517  21.593  25.375  1.00  0.00    -0.462 OA
BRANCH   2   3
ATOM      3  C   UNL A   1      42.042  20.956  26.476  1.00  0.00     0.310 C 
ATOM      4  O   UNL A   1      42.267  19.780  26.754  1.00  0.00    -0.252 OA
BRANCH   3   5
ATOM      5  C   UNL A   1      41.127  21.805  27.321  1.00  0.00     0.158 C 
BRANCH   5   6
ATOM      6  C   UNL A   1      39.860  22.327  26.689  1.00  0.00    -0.037 A 
ATOM      7  C   UNL A   1      37.352  23.182  25.720  1.00  0.00     0.042 A 
ATOM      8  C   UNL A   1      38.196  24.075  26.384  1.00  0.00     0.026 A 
ATOM      9  C   UNL A   1      37.787  21.877  25.498  1.00  0.00     0.026 A 
ATOM     10  C   UNL A   1      39.429  23.644  26.887  1.00  0.00     0.006 A 
ATOM     11  C   UNL A   1      39.032  21.455  25.972  1.00  0.00     0.006 A 
BRANCH   7  12
ATOM     12  N   UNL A   1      36.090  23.647  25.313  1.00  0.00    -0.308 N 
ATOM     13  O   UNL A   1      36.153  23.204  23.042  1.00  0.00    -0.248 OA
ATOM     14  C   UNL A   1      35.616  23.703  24.026  1.00  0.00     0.323 C 
ATOM     15  N   UNL A   1      34.362  24.242  23.887  1.00  0.00    -0.308 N 
ATOM     16  H   UNL A   1      33.840  23.891  23.130  1.00  0.00     0.171 HD
ATOM     17  H   UNL A   1      35.485  23.966  26.023  1.00  0.00     0.171 HD
BRANCH  15  18
ATOM     18  C   UNL A   1      33.706  25.217  24.656  1.00  0.00     0.042 A 
ATOM     19  C   UNL A   1      32.821  24.894  25.689  1.00  0.00     0.027 A 
ATOM     20  C   UNL A   1      34.028  26.557  24.420  1.00  0.00     0.027 A 
ATOM     21  C   UNL A   1      32.246  25.904  26.466  1.00  0.00     0.018 A 
ATOM     22  C   UNL A   1      33.436  27.570  25.181  1.00  0.00     0.018 A 
ATOM     23  C   UNL A   1      32.551  27.238  26.202  1.00  0.00     0.018 A 
ATOM     24  Br  UNL A   1      31.771  28.602  27.251  1.00  0.00    -0.051 Br
ENDBRANCH  15  18
ENDBRANCH   7  12
ENDBRANCH   5   6
ENDBRANCH   3   5
ENDBRANCH   2   3
ENDBRANCH   1   2
BRANCH   1  25
ATOM     25  C   UNL A   1      44.192  23.082  24.386  1.00  0.00     0.275 C 
BRANCH  25  26
ATOM     26  O   UNL A   1      43.500  24.306  24.684  1.00  0.00    -0.458 OA
BRANCH  26  27
ATOM     27  C   UNL A   1      44.268  25.318  25.144  1.00  0.00     0.338 C 
ATOM     28  O   UNL A   1      45.379  25.650  24.769  1.00  0.00    -0.246 OA
BRANCH  27  29
ATOM     29  C   UNL A   1      43.571  25.994  26.245  1.00  0.00     0.060 A 
ATOM     30  C   UNL A   1      43.802  27.348  26.510  1.00  0.00     0.016 A 
ATOM     31  C   UNL A   1      42.758  25.230  27.080  1.00  0.00     0.016 A 
ATOM     32  C   UNL A   1      43.231  27.939  27.639  1.00  0.00     0.010 A 
ATOM     33  C   UNL A   1      42.156  25.833  28.183  1.00  0.00     0.010 A 
ATOM     34  C   UNL A   1      42.403  27.185  28.481  1.00  0.00    -0.014 A 
BRANCH  34  35
ATOM     35  C   UNL A   1      41.796  27.760  29.705  1.00  0.00     0.031 A 
ATOM     36  C   UNL A   1      40.560  28.604  29.590  1.00  0.00     0.074 A 
ATOM     37  C   UNL A   1      42.396  27.600  30.897  1.00  0.00     0.049 A 
ATOM     38  N   UNL A   1      40.029  29.422  30.461  1.00  0.00    -0.248 NA
ATOM     39  C   UNL A   1      39.834  28.523  28.313  1.00  0.00     0.031 C 
ATOM     40  C   UNL A   1      43.565  26.761  31.153  1.00  0.00     0.029 A 
ATOM     41  N   UNL A   1      42.117  28.170  32.114  1.00  0.00    -0.354 N 
ATOM     42  C   UNL A   1      38.928  29.983  29.828  1.00  0.00     0.074 A 
ATOM     43  C   UNL A   1      38.868  29.413  28.498  1.00  0.00     0.031 C 
ATOM     44  C   UNL A   1      43.917  26.883  32.443  1.00  0.00     0.029 A 
ATOM     45  C   UNL A   1      43.038  27.858  33.083  1.00  0.00     0.049 A 
ATOM     46  H   UNL A   1      41.335  28.746  32.276  1.00  0.00     0.167 HD
ATOM     47  C   UNL A   1      38.052  30.894  30.313  1.00  0.00     0.037 A 
ATOM     48  C   UNL A   1      43.188  28.345  34.330  1.00  0.00     0.037 A 
ATOM     49  C   UNL A   1      38.113  31.445  31.642  1.00  0.00     0.049 A 
ATOM     50  C   UNL A   1      42.255  29.415  34.822  1.00  0.00     0.074 A 
ATOM     51  C   UNL A   1      37.273  32.374  32.231  1.00  0.00     0.029 A 
ATOM     52  N   UNL A   1      39.067  31.109  32.589  1.00  0.00    -0.354 N 
ATOM     53  N   UNL A   1      41.242  29.974  34.206  1.00  0.00    -0.248 NA
ATOM     54  C   UNL A   1      42.500  29.937  36.174  1.00  0.00     0.031 C 
ATOM     55  C   UNL A   1      37.740  32.622  33.527  1.00  0.00     0.029 A 
ATOM     56  C   UNL A   1      38.847  31.821  33.756  1.00  0.00     0.049 A 
ATOM     57  H   UNL A   1      39.795  30.460  32.452  1.00  0.00     0.167 HD
ATOM     58  C   UNL A   1      40.711  30.891  35.104  1.00  0.00     0.074 A 
ATOM     59  C   UNL A   1      41.515  30.816  36.306  1.00  0.00     0.031 C 
ATOM     60  C   UNL A   1      39.649  31.718  34.947  1.00  0.00     0.037 A 
BRANCH  47  61
ATOM     61  C   UNL A   1      36.976  31.375  29.387  1.00  0.00     0.057 A 
ATOM     62  C   UNL A   1      37.026  32.639  28.789  1.00  0.00     0.134 A 
ATOM     63  C   UNL A   1      35.885  30.553  29.075  1.00  0.00     0.134 A 
ATOM     64  F   UNL A   1      38.035  33.480  29.058  1.00  0.00    -0.206 F 
ATOM     65  C   UNL A   1      36.016  33.078  27.929  1.00  0.00     0.040 A 
ATOM     66  C   UNL A   1      34.881  30.972  28.201  1.00  0.00     0.040 A 
ATOM     67  F   UNL A   1      35.780  29.328  29.613  1.00  0.00    -0.206 F 
ATOM     68  C   UNL A   1      34.942  32.241  27.630  1.00  0.00     0.006 A 
ENDBRANCH  47  61
BRANCH  48  69
ATOM     69  C   UNL A   1      44.288  27.845  35.188  1.00  0.00     0.057 A 
ATOM     70  C   UNL A   1      44.107  26.725  36.006  1.00  0.00     0.134 A 
ATOM     71  C   UNL A   1      45.545  28.462  35.204  1.00  0.00     0.134 A 
ATOM     72  F   UNL A   1      42.918  26.107  36.049  1.00  0.00    -0.206 F 
ATOM     73  C   UNL A   1      45.134  26.238  36.815  1.00  0.00     0.040 A 
ATOM     74  C   UNL A   1      46.587  27.973  35.992  1.00  0.00     0.040 A 
ATOM     75  F   UNL A   1      45.781  29.539  34.441  1.00  0.00    -0.206 F 
ATOM     76  C   UNL A   1      46.381  26.860  36.804  1.00  0.00     0.006 A 
ENDBRANCH  48  69
BRANCH  60  77
ATOM     77  C   UNL A   1      39.264  32.568  36.119  1.00  0.00     0.057 A 
ATOM     78  C   UNL A   1      38.371  32.118  37.098  1.00  0.00     0.134 A 
ATOM     79  C   UNL A   1      39.839  33.834  36.293  1.00  0.00     0.134 A 
ATOM     80  F   UNL A   1      37.779  30.921  36.979  1.00  0.00    -0.206 F 
ATOM     81  C   UNL A   1      38.053  32.904  38.206  1.00  0.00     0.040 A 
ATOM     82  C   UNL A   1      39.543  34.621  37.406  1.00  0.00     0.040 A 
ATOM     83  F   UNL A   1      40.706  34.318  35.391  1.00  0.00    -0.206 F 
ATOM     84  C   UNL A   1      38.646  34.156  38.366  1.00  0.00     0.006 A 
ENDBRANCH  60  77
ENDBRANCH  34  35
ENDBRANCH  27  29
ENDBRANCH  26  27
ENDBRANCH  25  26
ENDBRANCH   1  25
TORSDOF 14
ENDMDL
MODEL 3
REMARK VINA RESULT:     -12.1      1.611      6.632
REMARK SMILES O=C(Nc1ccc(Br)cc1)Nc1ccc(CC(=O)OCCOC(=O)c2ccc(-c3c4nc(c(-c5c(F)cccc5F)c5ccc([nH]5)c(-c5c(F)cccc5F)c5nc(c(-c6c(F)cccc6F)c6ccc3[nH]6)C=C5)C=C4)cc2)cc1
REMARK SMILES IDX 20 1 19 2 17 3 18 4 16 5 15 6 12 7 13 8 80 9 14 10 79 11
REMARK SMILES IDX 11 12 1 13 2 14 3 15 4 18 5 19 10 20 6 21 9 22 7 23 8 24
REMARK SMILES IDX 21 25 22 26 23 27 24 28 25 29 26 30 78 31 27 32 77 33 28 34
REMARK SMILES IDX 29 35 30 36 71 37 31 38 76 39 70 40 72 41 32 42 75 43 69 44
REMARK SMILES IDX 68 45 33 47 59 48 42 49 58 50 43 51 46 52 57 53 73 54 44 55
REMARK SMILES IDX 45 56 56 58 74 59 47 60 34 61 35 62 40 63 36 64 37 65 39 66
REMARK SMILES IDX 41 67 38 68 60 69 61 70 66 71 62 72 63 73 65 74 67 75 64 76
REMARK SMILES IDX 48 77 49 78 54 79 50 80 51 81 53 82 55 83 52 84
REMARK H PARENT 3 16 11 17 72 46 46 57
REMARK Flexibility Score: inf
ROOT
ATOM      1  C   UNL A   1      44.051  22.010  25.491  1.00  0.00     0.274 C 
ENDROOT
BRANCH   1   2
ATOM      2  O   UNL A   1      42.692  21.571  25.307  1.00  0.00    -0.462 OA
BRANCH   2   3
ATOM      3  C   UNL A   1      42.159  20.861  26.334  1.00  0.00     0.310 C 
ATOM      4  O   UNL A   1      42.328  19.657  26.513  1.00  0.00    -0.252 OA
BRANCH   3   5
ATOM      5  C   UNL A   1      41.256  21.671  27.227  1.00  0.00     0.158 C 
BRANCH   5   6
ATOM      6  C   UNL A   1      39.982  22.223  26.635  1.00  0.00    -0.037 A 
ATOM      7  C   UNL A   1      37.463  23.116  25.729  1.00  0.00     0.042 A 
ATOM      8  C   UNL A   1      38.298  23.969  26.457  1.00  0.00     0.026 A 
ATOM      9  C   UNL A   1      37.914  21.836  25.414  1.00  0.00     0.026 A 
ATOM     10  C   UNL A   1      39.535  23.517  26.927  1.00  0.00     0.006 A 
ATOM     11  C   UNL A   1      39.164  21.395  25.856  1.00  0.00     0.006 A 
BRANCH   7  12
ATOM     12  N   UNL A   1      36.196  23.595  25.357  1.00  0.00    -0.308 N 
ATOM     13  O   UNL A   1      36.228  23.233  23.070  1.00  0.00    -0.248 OA
ATOM     14  C   UNL A   1      35.704  23.697  24.079  1.00  0.00     0.323 C 
ATOM     15  N   UNL A   1      34.448  24.239  23.976  1.00  0.00    -0.308 N 
ATOM     16  H   UNL A   1      33.917  23.915  23.215  1.00  0.00     0.171 HD
ATOM     17  H   UNL A   1      35.601  23.887  26.085  1.00  0.00     0.171 HD
BRANCH  15  18
ATOM     18  C   UNL A   1      33.803  25.185  24.789  1.00  0.00     0.042 A 
ATOM     19  C   UNL A   1      34.023  26.560  24.668  1.00  0.00     0.027 A 
ATOM     20  C   UNL A   1      32.843  24.720  25.692  1.00  0.00     0.027 A 
ATOM     21  C   UNL A   1      33.305  27.462  25.459  1.00  0.00     0.018 A 
ATOM     22  C   UNL A   1      32.140  25.618  26.500  1.00  0.00     0.018 A 
ATOM     23  C   UNL A   1      32.372  26.985  26.377  1.00  0.00     0.018 A 
ATOM     24  Br  UNL A   1      31.403  28.203  27.448  1.00  0.00    -0.051 Br
ENDBRANCH  15  18
ENDBRANCH   7  12
ENDBRANCH   5   6
ENDBRANCH   3   5
ENDBRANCH   2   3
ENDBRANCH   1   2
BRANCH   1  25
ATOM     25  C   UNL A   1      44.430  23.079  24.467  1.00  0.00     0.275 C 
BRANCH  25  26
ATOM     26  O   UNL A   1      43.678  24.282  24.700  1.00  0.00    -0.458 OA
BRANCH  26  27
ATOM     27  C   UNL A   1      44.397  25.354  25.099  1.00  0.00     0.338 C 
ATOM     28  O   UNL A   1      45.469  25.744  24.671  1.00  0.00    -0.246 OA
BRANCH  27  29
ATOM     29  C   UNL A   1      43.700  26.020  26.207  1.00  0.00     0.060 A 
ATOM     30  C   UNL A   1      44.007  27.340  26.552  1.00  0.00     0.016 A 
ATOM     31  C   UNL A   1      42.805  25.271  26.969  1.00  0.00     0.016 A 
ATOM     32  C   UNL A   1      43.430  27.911  27.688  1.00  0.00     0.010 A 
ATOM     33  C   UNL A   1      42.199  25.857  28.079  1.00  0.00     0.010 A 
ATOM     34  C   UNL A   1      42.520  27.173  28.457  1.00  0.00    -0.014 A 
BRANCH  34  35
ATOM     35  C   UNL A   1      41.902  27.725  29.685  1.00  0.00     0.031 A 
ATOM     36  C   UNL A   1      40.669  28.574  29.574  1.00  0.00     0.074 A 
ATOM     37  C   UNL A   1      42.488  27.541  30.880  1.00  0.00     0.049 A 
ATOM     38  N   UNL A   1      40.131  29.376  30.455  1.00  0.00    -0.248 NA
ATOM     39  C   UNL A   1      39.955  28.520  28.288  1.00  0.00     0.031 C 
ATOM     40  C   UNL A   1      43.654  26.694  31.132  1.00  0.00     0.029 A 
ATOM     41  N   UNL A   1      42.198  28.088  32.105  1.00  0.00    -0.354 N 
ATOM     42  C   UNL A   1      39.037  29.951  29.822  1.00  0.00     0.074 A 
ATOM     43  C   UNL A   1      38.990  29.407  28.480  1.00  0.00     0.031 C 
ATOM     44  C   UNL A   1      43.992  26.790  32.428  1.00  0.00     0.029 A 
ATOM     45  C   UNL A   1      43.109  27.755  33.078  1.00  0.00     0.049 A 
ATOM     46  H   UNL A   1      41.416  28.662  32.270  1.00  0.00     0.167 HD
ATOM     47  C   UNL A   1      38.158  30.854  30.316  1.00  0.00     0.037 A 
ATOM     48  C   UNL A   1      43.247  28.217  34.335  1.00  0.00     0.037 A 
ATOM     49  C   UNL A   1      38.206  31.379  31.655  1.00  0.00     0.049 A 
ATOM     50  C   UNL A   1      42.311  29.279  34.838  1.00  0.00     0.074 A 
ATOM     51  C   UNL A   1      37.361  32.299  32.254  1.00  0.00     0.029 A 
ATOM     52  N   UNL A   1      39.150  31.023  32.605  1.00  0.00    -0.354 N 
ATOM     53  N   UNL A   1      41.305  29.852  34.223  1.00  0.00    -0.248 NA
ATOM     54  C   UNL A   1      42.543  29.775  36.202  1.00  0.00     0.031 C 
ATOM     55  C   UNL A   1      37.816  32.521  33.559  1.00  0.00     0.029 A 
ATOM     56  C   UNL A   1      38.919  31.712  33.784  1.00  0.00     0.049 A 
ATOM     57  H   UNL A   1      39.878  30.376  32.463  1.00  0.00     0.167 HD
ATOM     58  C   UNL A   1      40.767  30.753  35.132  1.00  0.00     0.074 A 
ATOM     59  C   UNL A   1      41.558  30.652  36.341  1.00  0.00     0.031 C 
ATOM     60  C   UNL A   1      39.708  31.585  34.981  1.00  0.00     0.037 A 
BRANCH  47  61
ATOM     61  C   UNL A   1      37.092  31.356  29.389  1.00  0.00     0.057 A 
ATOM     62  C   UNL A   1      37.164  32.621  28.794  1.00  0.00     0.134 A 
ATOM     63  C   UNL A   1      35.989  30.553  29.071  1.00  0.00     0.134 A 
ATOM     64  F   UNL A   1      38.187  33.445  29.069  1.00  0.00    -0.206 F 
ATOM     65  C   UNL A   1      36.164  33.079  27.933  1.00  0.00     0.040 A 
ATOM     66  C   UNL A   1      34.995  30.991  28.196  1.00  0.00     0.040 A 
ATOM     67  F   UNL A   1      35.863  29.328  29.605  1.00  0.00    -0.206 F 
ATOM     68  C   UNL A   1      35.078  32.261  27.628  1.00  0.00     0.006 A 
ENDBRANCH  47  61
BRANCH  48  69
ATOM     69  C   UNL A   1      44.337  27.698  35.194  1.00  0.00     0.057 A 
ATOM     70  C   UNL A   1      45.600  28.299  35.189  1.00  0.00     0.134 A 
ATOM     71  C   UNL A   1      44.144  26.604  36.047  1.00  0.00     0.134 A 
ATOM     72  F   UNL A   1      45.851  29.336  34.376  1.00  0.00    -0.206 F 
ATOM     73  C   UNL A   1      46.637  27.827  35.996  1.00  0.00     0.040 A 
ATOM     74  C   UNL A   1      45.164  26.136  36.874  1.00  0.00     0.040 A 
ATOM     75  F   UNL A   1      42.955  25.987  36.097  1.00  0.00    -0.206 F 
ATOM     76  C   UNL A   1      46.417  26.746  36.848  1.00  0.00     0.006 A 
ENDBRANCH  48  69
BRANCH  60  77
ATOM     77  C   UNL A   1      39.313  32.413  36.165  1.00  0.00     0.057 A 
ATOM     78  C   UNL A   1      39.854  33.683  36.392  1.00  0.00     0.134 A 
ATOM     79  C   UNL A   1      38.339  31.950  37.060  1.00  0.00     0.134 A 
ATOM     80  F   UNL A   1      40.799  34.175  35.578  1.00  0.00    -0.206 F 
ATOM     81  C   UNL A   1      39.447  34.462  37.476  1.00  0.00     0.040 A 
ATOM     82  C   UNL A   1      37.911  32.726  38.136  1.00  0.00     0.040 A 
ATOM     83  F   UNL A   1      37.781  30.742  36.892  1.00  0.00    -0.206 F 
ATOM     84  C   UNL A   1      38.467  33.986  38.348  1.00  0.00     0.006 A 
ENDBRANCH  60  77
ENDBRANCH  34  35
ENDBRANCH  27  29
ENDBRANCH  26  27
ENDBRANCH  25  26
ENDBRANCH   1  25
TORSDOF 14
ENDMDL
