MODEL 1
REMARK VINA RESULT:     -13.6      0.000      0.000
REMARK SMILES COc1ccc(-c2cc(CC3(C(=O)OCCOC(=O)c4ccc(-c5c6nc(c(-c7c(F)cccc7F)c7ccc([nH]7)c(-c7c(F)cccc7F)c7nc(c(-c8c(F)cccc8F)c8ccc5[nH]8)C=C7)C=C6)cc4)CCN(C(=O)C4CCCC4)CC3)on2)cc1
REMARK SMILES IDX 15 1 14 2 12 3 13 4 11 5 74 6 85 7 75 8 84 9 76 10 77 11
REMARK SMILES IDX 78 12 10 13 9 14 7 15 8 16 87 17 86 18 6 19 3 20 4 21 89 22
REMARK SMILES IDX 5 23 88 24 2 25 1 26 79 27 80 28 83 29 81 30 82 31 16 32
REMARK SMILES IDX 17 33 18 34 19 35 20 36 21 37 73 38 22 39 72 40 23 41 24 42
REMARK SMILES IDX 25 43 66 44 26 45 71 46 65 47 67 48 27 49 70 50 64 51 63 52
REMARK SMILES IDX 28 54 54 55 37 56 53 57 38 58 41 59 52 60 68 61 39 62 40 63
REMARK SMILES IDX 51 65 69 66 42 67 29 68 30 69 35 70 31 71 32 72 34 73 36 74
REMARK SMILES IDX 33 75 55 76 56 77 61 78 57 79 58 80 60 81 62 82 59 83 43 84
REMARK SMILES IDX 44 85 49 86 45 87 46 88 48 89 50 90 47 91
REMARK H PARENT 67 53 41 64
REMARK Flexibility Score: inf
ROOT
ATOM      1  C   UNL A   1      35.823  23.296  24.286  1.00  0.00     0.274 C 
ENDROOT
BRANCH   1   2
ATOM      2  O   UNL A   1      34.380  23.387  24.290  1.00  0.00    -0.462 OA
BRANCH   2   3
ATOM      3  C   UNL A   1      33.737  22.911  25.386  1.00  0.00     0.312 C 
ATOM      4  O   UNL A   1      33.976  23.278  26.533  1.00  0.00    -0.252 OA
BRANCH   3   5
ATOM      5  C   UNL A   1      32.688  21.820  25.079  1.00  0.00     0.078 C 
ATOM      6  C   UNL A   1      32.487  21.626  23.555  1.00  0.00     0.041 C 
ATOM      7  C   UNL A   1      33.312  20.551  25.694  1.00  0.00     0.041 C 
ATOM      8  C   UNL A   1      31.896  20.280  23.148  1.00  0.00     0.120 C 
ATOM      9  C   UNL A   1      32.709  19.241  25.219  1.00  0.00     0.120 C 
ATOM     10  N   UNL A   1      32.606  19.168  23.774  1.00  0.00    -0.342 N 
ATOM     11  C   UNL A   1      32.877  18.046  23.001  1.00  0.00     0.225 C 
ATOM     12  O   UNL A   1      32.528  17.984  21.817  1.00  0.00    -0.275 OA
BRANCH   5  13
ATOM     13  C   UNL A   1      31.389  22.294  25.794  1.00  0.00     0.097 C 
BRANCH  13  14
ATOM     14  C   UNL A   1      30.985  23.711  25.641  1.00  0.00     0.138 A 
ATOM     15  C   UNL A   1      30.465  25.787  25.115  1.00  0.00     0.114 A 
ATOM     16  C   UNL A   1      30.654  24.496  24.563  1.00  0.00     0.077 A 
ATOM     17  N   UNL A   1      30.569  25.754  26.451  1.00  0.00    -0.080 NA
ATOM     18  O   UNL A   1      30.857  24.442  26.778  1.00  0.00    -0.361 OA
BRANCH  15  19
ATOM     19  C   UNL A   1      30.276  27.028  24.391  1.00  0.00     0.004 A 
ATOM     20  C   UNL A   1      29.843  29.433  23.020  1.00  0.00     0.118 A 
ATOM     21  C   UNL A   1      28.980  28.352  22.833  1.00  0.00     0.047 A 
ATOM     22  C   UNL A   1      30.914  29.317  23.909  1.00  0.00     0.047 A 
ATOM     23  C   UNL A   1      29.200  27.149  23.504  1.00  0.00     0.014 A 
ATOM     24  C   UNL A   1      31.130  28.116  24.596  1.00  0.00     0.014 A 
BRANCH  20  25
ATOM     25  O   UNL A   1      29.524  30.558  22.311  1.00  0.00    -0.497 OA
ATOM     26  C   UNL A   1      28.317  30.488  21.559  1.00  0.00     0.278 C 
ENDBRANCH  20  25
ENDBRANCH  15  19
ENDBRANCH  13  14
ENDBRANCH   5  13
BRANCH  11  27
ATOM     27  C   UNL A   1      33.658  16.865  23.579  1.00  0.00     0.078 C 
ATOM     28  C   UNL A   1      34.971  17.261  24.250  1.00  0.00     0.013 C 
ATOM     29  C   UNL A   1      32.900  15.965  24.561  1.00  0.00     0.013 C 
ATOM     30  C   UNL A   1      35.216  16.170  25.280  1.00  0.00     0.001 C 
ATOM     31  C   UNL A   1      33.833  15.746  25.751  1.00  0.00     0.001 C 
ENDBRANCH  11  27
ENDBRANCH   3   5
ENDBRANCH   2   3
ENDBRANCH   1   2
BRANCH   1  32
ATOM     32  C   UNL A   1      36.261  21.841  24.407  1.00  0.00     0.275 C 
BRANCH  32  33
ATOM     33  O   UNL A   1      36.830  21.645  25.711  1.00  0.00    -0.458 OA
BRANCH  33  34
ATOM     34  C   UNL A   1      38.143  21.324  25.751  1.00  0.00     0.338 C 
ATOM     35  O   UNL A   1      38.673  20.304  25.353  1.00  0.00    -0.246 OA
BRANCH  34  36
ATOM     36  C   UNL A   1      38.892  22.458  26.325  1.00  0.00     0.060 A 
ATOM     37  C   UNL A   1      38.430  23.757  26.125  1.00  0.00     0.016 A 
ATOM     38  C   UNL A   1      40.106  22.247  26.973  1.00  0.00     0.016 A 
ATOM     39  C   UNL A   1      39.217  24.848  26.475  1.00  0.00     0.010 A 
ATOM     40  C   UNL A   1      40.836  23.346  27.442  1.00  0.00     0.010 A 
ATOM     41  C   UNL A   1      40.414  24.662  27.176  1.00  0.00    -0.014 A 
BRANCH  41  42
ATOM     42  C   UNL A   1      41.223  25.832  27.620  1.00  0.00     0.031 A 
ATOM     43  C   UNL A   1      40.608  26.889  28.497  1.00  0.00     0.074 A 
ATOM     44  C   UNL A   1      42.510  25.963  27.240  1.00  0.00     0.049 A 
ATOM     45  N   UNL A   1      41.040  28.094  28.767  1.00  0.00    -0.248 NA
ATOM     46  C   UNL A   1      39.328  26.550  29.140  1.00  0.00     0.031 C 
ATOM     47  C   UNL A   1      43.266  25.000  26.435  1.00  0.00     0.029 A 
ATOM     48  N   UNL A   1      43.417  26.967  27.483  1.00  0.00    -0.354 N 
ATOM     49  C   UNL A   1      40.053  28.683  29.546  1.00  0.00     0.074 A 
ATOM     50  C   UNL A   1      39.006  27.697  29.718  1.00  0.00     0.031 C 
ATOM     51  C   UNL A   1      44.524  25.436  26.286  1.00  0.00     0.029 A 
ATOM     52  C   UNL A   1      44.636  26.760  26.885  1.00  0.00     0.049 A 
ATOM     53  H   UNL A   1      43.211  27.758  28.032  1.00  0.00     0.167 HD
ATOM     54  C   UNL A   1      40.021  29.936  30.061  1.00  0.00     0.037 A 
ATOM     55  C   UNL A   1      45.708  27.566  26.767  1.00  0.00     0.037 A 
ATOM     56  C   UNL A   1      41.094  30.888  29.945  1.00  0.00     0.049 A 
ATOM     57  C   UNL A   1      45.647  28.956  27.324  1.00  0.00     0.074 A 
ATOM     58  C   UNL A   1      41.163  32.178  30.442  1.00  0.00     0.029 A 
ATOM     59  N   UNL A   1      42.297  30.643  29.303  1.00  0.00    -0.354 N 
ATOM     60  N   UNL A   1      44.669  29.541  27.973  1.00  0.00    -0.248 NA
ATOM     61  C   UNL A   1      46.820  29.811  27.100  1.00  0.00     0.031 C 
ATOM     62  C   UNL A   1      42.402  32.722  30.080  1.00  0.00     0.029 A 
ATOM     63  C   UNL A   1      43.113  31.760  29.382  1.00  0.00     0.049 A 
ATOM     64  H   UNL A   1      42.537  29.799  28.855  1.00  0.00     0.167 HD
ATOM     65  C   UNL A   1      45.099  30.836  28.220  1.00  0.00     0.074 A 
ATOM     66  C   UNL A   1      46.442  30.942  27.681  1.00  0.00     0.031 C 
ATOM     67  C   UNL A   1      44.438  31.851  28.824  1.00  0.00     0.037 A 
BRANCH  54  68
ATOM     68  C   UNL A   1      38.764  30.360  30.761  1.00  0.00     0.057 A 
ATOM     69  C   UNL A   1      37.709  30.989  30.088  1.00  0.00     0.134 A 
ATOM     70  C   UNL A   1      38.604  30.119  32.131  1.00  0.00     0.134 A 
ATOM     71  F   UNL A   1      37.807  31.263  28.778  1.00  0.00    -0.206 F 
ATOM     72  C   UNL A   1      36.551  31.386  30.758  1.00  0.00     0.040 A 
ATOM     73  C   UNL A   1      37.441  30.491  32.808  1.00  0.00     0.040 A 
ATOM     74  F   UNL A   1      39.575  29.516  32.835  1.00  0.00    -0.206 F 
ATOM     75  C   UNL A   1      36.413  31.132  32.122  1.00  0.00     0.006 A 
ENDBRANCH  54  68
BRANCH  55  76
ATOM     76  C   UNL A   1      46.898  27.092  26.019  1.00  0.00     0.057 A 
ATOM     77  C   UNL A   1      47.019  27.305  24.642  1.00  0.00     0.134 A 
ATOM     78  C   UNL A   1      47.960  26.453  26.671  1.00  0.00     0.134 A 
ATOM     79  F   UNL A   1      46.025  27.891  23.961  1.00  0.00    -0.206 F 
ATOM     80  C   UNL A   1      48.158  26.906  23.941  1.00  0.00     0.040 A 
ATOM     81  C   UNL A   1      49.114  26.071  25.989  1.00  0.00     0.040 A 
ATOM     82  F   UNL A   1      47.903  26.224  27.992  1.00  0.00    -0.206 F 
ATOM     83  C   UNL A   1      49.215  26.297  24.618  1.00  0.00     0.006 A 
ENDBRANCH  55  76
BRANCH  67  84
ATOM     84  C   UNL A   1      45.157  33.160  28.927  1.00  0.00     0.057 A 
ATOM     85  C   UNL A   1      45.002  34.154  27.953  1.00  0.00     0.134 A 
ATOM     86  C   UNL A   1      45.990  33.439  30.016  1.00  0.00     0.134 A 
ATOM     87  F   UNL A   1      44.229  33.938  26.878  1.00  0.00    -0.206 F 
ATOM     88  C   UNL A   1      45.665  35.377  28.052  1.00  0.00     0.040 A 
ATOM     89  C   UNL A   1      46.645  34.665  30.134  1.00  0.00     0.040 A 
ATOM     90  F   UNL A   1      46.177  32.527  30.982  1.00  0.00    -0.206 F 
ATOM     91  C   UNL A   1      46.485  35.637  29.148  1.00  0.00     0.006 A 
ENDBRANCH  67  84
ENDBRANCH  41  42
ENDBRANCH  34  36
ENDBRANCH  33  34
ENDBRANCH  32  33
ENDBRANCH   1  32
TORSDOF 16
ENDMDL
MODEL 2
REMARK VINA RESULT:     -13.5      3.456      8.969
REMARK SMILES COc1ccc(-c2cc(CC3(C(=O)OCCOC(=O)c4ccc(-c5c6nc(c(-c7c(F)cccc7F)c7ccc([nH]7)c(-c7c(F)cccc7F)c7nc(c(-c8c(F)cccc8F)c8ccc5[nH]8)C=C7)C=C6)cc4)CCN(C(=O)C4CCCC4)CC3)on2)cc1
REMARK SMILES IDX 15 1 14 2 12 3 13 4 11 5 74 6 85 7 75 8 84 9 76 10 77 11
REMARK SMILES IDX 78 12 10 13 9 14 7 15 8 16 87 17 86 18 6 19 3 20 4 21 89 22
REMARK SMILES IDX 5 23 88 24 2 25 1 26 79 27 80 28 83 29 81 30 82 31 16 32
REMARK SMILES IDX 17 33 18 34 19 35 20 36 21 37 73 38 22 39 72 40 23 41 24 42
REMARK SMILES IDX 25 43 66 44 26 45 71 46 65 47 67 48 27 49 70 50 64 51 63 52
REMARK SMILES IDX 28 54 54 55 37 56 53 57 38 58 41 59 52 60 68 61 39 62 40 63
REMARK SMILES IDX 51 65 69 66 42 67 29 68 30 69 35 70 31 71 32 72 34 73 36 74
REMARK SMILES IDX 33 75 55 76 56 77 61 78 57 79 58 80 60 81 62 82 59 83 43 84
REMARK SMILES IDX 44 85 49 86 45 87 46 88 48 89 50 90 47 91
REMARK H PARENT 67 53 41 64
REMARK Flexibility Score: inf
ROOT
ATOM      1  C   UNL A   1      31.358  28.145  24.638  1.00  0.00     0.274 C 
ENDROOT
BRANCH   1   2
ATOM      2  O   UNL A   1      32.445  27.264  25.000  1.00  0.00    -0.462 OA
BRANCH   2   3
ATOM      3  C   UNL A   1      32.127  26.154  25.712  1.00  0.00     0.312 C 
ATOM      4  O   UNL A   1      31.458  26.168  26.742  1.00  0.00    -0.252 OA
BRANCH   3   5
ATOM      5  C   UNL A   1      32.718  24.846  25.141  1.00  0.00     0.078 C 
ATOM      6  C   UNL A   1      33.641  25.113  23.926  1.00  0.00     0.041 C 
ATOM      7  C   UNL A   1      33.545  24.291  26.319  1.00  0.00     0.041 C 
ATOM      8  C   UNL A   1      34.647  24.007  23.623  1.00  0.00     0.120 C 
ATOM      9  C   UNL A   1      34.557  23.223  25.949  1.00  0.00     0.120 C 
ATOM     10  N   UNL A   1      35.383  23.606  24.819  1.00  0.00    -0.342 N 
ATOM     11  C   UNL A   1      36.748  23.374  24.701  1.00  0.00     0.225 C 
ATOM     12  O   UNL A   1      37.327  23.501  23.617  1.00  0.00    -0.275 OA
BRANCH   5  13
ATOM     13  C   UNL A   1      31.485  23.972  24.770  1.00  0.00     0.097 C 
BRANCH  13  14
ATOM     14  C   UNL A   1      31.722  22.575  24.340  1.00  0.00     0.138 A 
ATOM     15  C   UNL A   1      32.166  20.444  23.996  1.00  0.00     0.114 A 
ATOM     16  C   UNL A   1      31.857  21.382  25.010  1.00  0.00     0.077 A 
ATOM     17  N   UNL A   1      32.113  21.016  22.785  1.00  0.00    -0.080 NA
ATOM     18  O   UNL A   1      31.796  22.343  23.005  1.00  0.00    -0.361 OA
BRANCH  15  19
ATOM     19  C   UNL A   1      32.582  19.067  24.177  1.00  0.00     0.004 A 
ATOM     20  C   UNL A   1      33.321  16.391  24.555  1.00  0.00     0.118 A 
ATOM     21  C   UNL A   1      32.921  17.170  25.642  1.00  0.00     0.047 A 
ATOM     22  C   UNL A   1      33.333  16.946  23.274  1.00  0.00     0.047 A 
ATOM     23  C   UNL A   1      32.565  18.507  25.459  1.00  0.00     0.014 A 
ATOM     24  C   UNL A   1      32.962  18.283  23.083  1.00  0.00     0.014 A 
BRANCH  20  25
ATOM     25  O   UNL A   1      33.643  15.097  24.858  1.00  0.00    -0.497 OA
ATOM     26  C   UNL A   1      32.675  14.387  25.623  1.00  0.00     0.278 C 
ENDBRANCH  20  25
ENDBRANCH  15  19
ENDBRANCH  13  14
ENDBRANCH   5  13
BRANCH  11  27
ATOM     27  C   UNL A   1      37.589  22.998  25.922  1.00  0.00     0.078 C 
ATOM     28  C   UNL A   1      38.530  21.819  25.684  1.00  0.00     0.013 C 
ATOM     29  C   UNL A   1      38.422  24.123  26.546  1.00  0.00     0.013 C 
ATOM     30  C   UNL A   1      39.669  22.037  26.666  1.00  0.00     0.001 C 
ATOM     31  C   UNL A   1      39.817  23.547  26.778  1.00  0.00     0.001 C 
ENDBRANCH  11  27
ENDBRANCH   3   5
ENDBRANCH   2   3
ENDBRANCH   1   2
BRANCH   1  32
ATOM     32  C   UNL A   1      31.700  29.585  25.005  1.00  0.00     0.275 C 
BRANCH  32  33
ATOM     33  O   UNL A   1      32.817  29.570  25.907  1.00  0.00    -0.458 OA
BRANCH  33  34
ATOM     34  C   UNL A   1      32.971  30.662  26.690  1.00  0.00     0.338 C 
ATOM     35  O   UNL A   1      32.160  31.545  26.904  1.00  0.00    -0.246 OA
BRANCH  34  36
ATOM     36  C   UNL A   1      34.301  30.609  27.323  1.00  0.00     0.060 A 
ATOM     37  C   UNL A   1      34.841  29.377  27.683  1.00  0.00     0.016 A 
ATOM     38  C   UNL A   1      34.972  31.783  27.657  1.00  0.00     0.016 A 
ATOM     39  C   UNL A   1      35.992  29.310  28.460  1.00  0.00     0.010 A 
ATOM     40  C   UNL A   1      36.199  31.709  28.327  1.00  0.00     0.010 A 
ATOM     41  C   UNL A   1      36.712  30.471  28.760  1.00  0.00    -0.014 A 
BRANCH  41  42
ATOM     42  C   UNL A   1      37.988  30.397  29.529  1.00  0.00     0.031 A 
ATOM     43  C   UNL A   1      39.189  29.712  28.937  1.00  0.00     0.074 A 
ATOM     44  C   UNL A   1      38.081  30.935  30.762  1.00  0.00     0.049 A 
ATOM     45  N   UNL A   1      40.284  29.306  29.527  1.00  0.00    -0.248 NA
ATOM     46  C   UNL A   1      39.143  29.430  27.493  1.00  0.00     0.031 C 
ATOM     47  C   UNL A   1      37.023  31.678  31.452  1.00  0.00     0.029 A 
ATOM     48  N   UNL A   1      39.122  30.941  31.658  1.00  0.00    -0.354 N 
ATOM     49  C   UNL A   1      41.022  28.655  28.547  1.00  0.00     0.074 A 
ATOM     50  C   UNL A   1      40.257  28.734  27.320  1.00  0.00     0.031 C 
ATOM     51  C   UNL A   1      37.480  32.099  32.639  1.00  0.00     0.029 A 
ATOM     52  C   UNL A   1      38.819  31.563  32.845  1.00  0.00     0.049 A 
ATOM     53  H   UNL A   1      40.000  30.537  31.469  1.00  0.00     0.167 HD
ATOM     54  C   UNL A   1      42.224  28.041  28.665  1.00  0.00     0.037 A 
ATOM     55  C   UNL A   1      39.507  31.642  34.000  1.00  0.00     0.037 A 
ATOM     56  C   UNL A   1      43.011  28.025  29.869  1.00  0.00     0.049 A 
ATOM     57  C   UNL A   1      40.824  30.938  34.119  1.00  0.00     0.074 A 
ATOM     58  C   UNL A   1      44.247  27.441  30.087  1.00  0.00     0.029 A 
ATOM     59  N   UNL A   1      42.648  28.643  31.056  1.00  0.00    -0.354 N 
ATOM     60  N   UNL A   1      41.469  30.239  33.217  1.00  0.00    -0.248 NA
ATOM     61  C   UNL A   1      41.492  31.001  35.426  1.00  0.00     0.031 C 
ATOM     62  C   UNL A   1      44.621  27.686  31.414  1.00  0.00     0.029 A 
ATOM     63  C   UNL A   1      43.630  28.447  32.013  1.00  0.00     0.049 A 
ATOM     64  H   UNL A   1      41.813  29.147  31.197  1.00  0.00     0.167 HD
ATOM     65  C   UNL A   1      42.608  29.763  33.849  1.00  0.00     0.074 A 
ATOM     66  C   UNL A   1      42.584  30.282  35.204  1.00  0.00     0.031 C 
ATOM     67  C   UNL A   1      43.579  28.957  33.359  1.00  0.00     0.037 A 
BRANCH  54  68
ATOM     68  C   UNL A   1      42.737  27.298  27.468  1.00  0.00     0.057 A 
ATOM     69  C   UNL A   1      43.360  27.946  26.395  1.00  0.00     0.134 A 
ATOM     70  C   UNL A   1      42.616  25.904  27.398  1.00  0.00     0.134 A 
ATOM     71  F   UNL A   1      43.492  29.282  26.393  1.00  0.00    -0.206 F 
ATOM     72  C   UNL A   1      43.822  27.238  25.284  1.00  0.00     0.040 A 
ATOM     73  C   UNL A   1      43.094  25.182  26.303  1.00  0.00     0.040 A 
ATOM     74  F   UNL A   1      42.033  25.220  28.395  1.00  0.00    -0.206 F 
ATOM     75  C   UNL A   1      43.694  25.851  25.239  1.00  0.00     0.006 A 
ENDBRANCH  54  68
BRANCH  55  76
ATOM     76  C   UNL A   1      38.911  32.355  35.156  1.00  0.00     0.057 A 
ATOM     77  C   UNL A   1      38.238  31.661  36.166  1.00  0.00     0.134 A 
ATOM     78  C   UNL A   1      39.039  33.743  35.298  1.00  0.00     0.134 A 
ATOM     79  F   UNL A   1      38.065  30.335  36.073  1.00  0.00    -0.206 F 
ATOM     80  C   UNL A   1      37.719  32.320  37.282  1.00  0.00     0.040 A 
ATOM     81  C   UNL A   1      38.547  34.412  36.419  1.00  0.00     0.040 A 
ATOM     82  F   UNL A   1      39.678  34.463  34.364  1.00  0.00    -0.206 F 
ATOM     83  C   UNL A   1      37.884  33.699  37.415  1.00  0.00     0.006 A 
ENDBRANCH  55  76
BRANCH  67  84
ATOM     84  C   UNL A   1      44.687  28.586  34.295  1.00  0.00     0.057 A 
ATOM     85  C   UNL A   1      44.623  27.423  35.073  1.00  0.00     0.134 A 
ATOM     86  C   UNL A   1      45.833  29.381  34.403  1.00  0.00     0.134 A 
ATOM     87  F   UNL A   1      43.543  26.631  35.024  1.00  0.00    -0.206 F 
ATOM     88  C   UNL A   1      45.659  27.072  35.939  1.00  0.00     0.040 A 
ATOM     89  C   UNL A   1      46.882  29.031  35.253  1.00  0.00     0.040 A 
ATOM     90  F   UNL A   1      45.952  30.506  33.681  1.00  0.00    -0.206 F 
ATOM     91  C   UNL A   1      46.794  27.875  36.027  1.00  0.00     0.006 A 
ENDBRANCH  67  84
ENDBRANCH  41  42
ENDBRANCH  34  36
ENDBRANCH  33  34
ENDBRANCH  32  33
ENDBRANCH   1  32
TORSDOF 16
ENDMDL
MODEL 3
REMARK VINA RESULT:     -13.4      4.217      9.104
REMARK SMILES COc1ccc(-c2cc(CC3(C(=O)OCCOC(=O)c4ccc(-c5c6nc(c(-c7c(F)cccc7F)c7ccc([nH]7)c(-c7c(F)cccc7F)c7nc(c(-c8c(F)cccc8F)c8ccc5[nH]8)C=C7)C=C6)cc4)CCN(C(=O)C4CCCC4)CC3)on2)cc1
REMARK SMILES IDX 15 1 14 2 12 3 13 4 11 5 74 6 85 7 75 8 84 9 76 10 77 11
REMARK SMILES IDX 78 12 10 13 9 14 7 15 8 16 87 17 86 18 6 19 3 20 4 21 89 22
REMARK SMILES IDX 5 23 88 24 2 25 1 26 79 27 80 28 83 29 81 30 82 31 16 32
REMARK SMILES IDX 17 33 18 34 19 35 20 36 21 37 73 38 22 39 72 40 23 41 24 42
REMARK SMILES IDX 25 43 66 44 26 45 71 46 65 47 67 48 27 49 70 50 64 51 63 52
REMARK SMILES IDX 28 54 54 55 37 56 53 57 38 58 41 59 52 60 68 61 39 62 40 63
REMARK SMILES IDX 51 65 69 66 42 67 29 68 30 69 35 70 31 71 32 72 34 73 36 74
REMARK SMILES IDX 33 75 55 76 56 77 61 78 57 79 58 80 60 81 62 82 59 83 43 84
REMARK SMILES IDX 44 85 49 86 45 87 46 88 48 89 50 90 47 91
REMARK H PARENT 67 53 41 64
REMARK Flexibility Score: inf
ROOT
ATOM      1  C   UNL A   1      36.448  21.965  25.328  1.00  0.00     0.274 C 
ENDROOT
BRANCH   1   2
ATOM      2  O   UNL A   1      35.774  23.239  25.230  1.00  0.00    -0.462 OA
BRANCH   2   3
ATOM      3  C   UNL A   1      35.213  23.548  24.034  1.00  0.00     0.312 C 
ATOM      4  O   UNL A   1      35.744  23.327  22.950  1.00  0.00    -0.252 OA
BRANCH   3   5
ATOM      5  C   UNL A   1      33.843  24.254  24.143  1.00  0.00     0.078 C 
ATOM      6  C   UNL A   1      33.240  24.124  25.563  1.00  0.00     0.041 C 
ATOM      7  C   UNL A   1      34.184  25.729  23.847  1.00  0.00     0.041 C 
ATOM      8  C   UNL A   1      32.192  25.176  25.919  1.00  0.00     0.120 C 
ATOM      9  C   UNL A   1      33.122  26.731  24.261  1.00  0.00     0.120 C 
ATOM     10  N   UNL A   1      32.663  26.526  25.622  1.00  0.00    -0.342 N 
ATOM     11  C   UNL A   1      32.394  27.531  26.543  1.00  0.00     0.225 C 
ATOM     12  O   UNL A   1      31.773  27.294  27.585  1.00  0.00    -0.275 OA
BRANCH   5  13
ATOM     13  C   UNL A   1      32.954  23.583  23.056  1.00  0.00     0.097 C 
BRANCH  13  14
ATOM     14  C   UNL A   1      32.735  22.120  23.138  1.00  0.00     0.138 A 
ATOM     15  C   UNL A   1      32.618  19.948  23.492  1.00  0.00     0.114 A 
ATOM     16  C   UNL A   1      32.974  21.173  24.105  1.00  0.00     0.077 A 
ATOM     17  N   UNL A   1      32.096  20.158  22.275  1.00  0.00    -0.080 NA
ATOM     18  O   UNL A   1      32.137  21.525  22.074  1.00  0.00    -0.361 OA
BRANCH  15  19
ATOM     19  C   UNL A   1      32.844  18.613  24.010  1.00  0.00     0.004 A 
ATOM     20  C   UNL A   1      33.351  16.040  24.997  1.00  0.00     0.118 A 
ATOM     21  C   UNL A   1      33.656  16.358  23.672  1.00  0.00     0.047 A 
ATOM     22  C   UNL A   1      32.811  17.017  25.835  1.00  0.00     0.047 A 
ATOM     23  C   UNL A   1      33.392  17.635  23.174  1.00  0.00     0.014 A 
ATOM     24  C   UNL A   1      32.558  18.304  25.344  1.00  0.00     0.014 A 
BRANCH  20  25
ATOM     25  O   UNL A   1      33.657  14.761  25.370  1.00  0.00    -0.497 OA
ATOM     26  C   UNL A   1      32.550  13.951  25.750  1.00  0.00     0.278 C 
ENDBRANCH  20  25
ENDBRANCH  15  19
ENDBRANCH  13  14
ENDBRANCH   5  13
BRANCH  11  27
ATOM     27  C   UNL A   1      32.897  28.957  26.319  1.00  0.00     0.078 C 
ATOM     28  C   UNL A   1      31.967  30.035  26.872  1.00  0.00     0.013 C 
ATOM     29  C   UNL A   1      34.307  29.268  26.832  1.00  0.00     0.013 C 
ATOM     30  C   UNL A   1      32.882  31.213  27.166  1.00  0.00     0.001 C 
ATOM     31  C   UNL A   1      34.208  30.595  27.583  1.00  0.00     0.001 C 
ENDBRANCH  11  27
ENDBRANCH   3   5
ENDBRANCH   2   3
ENDBRANCH   1   2
BRANCH   1  32
ATOM     32  C   UNL A   1      37.958  22.169  25.389  1.00  0.00     0.275 C 
BRANCH  32  33
ATOM     33  O   UNL A   1      38.220  23.426  26.033  1.00  0.00    -0.458 OA
BRANCH  33  34
ATOM     34  C   UNL A   1      39.478  23.614  26.492  1.00  0.00     0.338 C 
ATOM     35  O   UNL A   1      40.465  22.940  26.260  1.00  0.00    -0.246 OA
BRANCH  34  36
ATOM     36  C   UNL A   1      39.506  24.839  27.313  1.00  0.00     0.060 A 
ATOM     37  C   UNL A   1      40.220  25.948  26.866  1.00  0.00     0.016 A 
ATOM     38  C   UNL A   1      38.912  24.858  28.572  1.00  0.00     0.016 A 
ATOM     39  C   UNL A   1      40.432  27.036  27.706  1.00  0.00     0.010 A 
ATOM     40  C   UNL A   1      39.017  26.008  29.365  1.00  0.00     0.010 A 
ATOM     41  C   UNL A   1      39.801  27.102  28.952  1.00  0.00    -0.014 A 
BRANCH  41  42
ATOM     42  C   UNL A   1      39.964  28.301  29.824  1.00  0.00     0.031 A 
ATOM     43  C   UNL A   1      41.092  28.366  30.816  1.00  0.00     0.074 A 
ATOM     44  C   UNL A   1      39.103  29.335  29.739  1.00  0.00     0.049 A 
ATOM     45  N   UNL A   1      41.254  29.173  31.833  1.00  0.00    -0.248 NA
ATOM     46  C   UNL A   1      42.174  27.381  30.652  1.00  0.00     0.031 C 
ATOM     47  C   UNL A   1      37.990  29.446  28.794  1.00  0.00     0.029 A 
ATOM     48  N   UNL A   1      39.031  30.499  30.466  1.00  0.00    -0.354 N 
ATOM     49  C   UNL A   1      42.410  28.747  32.474  1.00  0.00     0.074 A 
ATOM     50  C   UNL A   1      42.918  27.619  31.722  1.00  0.00     0.031 C 
ATOM     51  C   UNL A   1      37.375  30.623  28.969  1.00  0.00     0.029 A 
ATOM     52  C   UNL A   1      37.974  31.302  30.111  1.00  0.00     0.049 A 
ATOM     53  H   UNL A   1      39.674  30.735  31.173  1.00  0.00     0.167 HD
ATOM     54  C   UNL A   1      42.986  29.247  33.594  1.00  0.00     0.037 A 
ATOM     55  C   UNL A   1      37.491  32.425  30.675  1.00  0.00     0.037 A 
ATOM     56  C   UNL A   1      42.516  30.411  34.298  1.00  0.00     0.049 A 
ATOM     57  C   UNL A   1      38.128  32.951  31.925  1.00  0.00     0.074 A 
ATOM     58  C   UNL A   1      43.038  31.004  35.434  1.00  0.00     0.029 A 
ATOM     59  N   UNL A   1      41.422  31.172  33.917  1.00  0.00    -0.354 N 
ATOM     60  N   UNL A   1      39.162  32.483  32.582  1.00  0.00    -0.248 NA
ATOM     61  C   UNL A   1      37.511  34.137  32.533  1.00  0.00     0.031 C 
ATOM     62  C   UNL A   1      42.245  32.113  35.754  1.00  0.00     0.029 A 
ATOM     63  C   UNL A   1      41.246  32.225  34.800  1.00  0.00     0.049 A 
ATOM     64  H   UNL A   1      40.853  30.991  33.134  1.00  0.00     0.167 HD
ATOM     65  C   UNL A   1      39.309  33.304  33.690  1.00  0.00     0.074 A 
ATOM     66  C   UNL A   1      38.279  34.322  33.598  1.00  0.00     0.031 C 
ATOM     67  C   UNL A   1      40.206  33.216  34.701  1.00  0.00     0.037 A 
BRANCH  54  68
ATOM     68  C   UNL A   1      44.167  28.508  34.148  1.00  0.00     0.057 A 
ATOM     69  C   UNL A   1      45.484  28.833  33.801  1.00  0.00     0.134 A 
ATOM     70  C   UNL A   1      43.979  27.460  35.058  1.00  0.00     0.134 A 
ATOM     71  F   UNL A   1      45.732  29.816  32.922  1.00  0.00    -0.206 F 
ATOM     72  C   UNL A   1      46.570  28.127  34.320  1.00  0.00     0.040 A 
ATOM     73  C   UNL A   1      45.058  26.760  35.601  1.00  0.00     0.040 A 
ATOM     74  F   UNL A   1      42.742  27.100  35.436  1.00  0.00    -0.206 F 
ATOM     75  C   UNL A   1      46.358  27.089  35.227  1.00  0.00     0.006 A 
ENDBRANCH  54  68
BRANCH  55  76
ATOM     76  C   UNL A   1      36.289  33.073  30.095  1.00  0.00     0.057 A 
ATOM     77  C   UNL A   1      35.027  32.907  30.675  1.00  0.00     0.134 A 
ATOM     78  C   UNL A   1      36.383  33.908  28.975  1.00  0.00     0.134 A 
ATOM     79  F   UNL A   1      34.873  32.102  31.735  1.00  0.00    -0.206 F 
ATOM     80  C   UNL A   1      33.901  33.555  30.164  1.00  0.00     0.040 A 
ATOM     81  C   UNL A   1      35.271  34.580  28.469  1.00  0.00     0.040 A 
ATOM     82  F   UNL A   1      37.567  34.109  28.378  1.00  0.00    -0.206 F 
ATOM     83  C   UNL A   1      34.024  34.403  29.064  1.00  0.00     0.006 A 
ENDBRANCH  55  76
BRANCH  67  84
ATOM     84  C   UNL A   1      40.105  34.243  35.785  1.00  0.00     0.057 A 
ATOM     85  C   UNL A   1      40.734  35.489  35.669  1.00  0.00     0.134 A 
ATOM     86  C   UNL A   1      39.358  33.996  36.942  1.00  0.00     0.134 A 
ATOM     87  F   UNL A   1      41.478  35.776  34.590  1.00  0.00    -0.206 F 
ATOM     88  C   UNL A   1      40.634  36.450  36.675  1.00  0.00     0.040 A 
ATOM     89  C   UNL A   1      39.237  34.956  37.947  1.00  0.00     0.040 A 
ATOM     90  F   UNL A   1      38.731  32.822  37.110  1.00  0.00    -0.206 F 
ATOM     91  C   UNL A   1      39.879  36.185  37.816  1.00  0.00     0.006 A 
ENDBRANCH  67  84
ENDBRANCH  41  42
ENDBRANCH  34  36
ENDBRANCH  33  34
ENDBRANCH  32  33
ENDBRANCH   1  32
TORSDOF 16
ENDMDL
