MODEL 1
REMARK VINA RESULT:     -12.4      0.000      0.000
REMARK SMILES Cc1ccc(/C=C2\SC(=S)N([C@H](C(=O)OCCOC(=O)c3ccc(-c4c5nc(c(-c6c(F)cccc6F)c6ccc([nH]6)c(-c6c(F)cccc6F)c6nc(c(-c7c(F)cccc7F)c7ccc4[nH]7)C=C6)C=C5)cc3)C(C)C)C2=O)cc1
REMARK SMILES IDX 16 1 15 2 13 3 14 4 12 5 11 6 6 7 7 8 8 9 78 10 9 11 79 12
REMARK SMILES IDX 10 13 5 14 1 15 2 16 3 17 81 18 4 19 80 20 75 21 76 22 77 23
REMARK SMILES IDX 17 24 18 25 19 26 20 27 21 28 22 29 74 30 23 31 73 32 24 33
REMARK SMILES IDX 25 34 26 35 67 36 27 37 72 38 66 39 68 40 28 41 71 42 65 43
REMARK SMILES IDX 64 44 29 46 55 47 38 48 54 49 39 50 42 51 53 52 69 53 40 54
REMARK SMILES IDX 41 55 52 57 70 58 43 59 30 60 31 61 36 62 32 63 33 64 35 65
REMARK SMILES IDX 37 66 34 67 56 68 57 69 62 70 58 71 59 72 61 73 63 74 60 75
REMARK SMILES IDX 44 76 45 77 50 78 46 79 47 80 49 81 51 82 48 83
REMARK H PARENT 68 45 42 56
REMARK Flexibility Score: inf
ROOT
ATOM      1  C   UNL A   1      44.044  35.501  26.889  1.00  0.00     0.274 C 
ENDROOT
BRANCH   1   2
ATOM      2  O   UNL A   1      43.911  34.253  27.597  1.00  0.00    -0.461 OA
BRANCH   2   3
ATOM      3  C   UNL A   1      44.115  33.170  26.807  1.00  0.00     0.329 C 
ATOM      4  O   UNL A   1      43.949  33.273  25.591  1.00  0.00    -0.250 OA
BRANCH   3   5
ATOM      5  C   UNL A   1      44.629  31.649  27.675  1.00  0.00     0.204 C 
BRANCH   5   6
ATOM      6  N   UNL A   1      43.970  29.634  27.583  1.00  0.00    -0.278 N 
ATOM      7  C   UNL A   1      41.552  26.843  28.532  1.00  0.00     0.029 C 
ATOM      8  C   UNL A   1      42.128  27.875  27.894  1.00  0.00     0.081 C 
ATOM      9  S   UNL A   1      42.176  28.165  26.218  1.00  0.00    -0.054 SA
ATOM     10  C   UNL A   1      43.209  28.718  28.555  1.00  0.00     0.267 C 
ATOM     11  C   UNL A   1      43.883  28.585  26.552  1.00  0.00     0.149 C 
ATOM     12  O   UNL A   1      43.478  28.467  29.734  1.00  0.00    -0.268 OA
ATOM     13  S   UNL A   1      44.946  27.299  26.209  1.00  0.00    -0.052 S 
BRANCH   7  14
ATOM     14  C   UNL A   1      40.938  25.703  27.837  1.00  0.00    -0.024 A 
ATOM     15  C   UNL A   1      38.923  22.234  26.254  1.00  0.00     0.044 C 
ATOM     16  C   UNL A   1      39.621  23.464  26.754  1.00  0.00    -0.051 A 
ATOM     17  C   UNL A   1      41.018  23.494  26.851  1.00  0.00     0.004 A 
ATOM     18  C   UNL A   1      38.887  24.574  27.180  1.00  0.00     0.004 A 
ATOM     19  C   UNL A   1      41.675  24.608  27.385  1.00  0.00     0.008 A 
ATOM     20  C   UNL A   1      39.542  25.687  27.714  1.00  0.00     0.008 A 
ENDBRANCH   7  14
ENDBRANCH   5   6
BRANCH   5  21
ATOM     21  C   UNL A   1      46.395  32.309  27.626  1.00  0.00     0.017 C 
ATOM     22  C   UNL A   1      46.805  32.707  29.068  1.00  0.00     0.010 C 
ATOM     23  C   UNL A   1      47.712  31.732  27.028  1.00  0.00     0.010 C 
ENDBRANCH   5  21
ENDBRANCH   3   5
ENDBRANCH   2   3
ENDBRANCH   1   2
BRANCH   1  24
ATOM     24  C   UNL A   1      42.738  36.314  26.706  1.00  0.00     0.275 C 
BRANCH  24  25
ATOM     25  O   UNL A   1      42.292  36.877  27.955  1.00  0.00    -0.458 OA
BRANCH  25  26
ATOM     26  C   UNL A   1      42.823  38.083  28.295  1.00  0.00     0.338 C 
ATOM     27  O   UNL A   1      43.450  38.371  29.293  1.00  0.00    -0.246 OA
BRANCH  26  28
ATOM     28  C   UNL A   1      42.770  38.925  27.081  1.00  0.00     0.060 A 
ATOM     29  C   UNL A   1      41.282  39.654  26.363  1.00  0.00     0.016 A 
ATOM     30  C   UNL A   1      44.371  39.487  26.463  1.00  0.00     0.016 A 
ATOM     31  C   UNL A   1      41.444  41.079  25.189  1.00  0.00     0.010 A 
ATOM     32  C   UNL A   1      44.502  40.882  25.390  1.00  0.00     0.010 A 
ATOM     33  C   UNL A   1      43.061  41.744  24.731  1.00  0.00    -0.014 A 
BRANCH  33  34
ATOM     34  C   UNL A   1      43.356  42.950  23.872  1.00  0.00     0.031 A 
ATOM     35  C   UNL A   1      43.182  43.070  22.391  1.00  0.00     0.074 A 
ATOM     36  C   UNL A   1      44.037  44.029  24.358  1.00  0.00     0.049 A 
ATOM     37  N   UNL A   1      44.148  43.461  21.600  1.00  0.00    -0.248 NA
ATOM     38  C   UNL A   1      41.904  42.911  21.707  1.00  0.00     0.031 C 
ATOM     39  C   UNL A   1      44.254  45.317  23.695  1.00  0.00     0.029 A 
ATOM     40  N   UNL A   1      44.880  44.103  25.466  1.00  0.00    -0.354 N 
ATOM     41  C   UNL A   1      43.559  43.885  20.431  1.00  0.00     0.074 A 
ATOM     42  C   UNL A   1      42.190  43.404  20.491  1.00  0.00     0.031 C 
ATOM     43  C   UNL A   1      45.327  45.918  24.233  1.00  0.00     0.029 A 
ATOM     44  C   UNL A   1      45.852  45.087  25.299  1.00  0.00     0.049 A 
ATOM     45  H   UNL A   1      44.798  43.532  26.264  1.00  0.00     0.167 HD
ATOM     46  C   UNL A   1      44.142  44.774  19.576  1.00  0.00     0.037 A 
ATOM     47  C   UNL A   1      47.126  44.994  25.773  1.00  0.00     0.037 A 
ATOM     48  C   UNL A   1      45.374  45.396  20.039  1.00  0.00     0.049 A 
ATOM     49  C   UNL A   1      48.146  45.125  24.671  1.00  0.00     0.074 A 
ATOM     50  C   UNL A   1      45.636  46.685  20.477  1.00  0.00     0.029 A 
ATOM     51  N   UNL A   1      46.539  44.669  20.268  1.00  0.00    -0.354 N 
ATOM     52  N   UNL A   1      47.815  45.294  23.426  1.00  0.00    -0.248 NA
ATOM     53  C   UNL A   1      49.589  44.934  24.832  1.00  0.00     0.031 C 
ATOM     54  C   UNL A   1      46.983  46.769  20.860  1.00  0.00     0.029 A 
ATOM     55  C   UNL A   1      47.520  45.500  20.784  1.00  0.00     0.049 A 
ATOM     56  H   UNL A   1      46.649  43.707  20.090  1.00  0.00     0.167 HD
ATOM     57  C   UNL A   1      48.909  45.064  22.638  1.00  0.00     0.074 A 
ATOM     58  C   UNL A   1      50.006  44.868  23.557  1.00  0.00     0.031 C 
ATOM     59  C   UNL A   1      48.789  45.010  21.285  1.00  0.00     0.037 A 
BRANCH  46  60
ATOM     60  C   UNL A   1      43.419  45.280  18.356  1.00  0.00     0.057 A 
ATOM     61  C   UNL A   1      42.948  44.451  17.325  1.00  0.00     0.134 A 
ATOM     62  C   UNL A   1      43.105  46.628  18.197  1.00  0.00     0.134 A 
ATOM     63  F   UNL A   1      43.183  43.140  17.320  1.00  0.00    -0.206 F 
ATOM     64  C   UNL A   1      42.235  44.915  16.215  1.00  0.00     0.040 A 
ATOM     65  C   UNL A   1      42.424  47.114  17.074  1.00  0.00     0.040 A 
ATOM     66  F   UNL A   1      43.456  47.524  19.129  1.00  0.00    -0.206 F 
ATOM     67  C   UNL A   1      41.979  46.260  16.077  1.00  0.00     0.006 A 
ENDBRANCH  46  60
BRANCH  47  68
ATOM     68  C   UNL A   1      47.308  44.226  27.040  1.00  0.00     0.057 A 
ATOM     69  C   UNL A   1      47.578  42.845  26.959  1.00  0.00     0.134 A 
ATOM     70  C   UNL A   1      47.372  44.782  28.321  1.00  0.00     0.134 A 
ATOM     71  F   UNL A   1      47.509  42.206  25.780  1.00  0.00    -0.206 F 
ATOM     72  C   UNL A   1      47.976  42.091  28.066  1.00  0.00     0.040 A 
ATOM     73  C   UNL A   1      47.757  44.035  29.442  1.00  0.00     0.040 A 
ATOM     74  F   UNL A   1      47.144  46.086  28.524  1.00  0.00    -0.206 F 
ATOM     75  C   UNL A   1      48.083  42.691  29.313  1.00  0.00     0.006 A 
ENDBRANCH  47  68
BRANCH  59  76
ATOM     76  C   UNL A   1      49.909  44.649  20.377  1.00  0.00     0.057 A 
ATOM     77  C   UNL A   1      50.091  43.368  19.858  1.00  0.00     0.134 A 
ATOM     78  C   UNL A   1      50.808  45.615  19.923  1.00  0.00     0.134 A 
ATOM     79  F   UNL A   1      49.251  42.378  20.183  1.00  0.00    -0.206 F 
ATOM     80  C   UNL A   1      51.126  43.056  18.968  1.00  0.00     0.040 A 
ATOM     81  C   UNL A   1      51.833  45.320  19.017  1.00  0.00     0.040 A 
ATOM     82  F   UNL A   1      50.726  46.881  20.350  1.00  0.00    -0.206 F 
ATOM     83  C   UNL A   1      52.004  44.034  18.538  1.00  0.00     0.006 A 
ENDBRANCH  59  76
ENDBRANCH  33  34
ENDBRANCH  26  28
ENDBRANCH  25  26
ENDBRANCH  24  25
ENDBRANCH   1  24
TORSDOF 14
ENDMDL
MODEL 2
REMARK VINA RESULT:     -12.2     12.995     18.395
REMARK SMILES Cc1ccc(/C=C2\SC(=S)N([C@H](C(=O)OCCOC(=O)c3ccc(-c4c5nc(c(-c6c(F)cccc6F)c6ccc([nH]6)c(-c6c(F)cccc6F)c6nc(c(-c7c(F)cccc7F)c7ccc4[nH]7)C=C6)C=C5)cc3)C(C)C)C2=O)cc1
REMARK SMILES IDX 16 1 15 2 13 3 14 4 12 5 11 6 6 7 7 8 8 9 78 10 9 11 79 12
REMARK SMILES IDX 10 13 5 14 1 15 2 16 3 17 81 18 4 19 80 20 75 21 76 22 77 23
REMARK SMILES IDX 17 24 18 25 19 26 20 27 21 28 22 29 74 30 23 31 73 32 24 33
REMARK SMILES IDX 25 34 26 35 67 36 27 37 72 38 66 39 68 40 28 41 71 42 65 43
REMARK SMILES IDX 64 44 29 46 55 47 38 48 54 49 39 50 42 51 53 52 69 53 40 54
REMARK SMILES IDX 41 55 52 57 70 58 43 59 30 60 31 61 36 62 32 63 33 64 35 65
REMARK SMILES IDX 37 66 34 67 56 68 57 69 62 70 58 71 59 72 61 73 63 74 60 75
REMARK SMILES IDX 44 76 45 77 50 78 46 79 47 80 49 81 51 82 48 83
REMARK H PARENT 68 45 42 56
REMARK Flexibility Score: inf
ROOT
ATOM      1  C   UNL A   1      46.205  23.014  37.455  1.00  0.00     0.274 C 
ENDROOT
BRANCH   1   2
ATOM      2  O   UNL A   1      45.924  22.215  38.621  1.00  0.00    -0.461 OA
BRANCH   2   3
ATOM      3  C   UNL A   1      46.970  22.144  39.481  1.00  0.00     0.329 C 
ATOM      4  O   UNL A   1      47.521  23.183  39.845  1.00  0.00    -0.250 OA
BRANCH   3   5
ATOM      5  C   UNL A   1      47.441  20.462  40.009  1.00  0.00     0.204 C 
BRANCH   5   6
ATOM      6  N   UNL A   1      46.400  18.914  41.023  1.00  0.00    -0.278 N 
ATOM      7  C   UNL A   1      43.294  16.788  41.620  1.00  0.00     0.029 C 
ATOM      8  C   UNL A   1      44.464  17.235  41.137  1.00  0.00     0.081 C 
ATOM      9  S   UNL A   1      45.812  16.314  40.661  1.00  0.00    -0.054 SA
ATOM     10  C   UNL A   1      44.920  18.670  41.358  1.00  0.00     0.267 C 
ATOM     11  C   UNL A   1      46.722  17.576  41.546  1.00  0.00     0.149 C 
ATOM     12  O   UNL A   1      44.132  19.432  41.927  1.00  0.00    -0.268 OA
ATOM     13  S   UNL A   1      47.136  17.090  43.125  1.00  0.00    -0.052 S 
BRANCH   7  14
ATOM     14  C   UNL A   1      43.029  15.374  41.920  1.00  0.00    -0.024 A 
ATOM     15  C   UNL A   1      41.754  11.355  42.827  1.00  0.00     0.044 C 
ATOM     16  C   UNL A   1      42.241  12.731  42.483  1.00  0.00    -0.051 A 
ATOM     17  C   UNL A   1      42.998  13.464  43.407  1.00  0.00     0.004 A 
ATOM     18  C   UNL A   1      41.902  13.322  41.263  1.00  0.00     0.004 A 
ATOM     19  C   UNL A   1      43.394  14.776  43.127  1.00  0.00     0.008 A 
ATOM     20  C   UNL A   1      42.297  14.632  40.983  1.00  0.00     0.008 A 
ENDBRANCH   7  14
ENDBRANCH   5   6
BRANCH   5  21
ATOM     21  C   UNL A   1      48.479  20.342  38.438  1.00  0.00     0.017 C 
ATOM     22  C   UNL A   1      49.730  19.478  38.747  1.00  0.00     0.010 C 
ATOM     23  C   UNL A   1      48.124  19.943  36.975  1.00  0.00     0.010 C 
ENDBRANCH   5  21
ENDBRANCH   3   5
ENDBRANCH   2   3
ENDBRANCH   1   2
BRANCH   1  24
ATOM     24  C   UNL A   1      44.969  23.514  36.668  1.00  0.00     0.275 C 
BRANCH  24  25
ATOM     25  O   UNL A   1      45.288  23.743  35.281  1.00  0.00    -0.458 OA
BRANCH  25  26
ATOM     26  C   UNL A   1      44.357  23.335  34.376  1.00  0.00     0.338 C 
ATOM     27  O   UNL A   1      43.979  22.205  34.148  1.00  0.00    -0.246 OA
BRANCH  26  28
ATOM     28  C   UNL A   1      43.651  24.550  33.920  1.00  0.00     0.060 A 
ATOM     29  C   UNL A   1      42.283  25.363  34.776  1.00  0.00     0.016 A 
ATOM     30  C   UNL A   1      44.434  25.429  32.550  1.00  0.00     0.016 A 
ATOM     31  C   UNL A   1      41.874  27.124  34.367  1.00  0.00     0.010 A 
ATOM     32  C   UNL A   1      44.067  27.123  32.218  1.00  0.00     0.010 A 
ATOM     33  C   UNL A   1      42.801  28.042  33.116  1.00  0.00    -0.014 A 
BRANCH  33  34
ATOM     34  C   UNL A   1      42.657  29.496  32.739  1.00  0.00     0.031 A 
ATOM     35  C   UNL A   1      42.589  30.669  33.666  1.00  0.00     0.074 A 
ATOM     36  C   UNL A   1      42.353  29.881  31.465  1.00  0.00     0.049 A 
ATOM     37  N   UNL A   1      41.622  31.547  33.617  1.00  0.00    -0.248 NA
ATOM     38  C   UNL A   1      43.650  31.029  34.600  1.00  0.00     0.031 C 
ATOM     39  C   UNL A   1      42.337  31.243  30.926  1.00  0.00     0.029 A 
ATOM     40  N   UNL A   1      41.763  29.135  30.445  1.00  0.00    -0.354 N 
ATOM     41  C   UNL A   1      42.078  32.680  34.252  1.00  0.00     0.074 A 
ATOM     42  C   UNL A   1      43.279  32.269  34.956  1.00  0.00     0.031 C 
ATOM     43  C   UNL A   1      41.553  31.281  29.837  1.00  0.00     0.029 A 
ATOM     44  C   UNL A   1      41.041  29.950  29.574  1.00  0.00     0.049 A 
ATOM     45  H   UNL A   1      41.845  28.159  30.353  1.00  0.00     0.167 HD
ATOM     46  C   UNL A   1      41.583  33.927  34.008  1.00  0.00     0.037 A 
ATOM     47  C   UNL A   1      39.887  29.576  28.955  1.00  0.00     0.037 A 
ATOM     48  C   UNL A   1      40.639  34.040  32.906  1.00  0.00     0.049 A 
ATOM     49  C   UNL A   1      38.750  30.512  29.273  1.00  0.00     0.074 A 
ATOM     50  C   UNL A   1      40.777  34.588  31.640  1.00  0.00     0.029 A 
ATOM     51  N   UNL A   1      39.393  33.419  32.922  1.00  0.00    -0.354 N 
ATOM     52  N   UNL A   1      38.886  31.538  30.059  1.00  0.00    -0.248 NA
ATOM     53  C   UNL A   1      37.355  30.310  28.875  1.00  0.00     0.031 C 
ATOM     54  C   UNL A   1      39.579  34.403  30.933  1.00  0.00     0.029 A 
ATOM     55  C   UNL A   1      38.748  33.625  31.713  1.00  0.00     0.049 A 
ATOM     56  H   UNL A   1      39.025  32.909  33.680  1.00  0.00     0.167 HD
ATOM     57  C   UNL A   1      37.646  32.002  30.406  1.00  0.00     0.074 A 
ATOM     58  C   UNL A   1      36.716  31.224  29.623  1.00  0.00     0.031 C 
ATOM     59  C   UNL A   1      37.508  32.964  31.356  1.00  0.00     0.037 A 
BRANCH  46  60
ATOM     60  C   UNL A   1      42.179  35.148  34.658  1.00  0.00     0.057 A 
ATOM     61  C   UNL A   1      41.811  35.617  35.929  1.00  0.00     0.134 A 
ATOM     62  C   UNL A   1      43.204  35.873  34.053  1.00  0.00     0.134 A 
ATOM     63  F   UNL A   1      40.833  35.044  36.629  1.00  0.00    -0.206 F 
ATOM     64  C   UNL A   1      42.397  36.723  36.553  1.00  0.00     0.040 A 
ATOM     65  C   UNL A   1      43.776  37.005  34.649  1.00  0.00     0.040 A 
ATOM     66  F   UNL A   1      43.683  35.509  32.857  1.00  0.00    -0.206 F 
ATOM     67  C   UNL A   1      43.380  37.435  35.905  1.00  0.00     0.006 A 
ENDBRANCH  46  60
BRANCH  47  68
ATOM     68  C   UNL A   1      39.753  28.128  28.618  1.00  0.00     0.057 A 
ATOM     69  C   UNL A   1      40.273  27.670  27.391  1.00  0.00     0.134 A 
ATOM     70  C   UNL A   1      39.272  27.138  29.479  1.00  0.00     0.134 A 
ATOM     71  F   UNL A   1      40.729  28.542  26.476  1.00  0.00    -0.206 F 
ATOM     72  C   UNL A   1      40.390  26.312  27.084  1.00  0.00     0.040 A 
ATOM     73  C   UNL A   1      39.371  25.773  29.179  1.00  0.00     0.040 A 
ATOM     74  F   UNL A   1      38.761  27.449  30.678  1.00  0.00    -0.206 F 
ATOM     75  C   UNL A   1      39.953  25.355  27.989  1.00  0.00     0.006 A 
ENDBRANCH  47  68
BRANCH  59  76
ATOM     76  C   UNL A   1      36.192  33.430  31.865  1.00  0.00     0.057 A 
ATOM     77  C   UNL A   1      35.286  34.156  31.092  1.00  0.00     0.134 A 
ATOM     78  C   UNL A   1      35.751  33.086  33.144  1.00  0.00     0.134 A 
ATOM     79  F   UNL A   1      35.585  34.490  29.832  1.00  0.00    -0.206 F 
ATOM     80  C   UNL A   1      34.031  34.548  31.572  1.00  0.00     0.040 A 
ATOM     81  C   UNL A   1      34.490  33.454  33.628  1.00  0.00     0.040 A 
ATOM     82  F   UNL A   1      36.534  32.385  33.973  1.00  0.00    -0.206 F 
ATOM     83  C   UNL A   1      33.622  34.195  32.846  1.00  0.00     0.006 A 
ENDBRANCH  59  76
ENDBRANCH  33  34
ENDBRANCH  26  28
ENDBRANCH  25  26
ENDBRANCH  24  25
ENDBRANCH   1  24
TORSDOF 14
ENDMDL
MODEL 3
REMARK VINA RESULT:     -12.2      7.163     11.015
REMARK SMILES Cc1ccc(/C=C2\SC(=S)N([C@H](C(=O)OCCOC(=O)c3ccc(-c4c5nc(c(-c6c(F)cccc6F)c6ccc([nH]6)c(-c6c(F)cccc6F)c6nc(c(-c7c(F)cccc7F)c7ccc4[nH]7)C=C6)C=C5)cc3)C(C)C)C2=O)cc1
REMARK SMILES IDX 16 1 15 2 13 3 14 4 12 5 11 6 6 7 7 8 8 9 78 10 9 11 79 12
REMARK SMILES IDX 10 13 5 14 1 15 2 16 3 17 81 18 4 19 80 20 75 21 76 22 77 23
REMARK SMILES IDX 17 24 18 25 19 26 20 27 21 28 22 29 74 30 23 31 73 32 24 33
REMARK SMILES IDX 25 34 26 35 67 36 27 37 72 38 66 39 68 40 28 41 71 42 65 43
REMARK SMILES IDX 64 44 29 46 55 47 38 48 54 49 39 50 42 51 53 52 69 53 40 54
REMARK SMILES IDX 41 55 52 57 70 58 43 59 30 60 31 61 36 62 32 63 33 64 35 65
REMARK SMILES IDX 37 66 34 67 56 68 57 69 62 70 58 71 59 72 61 73 63 74 60 75
REMARK SMILES IDX 44 76 45 77 50 78 46 79 47 80 49 81 51 82 48 83
REMARK H PARENT 68 45 42 56
REMARK Flexibility Score: inf
ROOT
ATOM      1  C   UNL A   1      38.709  33.861  37.462  1.00  0.00     0.274 C 
ENDROOT
BRANCH   1   2
ATOM      2  O   UNL A   1      37.912  33.929  36.263  1.00  0.00    -0.461 OA
BRANCH   2   3
ATOM      3  C   UNL A   1      37.615  32.708  35.753  1.00  0.00     0.329 C 
ATOM      4  O   UNL A   1      37.340  31.786  36.522  1.00  0.00    -0.250 OA
BRANCH   3   5
ATOM      5  C   UNL A   1      37.659  32.584  33.933  1.00  0.00     0.204 C 
BRANCH   5   6
ATOM      6  N   UNL A   1      38.248  31.042  32.598  1.00  0.00    -0.278 N 
ATOM      7  C   UNL A   1      37.983  29.194  29.275  1.00  0.00     0.029 C 
ATOM      8  C   UNL A   1      38.350  30.066  30.228  1.00  0.00     0.081 C 
ATOM      9  S   UNL A   1      39.896  30.723  30.496  1.00  0.00    -0.054 SA
ATOM     10  C   UNL A   1      37.524  30.260  31.491  1.00  0.00     0.267 C 
ATOM     11  C   UNL A   1      39.510  30.389  32.211  1.00  0.00     0.149 C 
ATOM     12  O   UNL A   1      36.456  29.644  31.567  1.00  0.00    -0.268 OA
ATOM     13  S   UNL A   1      40.199  28.931  32.759  1.00  0.00    -0.052 S 
BRANCH   7  14
ATOM     14  C   UNL A   1      38.930  28.570  28.341  1.00  0.00    -0.024 A 
ATOM     15  C   UNL A   1      42.040  26.718  25.996  1.00  0.00     0.044 C 
ATOM     16  C   UNL A   1      40.920  27.338  26.778  1.00  0.00    -0.051 A 
ATOM     17  C   UNL A   1      40.528  28.658  26.525  1.00  0.00     0.004 A 
ATOM     18  C   UNL A   1      40.292  26.628  27.804  1.00  0.00     0.004 A 
ATOM     19  C   UNL A   1      39.536  29.271  27.297  1.00  0.00     0.008 A 
ATOM     20  C   UNL A   1      39.301  27.239  28.577  1.00  0.00     0.008 A 
ENDBRANCH   7  14
ENDBRANCH   5   6
BRANCH   5  21
ATOM     21  C   UNL A   1      36.089  33.628  33.900  1.00  0.00     0.017 C 
ATOM     22  C   UNL A   1      36.336  34.849  32.976  1.00  0.00     0.010 C 
ATOM     23  C   UNL A   1      34.598  33.269  33.623  1.00  0.00     0.010 C 
ENDBRANCH   5  21
ENDBRANCH   3   5
ENDBRANCH   2   3
ENDBRANCH   1   2
BRANCH   1  24
ATOM     24  C   UNL A   1      39.246  35.215  37.990  1.00  0.00     0.275 C 
BRANCH  24  25
ATOM     25  O   UNL A   1      39.894  35.965  36.945  1.00  0.00    -0.458 OA
BRANCH  25  26
ATOM     26  C   UNL A   1      41.231  35.756  36.795  1.00  0.00     0.338 C 
ATOM     27  O   UNL A   1      42.017  35.323  37.612  1.00  0.00    -0.246 OA
BRANCH  26  28
ATOM     28  C   UNL A   1      41.515  35.859  35.348  1.00  0.00     0.060 A 
ATOM     29  C   UNL A   1      42.817  36.860  34.594  1.00  0.00     0.016 A 
ATOM     30  C   UNL A   1      40.666  34.652  34.308  1.00  0.00     0.016 A 
ATOM     31  C   UNL A   1      43.372  36.477  32.868  1.00  0.00     0.010 A 
ATOM     32  C   UNL A   1      41.250  34.265  32.688  1.00  0.00     0.010 A 
ATOM     33  C   UNL A   1      42.627  35.135  31.914  1.00  0.00    -0.014 A 
BRANCH  33  34
ATOM     34  C   UNL A   1      43.028  34.638  30.546  1.00  0.00     0.031 A 
ATOM     35  C   UNL A   1      43.914  33.476  30.229  1.00  0.00     0.074 A 
ATOM     36  C   UNL A   1      42.775  35.362  29.416  1.00  0.00     0.049 A 
ATOM     37  N   UNL A   1      44.957  33.581  29.447  1.00  0.00    -0.248 NA
ATOM     38  C   UNL A   1      43.629  32.103  30.630  1.00  0.00     0.031 C 
ATOM     39  C   UNL A   1      42.962  34.939  28.026  1.00  0.00     0.029 A 
ATOM     40  N   UNL A   1      42.513  36.726  29.294  1.00  0.00    -0.354 N 
ATOM     41  C   UNL A   1      45.263  32.310  29.017  1.00  0.00     0.074 A 
ATOM     42  C   UNL A   1      44.503  31.419  29.875  1.00  0.00     0.031 C 
ATOM     43  C   UNL A   1      43.076  36.023  27.243  1.00  0.00     0.029 A 
ATOM     44  C   UNL A   1      42.934  37.214  28.057  1.00  0.00     0.049 A 
ATOM     45  H   UNL A   1      42.086  37.274  29.991  1.00  0.00     0.167 HD
ATOM     46  C   UNL A   1      45.947  32.052  27.866  1.00  0.00     0.037 A 
ATOM     47  C   UNL A   1      43.444  38.461  27.860  1.00  0.00     0.037 A 
ATOM     48  C   UNL A   1      46.209  33.196  27.004  1.00  0.00     0.049 A 
ATOM     49  C   UNL A   1      44.824  38.414  27.254  1.00  0.00     0.074 A 
ATOM     50  C   UNL A   1      45.654  33.568  25.789  1.00  0.00     0.029 A 
ATOM     51  N   UNL A   1      47.026  34.254  27.393  1.00  0.00    -0.354 N 
ATOM     52  N   UNL A   1      45.429  37.298  26.977  1.00  0.00    -0.248 NA
ATOM     53  C   UNL A   1      45.693  39.574  27.046  1.00  0.00     0.031 C 
ATOM     54  C   UNL A   1      46.219  34.788  25.387  1.00  0.00     0.029 A 
ATOM     55  C   UNL A   1      47.023  35.236  26.415  1.00  0.00     0.049 A 
ATOM     56  H   UNL A   1      47.531  34.297  28.237  1.00  0.00     0.167 HD
ATOM     57  C   UNL A   1      46.753  37.554  26.744  1.00  0.00     0.074 A 
ATOM     58  C   UNL A   1      46.872  38.993  26.770  1.00  0.00     0.031 C 
ATOM     59  C   UNL A   1      47.640  36.534  26.598  1.00  0.00     0.037 A 
BRANCH  46  60
ATOM     60  C   UNL A   1      46.176  30.642  27.388  1.00  0.00     0.057 A 
ATOM     61  C   UNL A   1      45.180  29.840  26.809  1.00  0.00     0.134 A 
ATOM     62  C   UNL A   1      47.437  30.049  27.432  1.00  0.00     0.134 A 
ATOM     63  F   UNL A   1      43.918  30.256  26.711  1.00  0.00    -0.206 F 
ATOM     64  C   UNL A   1      45.403  28.548  26.321  1.00  0.00     0.040 A 
ATOM     65  C   UNL A   1      47.669  28.743  26.982  1.00  0.00     0.040 A 
ATOM     66  F   UNL A   1      48.489  30.720  27.920  1.00  0.00    -0.206 F 
ATOM     67  C   UNL A   1      46.655  27.985  26.419  1.00  0.00     0.006 A 
ENDBRANCH  46  60
BRANCH  47  68
ATOM     68  C   UNL A   1      42.921  39.542  28.747  1.00  0.00     0.057 A 
ATOM     69  C   UNL A   1      41.700  40.159  28.410  1.00  0.00     0.134 A 
ATOM     70  C   UNL A   1      43.470  39.915  29.978  1.00  0.00     0.134 A 
ATOM     71  F   UNL A   1      41.106  39.897  27.234  1.00  0.00    -0.206 F 
ATOM     72  C   UNL A   1      41.026  41.017  29.282  1.00  0.00     0.040 A 
ATOM     73  C   UNL A   1      42.811  40.785  30.856  1.00  0.00     0.040 A 
ATOM     74  F   UNL A   1      44.623  39.390  30.411  1.00  0.00    -0.206 F 
ATOM     75  C   UNL A   1      41.575  41.321  30.520  1.00  0.00     0.006 A 
ENDBRANCH  47  68
BRANCH  59  76
ATOM     76  C   UNL A   1      49.105  36.738  26.460  1.00  0.00     0.057 A 
ATOM     77  C   UNL A   1      49.767  36.727  25.233  1.00  0.00     0.134 A 
ATOM     78  C   UNL A   1      49.898  37.039  27.569  1.00  0.00     0.134 A 
ATOM     79  F   UNL A   1      49.093  36.505  24.099  1.00  0.00    -0.206 F 
ATOM     80  C   UNL A   1      51.142  36.965  25.117  1.00  0.00     0.040 A 
ATOM     81  C   UNL A   1      51.270  37.300  27.463  1.00  0.00     0.040 A 
ATOM     82  F   UNL A   1      49.369  37.083  28.797  1.00  0.00    -0.206 F 
ATOM     83  C   UNL A   1      51.904  37.258  26.234  1.00  0.00     0.006 A 
ENDBRANCH  59  76
ENDBRANCH  33  34
ENDBRANCH  26  28
ENDBRANCH  25  26
ENDBRANCH  24  25
ENDBRANCH   1  24
TORSDOF 14
ENDMDL
