MODEL 1
REMARK VINA RESULT:     -10.4      0.000      0.000
REMARK SMILES Cc1cc2c(cc1C)O[C@@H](C(=O)OCCOC(=O)c1ccc(-c3c4nc(c(-c5c(F)cccc5F)c5ccc([nH]5)c(-c5c(F)cccc5F)c5nc(c(-c6c(F)cccc6F)c6ccc3[nH]6)C=C5)C=C4)cc1)C2
REMARK SMILES IDX 15 1 14 2 13 3 11 4 12 5 10 6 1 7 2 8 3 9 7 10 4 11 6 12
REMARK SMILES IDX 8 13 5 14 73 15 9 16 16 17 17 18 18 19 19 20 20 21 72 22
REMARK SMILES IDX 21 23 71 24 22 25 23 26 24 27 65 28 25 29 70 30 64 31 66 32
REMARK SMILES IDX 26 33 69 34 63 35 62 36 27 38 53 39 36 40 52 41 37 42 40 43
REMARK SMILES IDX 51 44 67 45 38 46 39 47 50 49 68 50 41 51 28 52 29 53 34 54
REMARK SMILES IDX 30 55 31 56 33 57 35 58 32 59 54 60 55 61 60 62 56 63 57 64
REMARK SMILES IDX 59 65 61 66 58 67 42 68 43 69 48 70 44 71 45 72 47 73 49 74
REMARK SMILES IDX 46 75
REMARK H PARENT 66 37 40 48
REMARK Flexibility Score: inf
ROOT
ATOM      1  C   UNL A   1      32.517  35.794  30.364  1.00  0.00     0.275 C 
ENDROOT
BRANCH   1   2
ATOM      2  C   UNL A   1      33.226  36.811  31.259  1.00  0.00     0.274 C 
BRANCH   2   3
ATOM      3  O   UNL A   1      34.326  36.189  31.945  1.00  0.00    -0.459 OA
BRANCH   3   4
ATOM      4  C   UNL A   1      34.281  36.139  33.310  1.00  0.00     0.347 C 
ATOM      5  O   UNL A   1      33.931  37.060  34.036  1.00  0.00    -0.248 OA
BRANCH   4   6
ATOM      6  C   UNL A   1      34.719  34.761  33.781  1.00  0.00     0.287 C 
ATOM      7  C   UNL A   1      37.701  29.584  33.137  1.00  0.00     0.044 C 
ATOM      8  C   UNL A   1      37.332  31.008  33.459  1.00  0.00    -0.048 A 
ATOM      9  C   UNL A   1      36.184  31.562  32.854  1.00  0.00     0.011 A 
ATOM     10  C   UNL A   1      38.126  31.802  34.331  1.00  0.00    -0.045 A 
ATOM     11  C   UNL A   1      35.818  32.856  33.171  1.00  0.00    -0.001 A 
ATOM     12  C   UNL A   1      37.732  33.117  34.624  1.00  0.00     0.050 A 
ATOM     13  C   UNL A   1      39.373  31.294  35.005  1.00  0.00     0.045 C 
ATOM     14  C   UNL A   1      36.575  33.601  34.055  1.00  0.00     0.124 A 
ATOM     15  C   UNL A   1      34.696  33.694  32.680  1.00  0.00     0.097 C 
ATOM     16  O   UNL A   1      36.062  34.845  34.303  1.00  0.00    -0.478 OA
ENDBRANCH   4   6
ENDBRANCH   3   4
ENDBRANCH   2   3
ENDBRANCH   1   2
BRANCH   1  17
ATOM     17  O   UNL A   1      33.157  35.718  29.079  1.00  0.00    -0.458 OA
BRANCH  17  18
ATOM     18  C   UNL A   1      33.169  34.493  28.496  1.00  0.00     0.338 C 
ATOM     19  O   UNL A   1      32.330  34.021  27.757  1.00  0.00    -0.246 OA
BRANCH  18  20
ATOM     20  C   UNL A   1      34.450  33.837  28.829  1.00  0.00     0.060 A 
ATOM     21  C   UNL A   1      34.488  32.499  29.230  1.00  0.00     0.016 A 
ATOM     22  C   UNL A   1      35.628  34.582  28.738  1.00  0.00     0.016 A 
ATOM     23  C   UNL A   1      35.709  31.919  29.579  1.00  0.00     0.010 A 
ATOM     24  C   UNL A   1      36.850  33.997  29.075  1.00  0.00     0.010 A 
ATOM     25  C   UNL A   1      36.898  32.666  29.515  1.00  0.00    -0.014 A 
BRANCH  25  26
ATOM     26  C   UNL A   1      38.193  32.057  29.905  1.00  0.00     0.031 A 
ATOM     27  C   UNL A   1      39.135  32.789  30.820  1.00  0.00     0.074 A 
ATOM     28  C   UNL A   1      38.530  30.847  29.420  1.00  0.00     0.049 A 
ATOM     29  N   UNL A   1      40.301  32.408  31.280  1.00  0.00    -0.248 NA
ATOM     30  C   UNL A   1      38.720  34.126  31.273  1.00  0.00     0.031 C 
ATOM     31  C   UNL A   1      37.715  30.054  28.501  1.00  0.00     0.029 A 
ATOM     32  N   UNL A   1      39.645  30.075  29.629  1.00  0.00    -0.354 N 
ATOM     33  C   UNL A   1      40.754  33.450  32.076  1.00  0.00     0.074 A 
ATOM     34  C   UNL A   1      39.762  34.500  32.005  1.00  0.00     0.031 C 
ATOM     35  C   UNL A   1      38.349  28.901  28.237  1.00  0.00     0.029 A 
ATOM     36  C   UNL A   1      39.628  28.886  28.943  1.00  0.00     0.049 A 
ATOM     37  H   UNL A   1      40.388  30.349  30.215  1.00  0.00     0.167 HD
ATOM     38  C   UNL A   1      41.889  33.516  32.813  1.00  0.00     0.037 A 
ATOM     39  C   UNL A   1      40.542  27.898  28.882  1.00  0.00     0.037 A 
ATOM     40  C   UNL A   1      42.872  32.467  32.887  1.00  0.00     0.049 A 
ATOM     41  C   UNL A   1      41.808  28.012  29.686  1.00  0.00     0.074 A 
ATOM     42  C   UNL A   1      44.026  32.424  33.652  1.00  0.00     0.029 A 
ATOM     43  N   UNL A   1      42.827  31.284  32.166  1.00  0.00    -0.354 N 
ATOM     44  N   UNL A   1      42.189  28.971  30.496  1.00  0.00    -0.248 NA
ATOM     45  C   UNL A   1      42.768  26.905  29.576  1.00  0.00     0.031 C 
ATOM     46  C   UNL A   1      44.707  31.241  33.352  1.00  0.00     0.029 A 
ATOM     47  C   UNL A   1      43.948  30.519  32.444  1.00  0.00     0.049 A 
ATOM     48  H   UNL A   1      42.105  31.026  31.548  1.00  0.00     0.167 HD
ATOM     49  C   UNL A   1      43.418  28.575  31.005  1.00  0.00     0.074 A 
ATOM     50  C   UNL A   1      43.712  27.279  30.430  1.00  0.00     0.031 C 
ATOM     51  C   UNL A   1      44.232  29.229  31.869  1.00  0.00     0.037 A 
BRANCH  38  52
ATOM     52  C   UNL A   1      42.137  34.759  33.620  1.00  0.00     0.057 A 
ATOM     53  C   UNL A   1      42.840  35.848  33.092  1.00  0.00     0.134 A 
ATOM     54  C   UNL A   1      41.578  34.908  34.896  1.00  0.00     0.134 A 
ATOM     55  F   UNL A   1      43.405  35.769  31.877  1.00  0.00    -0.206 F 
ATOM     56  C   UNL A   1      42.982  37.040  33.805  1.00  0.00     0.040 A 
ATOM     57  C   UNL A   1      41.691  36.103  35.607  1.00  0.00     0.040 A 
ATOM     58  F   UNL A   1      40.883  33.906  35.456  1.00  0.00    -0.206 F 
ATOM     59  C   UNL A   1      42.395  37.174  35.062  1.00  0.00     0.006 A 
ENDBRANCH  38  52
BRANCH  39  60
ATOM     60  C   UNL A   1      40.282  26.705  28.038  1.00  0.00     0.057 A 
ATOM     61  C   UNL A   1      39.452  25.669  28.483  1.00  0.00     0.134 A 
ATOM     62  C   UNL A   1      40.846  26.574  26.763  1.00  0.00     0.134 A 
ATOM     63  F   UNL A   1      38.897  25.726  29.703  1.00  0.00    -0.206 F 
ATOM     64  C   UNL A   1      39.203  24.542  27.698  1.00  0.00     0.040 A 
ATOM     65  C   UNL A   1      40.585  25.466  25.956  1.00  0.00     0.040 A 
ATOM     66  F   UNL A   1      41.647  27.533  26.275  1.00  0.00    -0.206 F 
ATOM     67  C   UNL A   1      39.764  24.442  26.427  1.00  0.00     0.006 A 
ENDBRANCH  39  60
BRANCH  51  68
ATOM     68  C   UNL A   1      45.515  28.557  32.265  1.00  0.00     0.057 A 
ATOM     69  C   UNL A   1      46.712  28.790  31.577  1.00  0.00     0.134 A 
ATOM     70  C   UNL A   1      45.569  27.726  33.393  1.00  0.00     0.134 A 
ATOM     71  F   UNL A   1      46.728  29.568  30.484  1.00  0.00    -0.206 F 
ATOM     72  C   UNL A   1      47.914  28.212  31.987  1.00  0.00     0.040 A 
ATOM     73  C   UNL A   1      46.770  27.165  33.830  1.00  0.00     0.040 A 
ATOM     74  F   UNL A   1      44.462  27.469  34.105  1.00  0.00    -0.206 F 
ATOM     75  C   UNL A   1      47.947  27.405  33.123  1.00  0.00     0.006 A 
ENDBRANCH  51  68
ENDBRANCH  25  26
ENDBRANCH  18  20
ENDBRANCH  17  18
ENDBRANCH   1  17
TORSDOF 11
ENDMDL
MODEL 2
REMARK VINA RESULT:     -10.3      5.927     11.282
REMARK SMILES Cc1cc2c(cc1C)O[C@@H](C(=O)OCCOC(=O)c1ccc(-c3c4nc(c(-c5c(F)cccc5F)c5ccc([nH]5)c(-c5c(F)cccc5F)c5nc(c(-c6c(F)cccc6F)c6ccc3[nH]6)C=C5)C=C4)cc1)C2
REMARK SMILES IDX 15 1 14 2 13 3 11 4 12 5 10 6 1 7 2 8 3 9 7 10 4 11 6 12
REMARK SMILES IDX 8 13 5 14 73 15 9 16 16 17 17 18 18 19 19 20 20 21 72 22
REMARK SMILES IDX 21 23 71 24 22 25 23 26 24 27 65 28 25 29 70 30 64 31 66 32
REMARK SMILES IDX 26 33 69 34 63 35 62 36 27 38 53 39 36 40 52 41 37 42 40 43
REMARK SMILES IDX 51 44 67 45 38 46 39 47 50 49 68 50 41 51 28 52 29 53 34 54
REMARK SMILES IDX 30 55 31 56 33 57 35 58 32 59 54 60 55 61 60 62 56 63 57 64
REMARK SMILES IDX 59 65 61 66 58 67 42 68 43 69 48 70 44 71 45 72 47 73 49 74
REMARK SMILES IDX 46 75
REMARK H PARENT 66 37 40 48
REMARK Flexibility Score: inf
ROOT
ATOM      1  C   UNL A   1      43.194  18.714  24.998  1.00  0.00     0.275 C 
ENDROOT
BRANCH   1   2
ATOM      2  C   UNL A   1      44.630  19.130  25.317  1.00  0.00     0.274 C 
BRANCH   2   3
ATOM      3  O   UNL A   1      44.747  20.564  25.312  1.00  0.00    -0.459 OA
BRANCH   3   4
ATOM      4  C   UNL A   1      45.841  21.113  24.706  1.00  0.00     0.347 C 
ATOM      5  O   UNL A   1      46.879  20.515  24.454  1.00  0.00    -0.248 OA
BRANCH   4   6
ATOM      6  C   UNL A   1      45.562  22.573  24.383  1.00  0.00     0.287 C 
ATOM      7  C   UNL A   1      42.970  27.887  25.450  1.00  0.00     0.044 C 
ATOM      8  C   UNL A   1      43.917  26.717  25.448  1.00  0.00    -0.048 A 
ATOM      9  C   UNL A   1      43.443  25.465  25.002  1.00  0.00     0.011 A 
ATOM     10  C   UNL A   1      45.256  26.845  25.907  1.00  0.00    -0.045 A 
ATOM     11  C   UNL A   1      44.315  24.393  24.963  1.00  0.00    -0.001 A 
ATOM     12  C   UNL A   1      46.114  25.734  25.864  1.00  0.00     0.050 A 
ATOM     13  C   UNL A   1      45.836  28.139  26.414  1.00  0.00     0.045 C 
ATOM     14  C   UNL A   1      45.627  24.544  25.370  1.00  0.00     0.124 A 
ATOM     15  C   UNL A   1      44.095  22.979  24.572  1.00  0.00     0.097 C 
ATOM     16  O   UNL A   1      46.377  23.408  25.232  1.00  0.00    -0.478 OA
ENDBRANCH   4   6
ENDBRANCH   3   4
ENDBRANCH   2   3
ENDBRANCH   1   2
BRANCH   1  17
ATOM     17  O   UNL A   1      42.388  18.723  26.189  1.00  0.00    -0.458 OA
BRANCH  17  18
ATOM     18  C   UNL A   1      41.234  19.433  26.117  1.00  0.00     0.338 C 
ATOM     19  O   UNL A   1      40.150  19.039  25.740  1.00  0.00    -0.246 OA
BRANCH  18  20
ATOM     20  C   UNL A   1      41.483  20.775  26.679  1.00  0.00     0.060 A 
ATOM     21  C   UNL A   1      40.924  21.914  26.094  1.00  0.00     0.016 A 
ATOM     22  C   UNL A   1      42.295  20.888  27.810  1.00  0.00     0.016 A 
ATOM     23  C   UNL A   1      41.211  23.174  26.623  1.00  0.00     0.010 A 
ATOM     24  C   UNL A   1      42.572  22.147  28.346  1.00  0.00     0.010 A 
ATOM     25  C   UNL A   1      42.047  23.301  27.746  1.00  0.00    -0.014 A 
BRANCH  25  26
ATOM     26  C   UNL A   1      42.370  24.640  28.297  1.00  0.00     0.031 A 
ATOM     27  C   UNL A   1      43.765  24.956  28.763  1.00  0.00     0.074 A 
ATOM     28  C   UNL A   1      41.402  25.570  28.392  1.00  0.00     0.049 A 
ATOM     29  N   UNL A   1      44.234  26.074  29.258  1.00  0.00    -0.248 NA
ATOM     30  C   UNL A   1      44.759  23.876  28.670  1.00  0.00     0.031 C 
ATOM     31  C   UNL A   1      40.006  25.372  28.002  1.00  0.00     0.029 A 
ATOM     32  N   UNL A   1      41.441  26.863  28.850  1.00  0.00    -0.354 N 
ATOM     33  C   UNL A   1      45.574  25.835  29.530  1.00  0.00     0.074 A 
ATOM     34  C   UNL A   1      45.836  24.454  29.187  1.00  0.00     0.031 C 
ATOM     35  C   UNL A   1      39.325  26.508  28.222  1.00  0.00     0.029 A 
ATOM     36  C   UNL A   1      40.227  27.503  28.796  1.00  0.00     0.049 A 
ATOM     37  H   UNL A   1      42.262  27.292  29.185  1.00  0.00     0.167 HD
ATOM     38  C   UNL A   1      46.505  26.697  30.005  1.00  0.00     0.037 A 
ATOM     39  C   UNL A   1      39.877  28.748  29.173  1.00  0.00     0.037 A 
ATOM     40  C   UNL A   1      46.243  28.073  30.340  1.00  0.00     0.049 A 
ATOM     41  C   UNL A   1      40.925  29.674  29.728  1.00  0.00     0.074 A 
ATOM     42  C   UNL A   1      47.138  29.035  30.776  1.00  0.00     0.029 A 
ATOM     43  N   UNL A   1      44.998  28.680  30.286  1.00  0.00    -0.354 N 
ATOM     44  N   UNL A   1      42.206  29.459  29.908  1.00  0.00    -0.248 NA
ATOM     45  C   UNL A   1      40.482  31.018  30.125  1.00  0.00     0.031 C 
ATOM     46  C   UNL A   1      46.426  30.208  31.040  1.00  0.00     0.029 A 
ATOM     47  C   UNL A   1      45.097  29.994  30.712  1.00  0.00     0.049 A 
ATOM     48  H   UNL A   1      44.169  28.242  29.989  1.00  0.00     0.167 HD
ATOM     49  C   UNL A   1      42.724  30.641  30.418  1.00  0.00     0.074 A 
ATOM     50  C   UNL A   1      41.624  31.580  30.501  1.00  0.00     0.031 C 
ATOM     51  C   UNL A   1      43.997  30.922  30.789  1.00  0.00     0.037 A 
BRANCH  38  52
ATOM     52  C   UNL A   1      47.909  26.193  30.187  1.00  0.00     0.057 A 
ATOM     53  C   UNL A   1      48.850  26.255  29.152  1.00  0.00     0.134 A 
ATOM     54  C   UNL A   1      48.352  25.742  31.437  1.00  0.00     0.134 A 
ATOM     55  F   UNL A   1      48.490  26.674  27.929  1.00  0.00    -0.206 F 
ATOM     56  C   UNL A   1      50.180  25.883  29.353  1.00  0.00     0.040 A 
ATOM     57  C   UNL A   1      49.685  25.391  31.656  1.00  0.00     0.040 A 
ATOM     58  F   UNL A   1      47.504  25.668  32.474  1.00  0.00    -0.206 F 
ATOM     59  C   UNL A   1      50.604  25.461  30.612  1.00  0.00     0.006 A 
ENDBRANCH  38  52
BRANCH  39  60
ATOM     60  C   UNL A   1      38.470  29.196  29.020  1.00  0.00     0.057 A 
ATOM     61  C   UNL A   1      37.984  29.651  27.789  1.00  0.00     0.134 A 
ATOM     62  C   UNL A   1      37.575  29.172  30.097  1.00  0.00     0.134 A 
ATOM     63  F   UNL A   1      38.797  29.716  26.725  1.00  0.00    -0.206 F 
ATOM     64  C   UNL A   1      36.663  30.076  27.636  1.00  0.00     0.040 A 
ATOM     65  C   UNL A   1      36.244  29.569  29.952  1.00  0.00     0.040 A 
ATOM     66  F   UNL A   1      37.976  28.743  31.303  1.00  0.00    -0.206 F 
ATOM     67  C   UNL A   1      35.787  30.028  28.718  1.00  0.00     0.006 A 
ENDBRANCH  39  60
BRANCH  51  68
ATOM     68  C   UNL A   1      44.285  32.303  31.305  1.00  0.00     0.057 A 
ATOM     69  C   UNL A   1      44.205  32.612  32.668  1.00  0.00     0.134 A 
ATOM     70  C   UNL A   1      44.721  33.314  30.438  1.00  0.00     0.134 A 
ATOM     71  F   UNL A   1      43.786  31.692  33.550  1.00  0.00    -0.206 F 
ATOM     72  C   UNL A   1      44.534  33.879  33.150  1.00  0.00     0.040 A 
ATOM     73  C   UNL A   1      45.081  34.578  30.911  1.00  0.00     0.040 A 
ATOM     74  F   UNL A   1      44.831  33.084  29.121  1.00  0.00    -0.206 F 
ATOM     75  C   UNL A   1      44.984  34.863  32.271  1.00  0.00     0.006 A 
ENDBRANCH  51  68
ENDBRANCH  25  26
ENDBRANCH  18  20
ENDBRANCH  17  18
ENDBRANCH   1  17
TORSDOF 11
ENDMDL
MODEL 3
REMARK VINA RESULT:     -10.2      0.723      2.063
REMARK SMILES Cc1cc2c(cc1C)O[C@@H](C(=O)OCCOC(=O)c1ccc(-c3c4nc(c(-c5c(F)cccc5F)c5ccc([nH]5)c(-c5c(F)cccc5F)c5nc(c(-c6c(F)cccc6F)c6ccc3[nH]6)C=C5)C=C4)cc1)C2
REMARK SMILES IDX 15 1 14 2 13 3 11 4 12 5 10 6 1 7 2 8 3 9 7 10 4 11 6 12
REMARK SMILES IDX 8 13 5 14 73 15 9 16 16 17 17 18 18 19 19 20 20 21 72 22
REMARK SMILES IDX 21 23 71 24 22 25 23 26 24 27 65 28 25 29 70 30 64 31 66 32
REMARK SMILES IDX 26 33 69 34 63 35 62 36 27 38 53 39 36 40 52 41 37 42 40 43
REMARK SMILES IDX 51 44 67 45 38 46 39 47 50 49 68 50 41 51 28 52 29 53 34 54
REMARK SMILES IDX 30 55 31 56 33 57 35 58 32 59 54 60 55 61 60 62 56 63 57 64
REMARK SMILES IDX 59 65 61 66 58 67 42 68 43 69 48 70 44 71 45 72 47 73 49 74
REMARK SMILES IDX 46 75
REMARK H PARENT 66 37 40 48
REMARK Flexibility Score: inf
ROOT
ATOM      1  C   UNL A   1      33.282  36.362  28.877  1.00  0.00     0.275 C 
ENDROOT
BRANCH   1   2
ATOM      2  C   UNL A   1      33.300  37.193  30.160  1.00  0.00     0.274 C 
BRANCH   2   3
ATOM      3  O   UNL A   1      32.237  36.780  31.036  1.00  0.00    -0.459 OA
BRANCH   3   4
ATOM      4  C   UNL A   1      32.551  36.510  32.338  1.00  0.00     0.347 C 
ATOM      5  O   UNL A   1      31.845  36.777  33.302  1.00  0.00    -0.248 OA
BRANCH   4   6
ATOM      6  C   UNL A   1      33.903  35.815  32.399  1.00  0.00     0.287 C 
ATOM      7  C   UNL A   1      37.961  32.227  34.999  1.00  0.00     0.044 C 
ATOM      8  C   UNL A   1      36.808  32.751  34.186  1.00  0.00    -0.048 A 
ATOM      9  C   UNL A   1      36.311  34.041  34.471  1.00  0.00     0.011 A 
ATOM     10  C   UNL A   1      36.202  31.968  33.166  1.00  0.00    -0.045 A 
ATOM     11  C   UNL A   1      35.276  34.545  33.706  1.00  0.00    -0.001 A 
ATOM     12  C   UNL A   1      35.145  32.506  32.414  1.00  0.00     0.050 A 
ATOM     13  C   UNL A   1      36.659  30.579  32.809  1.00  0.00     0.045 C 
ATOM     14  C   UNL A   1      34.727  33.789  32.688  1.00  0.00     0.124 A 
ATOM     15  C   UNL A   1      34.548  35.835  33.790  1.00  0.00     0.097 C 
ATOM     16  O   UNL A   1      33.744  34.438  31.993  1.00  0.00    -0.478 OA
ENDBRANCH   4   6
ENDBRANCH   3   4
ENDBRANCH   2   3
ENDBRANCH   1   2
BRANCH   1  17
ATOM     17  O   UNL A   1      32.659  35.087  29.109  1.00  0.00    -0.458 OA
BRANCH  17  18
ATOM     18  C   UNL A   1      32.947  34.115  28.206  1.00  0.00     0.338 C 
ATOM     19  O   UNL A   1      32.313  33.820  27.215  1.00  0.00    -0.246 OA
BRANCH  18  20
ATOM     20  C   UNL A   1      34.247  33.518  28.572  1.00  0.00     0.060 A 
ATOM     21  C   UNL A   1      34.337  32.180  28.967  1.00  0.00     0.016 A 
ATOM     22  C   UNL A   1      35.391  34.317  28.519  1.00  0.00     0.016 A 
ATOM     23  C   UNL A   1      35.573  31.655  29.348  1.00  0.00     0.010 A 
ATOM     24  C   UNL A   1      36.629  33.788  28.887  1.00  0.00     0.010 A 
ATOM     25  C   UNL A   1      36.727  32.458  29.322  1.00  0.00    -0.014 A 
BRANCH  25  26
ATOM     26  C   UNL A   1      38.038  31.907  29.746  1.00  0.00     0.031 A 
ATOM     27  C   UNL A   1      38.925  32.683  30.680  1.00  0.00     0.074 A 
ATOM     28  C   UNL A   1      38.438  30.711  29.275  1.00  0.00     0.049 A 
ATOM     29  N   UNL A   1      40.095  32.355  31.168  1.00  0.00    -0.248 NA
ATOM     30  C   UNL A   1      38.441  34.002  31.116  1.00  0.00     0.031 C 
ATOM     31  C   UNL A   1      37.680  29.879  28.341  1.00  0.00     0.029 A 
ATOM     32  N   UNL A   1      39.581  29.989  29.514  1.00  0.00    -0.354 N 
ATOM     33  C   UNL A   1      40.483  33.419  31.970  1.00  0.00     0.074 A 
ATOM     34  C   UNL A   1      39.448  34.424  31.870  1.00  0.00     0.031 C 
ATOM     35  C   UNL A   1      38.371  28.754  28.098  1.00  0.00     0.029 A 
ATOM     36  C   UNL A   1      39.632  28.798  28.834  1.00  0.00     0.049 A 
ATOM     37  H   UNL A   1      40.297  30.297  30.117  1.00  0.00     0.167 HD
ATOM     38  C   UNL A   1      41.596  33.537  32.734  1.00  0.00     0.037 A 
ATOM     39  C   UNL A   1      40.589  27.850  28.799  1.00  0.00     0.037 A 
ATOM     40  C   UNL A   1      42.622  32.532  32.836  1.00  0.00     0.049 A 
ATOM     41  C   UNL A   1      41.829  28.023  29.633  1.00  0.00     0.074 A 
ATOM     42  C   UNL A   1      43.758  32.542  33.629  1.00  0.00     0.029 A 
ATOM     43  N   UNL A   1      42.645  31.345  32.120  1.00  0.00    -0.354 N 
ATOM     44  N   UNL A   1      42.148  29.000  30.447  1.00  0.00    -0.248 NA
ATOM     45  C   UNL A   1      42.839  26.957  29.552  1.00  0.00     0.031 C 
ATOM     46  C   UNL A   1      44.496  31.389  33.350  1.00  0.00     0.029 A 
ATOM     47  C   UNL A   1      43.792  30.631  32.429  1.00  0.00     0.049 A 
ATOM     48  H   UNL A   1      41.951  31.054  31.487  1.00  0.00     0.167 HD
ATOM     49  C   UNL A   1      43.381  28.660  30.987  1.00  0.00     0.074 A 
ATOM     50  C   UNL A   1      43.745  27.375  30.426  1.00  0.00     0.031 C 
ATOM     51  C   UNL A   1      44.145  29.353  31.867  1.00  0.00     0.037 A 
BRANCH  38  52
ATOM     52  C   UNL A   1      41.771  34.792  33.540  1.00  0.00     0.057 A 
ATOM     53  C   UNL A   1      41.235  34.918  34.827  1.00  0.00     0.134 A 
ATOM     54  C   UNL A   1      42.571  35.840  33.068  1.00  0.00     0.134 A 
ATOM     55  F   UNL A   1      40.456  33.952  35.337  1.00  0.00    -0.206 F 
ATOM     56  C   UNL A   1      41.485  36.044  35.615  1.00  0.00     0.040 A 
ATOM     57  C   UNL A   1      42.849  36.959  33.855  1.00  0.00     0.040 A 
ATOM     58  F   UNL A   1      43.124  35.779  31.847  1.00  0.00    -0.206 F 
ATOM     59  C   UNL A   1      42.305  37.062  35.134  1.00  0.00     0.006 A 
ENDBRANCH  38  52
BRANCH  39  60
ATOM     60  C   UNL A   1      40.401  26.643  27.956  1.00  0.00     0.057 A 
ATOM     61  C   UNL A   1      41.008  26.535  26.700  1.00  0.00     0.134 A 
ATOM     62  C   UNL A   1      39.618  25.565  28.388  1.00  0.00     0.134 A 
ATOM     63  F   UNL A   1      41.754  27.542  26.222  1.00  0.00    -0.206 F 
ATOM     64  C   UNL A   1      40.836  25.405  25.898  1.00  0.00     0.040 A 
ATOM     65  C   UNL A   1      39.458  24.418  27.608  1.00  0.00     0.040 A 
ATOM     66  F   UNL A   1      39.011  25.604  29.583  1.00  0.00    -0.206 F 
ATOM     67  C   UNL A   1      40.064  24.339  26.356  1.00  0.00     0.006 A 
ENDBRANCH  39  60
BRANCH  51  68
ATOM     68  C   UNL A   1      45.446  28.738  32.296  1.00  0.00     0.057 A 
ATOM     69  C   UNL A   1      45.527  27.878  33.399  1.00  0.00     0.134 A 
ATOM     70  C   UNL A   1      46.616  28.948  31.554  1.00  0.00     0.134 A 
ATOM     71  F   UNL A   1      44.446  27.642  34.158  1.00  0.00    -0.206 F 
ATOM     72  C   UNL A   1      46.726  27.260  33.756  1.00  0.00     0.040 A 
ATOM     73  C   UNL A   1      47.815  28.313  31.884  1.00  0.00     0.040 A 
ATOM     74  F   UNL A   1      46.608  29.750  30.479  1.00  0.00    -0.206 F 
ATOM     75  C   UNL A   1      47.872  27.469  32.991  1.00  0.00     0.006 A 
ENDBRANCH  51  68
ENDBRANCH  25  26
ENDBRANCH  18  20
ENDBRANCH  17  18
ENDBRANCH   1  17
TORSDOF 11
ENDMDL
