MODEL 1
REMARK VINA RESULT:     -12.1      0.000      0.000
REMARK SMILES O=C(OCCOC(=O)c1ccc(N[C@@H]2CCCS(=O)(=O)C2)c(F)c1F)c1ccc(-c2c3nc(c(-c4c(F)cccc4F)c4ccc([nH]4)c(-c4c(F)cccc4F)c4nc(c(-c5c(F)cccc5F)c5ccc2[nH]5)C=C4)C=C3)cc1
REMARK SMILES IDX 4 1 3 2 2 3 1 4 26 5 27 6 79 7 28 8 78 9 29 10 30 11 31 12
REMARK SMILES IDX 72 13 32 14 77 15 71 16 73 17 33 18 76 19 70 20 69 21 34 23
REMARK SMILES IDX 60 24 43 25 59 26 44 27 47 28 58 29 74 30 45 31 46 32 57 34
REMARK SMILES IDX 75 35 48 36 35 37 36 38 41 39 37 40 38 41 40 42 42 43 39 44
REMARK SMILES IDX 61 45 62 46 67 47 63 48 64 49 66 50 68 51 65 52 49 53 50 54
REMARK SMILES IDX 55 55 51 56 52 57 54 58 56 59 53 60 5 61 6 62 7 63 8 64 9 65
REMARK SMILES IDX 10 66 24 67 11 68 22 69 25 70 12 71 23 72 13 73 14 75 15 76
REMARK SMILES IDX 21 77 16 78 18 79 17 80 19 81 20 82
REMARK H PARENT 73 22 47 33 13 74
REMARK Flexibility Score: inf
ROOT
ATOM      1  C   UNL A   1      43.643  21.557  25.370  1.00  0.00     0.275 C 
ENDROOT
BRANCH   1   2
ATOM      2  O   UNL A   1      43.191  22.832  24.880  1.00  0.00    -0.458 OA
BRANCH   2   3
ATOM      3  C   UNL A   1      43.741  24.058  25.055  1.00  0.00     0.338 C 
ATOM      4  O   UNL A   1      44.826  24.311  24.535  1.00  0.00    -0.246 OA
BRANCH   3   5
ATOM      5  C   UNL A   1      43.178  25.071  26.003  1.00  0.00     0.060 A 
ATOM      6  C   UNL A   1      43.488  26.434  26.025  1.00  0.00     0.016 A 
ATOM      7  C   UNL A   1      42.261  24.594  26.957  1.00  0.00     0.016 A 
ATOM      8  C   UNL A   1      42.843  27.315  26.899  1.00  0.00     0.010 A 
ATOM      9  C   UNL A   1      41.617  25.467  27.840  1.00  0.00     0.010 A 
ATOM     10  C   UNL A   1      41.902  26.842  27.812  1.00  0.00    -0.014 A 
BRANCH  10  11
ATOM     11  C   UNL A   1      41.433  27.731  28.905  1.00  0.00     0.031 A 
ATOM     12  C   UNL A   1      42.226  27.652  30.188  1.00  0.00     0.074 A 
ATOM     13  C   UNL A   1      40.410  28.601  28.735  1.00  0.00     0.049 A 
ATOM     14  N   UNL A   1      42.033  28.262  31.322  1.00  0.00    -0.248 NA
ATOM     15  C   UNL A   1      43.429  26.789  30.176  1.00  0.00     0.031 C 
ATOM     16  C   UNL A   1      39.716  28.862  27.468  1.00  0.00     0.029 A 
ATOM     17  N   UNL A   1      39.754  29.425  29.618  1.00  0.00    -0.354 N 
ATOM     18  C   UNL A   1      43.092  27.881  32.140  1.00  0.00     0.074 A 
ATOM     19  C   UNL A   1      43.893  26.935  31.407  1.00  0.00     0.031 C 
ATOM     20  C   UNL A   1      38.706  29.733  27.667  1.00  0.00     0.029 A 
ATOM     21  C   UNL A   1      38.663  30.093  29.079  1.00  0.00     0.049 A 
ATOM     22  H   UNL A   1      40.033  29.533  30.556  1.00  0.00     0.167 HD
ATOM     23  C   UNL A   1      43.382  28.327  33.383  1.00  0.00     0.037 A 
ATOM     24  C   UNL A   1      37.719  30.849  29.690  1.00  0.00     0.037 A 
ATOM     25  C   UNL A   1      42.538  29.264  34.070  1.00  0.00     0.049 A 
ATOM     26  C   UNL A   1      37.937  31.104  31.161  1.00  0.00     0.074 A 
ATOM     27  C   UNL A   1      42.705  29.830  35.317  1.00  0.00     0.029 A 
ATOM     28  N   UNL A   1      41.342  29.754  33.553  1.00  0.00    -0.354 N 
ATOM     29  N   UNL A   1      38.958  30.763  31.912  1.00  0.00    -0.248 NA
ATOM     30  C   UNL A   1      36.896  31.860  31.860  1.00  0.00     0.031 C 
ATOM     31  C   UNL A   1      41.586  30.629  35.571  1.00  0.00     0.029 A 
ATOM     32  C   UNL A   1      40.746  30.602  34.464  1.00  0.00     0.049 A 
ATOM     33  H   UNL A   1      40.974  29.528  32.668  1.00  0.00     0.167 HD
ATOM     34  C   UNL A   1      38.713  31.301  33.166  1.00  0.00     0.074 A 
ATOM     35  C   UNL A   1      37.429  31.978  33.069  1.00  0.00     0.031 C 
ATOM     36  C   UNL A   1      39.479  31.274  34.286  1.00  0.00     0.037 A 
BRANCH  23  37
ATOM     37  C   UNL A   1      44.628  27.808  34.047  1.00  0.00     0.057 A 
ATOM     38  C   UNL A   1      45.864  28.462  33.917  1.00  0.00     0.134 A 
ATOM     39  C   UNL A   1      44.602  26.644  34.825  1.00  0.00     0.134 A 
ATOM     40  F   UNL A   1      45.973  29.571  33.171  1.00  0.00    -0.206 F 
ATOM     41  C   UNL A   1      47.027  27.965  34.516  1.00  0.00     0.040 A 
ATOM     42  C   UNL A   1      45.752  26.151  35.448  1.00  0.00     0.040 A 
ATOM     43  F   UNL A   1      43.459  25.963  34.991  1.00  0.00    -0.206 F 
ATOM     44  C   UNL A   1      46.971  26.808  35.289  1.00  0.00     0.006 A 
ENDBRANCH  23  37
BRANCH  24  45
ATOM     45  C   UNL A   1      36.532  31.433  28.970  1.00  0.00     0.057 A 
ATOM     46  C   UNL A   1      35.458  30.626  28.587  1.00  0.00     0.134 A 
ATOM     47  C   UNL A   1      36.429  32.779  28.579  1.00  0.00     0.134 A 
ATOM     48  F   UNL A   1      35.499  29.306  28.811  1.00  0.00    -0.206 F 
ATOM     49  C   UNL A   1      34.333  31.143  27.920  1.00  0.00     0.040 A 
ATOM     50  C   UNL A   1      35.296  33.325  27.966  1.00  0.00     0.040 A 
ATOM     51  F   UNL A   1      37.455  33.618  28.685  1.00  0.00    -0.206 F 
ATOM     52  C   UNL A   1      34.234  32.503  27.637  1.00  0.00     0.006 A 
ENDBRANCH  24  45
BRANCH  36  53
ATOM     53  C   UNL A   1      38.989  32.078  35.451  1.00  0.00     0.057 A 
ATOM     54  C   UNL A   1      38.281  31.498  36.506  1.00  0.00     0.134 A 
ATOM     55  C   UNL A   1      39.302  33.442  35.539  1.00  0.00     0.134 A 
ATOM     56  F   UNL A   1      37.940  30.202  36.468  1.00  0.00    -0.206 F 
ATOM     57  C   UNL A   1      37.884  32.254  37.609  1.00  0.00     0.040 A 
ATOM     58  C   UNL A   1      38.940  34.197  36.650  1.00  0.00     0.040 A 
ATOM     59  F   UNL A   1      39.992  34.048  34.562  1.00  0.00    -0.206 F 
ATOM     60  C   UNL A   1      38.225  33.604  37.688  1.00  0.00     0.006 A 
ENDBRANCH  36  53
ENDBRANCH  10  11
ENDBRANCH   3   5
ENDBRANCH   2   3
ENDBRANCH   1   2
BRANCH   1  61
ATOM     61  C   UNL A   1      42.537  20.662  25.940  1.00  0.00     0.275 C 
BRANCH  61  62
ATOM     62  O   UNL A   1      41.217  21.136  25.629  1.00  0.00    -0.458 OA
BRANCH  62  63
ATOM     63  C   UNL A   1      40.421  21.368  26.711  1.00  0.00     0.341 C 
ATOM     64  O   UNL A   1      40.697  21.165  27.870  1.00  0.00    -0.246 OA
BRANCH  63  65
ATOM     65  C   UNL A   1      39.171  22.009  26.254  1.00  0.00     0.099 A 
ATOM     66  C   UNL A   1      38.850  23.325  26.588  1.00  0.00     0.021 A 
ATOM     67  C   UNL A   1      38.274  21.255  25.513  1.00  0.00     0.175 A 
ATOM     68  C   UNL A   1      37.621  23.874  26.179  1.00  0.00     0.030 A 
ATOM     69  C   UNL A   1      37.068  21.817  25.102  1.00  0.00     0.182 A 
ATOM     70  F   UNL A   1      38.515  19.966  25.240  1.00  0.00    -0.203 F 
ATOM     71  C   UNL A   1      36.710  23.143  25.408  1.00  0.00     0.074 A 
ATOM     72  F   UNL A   1      36.192  21.057  24.423  1.00  0.00    -0.201 F 
BRANCH  71  73
ATOM     73  N   UNL A   1      35.515  23.627  24.906  1.00  0.00    -0.379 N 
ATOM     74  H   UNL A   1      35.608  24.217  24.124  1.00  0.00     0.160 HD
BRANCH  73  75
ATOM     75  C   UNL A   1      34.133  23.408  25.342  1.00  0.00     0.094 C 
ATOM     76  C   UNL A   1      33.301  22.711  24.237  1.00  0.00     0.027 C 
ATOM     77  C   UNL A   1      33.616  24.686  25.991  1.00  0.00     0.161 C 
ATOM     78  C   UNL A   1      31.779  22.787  24.353  1.00  0.00     0.018 C 
ATOM     79  S   UNL A   1      31.929  24.516  26.440  1.00  0.00     0.152 S 
ATOM     80  C   UNL A   1      31.300  24.132  24.853  1.00  0.00     0.137 C 
ATOM     81  O   UNL A   1      31.419  25.810  26.832  1.00  0.00    -0.229 OA
ATOM     82  O   UNL A   1      31.772  23.350  27.287  1.00  0.00    -0.229 OA
ENDBRANCH  73  75
ENDBRANCH  71  73
ENDBRANCH  63  65
ENDBRANCH  62  63
ENDBRANCH  61  62
ENDBRANCH   1  61
TORSDOF 13
ENDMDL
MODEL 2
REMARK VINA RESULT:     -11.8      4.616      9.987
REMARK SMILES O=C(OCCOC(=O)c1ccc(N[C@@H]2CCCS(=O)(=O)C2)c(F)c1F)c1ccc(-c2c3nc(c(-c4c(F)cccc4F)c4ccc([nH]4)c(-c4c(F)cccc4F)c4nc(c(-c5c(F)cccc5F)c5ccc2[nH]5)C=C4)C=C3)cc1
REMARK SMILES IDX 4 1 3 2 2 3 1 4 26 5 27 6 79 7 28 8 78 9 29 10 30 11 31 12
REMARK SMILES IDX 72 13 32 14 77 15 71 16 73 17 33 18 76 19 70 20 69 21 34 23
REMARK SMILES IDX 60 24 43 25 59 26 44 27 47 28 58 29 74 30 45 31 46 32 57 34
REMARK SMILES IDX 75 35 48 36 35 37 36 38 41 39 37 40 38 41 40 42 42 43 39 44
REMARK SMILES IDX 61 45 62 46 67 47 63 48 64 49 66 50 68 51 65 52 49 53 50 54
REMARK SMILES IDX 55 55 51 56 52 57 54 58 56 59 53 60 5 61 6 62 7 63 8 64 9 65
REMARK SMILES IDX 10 66 24 67 11 68 22 69 25 70 12 71 23 72 13 73 14 75 15 76
REMARK SMILES IDX 21 77 16 78 18 79 17 80 19 81 20 82
REMARK H PARENT 73 22 47 33 13 74
REMARK Flexibility Score: inf
ROOT
ATOM      1  C   UNL A   1      34.560  33.831  31.476  1.00  0.00     0.275 C 
ENDROOT
BRANCH   1   2
ATOM      2  O   UNL A   1      34.840  32.475  31.869  1.00  0.00    -0.458 OA
BRANCH   2   3
ATOM      3  C   UNL A   1      35.949  31.970  32.461  1.00  0.00     0.338 C 
ATOM      4  O   UNL A   1      36.047  32.007  33.686  1.00  0.00    -0.246 OA
BRANCH   3   5
ATOM      5  C   UNL A   1      37.151  31.525  31.687  1.00  0.00     0.060 A 
ATOM      6  C   UNL A   1      37.275  31.528  30.294  1.00  0.00     0.016 A 
ATOM      7  C   UNL A   1      38.243  31.056  32.440  1.00  0.00     0.016 A 
ATOM      8  C   UNL A   1      38.474  31.170  29.668  1.00  0.00     0.010 A 
ATOM      9  C   UNL A   1      39.442  30.688  31.821  1.00  0.00     0.010 A 
ATOM     10  C   UNL A   1      39.567  30.749  30.423  1.00  0.00    -0.014 A 
BRANCH  10  11
ATOM     11  C   UNL A   1      40.726  30.117  29.742  1.00  0.00     0.031 A 
ATOM     12  C   UNL A   1      41.904  31.027  29.492  1.00  0.00     0.074 A 
ATOM     13  C   UNL A   1      40.746  28.799  29.434  1.00  0.00     0.049 A 
ATOM     14  N   UNL A   1      43.027  30.782  28.880  1.00  0.00    -0.248 NA
ATOM     15  C   UNL A   1      41.815  32.399  30.040  1.00  0.00     0.031 C 
ATOM     16  C   UNL A   1      39.719  27.821  29.810  1.00  0.00     0.029 A 
ATOM     17  N   UNL A   1      41.646  28.039  28.726  1.00  0.00    -0.354 N 
ATOM     18  C   UNL A   1      43.780  31.946  28.993  1.00  0.00     0.074 A 
ATOM     19  C   UNL A   1      42.971  32.928  29.669  1.00  0.00     0.031 C 
ATOM     20  C   UNL A   1      40.018  26.614  29.287  1.00  0.00     0.029 A 
ATOM     21  C   UNL A   1      41.254  26.724  28.523  1.00  0.00     0.049 A 
ATOM     22  H   UNL A   1      42.499  28.398  28.390  1.00  0.00     0.167 HD
ATOM     23  C   UNL A   1      45.057  32.150  28.599  1.00  0.00     0.037 A 
ATOM     24  C   UNL A   1      41.814  25.759  27.753  1.00  0.00     0.037 A 
ATOM     25  C   UNL A   1      45.813  31.136  27.919  1.00  0.00     0.049 A 
ATOM     26  C   UNL A   1      43.125  26.123  27.100  1.00  0.00     0.074 A 
ATOM     27  C   UNL A   1      47.119  31.176  27.478  1.00  0.00     0.029 A 
ATOM     28  N   UNL A   1      45.297  29.891  27.564  1.00  0.00    -0.354 N 
ATOM     29  N   UNL A   1      43.839  27.216  27.241  1.00  0.00    -0.248 NA
ATOM     30  C   UNL A   1      43.717  25.124  26.208  1.00  0.00     0.031 C 
ATOM     31  C   UNL A   1      47.380  29.972  26.817  1.00  0.00     0.029 A 
ATOM     32  C   UNL A   1      46.254  29.159  26.890  1.00  0.00     0.049 A 
ATOM     33  H   UNL A   1      44.385  29.580  27.763  1.00  0.00     0.167 HD
ATOM     34  C   UNL A   1      44.991  27.025  26.495  1.00  0.00     0.074 A 
ATOM     35  C   UNL A   1      44.864  25.709  25.889  1.00  0.00     0.031 C 
ATOM     36  C   UNL A   1      46.070  27.834  26.343  1.00  0.00     0.037 A 
BRANCH  23  37
ATOM     37  C   UNL A   1      45.682  33.487  28.890  1.00  0.00     0.057 A 
ATOM     38  C   UNL A   1      46.391  33.732  30.076  1.00  0.00     0.134 A 
ATOM     39  C   UNL A   1      45.578  34.546  27.979  1.00  0.00     0.134 A 
ATOM     40  F   UNL A   1      46.516  32.773  31.005  1.00  0.00    -0.206 F 
ATOM     41  C   UNL A   1      46.951  34.984  30.354  1.00  0.00     0.040 A 
ATOM     42  C   UNL A   1      46.153  35.794  28.235  1.00  0.00     0.040 A 
ATOM     43  F   UNL A   1      44.912  34.389  26.826  1.00  0.00    -0.206 F 
ATOM     44  C   UNL A   1      46.837  36.018  29.429  1.00  0.00     0.006 A 
ENDBRANCH  23  37
BRANCH  24  45
ATOM     45  C   UNL A   1      41.207  24.394  27.562  1.00  0.00     0.057 A 
ATOM     46  C   UNL A   1      40.100  24.213  26.729  1.00  0.00     0.134 A 
ATOM     47  C   UNL A   1      41.643  23.235  28.228  1.00  0.00     0.134 A 
ATOM     48  F   UNL A   1      39.533  25.268  26.129  1.00  0.00    -0.206 F 
ATOM     49  C   UNL A   1      39.515  22.950  26.526  1.00  0.00     0.040 A 
ATOM     50  C   UNL A   1      41.111  21.962  27.997  1.00  0.00     0.040 A 
ATOM     51  F   UNL A   1      42.543  23.287  29.205  1.00  0.00    -0.206 F 
ATOM     52  C   UNL A   1      40.042  21.813  27.134  1.00  0.00     0.006 A 
ENDBRANCH  24  45
BRANCH  36  53
ATOM     53  C   UNL A   1      47.225  27.272  25.573  1.00  0.00     0.057 A 
ATOM     54  C   UNL A   1      47.368  27.475  24.198  1.00  0.00     0.134 A 
ATOM     55  C   UNL A   1      48.241  26.579  26.246  1.00  0.00     0.134 A 
ATOM     56  F   UNL A   1      46.420  28.117  23.502  1.00  0.00    -0.206 F 
ATOM     57  C   UNL A   1      48.481  26.992  23.512  1.00  0.00     0.040 A 
ATOM     58  C   UNL A   1      49.372  26.122  25.576  1.00  0.00     0.040 A 
ATOM     59  F   UNL A   1      48.163  26.367  27.568  1.00  0.00    -0.206 F 
ATOM     60  C   UNL A   1      49.492  26.324  24.203  1.00  0.00     0.006 A 
ENDBRANCH  36  53
ENDBRANCH  10  11
ENDBRANCH   3   5
ENDBRANCH   2   3
ENDBRANCH   1   2
BRANCH   1  61
ATOM     61  C   UNL A   1      34.271  34.018  29.982  1.00  0.00     0.275 C 
BRANCH  61  62
ATOM     62  O   UNL A   1      33.948  32.788  29.316  1.00  0.00    -0.458 OA
BRANCH  62  63
ATOM     63  C   UNL A   1      34.605  32.582  28.140  1.00  0.00     0.341 C 
ATOM     64  O   UNL A   1      35.412  33.317  27.623  1.00  0.00    -0.246 OA
BRANCH  63  65
ATOM     65  C   UNL A   1      34.244  31.247  27.620  1.00  0.00     0.099 A 
ATOM     66  C   UNL A   1      35.152  30.187  27.610  1.00  0.00     0.021 A 
ATOM     67  C   UNL A   1      32.979  31.066  27.083  1.00  0.00     0.175 A 
ATOM     68  C   UNL A   1      34.782  28.950  27.052  1.00  0.00     0.030 A 
ATOM     69  C   UNL A   1      32.622  29.831  26.548  1.00  0.00     0.182 A 
ATOM     70  F   UNL A   1      32.109  32.081  27.007  1.00  0.00    -0.203 F 
ATOM     71  C   UNL A   1      33.503  28.734  26.528  1.00  0.00     0.074 A 
ATOM     72  F   UNL A   1      31.407  29.687  25.991  1.00  0.00    -0.201 F 
BRANCH  71  73
ATOM     73  N   UNL A   1      33.035  27.533  26.025  1.00  0.00    -0.379 N 
ATOM     74  H   UNL A   1      32.781  26.872  26.710  1.00  0.00     0.160 HD
BRANCH  73  75
ATOM     75  C   UNL A   1      32.853  27.076  24.644  1.00  0.00     0.094 C 
ATOM     76  C   UNL A   1      31.353  26.873  24.315  1.00  0.00     0.027 C 
ATOM     77  C   UNL A   1      33.852  25.962  24.360  1.00  0.00     0.161 C 
ATOM     78  C   UNL A   1      31.014  26.019  23.094  1.00  0.00     0.018 C 
ATOM     79  S   UNL A   1      33.610  25.305  22.752  1.00  0.00     0.152 S 
ATOM     80  C   UNL A   1      31.936  24.831  22.940  1.00  0.00     0.137 C 
ATOM     81  O   UNL A   1      34.410  24.110  22.612  1.00  0.00    -0.229 OA
ATOM     82  O   UNL A   1      33.673  26.379  21.780  1.00  0.00    -0.229 OA
ENDBRANCH  73  75
ENDBRANCH  71  73
ENDBRANCH  63  65
ENDBRANCH  62  63
ENDBRANCH  61  62
ENDBRANCH   1  61
TORSDOF 13
ENDMDL
MODEL 3
REMARK VINA RESULT:     -11.7      0.787      6.409
REMARK SMILES O=C(OCCOC(=O)c1ccc(N[C@@H]2CCCS(=O)(=O)C2)c(F)c1F)c1ccc(-c2c3nc(c(-c4c(F)cccc4F)c4ccc([nH]4)c(-c4c(F)cccc4F)c4nc(c(-c5c(F)cccc5F)c5ccc2[nH]5)C=C4)C=C3)cc1
REMARK SMILES IDX 4 1 3 2 2 3 1 4 26 5 27 6 79 7 28 8 78 9 29 10 30 11 31 12
REMARK SMILES IDX 72 13 32 14 77 15 71 16 73 17 33 18 76 19 70 20 69 21 34 23
REMARK SMILES IDX 60 24 43 25 59 26 44 27 47 28 58 29 74 30 45 31 46 32 57 34
REMARK SMILES IDX 75 35 48 36 35 37 36 38 41 39 37 40 38 41 40 42 42 43 39 44
REMARK SMILES IDX 61 45 62 46 67 47 63 48 64 49 66 50 68 51 65 52 49 53 50 54
REMARK SMILES IDX 55 55 51 56 52 57 54 58 56 59 53 60 5 61 6 62 7 63 8 64 9 65
REMARK SMILES IDX 10 66 24 67 11 68 22 69 25 70 12 71 23 72 13 73 14 75 15 76
REMARK SMILES IDX 21 77 16 78 18 79 17 80 19 81 20 82
REMARK H PARENT 73 22 47 33 13 74
REMARK Flexibility Score: inf
ROOT
ATOM      1  C   UNL A   1      43.832  22.419  25.158  1.00  0.00     0.275 C 
ENDROOT
BRANCH   1   2
ATOM      2  O   UNL A   1      43.414  23.766  24.872  1.00  0.00    -0.458 OA
BRANCH   2   3
ATOM      3  C   UNL A   1      43.998  24.935  25.232  1.00  0.00     0.338 C 
ATOM      4  O   UNL A   1      45.076  25.247  24.732  1.00  0.00    -0.246 OA
BRANCH   3   5
ATOM      5  C   UNL A   1      43.480  25.790  26.347  1.00  0.00     0.060 A 
ATOM      6  C   UNL A   1      43.952  27.060  26.692  1.00  0.00     0.016 A 
ATOM      7  C   UNL A   1      42.430  25.252  27.112  1.00  0.00     0.016 A 
ATOM      8  C   UNL A   1      43.344  27.814  27.701  1.00  0.00     0.010 A 
ATOM      9  C   UNL A   1      41.821  25.997  28.129  1.00  0.00     0.010 A 
ATOM     10  C   UNL A   1      42.274  27.293  28.426  1.00  0.00    -0.014 A 
BRANCH  10  11
ATOM     11  C   UNL A   1      41.822  27.983  29.661  1.00  0.00     0.031 A 
ATOM     12  C   UNL A   1      40.619  28.881  29.496  1.00  0.00     0.074 A 
ATOM     13  C   UNL A   1      42.407  27.764  30.861  1.00  0.00     0.049 A 
ATOM     14  N   UNL A   1      40.028  29.646  30.369  1.00  0.00    -0.248 NA
ATOM     15  C   UNL A   1      39.970  28.889  28.166  1.00  0.00     0.031 C 
ATOM     16  C   UNL A   1      43.456  26.772  31.129  1.00  0.00     0.029 A 
ATOM     17  N   UNL A   1      42.228  28.357  32.088  1.00  0.00    -0.354 N 
ATOM     18  C   UNL A   1      38.936  30.198  29.708  1.00  0.00     0.074 A 
ATOM     19  C   UNL A   1      38.974  29.743  28.342  1.00  0.00     0.031 C 
ATOM     20  C   UNL A   1      43.860  26.864  32.413  1.00  0.00     0.029 A 
ATOM     21  C   UNL A   1      43.112  27.929  33.068  1.00  0.00     0.049 A 
ATOM     22  H   UNL A   1      41.530  29.031  32.258  1.00  0.00     0.167 HD
ATOM     23  C   UNL A   1      37.965  30.984  30.224  1.00  0.00     0.037 A 
ATOM     24  C   UNL A   1      43.314  28.403  34.322  1.00  0.00     0.037 A 
ATOM     25  C   UNL A   1      37.985  31.416  31.593  1.00  0.00     0.049 A 
ATOM     26  C   UNL A   1      42.367  29.488  34.772  1.00  0.00     0.074 A 
ATOM     27  C   UNL A   1      37.068  32.191  32.273  1.00  0.00     0.029 A 
ATOM     28  N   UNL A   1      39.010  31.114  32.487  1.00  0.00    -0.354 N 
ATOM     29  N   UNL A   1      41.321  29.978  34.147  1.00  0.00    -0.248 NA
ATOM     30  C   UNL A   1      42.607  30.066  36.096  1.00  0.00     0.031 C 
ATOM     31  C   UNL A   1      37.561  32.393  33.566  1.00  0.00     0.029 A 
ATOM     32  C   UNL A   1      38.760  31.704  33.709  1.00  0.00     0.049 A 
ATOM     33  H   UNL A   1      39.798  30.563  32.277  1.00  0.00     0.167 HD
ATOM     34  C   UNL A   1      40.743  30.890  35.016  1.00  0.00     0.074 A 
ATOM     35  C   UNL A   1      41.576  30.893  36.208  1.00  0.00     0.031 C 
ATOM     36  C   UNL A   1      39.618  31.635  34.870  1.00  0.00     0.037 A 
BRANCH  23  37
ATOM     37  C   UNL A   1      36.842  31.409  29.317  1.00  0.00     0.057 A 
ATOM     38  C   UNL A   1      35.805  30.533  28.961  1.00  0.00     0.134 A 
ATOM     39  C   UNL A   1      36.791  32.705  28.789  1.00  0.00     0.134 A 
ATOM     40  F   UNL A   1      35.796  29.270  29.411  1.00  0.00    -0.206 F 
ATOM     41  C   UNL A   1      34.775  30.923  28.098  1.00  0.00     0.040 A 
ATOM     42  C   UNL A   1      35.755  33.114  27.945  1.00  0.00     0.040 A 
ATOM     43  F   UNL A   1      37.749  33.597  29.081  1.00  0.00    -0.206 F 
ATOM     44  C   UNL A   1      34.746  32.220  27.591  1.00  0.00     0.006 A 
ENDBRANCH  23  37
BRANCH  24  45
ATOM     45  C   UNL A   1      44.391  27.886  35.239  1.00  0.00     0.057 A 
ATOM     46  C   UNL A   1      44.151  26.799  36.083  1.00  0.00     0.134 A 
ATOM     47  C   UNL A   1      45.664  28.468  35.371  1.00  0.00     0.134 A 
ATOM     48  F   UNL A   1      42.937  26.235  36.121  1.00  0.00    -0.206 F 
ATOM     49  C   UNL A   1      45.139  26.289  36.946  1.00  0.00     0.040 A 
ATOM     50  C   UNL A   1      46.677  27.944  36.181  1.00  0.00     0.040 A 
ATOM     51  F   UNL A   1      45.965  29.628  34.794  1.00  0.00    -0.206 F 
ATOM     52  C   UNL A   1      46.417  26.841  36.972  1.00  0.00     0.006 A 
ENDBRANCH  24  45
BRANCH  36  53
ATOM     53  C   UNL A   1      39.181  32.429  36.061  1.00  0.00     0.057 A 
ATOM     54  C   UNL A   1      38.321  31.902  37.029  1.00  0.00     0.134 A 
ATOM     55  C   UNL A   1      39.695  33.716  36.270  1.00  0.00     0.134 A 
ATOM     56  F   UNL A   1      37.787  30.682  36.873  1.00  0.00    -0.206 F 
ATOM     57  C   UNL A   1      37.974  32.638  38.161  1.00  0.00     0.040 A 
ATOM     58  C   UNL A   1      39.382  34.446  37.413  1.00  0.00     0.040 A 
ATOM     59  F   UNL A   1      40.537  34.267  35.382  1.00  0.00    -0.206 F 
ATOM     60  C   UNL A   1      38.514  33.908  38.360  1.00  0.00     0.006 A 
ENDBRANCH  36  53
ENDBRANCH  10  11
ENDBRANCH   3   5
ENDBRANCH   2   3
ENDBRANCH   1   2
BRANCH   1  61
ATOM     61  C   UNL A   1      42.851  21.615  26.020  1.00  0.00     0.275 C 
BRANCH  61  62
ATOM     62  O   UNL A   1      41.478  21.842  25.666  1.00  0.00    -0.458 OA
BRANCH  62  63
ATOM     63  C   UNL A   1      40.593  21.730  26.696  1.00  0.00     0.341 C 
ATOM     64  O   UNL A   1      40.837  21.370  27.824  1.00  0.00    -0.246 OA
BRANCH  63  65
ATOM     65  C   UNL A   1      39.273  22.214  26.245  1.00  0.00     0.099 A 
ATOM     66  C   UNL A   1      38.826  23.507  26.520  1.00  0.00     0.021 A 
ATOM     67  C   UNL A   1      38.439  21.333  25.572  1.00  0.00     0.175 A 
ATOM     68  C   UNL A   1      37.537  23.905  26.121  1.00  0.00     0.030 A 
ATOM     69  C   UNL A   1      37.172  21.747  25.170  1.00  0.00     0.182 A 
ATOM     70  F   UNL A   1      38.805  20.063  25.359  1.00  0.00    -0.203 F 
ATOM     71  C   UNL A   1      36.687  23.044  25.417  1.00  0.00     0.074 A 
ATOM     72  F   UNL A   1      36.362  20.866  24.559  1.00  0.00    -0.201 F 
BRANCH  71  73
ATOM     73  N   UNL A   1      35.436  23.376  24.928  1.00  0.00    -0.379 N 
ATOM     74  H   UNL A   1      35.446  23.849  24.064  1.00  0.00     0.160 HD
BRANCH  73  75
ATOM     75  C   UNL A   1      34.099  23.142  25.477  1.00  0.00     0.094 C 
ATOM     76  C   UNL A   1      33.243  22.275  24.520  1.00  0.00     0.027 C 
ATOM     77  C   UNL A   1      33.547  24.460  26.005  1.00  0.00     0.161 C 
ATOM     78  C   UNL A   1      31.729  22.288  24.727  1.00  0.00     0.018 C 
ATOM     79  S   UNL A   1      31.903  24.261  26.582  1.00  0.00     0.152 S 
ATOM     80  C   UNL A   1      31.204  23.656  25.097  1.00  0.00     0.137 C 
ATOM     81  O   UNL A   1      31.343  25.566  26.853  1.00  0.00    -0.229 OA
ATOM     82  O   UNL A   1      31.866  23.200  27.569  1.00  0.00    -0.229 OA
ENDBRANCH  73  75
ENDBRANCH  71  73
ENDBRANCH  63  65
ENDBRANCH  62  63
ENDBRANCH  61  62
ENDBRANCH   1  61
TORSDOF 13
ENDMDL
