MODEL 1
REMARK VINA RESULT:     -11.8      0.000      0.000
REMARK SMILES O=C(NCc1ccc(C(=O)OCCOC(=O)c2ccc(-c3c4nc(c(-c5c(F)cccc5F)c5ccc([nH]5)c(-c5c(F)cccc5F)c5nc(c(-c6c(F)cccc6F)c6ccc3[nH]6)C=C5)C=C4)cc2)o1)Nc1ccc(F)c(Cl)c1
REMARK SMILES IDX 12 1 11 2 9 3 10 4 8 5 5 6 6 7 71 8 7 9 4 10 3 11 1 12 2 13
REMARK SMILES IDX 72 14 73 17 74 18 80 19 75 20 78 21 76 22 79 23 77 24 13 25
REMARK SMILES IDX 14 26 15 27 16 28 17 29 18 30 70 31 19 32 69 33 20 34 21 35
REMARK SMILES IDX 22 36 63 37 23 38 68 39 62 40 64 41 24 42 67 43 61 44 60 45
REMARK SMILES IDX 25 47 51 48 34 49 50 50 35 51 38 52 49 53 65 54 36 55 37 56
REMARK SMILES IDX 48 58 66 59 39 60 26 61 27 62 32 63 28 64 29 65 31 66 33 67
REMARK SMILES IDX 30 68 52 69 53 70 58 71 54 72 55 73 57 74 59 75 56 76 40 77
REMARK SMILES IDX 41 78 46 79 42 80 43 81 45 82 47 83 44 84
REMARK H PARENT 3 15 72 16 64 46 38 57
REMARK Flexibility Score: inf
ROOT
ATOM      1  C   UNL A   1      34.205  34.858  33.182  1.00  0.00     0.275 C 
ENDROOT
BRANCH   1   2
ATOM      2  O   UNL A   1      32.887  34.953  32.610  1.00  0.00    -0.456 OA
BRANCH   2   3
ATOM      3  C   UNL A   1      32.634  36.078  31.879  1.00  0.00     0.374 C 
ATOM      4  O   UNL A   1      32.167  37.112  32.337  1.00  0.00    -0.242 OA
BRANCH   3   5
ATOM      5  C   UNL A   1      33.093  35.896  30.520  1.00  0.00     0.211 A 
ATOM      6  C   UNL A   1      33.255  34.761  28.633  1.00  0.00     0.124 A 
ATOM      7  C   UNL A   1      33.763  36.018  28.376  1.00  0.00     0.048 A 
ATOM      8  O   UNL A   1      32.903  34.666  29.944  1.00  0.00    -0.452 OA
ATOM      9  C   UNL A   1      33.649  36.749  29.584  1.00  0.00     0.058 A 
BRANCH   6  10
ATOM     10  C   UNL A   1      32.983  33.571  27.789  1.00  0.00     0.193 C 
BRANCH  10  11
ATOM     11  N   UNL A   1      34.021  32.594  28.049  1.00  0.00    -0.331 N 
ATOM     12  O   UNL A   1      34.894  30.576  28.349  1.00  0.00    -0.248 OA
ATOM     13  C   UNL A   1      34.060  31.265  27.768  1.00  0.00     0.319 C 
ATOM     14  N   UNL A   1      33.161  30.820  26.841  1.00  0.00    -0.308 N 
ATOM     15  H   UNL A   1      34.823  32.948  28.498  1.00  0.00     0.165 HD
ATOM     16  H   UNL A   1      32.690  31.509  26.320  1.00  0.00     0.171 HD
BRANCH  14  17
ATOM     17  C   UNL A   1      32.834  29.480  26.554  1.00  0.00     0.044 A 
ATOM     18  C   UNL A   1      31.778  28.907  27.276  1.00  0.00     0.029 A 
ATOM     19  C   UNL A   1      33.527  28.701  25.619  1.00  0.00     0.049 A 
ATOM     20  C   UNL A   1      31.403  27.580  27.050  1.00  0.00     0.043 A 
ATOM     21  C   UNL A   1      33.156  27.372  25.401  1.00  0.00     0.078 A 
ATOM     22  C   UNL A   1      32.094  26.820  26.114  1.00  0.00     0.141 A 
ATOM     23  Cl  UNL A   1      34.028  26.423  24.259  1.00  0.00    -0.081 Cl
ATOM     24  F   UNL A   1      31.722  25.547  25.918  1.00  0.00    -0.205 F 
ENDBRANCH  14  17
ENDBRANCH  10  11
ENDBRANCH   6  10
ENDBRANCH   3   5
ENDBRANCH   2   3
ENDBRANCH   1   2
BRANCH   1  25
ATOM     25  C   UNL A   1      34.512  33.430  33.647  1.00  0.00     0.275 C 
BRANCH  25  26
ATOM     26  O   UNL A   1      35.709  32.909  33.037  1.00  0.00    -0.458 OA
BRANCH  26  27
ATOM     27  C   UNL A   1      35.540  32.296  31.841  1.00  0.00     0.338 C 
ATOM     28  O   UNL A   1      34.510  32.226  31.191  1.00  0.00    -0.246 OA
BRANCH  27  29
ATOM     29  C   UNL A   1      36.841  31.814  31.345  1.00  0.00     0.060 A 
ATOM     30  C   UNL A   1      37.161  32.040  30.003  1.00  0.00     0.016 A 
ATOM     31  C   UNL A   1      37.716  31.106  32.171  1.00  0.00     0.016 A 
ATOM     32  C   UNL A   1      38.362  31.567  29.478  1.00  0.00     0.010 A 
ATOM     33  C   UNL A   1      38.917  30.623  31.644  1.00  0.00     0.010 A 
ATOM     34  C   UNL A   1      39.243  30.847  30.294  1.00  0.00    -0.014 A 
BRANCH  34  35
ATOM     35  C   UNL A   1      40.494  30.293  29.728  1.00  0.00     0.031 A 
ATOM     36  C   UNL A   1      41.689  31.182  29.552  1.00  0.00     0.074 A 
ATOM     37  C   UNL A   1      40.554  28.998  29.371  1.00  0.00     0.049 A 
ATOM     38  N   UNL A   1      42.836  30.923  28.979  1.00  0.00    -0.248 NA
ATOM     39  C   UNL A   1      41.578  32.545  30.097  1.00  0.00     0.031 C 
ATOM     40  C   UNL A   1      39.475  28.026  29.537  1.00  0.00     0.029 A 
ATOM     41  N   UNL A   1      41.566  28.283  28.783  1.00  0.00    -0.354 N 
ATOM     42  C   UNL A   1      43.578  32.092  29.076  1.00  0.00     0.074 A 
ATOM     43  C   UNL A   1      42.750  33.065  29.758  1.00  0.00     0.031 C 
ATOM     44  C   UNL A   1      39.878  26.841  29.050  1.00  0.00     0.029 A 
ATOM     45  C   UNL A   1      41.225  26.983  28.503  1.00  0.00     0.049 A 
ATOM     46  H   UNL A   1      42.451  28.664  28.582  1.00  0.00     0.167 HD
ATOM     47  C   UNL A   1      44.836  32.330  28.635  1.00  0.00     0.037 A 
ATOM     48  C   UNL A   1      41.911  26.025  27.851  1.00  0.00     0.037 A 
ATOM     49  C   UNL A   1      45.659  31.359  27.965  1.00  0.00     0.049 A 
ATOM     50  C   UNL A   1      43.283  26.332  27.319  1.00  0.00     0.074 A 
ATOM     51  C   UNL A   1      46.947  31.507  27.480  1.00  0.00     0.029 A 
ATOM     52  N   UNL A   1      45.272  30.057  27.685  1.00  0.00    -0.354 N 
ATOM     53  N   UNL A   1      43.972  27.443  27.405  1.00  0.00    -0.248 NA
ATOM     54  C   UNL A   1      43.970  25.254  26.592  1.00  0.00     0.031 C 
ATOM     55  C   UNL A   1      47.330  30.301  26.881  1.00  0.00     0.029 A 
ATOM     56  C   UNL A   1      46.292  29.395  27.023  1.00  0.00     0.049 A 
ATOM     57  H   UNL A   1      44.402  29.664  27.922  1.00  0.00     0.167 HD
ATOM     58  C   UNL A   1      45.178  27.194  26.765  1.00  0.00     0.074 A 
ATOM     59  C   UNL A   1      45.131  25.822  26.299  1.00  0.00     0.031 C 
ATOM     60  C   UNL A   1      46.231  28.025  26.581  1.00  0.00     0.037 A 
BRANCH  47  61
ATOM     61  C   UNL A   1      45.387  33.706  28.843  1.00  0.00     0.057 A 
ATOM     62  C   UNL A   1      46.169  34.027  29.958  1.00  0.00     0.134 A 
ATOM     63  C   UNL A   1      45.155  34.715  27.900  1.00  0.00     0.134 A 
ATOM     64  F   UNL A   1      46.414  33.107  30.903  1.00  0.00    -0.206 F 
ATOM     65  C   UNL A   1      46.690  35.310  30.137  1.00  0.00     0.040 A 
ATOM     66  C   UNL A   1      45.686  35.996  28.059  1.00  0.00     0.040 A 
ATOM     67  F   UNL A   1      44.415  34.470  26.808  1.00  0.00    -0.206 F 
ATOM     68  C   UNL A   1      46.453  36.297  29.183  1.00  0.00     0.006 A 
ENDBRANCH  47  61
BRANCH  48  69
ATOM     69  C   UNL A   1      41.299  24.691  27.643  1.00  0.00     0.057 A 
ATOM     70  C   UNL A   1      40.288  24.498  26.697  1.00  0.00     0.134 A 
ATOM     71  C   UNL A   1      41.713  23.578  28.387  1.00  0.00     0.134 A 
ATOM     72  F   UNL A   1      39.837  25.532  25.971  1.00  0.00    -0.206 F 
ATOM     73  C   UNL A   1      39.701  23.247  26.502  1.00  0.00     0.040 A 
ATOM     74  C   UNL A   1      41.148  22.317  28.188  1.00  0.00     0.040 A 
ATOM     75  F   UNL A   1      42.678  23.701  29.310  1.00  0.00    -0.206 F 
ATOM     76  C   UNL A   1      40.136  22.151  27.246  1.00  0.00     0.006 A 
ENDBRANCH  48  69
BRANCH  60  77
ATOM     77  C   UNL A   1      47.433  27.467  25.882  1.00  0.00     0.057 A 
ATOM     78  C   UNL A   1      48.470  26.844  26.587  1.00  0.00     0.134 A 
ATOM     79  C   UNL A   1      47.526  27.508  24.486  1.00  0.00     0.134 A 
ATOM     80  F   UNL A   1      48.442  26.786  27.927  1.00  0.00    -0.206 F 
ATOM     81  C   UNL A   1      49.565  26.288  25.924  1.00  0.00     0.040 A 
ATOM     82  C   UNL A   1      48.607  26.940  23.812  1.00  0.00     0.040 A 
ATOM     83  F   UNL A   1      46.560  28.086  23.755  1.00  0.00    -0.206 F 
ATOM     84  C   UNL A   1      49.632  26.328  24.532  1.00  0.00     0.006 A 
ENDBRANCH  60  77
ENDBRANCH  34  35
ENDBRANCH  27  29
ENDBRANCH  26  27
ENDBRANCH  25  26
ENDBRANCH   1  25
TORSDOF 14
ENDMDL
MODEL 2
REMARK VINA RESULT:     -11.8      6.087     11.541
REMARK SMILES O=C(NCc1ccc(C(=O)OCCOC(=O)c2ccc(-c3c4nc(c(-c5c(F)cccc5F)c5ccc([nH]5)c(-c5c(F)cccc5F)c5nc(c(-c6c(F)cccc6F)c6ccc3[nH]6)C=C5)C=C4)cc2)o1)Nc1ccc(F)c(Cl)c1
REMARK SMILES IDX 12 1 11 2 9 3 10 4 8 5 5 6 6 7 71 8 7 9 4 10 3 11 1 12 2 13
REMARK SMILES IDX 72 14 73 17 74 18 80 19 75 20 78 21 76 22 79 23 77 24 13 25
REMARK SMILES IDX 14 26 15 27 16 28 17 29 18 30 70 31 19 32 69 33 20 34 21 35
REMARK SMILES IDX 22 36 63 37 23 38 68 39 62 40 64 41 24 42 67 43 61 44 60 45
REMARK SMILES IDX 25 47 51 48 34 49 50 50 35 51 38 52 49 53 65 54 36 55 37 56
REMARK SMILES IDX 48 58 66 59 39 60 26 61 27 62 32 63 28 64 29 65 31 66 33 67
REMARK SMILES IDX 30 68 52 69 53 70 58 71 54 72 55 73 57 74 59 75 56 76 40 77
REMARK SMILES IDX 41 78 46 79 42 80 43 81 45 82 47 83 44 84
REMARK H PARENT 3 15 72 16 64 46 38 57
REMARK Flexibility Score: inf
ROOT
ATOM      1  C   UNL A   1      45.436  20.929  24.980  1.00  0.00     0.275 C 
ENDROOT
BRANCH   1   2
ATOM      2  O   UNL A   1      44.252  20.303  24.455  1.00  0.00    -0.456 OA
BRANCH   2   3
ATOM      3  C   UNL A   1      43.754  19.261  25.185  1.00  0.00     0.374 C 
ATOM      4  O   UNL A   1      44.176  18.115  25.134  1.00  0.00    -0.242 OA
BRANCH   3   5
ATOM      5  C   UNL A   1      42.734  19.740  26.091  1.00  0.00     0.211 A 
ATOM      6  C   UNL A   1      40.916  20.896  26.574  1.00  0.00     0.124 A 
ATOM      7  C   UNL A   1      41.189  20.121  27.681  1.00  0.00     0.048 A 
ATOM      8  O   UNL A   1      41.881  20.712  25.633  1.00  0.00    -0.452 OA
ATOM      9  C   UNL A   1      42.348  19.371  27.367  1.00  0.00     0.058 A 
BRANCH   6  10
ATOM     10  C   UNL A   1      39.802  21.807  26.206  1.00  0.00     0.193 C 
BRANCH  10  11
ATOM     11  N   UNL A   1      38.742  21.003  25.631  1.00  0.00    -0.331 N 
ATOM     12  O   UNL A   1      36.679  20.516  24.976  1.00  0.00    -0.248 OA
ATOM     13  C   UNL A   1      37.539  21.379  25.123  1.00  0.00     0.319 C 
ATOM     14  N   UNL A   1      37.407  22.701  24.807  1.00  0.00    -0.308 N 
ATOM     15  H   UNL A   1      38.922  20.035  25.603  1.00  0.00     0.165 HD
ATOM     16  H   UNL A   1      38.234  23.235  24.794  1.00  0.00     0.171 HD
BRANCH  14  17
ATOM     17  C   UNL A   1      36.213  23.383  24.499  1.00  0.00     0.044 A 
ATOM     18  C   UNL A   1      35.575  23.050  23.297  1.00  0.00     0.029 A 
ATOM     19  C   UNL A   1      35.664  24.382  25.312  1.00  0.00     0.049 A 
ATOM     20  C   UNL A   1      34.390  23.689  22.922  1.00  0.00     0.043 A 
ATOM     21  C   UNL A   1      34.484  25.027  24.931  1.00  0.00     0.078 A 
ATOM     22  C   UNL A   1      33.852  24.674  23.741  1.00  0.00     0.141 A 
ATOM     23  Cl  UNL A   1      33.830  26.265  25.934  1.00  0.00    -0.081 Cl
ATOM     24  F   UNL A   1      32.718  25.280  23.359  1.00  0.00    -0.205 F 
ENDBRANCH  14  17
ENDBRANCH  10  11
ENDBRANCH   6  10
ENDBRANCH   3   5
ENDBRANCH   2   3
ENDBRANCH   1   2
BRANCH   1  25
ATOM     25  C   UNL A   1      45.473  22.425  24.647  1.00  0.00     0.275 C 
BRANCH  25  26
ATOM     26  O   UNL A   1      44.939  23.230  25.716  1.00  0.00    -0.458 OA
BRANCH  26  27
ATOM     27  C   UNL A   1      43.710  23.756  25.498  1.00  0.00     0.338 C 
ATOM     28  O   UNL A   1      42.929  23.455  24.611  1.00  0.00    -0.246 OA
BRANCH  27  29
ATOM     29  C   UNL A   1      43.372  24.688  26.587  1.00  0.00     0.060 A 
ATOM     30  C   UNL A   1      42.403  24.296  27.515  1.00  0.00     0.016 A 
ATOM     31  C   UNL A   1      43.961  25.952  26.672  1.00  0.00     0.016 A 
ATOM     32  C   UNL A   1      42.020  25.159  28.539  1.00  0.00     0.010 A 
ATOM     33  C   UNL A   1      43.571  26.823  27.694  1.00  0.00     0.010 A 
ATOM     34  C   UNL A   1      42.596  26.432  28.629  1.00  0.00    -0.014 A 
BRANCH  34  35
ATOM     35  C   UNL A   1      42.153  27.375  29.681  1.00  0.00     0.031 A 
ATOM     36  C   UNL A   1      42.854  27.395  31.006  1.00  0.00     0.074 A 
ATOM     37  C   UNL A   1      41.122  28.208  29.446  1.00  0.00     0.049 A 
ATOM     38  N   UNL A   1      42.554  28.062  32.090  1.00  0.00    -0.248 NA
ATOM     39  C   UNL A   1      44.053  26.551  31.126  1.00  0.00     0.031 C 
ATOM     40  C   UNL A   1      40.394  28.313  28.183  1.00  0.00     0.029 A 
ATOM     41  N   UNL A   1      40.506  29.115  30.269  1.00  0.00    -0.354 N 
ATOM     42  C   UNL A   1      43.515  27.708  33.028  1.00  0.00     0.074 A 
ATOM     43  C   UNL A   1      44.404  26.761  32.387  1.00  0.00     0.031 C 
ATOM     44  C   UNL A   1      39.418  29.226  28.318  1.00  0.00     0.029 A 
ATOM     45  C   UNL A   1      39.430  29.737  29.687  1.00  0.00     0.049 A 
ATOM     46  H   UNL A   1      40.805  29.302  31.188  1.00  0.00     0.167 HD
ATOM     47  C   UNL A   1      43.641  28.135  34.307  1.00  0.00     0.037 A 
ATOM     48  C   UNL A   1      38.536  30.599  30.210  1.00  0.00     0.037 A 
ATOM     49  C   UNL A   1      42.761  29.082  34.938  1.00  0.00     0.049 A 
ATOM     50  C   UNL A   1      38.663  31.012  31.649  1.00  0.00     0.074 A 
ATOM     51  C   UNL A   1      42.808  29.575  36.230  1.00  0.00     0.029 A 
ATOM     52  N   UNL A   1      41.673  29.678  34.320  1.00  0.00    -0.354 N 
ATOM     53  N   UNL A   1      39.567  30.663  32.531  1.00  0.00    -0.248 NA
ATOM     54  C   UNL A   1      37.641  31.933  32.168  1.00  0.00     0.031 C 
ATOM     55  C   UNL A   1      41.729  30.451  36.404  1.00  0.00     0.029 A 
ATOM     56  C   UNL A   1      41.032  30.526  35.209  1.00  0.00     0.049 A 
ATOM     57  H   UNL A   1      41.396  29.522  33.389  1.00  0.00     0.167 HD
ATOM     58  C   UNL A   1      39.239  31.336  33.699  1.00  0.00     0.074 A 
ATOM     59  C   UNL A   1      38.053  32.119  33.415  1.00  0.00     0.031 C 
ATOM     60  C   UNL A   1      39.863  31.308  34.901  1.00  0.00     0.037 A 
BRANCH  47  61
ATOM     61  C   UNL A   1      44.761  27.558  35.115  1.00  0.00     0.057 A 
ATOM     62  C   UNL A   1      46.015  28.177  35.186  1.00  0.00     0.134 A 
ATOM     63  C   UNL A   1      44.574  26.383  35.854  1.00  0.00     0.134 A 
ATOM     64  F   UNL A   1      46.260  29.297  34.490  1.00  0.00    -0.206 F 
ATOM     65  C   UNL A   1      47.050  27.639  35.953  1.00  0.00     0.040 A 
ATOM     66  C   UNL A   1      45.595  25.846  36.638  1.00  0.00     0.040 A 
ATOM     67  F   UNL A   1      43.395  25.744  35.828  1.00  0.00    -0.206 F 
ATOM     68  C   UNL A   1      46.839  26.472  36.686  1.00  0.00     0.006 A 
ENDBRANCH  47  61
BRANCH  48  69
ATOM     69  C   UNL A   1      37.426  31.110  29.370  1.00  0.00     0.057 A 
ATOM     70  C   UNL A   1      36.309  30.317  29.088  1.00  0.00     0.134 A 
ATOM     71  C   UNL A   1      37.457  32.402  28.832  1.00  0.00     0.134 A 
ATOM     72  F   UNL A   1      36.235  29.063  29.558  1.00  0.00    -0.206 F 
ATOM     73  C   UNL A   1      35.264  30.787  28.292  1.00  0.00     0.040 A 
ATOM     74  C   UNL A   1      36.409  32.893  28.051  1.00  0.00     0.040 A 
ATOM     75  F   UNL A   1      38.502  33.209  29.067  1.00  0.00    -0.206 F 
ATOM     76  C   UNL A   1      35.311  32.082  27.775  1.00  0.00     0.006 A 
ENDBRANCH  48  69
BRANCH  60  77
ATOM     77  C   UNL A   1      39.304  32.177  35.986  1.00  0.00     0.057 A 
ATOM     78  C   UNL A   1      39.745  33.491  36.176  1.00  0.00     0.134 A 
ATOM     79  C   UNL A   1      38.276  31.708  36.813  1.00  0.00     0.134 A 
ATOM     80  F   UNL A   1      40.736  33.992  35.422  1.00  0.00    -0.206 F 
ATOM     81  C   UNL A   1      39.188  34.308  37.160  1.00  0.00     0.040 A 
ATOM     82  C   UNL A   1      37.699  32.522  37.789  1.00  0.00     0.040 A 
ATOM     83  F   UNL A   1      37.806  30.459  36.675  1.00  0.00    -0.206 F 
ATOM     84  C   UNL A   1      38.156  33.827  37.965  1.00  0.00     0.006 A 
ENDBRANCH  60  77
ENDBRANCH  34  35
ENDBRANCH  27  29
ENDBRANCH  26  27
ENDBRANCH  25  26
ENDBRANCH   1  25
TORSDOF 14
ENDMDL
MODEL 3
REMARK VINA RESULT:     -11.6      5.784     11.535
REMARK SMILES O=C(NCc1ccc(C(=O)OCCOC(=O)c2ccc(-c3c4nc(c(-c5c(F)cccc5F)c5ccc([nH]5)c(-c5c(F)cccc5F)c5nc(c(-c6c(F)cccc6F)c6ccc3[nH]6)C=C5)C=C4)cc2)o1)Nc1ccc(F)c(Cl)c1
REMARK SMILES IDX 12 1 11 2 9 3 10 4 8 5 5 6 6 7 71 8 7 9 4 10 3 11 1 12 2 13
REMARK SMILES IDX 72 14 73 17 74 18 80 19 75 20 78 21 76 22 79 23 77 24 13 25
REMARK SMILES IDX 14 26 15 27 16 28 17 29 18 30 70 31 19 32 69 33 20 34 21 35
REMARK SMILES IDX 22 36 63 37 23 38 68 39 62 40 64 41 24 42 67 43 61 44 60 45
REMARK SMILES IDX 25 47 51 48 34 49 50 50 35 51 38 52 49 53 65 54 36 55 37 56
REMARK SMILES IDX 48 58 66 59 39 60 26 61 27 62 32 63 28 64 29 65 31 66 33 67
REMARK SMILES IDX 30 68 52 69 53 70 58 71 54 72 55 73 57 74 59 75 56 76 40 77
REMARK SMILES IDX 41 78 46 79 42 80 43 81 45 82 47 83 44 84
REMARK H PARENT 3 15 72 16 64 46 38 57
REMARK Flexibility Score: inf
ROOT
ATOM      1  C   UNL A   1      45.407  20.821  24.746  1.00  0.00     0.275 C 
ENDROOT
BRANCH   1   2
ATOM      2  O   UNL A   1      44.256  20.054  24.348  1.00  0.00    -0.456 OA
BRANCH   2   3
ATOM      3  C   UNL A   1      43.777  19.172  25.275  1.00  0.00     0.374 C 
ATOM      4  O   UNL A   1      44.270  18.078  25.510  1.00  0.00    -0.242 OA
BRANCH   3   5
ATOM      5  C   UNL A   1      42.675  19.768  25.997  1.00  0.00     0.211 A 
ATOM      6  C   UNL A   1      40.553  20.331  26.235  1.00  0.00     0.124 A 
ATOM      7  C   UNL A   1      41.156  20.563  27.454  1.00  0.00     0.048 A 
ATOM      8  O   UNL A   1      41.481  19.905  25.336  1.00  0.00    -0.452 OA
ATOM      9  C   UNL A   1      42.515  20.192  27.304  1.00  0.00     0.058 A 
BRANCH   6  10
ATOM     10  C   UNL A   1      39.151  20.401  25.753  1.00  0.00     0.193 C 
BRANCH  10  11
ATOM     11  N   UNL A   1      38.740  21.790  25.779  1.00  0.00    -0.331 N 
ATOM     12  O   UNL A   1      37.390  23.524  25.471  1.00  0.00    -0.248 OA
ATOM     13  C   UNL A   1      37.495  22.334  25.752  1.00  0.00     0.319 C 
ATOM     14  N   UNL A   1      36.465  21.490  26.056  1.00  0.00    -0.308 N 
ATOM     15  H   UNL A   1      39.478  22.441  25.826  1.00  0.00     0.165 HD
ATOM     16  H   UNL A   1      36.709  20.621  26.448  1.00  0.00     0.171 HD
BRANCH  14  17
ATOM     17  C   UNL A   1      35.089  21.732  25.868  1.00  0.00     0.044 A 
ATOM     18  C   UNL A   1      34.401  22.372  26.908  1.00  0.00     0.029 A 
ATOM     19  C   UNL A   1      34.387  21.339  24.722  1.00  0.00     0.049 A 
ATOM     20  C   UNL A   1      33.034  22.638  26.796  1.00  0.00     0.043 A 
ATOM     21  C   UNL A   1      33.018  21.598  24.616  1.00  0.00     0.078 A 
ATOM     22  C   UNL A   1      32.350  22.249  25.650  1.00  0.00     0.141 A 
ATOM     23  Cl  UNL A   1      32.165  21.094  23.207  1.00  0.00    -0.081 Cl
ATOM     24  F   UNL A   1      31.037  22.508  25.565  1.00  0.00    -0.205 F 
ENDBRANCH  14  17
ENDBRANCH  10  11
ENDBRANCH   6  10
ENDBRANCH   3   5
ENDBRANCH   2   3
ENDBRANCH   1   2
BRANCH   1  25
ATOM     25  C   UNL A   1      45.223  22.310  24.431  1.00  0.00     0.275 C 
BRANCH  25  26
ATOM     26  O   UNL A   1      44.699  23.040  25.558  1.00  0.00    -0.458 OA
BRANCH  26  27
ATOM     27  C   UNL A   1      43.413  23.451  25.445  1.00  0.00     0.338 C 
ATOM     28  O   UNL A   1      42.577  23.040  24.657  1.00  0.00    -0.246 OA
BRANCH  27  29
ATOM     29  C   UNL A   1      43.105  24.407  26.522  1.00  0.00     0.060 A 
ATOM     30  C   UNL A   1      42.144  24.045  27.471  1.00  0.00     0.016 A 
ATOM     31  C   UNL A   1      43.712  25.664  26.575  1.00  0.00     0.016 A 
ATOM     32  C   UNL A   1      41.789  24.932  28.485  1.00  0.00     0.010 A 
ATOM     33  C   UNL A   1      43.349  26.558  27.586  1.00  0.00     0.010 A 
ATOM     34  C   UNL A   1      42.383  26.199  28.543  1.00  0.00    -0.014 A 
BRANCH  34  35
ATOM     35  C   UNL A   1      41.969  27.167  29.583  1.00  0.00     0.031 A 
ATOM     36  C   UNL A   1      42.679  27.189  30.904  1.00  0.00     0.074 A 
ATOM     37  C   UNL A   1      40.957  28.020  29.343  1.00  0.00     0.049 A 
ATOM     38  N   UNL A   1      42.402  27.879  31.980  1.00  0.00    -0.248 NA
ATOM     39  C   UNL A   1      43.859  26.319  31.028  1.00  0.00     0.031 C 
ATOM     40  C   UNL A   1      40.223  28.124  28.083  1.00  0.00     0.029 A 
ATOM     41  N   UNL A   1      40.367  28.953  30.157  1.00  0.00    -0.354 N 
ATOM     42  C   UNL A   1      43.360  27.515  32.917  1.00  0.00     0.074 A 
ATOM     43  C   UNL A   1      44.223  26.539  32.285  1.00  0.00     0.031 C 
ATOM     44  C   UNL A   1      39.270  29.062  28.211  1.00  0.00     0.029 A 
ATOM     45  C   UNL A   1      39.302  29.592  29.572  1.00  0.00     0.049 A 
ATOM     46  H   UNL A   1      40.677  29.146  31.071  1.00  0.00     0.167 HD
ATOM     47  C   UNL A   1      43.505  27.958  34.189  1.00  0.00     0.037 A 
ATOM     48  C   UNL A   1      38.432  30.481  30.088  1.00  0.00     0.037 A 
ATOM     49  C   UNL A   1      42.651  28.933  34.811  1.00  0.00     0.049 A 
ATOM     50  C   UNL A   1      38.578  30.912  31.520  1.00  0.00     0.074 A 
ATOM     51  C   UNL A   1      42.718  29.444  36.096  1.00  0.00     0.029 A 
ATOM     52  N   UNL A   1      41.573  29.547  34.192  1.00  0.00    -0.354 N 
ATOM     53  N   UNL A   1      39.480  30.555  32.401  1.00  0.00    -0.248 NA
ATOM     54  C   UNL A   1      37.581  31.864  32.033  1.00  0.00     0.031 C 
ATOM     55  C   UNL A   1      41.662  30.347  36.264  1.00  0.00     0.029 A 
ATOM     56  C   UNL A   1      40.959  30.421  35.072  1.00  0.00     0.049 A 
ATOM     57  H   UNL A   1      41.287  29.383  33.265  1.00  0.00     0.167 HD
ATOM     58  C   UNL A   1      39.174  31.251  33.562  1.00  0.00     0.074 A 
ATOM     59  C   UNL A   1      38.006  32.058  33.274  1.00  0.00     0.031 C 
ATOM     60  C   UNL A   1      39.806  31.226  34.760  1.00  0.00     0.037 A 
BRANCH  47  61
ATOM     61  C   UNL A   1      44.617  27.366  34.998  1.00  0.00     0.057 A 
ATOM     62  C   UNL A   1      45.909  27.904  34.980  1.00  0.00     0.134 A 
ATOM     63  C   UNL A   1      44.383  26.262  35.828  1.00  0.00     0.134 A 
ATOM     64  F   UNL A   1      46.198  28.952  34.195  1.00  0.00    -0.206 F 
ATOM     65  C   UNL A   1      46.937  27.353  35.749  1.00  0.00     0.040 A 
ATOM     66  C   UNL A   1      45.398  25.715  36.614  1.00  0.00     0.040 A 
ATOM     67  F   UNL A   1      43.165  25.703  35.890  1.00  0.00    -0.206 F 
ATOM     68  C   UNL A   1      46.680  26.259  36.573  1.00  0.00     0.006 A 
ENDBRANCH  47  61
BRANCH  48  69
ATOM     69  C   UNL A   1      37.329  31.006  29.248  1.00  0.00     0.057 A 
ATOM     70  C   UNL A   1      37.358  32.311  28.749  1.00  0.00     0.134 A 
ATOM     71  C   UNL A   1      36.221  30.213  28.926  1.00  0.00     0.134 A 
ATOM     72  F   UNL A   1      38.384  33.124  29.043  1.00  0.00    -0.206 F 
ATOM     73  C   UNL A   1      36.319  32.816  27.965  1.00  0.00     0.040 A 
ATOM     74  C   UNL A   1      35.184  30.697  28.126  1.00  0.00     0.040 A 
ATOM     75  F   UNL A   1      36.135  28.952  29.376  1.00  0.00    -0.206 F 
ATOM     76  C   UNL A   1      35.230  32.005  27.647  1.00  0.00     0.006 A 
ENDBRANCH  48  69
BRANCH  60  77
ATOM     77  C   UNL A   1      39.274  32.123  35.836  1.00  0.00     0.057 A 
ATOM     78  C   UNL A   1      38.307  31.684  36.748  1.00  0.00     0.134 A 
ATOM     79  C   UNL A   1      39.776  33.421  35.992  1.00  0.00     0.134 A 
ATOM     80  F   UNL A   1      37.780  30.455  36.641  1.00  0.00    -0.206 F 
ATOM     81  C   UNL A   1      37.849  32.512  37.774  1.00  0.00     0.040 A 
ATOM     82  C   UNL A   1      39.338  34.251  37.025  1.00  0.00     0.040 A 
ATOM     83  F   UNL A   1      40.709  33.896  35.153  1.00  0.00    -0.206 F 
ATOM     84  C   UNL A   1      38.371  33.796  37.919  1.00  0.00     0.006 A 
ENDBRANCH  60  77
ENDBRANCH  34  35
ENDBRANCH  27  29
ENDBRANCH  26  27
ENDBRANCH  25  26
ENDBRANCH   1  25
TORSDOF 14
ENDMDL
