MODEL 1
REMARK VINA RESULT:     -11.1      0.000      0.000
REMARK SMILES COc1ccc(C[NH2+]Cc2cccn2-c2sc(C)c(C)c2C(=O)OCCOC(=O)c2ccc(-c3c4nc(c(-c5c(F)cccc5F)c5ccc([nH]5)c(-c5c(F)cccc5F)c5nc(c(-c6c(F)cccc6F)c6ccc3[nH]6)C=C5)C=C4)cc2)cc1
REMARK SMILES IDX 22 1 23 2 21 3 15 4 16 5 17 6 19 7 18 8 20 9 14 10 10 11
REMARK SMILES IDX 11 12 12 13 13 14 9 15 8 16 7 19 6 20 3 21 4 22 85 23 5 24
REMARK SMILES IDX 84 25 2 26 1 27 24 28 25 29 26 30 27 31 28 32 29 33 30 34
REMARK SMILES IDX 31 35 83 36 32 37 82 38 33 39 34 40 35 41 76 42 36 43 81 44
REMARK SMILES IDX 75 45 77 46 37 47 80 48 74 49 73 50 38 52 64 53 47 54 63 55
REMARK SMILES IDX 48 56 51 57 62 58 78 59 49 60 50 61 61 63 79 64 52 65 39 66
REMARK SMILES IDX 40 67 45 68 41 69 42 70 44 71 46 72 43 73 65 74 66 75 71 76
REMARK SMILES IDX 67 77 68 78 70 79 72 80 69 81 53 82 54 83 59 84 55 85 56 86
REMARK SMILES IDX 58 87 60 88 57 89
REMARK H PARENT 8 17 8 18 77 51 51 62
REMARK Flexibility Score: inf
ROOT
ATOM      1  C   UNL A   1      34.185  23.795  25.684  1.00  0.00     0.341 C 
ATOM      2  O   UNL A   1      33.716  24.039  26.792  1.00  0.00    -0.246 OA
ENDROOT
BRANCH   1   3
ATOM      3  C   UNL A   1      33.544  22.875  24.717  1.00  0.00     0.098 A 
ATOM      4  C   UNL A   1      32.814  23.273  23.605  1.00  0.00     0.115 A 
ATOM      5  S   UNL A   1      32.127  22.000  22.728  1.00  0.00    -0.122 S 
ATOM      6  C   UNL A   1      32.779  20.835  23.788  1.00  0.00     0.007 A 
ATOM      7  C   UNL A   1      33.489  21.414  24.835  1.00  0.00    -0.021 A 
ATOM      8  C   UNL A   1      32.528  19.381  23.537  1.00  0.00     0.057 C 
ATOM      9  C   UNL A   1      34.068  20.596  25.954  1.00  0.00     0.046 C 
BRANCH   4  10
ATOM     10  N   UNL A   1      32.682  24.568  23.081  1.00  0.00    -0.306 N 
ATOM     11  C   UNL A   1      31.673  25.517  23.291  1.00  0.00     0.078 A 
ATOM     12  C   UNL A   1      32.084  26.690  22.669  1.00  0.00     0.029 A 
ATOM     13  C   UNL A   1      33.305  26.456  22.013  1.00  0.00     0.020 A 
ATOM     14  C   UNL A   1      33.633  25.147  22.253  1.00  0.00     0.092 A 
BRANCH  11  15
ATOM     15  C   UNL A   1      30.456  25.243  24.134  1.00  0.00     0.316 C 
BRANCH  15  16
ATOM     16  N   UNL A   1      30.184  26.271  25.141  1.00  0.00    -0.338 N 
ATOM     17  H   UNL A   1      30.351  27.186  24.721  1.00  0.00     0.346 HD
ATOM     18  H   UNL A   1      29.215  26.153  25.436  1.00  0.00     0.346 HD
BRANCH  16  19
ATOM     19  C   UNL A   1      31.013  26.152  26.331  1.00  0.00     0.297 C 
BRANCH  19  20
ATOM     20  C   UNL A   1      31.901  27.363  26.512  1.00  0.00     0.006 A 
ATOM     21  C   UNL A   1      33.501  29.660  26.739  1.00  0.00     0.118 A 
ATOM     22  C   UNL A   1      32.206  29.656  27.251  1.00  0.00     0.047 A 
ATOM     23  C   UNL A   1      34.028  28.498  26.177  1.00  0.00     0.047 A 
ATOM     24  C   UNL A   1      31.407  28.516  27.136  1.00  0.00     0.013 A 
ATOM     25  C   UNL A   1      33.231  27.354  26.063  1.00  0.00     0.013 A 
BRANCH  21  26
ATOM     26  O   UNL A   1      34.210  30.823  26.876  1.00  0.00    -0.497 OA
ATOM     27  C   UNL A   1      33.581  31.764  27.743  1.00  0.00     0.278 C 
ENDBRANCH  21  26
ENDBRANCH  19  20
ENDBRANCH  16  19
ENDBRANCH  15  16
ENDBRANCH  11  15
ENDBRANCH   4  10
ENDBRANCH   1   3
BRANCH   1  28
ATOM     28  O   UNL A   1      35.312  24.400  25.208  1.00  0.00    -0.458 OA
BRANCH  28  29
ATOM     29  C   UNL A   1      36.380  23.573  24.720  1.00  0.00     0.275 C 
BRANCH  29  30
ATOM     30  C   UNL A   1      37.416  23.277  25.803  1.00  0.00     0.275 C 
BRANCH  30  31
ATOM     31  O   UNL A   1      37.924  24.453  26.443  1.00  0.00    -0.458 OA
BRANCH  31  32
ATOM     32  C   UNL A   1      39.119  24.238  27.030  1.00  0.00     0.338 C 
ATOM     33  O   UNL A   1      39.632  23.165  27.313  1.00  0.00    -0.246 OA
BRANCH  32  34
ATOM     34  C   UNL A   1      39.714  25.461  27.537  1.00  0.00     0.060 A 
ATOM     35  C   UNL A   1      39.439  25.757  28.875  1.00  0.00     0.016 A 
ATOM     36  C   UNL A   1      40.154  26.426  26.622  1.00  0.00     0.016 A 
ATOM     37  C   UNL A   1      39.493  27.068  29.284  1.00  0.00     0.010 A 
ATOM     38  C   UNL A   1      40.200  27.746  27.031  1.00  0.00     0.010 A 
ATOM     39  C   UNL A   1      39.846  28.053  28.353  1.00  0.00    -0.014 A 
BRANCH  39  40
ATOM     40  C   UNL A   1      40.127  29.384  28.903  1.00  0.00     0.031 A 
ATOM     41  C   UNL A   1      38.778  30.135  29.073  1.00  0.00     0.074 A 
ATOM     42  C   UNL A   1      41.450  29.694  29.091  1.00  0.00     0.049 A 
ATOM     43  N   UNL A   1      38.524  31.404  29.116  1.00  0.00    -0.248 NA
ATOM     44  C   UNL A   1      37.500  29.352  29.132  1.00  0.00     0.031 C 
ATOM     45  C   UNL A   1      42.593  28.773  28.858  1.00  0.00     0.029 A 
ATOM     46  N   UNL A   1      42.118  30.829  29.502  1.00  0.00    -0.354 N 
ATOM     47  C   UNL A   1      37.163  31.550  29.483  1.00  0.00     0.074 A 
ATOM     48  C   UNL A   1      36.554  30.274  29.309  1.00  0.00     0.031 C 
ATOM     49  C   UNL A   1      43.778  29.402  29.040  1.00  0.00     0.029 A 
ATOM     50  C   UNL A   1      43.544  30.776  29.441  1.00  0.00     0.049 A 
ATOM     51  H   UNL A   1      41.640  31.629  29.819  1.00  0.00     0.167 HD
ATOM     52  C   UNL A   1      36.688  32.668  30.108  1.00  0.00     0.037 A 
ATOM     53  C   UNL A   1      44.450  31.784  29.670  1.00  0.00     0.037 A 
ATOM     54  C   UNL A   1      37.729  33.637  30.174  1.00  0.00     0.049 A 
ATOM     55  C   UNL A   1      43.640  32.858  30.249  1.00  0.00     0.074 A 
ATOM     56  C   UNL A   1      38.352  34.370  29.200  1.00  0.00     0.029 A 
ATOM     57  N   UNL A   1      38.517  33.595  31.300  1.00  0.00    -0.354 N 
ATOM     58  N   UNL A   1      43.152  32.833  31.452  1.00  0.00    -0.248 NA
ATOM     59  C   UNL A   1      43.259  33.995  29.404  1.00  0.00     0.031 C 
ATOM     60  C   UNL A   1      39.704  34.299  29.585  1.00  0.00     0.029 A 
ATOM     61  C   UNL A   1      39.806  33.815  30.897  1.00  0.00     0.049 A 
ATOM     62  H   UNL A   1      38.213  33.436  32.222  1.00  0.00     0.167 HD
ATOM     63  C   UNL A   1      42.127  33.738  31.358  1.00  0.00     0.074 A 
ATOM     64  C   UNL A   1      42.460  34.625  30.261  1.00  0.00     0.031 C 
ATOM     65  C   UNL A   1      40.880  33.367  31.749  1.00  0.00     0.037 A 
BRANCH  52  66
ATOM     66  C   UNL A   1      35.481  32.911  30.972  1.00  0.00     0.057 A 
ATOM     67  C   UNL A   1      34.640  33.997  30.625  1.00  0.00     0.134 A 
ATOM     68  C   UNL A   1      35.341  32.432  32.278  1.00  0.00     0.134 A 
ATOM     69  F   UNL A   1      34.630  34.493  29.376  1.00  0.00    -0.206 F 
ATOM     70  C   UNL A   1      33.867  34.680  31.564  1.00  0.00     0.040 A 
ATOM     71  C   UNL A   1      34.523  33.078  33.215  1.00  0.00     0.040 A 
ATOM     72  F   UNL A   1      36.052  31.393  32.730  1.00  0.00    -0.206 F 
ATOM     73  C   UNL A   1      33.830  34.236  32.876  1.00  0.00     0.006 A 
ENDBRANCH  52  66
BRANCH  53  74
ATOM     74  C   UNL A   1      45.919  32.126  29.491  1.00  0.00     0.057 A 
ATOM     75  C   UNL A   1      46.534  32.580  28.325  1.00  0.00     0.134 A 
ATOM     76  C   UNL A   1      46.797  32.103  30.620  1.00  0.00     0.134 A 
ATOM     77  F   UNL A   1      45.894  32.552  27.150  1.00  0.00    -0.206 F 
ATOM     78  C   UNL A   1      47.857  33.085  28.314  1.00  0.00     0.040 A 
ATOM     79  C   UNL A   1      48.083  32.653  30.639  1.00  0.00     0.040 A 
ATOM     80  F   UNL A   1      46.445  31.546  31.787  1.00  0.00    -0.206 F 
ATOM     81  C   UNL A   1      48.615  33.169  29.480  1.00  0.00     0.006 A 
ENDBRANCH  53  74
BRANCH  65  82
ATOM     82  C   UNL A   1      40.838  32.231  32.766  1.00  0.00     0.057 A 
ATOM     83  C   UNL A   1      41.494  32.368  33.999  1.00  0.00     0.134 A 
ATOM     84  C   UNL A   1      40.279  30.965  32.533  1.00  0.00     0.134 A 
ATOM     85  F   UNL A   1      42.022  33.549  34.353  1.00  0.00    -0.206 F 
ATOM     86  C   UNL A   1      41.630  31.303  34.905  1.00  0.00     0.040 A 
ATOM     87  C   UNL A   1      40.409  29.887  33.423  1.00  0.00     0.040 A 
ATOM     88  F   UNL A   1      39.570  30.725  31.435  1.00  0.00    -0.206 F 
ATOM     89  C   UNL A   1      41.100  30.052  34.613  1.00  0.00     0.006 A 
ENDBRANCH  65  82
ENDBRANCH  39  40
ENDBRANCH  32  34
ENDBRANCH  31  32
ENDBRANCH  30  31
ENDBRANCH  29  30
ENDBRANCH  28  29
ENDBRANCH   1  28
TORSDOF 17
ENDMDL
MODEL 2
REMARK VINA RESULT:     -10.8      1.258      2.540
REMARK SMILES COc1ccc(C[NH2+]Cc2cccn2-c2sc(C)c(C)c2C(=O)OCCOC(=O)c2ccc(-c3c4nc(c(-c5c(F)cccc5F)c5ccc([nH]5)c(-c5c(F)cccc5F)c5nc(c(-c6c(F)cccc6F)c6ccc3[nH]6)C=C5)C=C4)cc2)cc1
REMARK SMILES IDX 22 1 23 2 21 3 15 4 16 5 17 6 19 7 18 8 20 9 14 10 10 11
REMARK SMILES IDX 11 12 12 13 13 14 9 15 8 16 7 19 6 20 3 21 4 22 85 23 5 24
REMARK SMILES IDX 84 25 2 26 1 27 24 28 25 29 26 30 27 31 28 32 29 33 30 34
REMARK SMILES IDX 31 35 83 36 32 37 82 38 33 39 34 40 35 41 76 42 36 43 81 44
REMARK SMILES IDX 75 45 77 46 37 47 80 48 74 49 73 50 38 52 64 53 47 54 63 55
REMARK SMILES IDX 48 56 51 57 62 58 78 59 49 60 50 61 61 63 79 64 52 65 39 66
REMARK SMILES IDX 40 67 45 68 41 69 42 70 44 71 46 72 43 73 65 74 66 75 71 76
REMARK SMILES IDX 67 77 68 78 70 79 72 80 69 81 53 82 54 83 59 84 55 85 56 86
REMARK SMILES IDX 58 87 60 88 57 89
REMARK H PARENT 8 17 8 18 77 51 51 62
REMARK Flexibility Score: inf
ROOT
ATOM      1  C   UNL A   1      34.513  24.766  25.285  1.00  0.00     0.341 C 
ATOM      2  O   UNL A   1      33.957  25.261  26.263  1.00  0.00    -0.246 OA
ENDROOT
BRANCH   1   3
ATOM      3  C   UNL A   1      33.820  24.512  24.003  1.00  0.00     0.098 A 
ATOM      4  C   UNL A   1      33.387  23.267  23.565  1.00  0.00     0.115 A 
ATOM      5  S   UNL A   1      32.702  23.269  22.019  1.00  0.00    -0.122 S 
ATOM      6  C   UNL A   1      32.937  24.949  21.849  1.00  0.00     0.007 A 
ATOM      7  C   UNL A   1      33.574  25.507  22.952  1.00  0.00    -0.021 A 
ATOM      8  C   UNL A   1      32.492  25.637  20.595  1.00  0.00     0.057 C 
ATOM      9  C   UNL A   1      33.984  26.951  22.991  1.00  0.00     0.046 C 
BRANCH   4  10
ATOM     10  N   UNL A   1      33.354  22.066  24.288  1.00  0.00    -0.306 N 
ATOM     11  C   UNL A   1      32.371  21.574  25.158  1.00  0.00     0.078 A 
ATOM     12  C   UNL A   1      32.742  20.278  25.498  1.00  0.00     0.029 A 
ATOM     13  C   UNL A   1      33.982  19.987  24.904  1.00  0.00     0.020 A 
ATOM     14  C   UNL A   1      34.350  21.103  24.199  1.00  0.00     0.092 A 
BRANCH  11  15
ATOM     15  C   UNL A   1      31.133  22.353  25.514  1.00  0.00     0.316 C 
BRANCH  15  16
ATOM     16  N   UNL A   1      31.381  23.498  26.392  1.00  0.00    -0.338 N 
ATOM     17  H   UNL A   1      31.628  23.148  27.317  1.00  0.00     0.346 HD
ATOM     18  H   UNL A   1      32.136  24.041  25.970  1.00  0.00     0.346 HD
BRANCH  16  19
ATOM     19  C   UNL A   1      30.237  24.386  26.525  1.00  0.00     0.297 C 
BRANCH  19  20
ATOM     20  C   UNL A   1      30.397  25.628  25.676  1.00  0.00     0.006 A 
ATOM     21  C   UNL A   1      30.802  27.884  24.053  1.00  0.00     0.118 A 
ATOM     22  C   UNL A   1      30.119  26.777  23.555  1.00  0.00     0.047 A 
ATOM     23  C   UNL A   1      31.223  27.899  25.382  1.00  0.00     0.047 A 
ATOM     24  C   UNL A   1      29.919  25.653  24.360  1.00  0.00     0.013 A 
ATOM     25  C   UNL A   1      31.021  26.775  26.190  1.00  0.00     0.013 A 
BRANCH  21  26
ATOM     26  O   UNL A   1      30.972  28.936  23.193  1.00  0.00    -0.497 OA
ATOM     27  C   UNL A   1      29.795  29.725  23.034  1.00  0.00     0.278 C 
ENDBRANCH  21  26
ENDBRANCH  19  20
ENDBRANCH  16  19
ENDBRANCH  15  16
ENDBRANCH  11  15
ENDBRANCH   4  10
ENDBRANCH   1   3
BRANCH   1  28
ATOM     28  O   UNL A   1      35.843  24.463  25.265  1.00  0.00    -0.458 OA
BRANCH  28  29
ATOM     29  C   UNL A   1      36.304  23.352  26.049  1.00  0.00     0.275 C 
BRANCH  29  30
ATOM     30  C   UNL A   1      37.829  23.280  26.100  1.00  0.00     0.275 C 
BRANCH  30  31
ATOM     31  O   UNL A   1      38.448  24.526  26.441  1.00  0.00    -0.458 OA
BRANCH  31  32
ATOM     32  C   UNL A   1      39.561  24.356  27.183  1.00  0.00     0.338 C 
ATOM     33  O   UNL A   1      40.022  23.310  27.613  1.00  0.00    -0.246 OA
BRANCH  32  34
ATOM     34  C   UNL A   1      40.108  25.616  27.655  1.00  0.00     0.060 A 
ATOM     35  C   UNL A   1      39.895  25.898  29.007  1.00  0.00     0.016 A 
ATOM     36  C   UNL A   1      40.434  26.604  26.717  1.00  0.00     0.016 A 
ATOM     37  C   UNL A   1      39.891  27.211  29.413  1.00  0.00     0.010 A 
ATOM     38  C   UNL A   1      40.422  27.925  27.124  1.00  0.00     0.010 A 
ATOM     39  C   UNL A   1      40.128  28.213  28.464  1.00  0.00    -0.014 A 
BRANCH  39  40
ATOM     40  C   UNL A   1      40.357  29.560  28.997  1.00  0.00     0.031 A 
ATOM     41  C   UNL A   1      38.981  30.261  29.159  1.00  0.00     0.074 A 
ATOM     42  C   UNL A   1      41.668  29.923  29.181  1.00  0.00     0.049 A 
ATOM     43  N   UNL A   1      38.678  31.520  29.187  1.00  0.00    -0.248 NA
ATOM     44  C   UNL A   1      37.734  29.430  29.229  1.00  0.00     0.031 C 
ATOM     45  C   UNL A   1      42.845  29.044  28.958  1.00  0.00     0.029 A 
ATOM     46  N   UNL A   1      42.292  31.088  29.578  1.00  0.00    -0.354 N 
ATOM     47  C   UNL A   1      37.313  31.618  29.554  1.00  0.00     0.074 A 
ATOM     48  C   UNL A   1      36.753  30.318  29.396  1.00  0.00     0.031 C 
ATOM     49  C   UNL A   1      44.006  29.720  29.132  1.00  0.00     0.029 A 
ATOM     50  C   UNL A   1      43.719  31.088  29.516  1.00  0.00     0.049 A 
ATOM     51  H   UNL A   1      41.784  31.872  29.886  1.00  0.00     0.167 HD
ATOM     52  C   UNL A   1      36.796  32.725  30.166  1.00  0.00     0.037 A 
ATOM     53  C   UNL A   1      44.586  32.133  29.733  1.00  0.00     0.037 A 
ATOM     54  C   UNL A   1      37.799  33.733  30.219  1.00  0.00     0.049 A 
ATOM     55  C   UNL A   1      43.736  33.183  30.299  1.00  0.00     0.074 A 
ATOM     56  C   UNL A   1      38.393  34.478  29.236  1.00  0.00     0.029 A 
ATOM     57  N   UNL A   1      38.589  33.735  31.345  1.00  0.00    -0.354 N 
ATOM     58  N   UNL A   1      43.249  33.153  31.503  1.00  0.00    -0.248 NA
ATOM     59  C   UNL A   1      43.311  34.294  29.441  1.00  0.00     0.031 C 
ATOM     60  C   UNL A   1      39.747  34.464  29.621  1.00  0.00     0.029 A 
ATOM     61  C   UNL A   1      39.868  34.000  30.938  1.00  0.00     0.049 A 
ATOM     62  H   UNL A   1      38.290  33.576  32.269  1.00  0.00     0.167 HD
ATOM     63  C   UNL A   1      42.190  34.017  31.398  1.00  0.00     0.074 A 
ATOM     64  C   UNL A   1      42.488  34.903  30.291  1.00  0.00     0.031 C 
ATOM     65  C   UNL A   1      40.959  33.604  31.795  1.00  0.00     0.037 A 
BRANCH  52  66
ATOM     66  C   UNL A   1      35.580  32.931  31.028  1.00  0.00     0.057 A 
ATOM     67  C   UNL A   1      34.737  34.025  30.712  1.00  0.00     0.134 A 
ATOM     68  C   UNL A   1      35.432  32.407  32.315  1.00  0.00     0.134 A 
ATOM     69  F   UNL A   1      34.734  34.564  29.481  1.00  0.00    -0.206 F 
ATOM     70  C   UNL A   1      33.953  34.671  31.667  1.00  0.00     0.040 A 
ATOM     71  C   UNL A   1      34.604  33.016  33.267  1.00  0.00     0.040 A 
ATOM     72  F   UNL A   1      36.145  31.356  32.737  1.00  0.00    -0.206 F 
ATOM     73  C   UNL A   1      33.908  34.182  32.963  1.00  0.00     0.006 A 
ENDBRANCH  52  66
BRANCH  53  74
ATOM     74  C   UNL A   1      46.041  32.529  29.549  1.00  0.00     0.057 A 
ATOM     75  C   UNL A   1      47.052  32.458  30.507  1.00  0.00     0.134 A 
ATOM     76  C   UNL A   1      46.513  32.921  28.257  1.00  0.00     0.134 A 
ATOM     77  F   UNL A   1      46.770  32.223  31.794  1.00  0.00    -0.206 F 
ATOM     78  C   UNL A   1      48.418  32.636  30.179  1.00  0.00     0.040 A 
ATOM     79  C   UNL A   1      47.861  33.040  27.906  1.00  0.00     0.040 A 
ATOM     80  F   UNL A   1      45.678  33.206  27.249  1.00  0.00    -0.206 F 
ATOM     81  C   UNL A   1      48.830  32.876  28.870  1.00  0.00     0.006 A 
ENDBRANCH  53  74
BRANCH  65  82
ATOM     82  C   UNL A   1      40.960  32.479  32.826  1.00  0.00     0.057 A 
ATOM     83  C   UNL A   1      41.609  32.656  34.057  1.00  0.00     0.134 A 
ATOM     84  C   UNL A   1      40.452  31.190  32.608  1.00  0.00     0.134 A 
ATOM     85  F   UNL A   1      42.091  33.861  34.397  1.00  0.00    -0.206 F 
ATOM     86  C   UNL A   1      41.787  31.609  34.976  1.00  0.00     0.040 A 
ATOM     87  C   UNL A   1      40.623  30.128  33.511  1.00  0.00     0.040 A 
ATOM     88  F   UNL A   1      39.753  30.908  31.513  1.00  0.00    -0.206 F 
ATOM     89  C   UNL A   1      41.306  30.335  34.699  1.00  0.00     0.006 A 
ENDBRANCH  65  82
ENDBRANCH  39  40
ENDBRANCH  32  34
ENDBRANCH  31  32
ENDBRANCH  30  31
ENDBRANCH  29  30
ENDBRANCH  28  29
ENDBRANCH   1  28
TORSDOF 17
ENDMDL
MODEL 3
REMARK VINA RESULT:     -10.7      3.857      8.644
REMARK SMILES COc1ccc(C[NH2+]Cc2cccn2-c2sc(C)c(C)c2C(=O)OCCOC(=O)c2ccc(-c3c4nc(c(-c5c(F)cccc5F)c5ccc([nH]5)c(-c5c(F)cccc5F)c5nc(c(-c6c(F)cccc6F)c6ccc3[nH]6)C=C5)C=C4)cc2)cc1
REMARK SMILES IDX 22 1 23 2 21 3 15 4 16 5 17 6 19 7 18 8 20 9 14 10 10 11
REMARK SMILES IDX 11 12 12 13 13 14 9 15 8 16 7 19 6 20 3 21 4 22 85 23 5 24
REMARK SMILES IDX 84 25 2 26 1 27 24 28 25 29 26 30 27 31 28 32 29 33 30 34
REMARK SMILES IDX 31 35 83 36 32 37 82 38 33 39 34 40 35 41 76 42 36 43 81 44
REMARK SMILES IDX 75 45 77 46 37 47 80 48 74 49 73 50 38 52 64 53 47 54 63 55
REMARK SMILES IDX 48 56 51 57 62 58 78 59 49 60 50 61 61 63 79 64 52 65 39 66
REMARK SMILES IDX 40 67 45 68 41 69 42 70 44 71 46 72 43 73 65 74 66 75 71 76
REMARK SMILES IDX 67 77 68 78 70 79 72 80 69 81 53 82 54 83 59 84 55 85 56 86
REMARK SMILES IDX 58 87 60 88 57 89
REMARK H PARENT 8 17 8 18 77 51 51 62
REMARK Flexibility Score: inf
ROOT
ATOM      1  C   UNL A   1      32.091  27.152  25.384  1.00  0.00     0.341 C 
ATOM      2  O   UNL A   1      31.031  27.559  25.852  1.00  0.00    -0.246 OA
ENDROOT
BRANCH   1   3
ATOM      3  C   UNL A   1      32.166  26.264  24.202  1.00  0.00     0.098 A 
ATOM      4  C   UNL A   1      32.155  24.876  24.247  1.00  0.00     0.115 A 
ATOM      5  S   UNL A   1      32.340  24.126  22.742  1.00  0.00    -0.122 S 
ATOM      6  C   UNL A   1      32.436  25.626  21.937  1.00  0.00     0.007 A 
ATOM      7  C   UNL A   1      32.368  26.702  22.816  1.00  0.00    -0.021 A 
ATOM      8  C   UNL A   1      32.603  25.659  20.449  1.00  0.00     0.057 C 
ATOM      9  C   UNL A   1      32.536  28.121  22.354  1.00  0.00     0.046 C 
BRANCH   4  10
ATOM     10  N   UNL A   1      31.902  24.054  25.355  1.00  0.00    -0.306 N 
ATOM     11  C   UNL A   1      32.780  23.601  26.349  1.00  0.00     0.078 A 
ATOM     12  C   UNL A   1      32.010  22.943  27.301  1.00  0.00     0.029 A 
ATOM     13  C   UNL A   1      30.672  22.922  26.871  1.00  0.00     0.020 A 
ATOM     14  C   UNL A   1      30.637  23.578  25.668  1.00  0.00     0.092 A 
BRANCH  11  15
ATOM     15  C   UNL A   1      34.254  23.909  26.340  1.00  0.00     0.316 C 
BRANCH  15  16
ATOM     16  N   UNL A   1      35.104  22.748  26.068  1.00  0.00    -0.338 N 
ATOM     17  H   UNL A   1      36.067  22.994  26.295  1.00  0.00     0.346 HD
ATOM     18  H   UNL A   1      34.756  21.980  26.644  1.00  0.00     0.346 HD
BRANCH  16  19
ATOM     19  C   UNL A   1      35.054  22.304  24.684  1.00  0.00     0.297 C 
BRANCH  19  20
ATOM     20  C   UNL A   1      34.449  20.922  24.567  1.00  0.00     0.006 A 
ATOM     21  C   UNL A   1      33.290  18.365  24.473  1.00  0.00     0.118 A 
ATOM     22  C   UNL A   1      32.515  19.495  24.220  1.00  0.00     0.047 A 
ATOM     23  C   UNL A   1      34.658  18.500  24.703  1.00  0.00     0.047 A 
ATOM     24  C   UNL A   1      33.089  20.768  24.270  1.00  0.00     0.013 A 
ATOM     25  C   UNL A   1      35.236  19.774  24.750  1.00  0.00     0.013 A 
BRANCH  21  26
ATOM     26  O   UNL A   1      32.646  17.158  24.423  1.00  0.00    -0.497 OA
ATOM     27  C   UNL A   1      33.485  16.061  24.778  1.00  0.00     0.278 C 
ENDBRANCH  21  26
ENDBRANCH  19  20
ENDBRANCH  16  19
ENDBRANCH  15  16
ENDBRANCH  11  15
ENDBRANCH   4  10
ENDBRANCH   1   3
BRANCH   1  28
ATOM     28  O   UNL A   1      33.308  27.531  25.869  1.00  0.00    -0.458 OA
BRANCH  28  29
ATOM     29  C   UNL A   1      33.649  28.926  25.848  1.00  0.00     0.275 C 
BRANCH  29  30
ATOM     30  C   UNL A   1      34.163  29.411  27.202  1.00  0.00     0.275 C 
BRANCH  30  31
ATOM     31  O   UNL A   1      35.526  29.052  27.457  1.00  0.00    -0.458 OA
BRANCH  31  32
ATOM     32  C   UNL A   1      36.259  30.102  27.879  1.00  0.00     0.338 C 
ATOM     33  O   UNL A   1      36.064  31.289  27.660  1.00  0.00    -0.246 OA
BRANCH  32  34
ATOM     34  C   UNL A   1      37.514  29.693  28.483  1.00  0.00     0.060 A 
ATOM     35  C   UNL A   1      38.639  29.785  27.659  1.00  0.00     0.016 A 
ATOM     36  C   UNL A   1      37.481  28.894  29.633  1.00  0.00     0.016 A 
ATOM     37  C   UNL A   1      39.717  28.973  27.922  1.00  0.00     0.010 A 
ATOM     38  C   UNL A   1      38.561  28.071  29.892  1.00  0.00     0.010 A 
ATOM     39  C   UNL A   1      39.658  28.104  29.019  1.00  0.00    -0.014 A 
BRANCH  39  40
ATOM     40  C   UNL A   1      40.918  27.454  29.391  1.00  0.00     0.031 A 
ATOM     41  C   UNL A   1      41.080  26.175  28.524  1.00  0.00     0.074 A 
ATOM     42  C   UNL A   1      41.627  28.043  30.407  1.00  0.00     0.049 A 
ATOM     43  N   UNL A   1      41.760  25.095  28.741  1.00  0.00    -0.248 NA
ATOM     44  C   UNL A   1      40.306  26.048  27.245  1.00  0.00     0.031 C 
ATOM     45  C   UNL A   1      41.259  29.310  31.092  1.00  0.00     0.029 A 
ATOM     46  N   UNL A   1      42.784  27.715  31.083  1.00  0.00    -0.354 N 
ATOM     47  C   UNL A   1      41.726  24.328  27.550  1.00  0.00     0.074 A 
ATOM     48  C   UNL A   1      40.689  24.874  26.741  1.00  0.00     0.031 C 
ATOM     49  C   UNL A   1      42.104  29.580  32.116  1.00  0.00     0.029 A 
ATOM     50  C   UNL A   1      43.124  28.552  32.189  1.00  0.00     0.049 A 
ATOM     51  H   UNL A   1      43.342  26.948  30.819  1.00  0.00     0.167 HD
ATOM     52  C   UNL A   1      42.703  23.428  27.230  1.00  0.00     0.037 A 
ATOM     53  C   UNL A   1      44.139  28.394  33.103  1.00  0.00     0.037 A 
ATOM     54  C   UNL A   1      43.609  23.322  28.322  1.00  0.00     0.049 A 
ATOM     55  C   UNL A   1      44.957  27.319  32.537  1.00  0.00     0.074 A 
ATOM     56  C   UNL A   1      43.460  22.806  29.581  1.00  0.00     0.029 A 
ATOM     57  N   UNL A   1      44.682  24.182  28.298  1.00  0.00    -0.354 N 
ATOM     58  N   UNL A   1      45.724  27.460  31.499  1.00  0.00    -0.248 NA
ATOM     59  C   UNL A   1      44.842  25.968  33.096  1.00  0.00     0.031 C 
ATOM     60  C   UNL A   1      44.112  23.763  30.382  1.00  0.00     0.029 A 
ATOM     61  C   UNL A   1      44.875  24.621  29.579  1.00  0.00     0.049 A 
ATOM     62  H   UNL A   1      45.212  24.433  27.508  1.00  0.00     0.167 HD
ATOM     63  C   UNL A   1      45.866  26.164  31.077  1.00  0.00     0.074 A 
ATOM     64  C   UNL A   1      45.624  25.324  32.233  1.00  0.00     0.031 C 
ATOM     65  C   UNL A   1      45.591  25.857  29.783  1.00  0.00     0.037 A 
BRANCH  52  66
ATOM     66  C   UNL A   1      43.152  22.842  25.919  1.00  0.00     0.057 A 
ATOM     67  C   UNL A   1      43.346  21.440  25.864  1.00  0.00     0.134 A 
ATOM     68  C   UNL A   1      43.767  23.577  24.901  1.00  0.00     0.134 A 
ATOM     69  F   UNL A   1      42.742  20.623  26.744  1.00  0.00    -0.206 F 
ATOM     70  C   UNL A   1      44.244  20.838  24.984  1.00  0.00     0.040 A 
ATOM     71  C   UNL A   1      44.628  22.973  23.975  1.00  0.00     0.040 A 
ATOM     72  F   UNL A   1      43.643  24.907  24.814  1.00  0.00    -0.206 F 
ATOM     73  C   UNL A   1      44.914  21.614  24.050  1.00  0.00     0.006 A 
ENDBRANCH  52  66
BRANCH  53  74
ATOM     74  C   UNL A   1      44.626  28.921  34.442  1.00  0.00     0.057 A 
ATOM     75  C   UNL A   1      45.708  29.775  34.658  1.00  0.00     0.134 A 
ATOM     76  C   UNL A   1      43.883  28.639  35.630  1.00  0.00     0.134 A 
ATOM     77  F   UNL A   1      46.580  30.049  33.681  1.00  0.00    -0.206 F 
ATOM     78  C   UNL A   1      45.947  30.389  35.912  1.00  0.00     0.040 A 
ATOM     79  C   UNL A   1      44.070  29.282  36.857  1.00  0.00     0.040 A 
ATOM     80  F   UNL A   1      42.914  27.714  35.663  1.00  0.00    -0.206 F 
ATOM     81  C   UNL A   1      45.100  30.184  36.999  1.00  0.00     0.006 A 
ENDBRANCH  53  74
BRANCH  65  82
ATOM     82  C   UNL A   1      45.716  27.022  28.806  1.00  0.00     0.057 A 
ATOM     83  C   UNL A   1      46.935  27.704  28.678  1.00  0.00     0.134 A 
ATOM     84  C   UNL A   1      44.652  27.574  28.076  1.00  0.00     0.134 A 
ATOM     85  F   UNL A   1      48.034  27.239  29.291  1.00  0.00    -0.206 F 
ATOM     86  C   UNL A   1      47.068  28.881  27.924  1.00  0.00     0.040 A 
ATOM     87  C   UNL A   1      44.763  28.752  27.320  1.00  0.00     0.040 A 
ATOM     88  F   UNL A   1      43.461  26.985  28.052  1.00  0.00    -0.206 F 
ATOM     89  C   UNL A   1      45.976  29.419  27.252  1.00  0.00     0.006 A 
ENDBRANCH  65  82
ENDBRANCH  39  40
ENDBRANCH  32  34
ENDBRANCH  31  32
ENDBRANCH  30  31
ENDBRANCH  29  30
ENDBRANCH  28  29
ENDBRANCH   1  28
TORSDOF 17
ENDMDL
