MODEL 1
REMARK VINA RESULT:     -11.2      0.000      0.000
REMARK SMILES O=C(CC1CCN(S(=O)(=O)c2cc[nH]c2)CC1)OCCOC(=O)c1ccc(-c2c3nc(c(-c4c(F)cccc4F)c4ccc([nH]4)c(-c4c(F)cccc4F)c4nc(c(-c5c(F)cccc5F)c5ccc2[nH]5)C=C4)C=C3)cc1
REMARK SMILES IDX 19 1 18 2 2 3 1 4 3 5 4 6 5 7 17 8 6 9 16 10 7 11 8 12 9 13
REMARK SMILES IDX 10 14 11 15 12 16 15 17 13 18 14 19 20 21 21 22 22 23 23 24
REMARK SMILES IDX 24 25 25 26 77 27 26 28 76 29 27 30 28 31 29 32 70 33 30 34
REMARK SMILES IDX 75 35 69 36 71 37 31 38 74 39 68 40 67 41 32 43 58 44 41 45
REMARK SMILES IDX 57 46 42 47 45 48 56 49 72 50 43 51 44 52 55 54 73 55 46 56
REMARK SMILES IDX 33 57 34 58 39 59 35 60 36 61 38 62 40 63 37 64 59 65 60 66
REMARK SMILES IDX 65 67 61 68 62 69 64 70 66 71 63 72 47 73 48 74 53 75 49 76
REMARK SMILES IDX 50 77 52 78 54 79 51 80
REMARK H PARENT 14 20 71 42 45 53
REMARK Flexibility Score: inf
ROOT
ATOM      1  C   UNL A   1      37.919  20.116  24.928  1.00  0.00     0.274 C 
ENDROOT
BRANCH   1   2
ATOM      2  O   UNL A   1      37.318  21.062  25.840  1.00  0.00    -0.462 OA
BRANCH   2   3
ATOM      3  C   UNL A   1      37.468  22.409  25.866  1.00  0.00     0.306 C 
ATOM      4  O   UNL A   1      38.594  22.898  25.809  1.00  0.00    -0.252 OA
BRANCH   3   5
ATOM      5  C   UNL A   1      36.266  23.313  26.095  1.00  0.00     0.126 C 
BRANCH   5   6
ATOM      6  C   UNL A   1      35.908  24.281  24.956  1.00  0.00     0.003 C 
ATOM      7  C   UNL A   1      34.562  24.992  25.208  1.00  0.00     0.021 C 
ATOM      8  C   UNL A   1      35.795  23.581  23.606  1.00  0.00     0.021 C 
ATOM      9  C   UNL A   1      33.341  24.069  25.112  1.00  0.00     0.103 C 
ATOM     10  C   UNL A   1      34.617  22.618  23.558  1.00  0.00     0.103 C 
ATOM     11  N   UNL A   1      33.322  23.271  23.840  1.00  0.00    -0.198 NA
BRANCH  11  12
ATOM     12  S   UNL A   1      32.008  22.130  23.861  1.00  0.00     0.244 S 
ATOM     13  O   UNL A   1      30.949  22.705  24.673  1.00  0.00    -0.207 OA
ATOM     14  O   UNL A   1      31.764  21.690  22.509  1.00  0.00    -0.207 OA
BRANCH  12  15
ATOM     15  C   UNL A   1      32.454  20.708  24.752  1.00  0.00     0.100 A 
ATOM     16  C   UNL A   1      32.472  19.381  24.237  1.00  0.00     0.041 A 
ATOM     17  C   UNL A   1      32.900  20.639  26.056  1.00  0.00     0.104 A 
ATOM     18  C   UNL A   1      32.872  18.546  25.257  1.00  0.00     0.083 A 
ATOM     19  N   UNL A   1      33.150  19.323  26.353  1.00  0.00    -0.366 N 
ATOM     20  H   UNL A   1      33.478  18.988  27.218  1.00  0.00     0.165 HD
ENDBRANCH  12  15
ENDBRANCH  11  12
ENDBRANCH   5   6
ENDBRANCH   3   5
ENDBRANCH   2   3
ENDBRANCH   1   2
BRANCH   1  21
ATOM     21  C   UNL A   1      39.054  19.266  25.494  1.00  0.00     0.275 C 
BRANCH  21  22
ATOM     22  O   UNL A   1      40.045  20.039  26.144  1.00  0.00    -0.458 OA
BRANCH  22  23
ATOM     23  C   UNL A   1      41.295  19.530  26.040  1.00  0.00     0.338 C 
ATOM     24  O   UNL A   1      41.607  18.388  25.776  1.00  0.00    -0.246 OA
BRANCH  23  25
ATOM     25  C   UNL A   1      42.254  20.566  26.431  1.00  0.00     0.060 A 
ATOM     26  C   UNL A   1      42.249  20.918  27.780  1.00  0.00     0.016 A 
ATOM     27  C   UNL A   1      42.860  21.360  25.447  1.00  0.00     0.016 A 
ATOM     28  C   UNL A   1      42.616  22.198  28.106  1.00  0.00     0.010 A 
ATOM     29  C   UNL A   1      43.205  22.648  25.766  1.00  0.00     0.010 A 
ATOM     30  C   UNL A   1      42.994  23.070  27.077  1.00  0.00    -0.014 A 
BRANCH  30  31
ATOM     31  C   UNL A   1      43.270  24.451  27.448  1.00  0.00     0.031 A 
ATOM     32  C   UNL A   1      41.916  25.185  27.587  1.00  0.00     0.074 A 
ATOM     33  C   UNL A   1      44.610  24.768  27.471  1.00  0.00     0.049 A 
ATOM     34  N   UNL A   1      41.612  26.411  27.322  1.00  0.00    -0.248 NA
ATOM     35  C   UNL A   1      40.688  24.427  27.991  1.00  0.00     0.031 C 
ATOM     36  C   UNL A   1      45.742  23.800  27.360  1.00  0.00     0.029 A 
ATOM     37  N   UNL A   1      45.317  25.945  27.577  1.00  0.00    -0.354 N 
ATOM     38  C   UNL A   1      40.284  26.637  27.751  1.00  0.00     0.074 A 
ATOM     39  C   UNL A   1      39.724  25.352  28.024  1.00  0.00     0.031 C 
ATOM     40  C   UNL A   1      46.939  24.433  27.291  1.00  0.00     0.029 A 
ATOM     41  C   UNL A   1      46.729  25.866  27.354  1.00  0.00     0.049 A 
ATOM     42  H   UNL A   1      44.874  26.797  27.795  1.00  0.00     0.167 HD
ATOM     43  C   UNL A   1      39.807  27.894  27.995  1.00  0.00     0.037 A 
ATOM     44  C   UNL A   1      47.626  26.897  27.182  1.00  0.00     0.037 A 
ATOM     45  C   UNL A   1      40.825  28.841  27.680  1.00  0.00     0.049 A 
ATOM     46  C   UNL A   1      46.812  28.086  27.443  1.00  0.00     0.074 A 
ATOM     47  C   UNL A   1      41.342  29.224  26.470  1.00  0.00     0.029 A 
ATOM     48  N   UNL A   1      41.726  29.117  28.681  1.00  0.00    -0.354 N 
ATOM     49  N   UNL A   1      46.398  28.439  28.620  1.00  0.00    -0.248 NA
ATOM     50  C   UNL A   1      46.322  28.863  26.302  1.00  0.00     0.031 C 
ATOM     51  C   UNL A   1      42.727  29.199  26.719  1.00  0.00     0.029 A 
ATOM     52  C   UNL A   1      42.966  29.167  28.100  1.00  0.00     0.049 A 
ATOM     53  H   UNL A   1      41.520  29.252  29.634  1.00  0.00     0.167 HD
ATOM     54  C   UNL A   1      45.322  29.229  28.315  1.00  0.00     0.074 A 
ATOM     55  C   UNL A   1      45.527  29.704  26.959  1.00  0.00     0.031 C 
ATOM     56  C   UNL A   1      44.131  28.996  28.929  1.00  0.00     0.037 A 
BRANCH  43  57
ATOM     57  C   UNL A   1      38.610  28.424  28.726  1.00  0.00     0.057 A 
ATOM     58  C   UNL A   1      37.909  29.508  28.144  1.00  0.00     0.134 A 
ATOM     59  C   UNL A   1      38.364  28.194  30.081  1.00  0.00     0.134 A 
ATOM     60  F   UNL A   1      38.025  29.785  26.835  1.00  0.00    -0.206 F 
ATOM     61  C   UNL A   1      37.142  30.400  28.895  1.00  0.00     0.040 A 
ATOM     62  C   UNL A   1      37.556  29.058  30.836  1.00  0.00     0.040 A 
ATOM     63  F   UNL A   1      38.967  27.196  30.740  1.00  0.00    -0.206 F 
ATOM     64  C   UNL A   1      36.983  30.188  30.255  1.00  0.00     0.006 A 
ENDBRANCH  43  57
BRANCH  44  65
ATOM     65  C   UNL A   1      49.052  27.206  26.750  1.00  0.00     0.057 A 
ATOM     66  C   UNL A   1      50.031  27.866  27.491  1.00  0.00     0.134 A 
ATOM     67  C   UNL A   1      49.538  26.692  25.505  1.00  0.00     0.134 A 
ATOM     68  F   UNL A   1      49.721  28.509  28.623  1.00  0.00    -0.206 F 
ATOM     69  C   UNL A   1      51.391  27.895  27.089  1.00  0.00     0.040 A 
ATOM     70  C   UNL A   1      50.883  26.657  25.126  1.00  0.00     0.040 A 
ATOM     71  F   UNL A   1      48.716  26.177  24.580  1.00  0.00    -0.206 F 
ATOM     72  C   UNL A   1      51.829  27.247  25.935  1.00  0.00     0.006 A 
ENDBRANCH  44  65
BRANCH  56  73
ATOM     73  C   UNL A   1      44.226  28.240  30.254  1.00  0.00     0.057 A 
ATOM     74  C   UNL A   1      44.982  28.771  31.310  1.00  0.00     0.134 A 
ATOM     75  C   UNL A   1      43.710  26.955  30.491  1.00  0.00     0.134 A 
ATOM     76  F   UNL A   1      45.492  30.008  31.216  1.00  0.00    -0.206 F 
ATOM     77  C   UNL A   1      45.244  28.057  32.490  1.00  0.00     0.040 A 
ATOM     78  C   UNL A   1      43.963  26.223  31.663  1.00  0.00     0.040 A 
ATOM     79  F   UNL A   1      42.931  26.355  29.597  1.00  0.00    -0.206 F 
ATOM     80  C   UNL A   1      44.743  26.771  32.667  1.00  0.00     0.006 A 
ENDBRANCH  56  73
ENDBRANCH  30  31
ENDBRANCH  23  25
ENDBRANCH  22  23
ENDBRANCH  21  22
ENDBRANCH   1  21
TORSDOF 14
ENDMDL
MODEL 2
REMARK VINA RESULT:     -11.2      1.752      2.680
REMARK SMILES O=C(CC1CCN(S(=O)(=O)c2cc[nH]c2)CC1)OCCOC(=O)c1ccc(-c2c3nc(c(-c4c(F)cccc4F)c4ccc([nH]4)c(-c4c(F)cccc4F)c4nc(c(-c5c(F)cccc5F)c5ccc2[nH]5)C=C4)C=C3)cc1
REMARK SMILES IDX 19 1 18 2 2 3 1 4 3 5 4 6 5 7 17 8 6 9 16 10 7 11 8 12 9 13
REMARK SMILES IDX 10 14 11 15 12 16 15 17 13 18 14 19 20 21 21 22 22 23 23 24
REMARK SMILES IDX 24 25 25 26 77 27 26 28 76 29 27 30 28 31 29 32 70 33 30 34
REMARK SMILES IDX 75 35 69 36 71 37 31 38 74 39 68 40 67 41 32 43 58 44 41 45
REMARK SMILES IDX 57 46 42 47 45 48 56 49 72 50 43 51 44 52 55 54 73 55 46 56
REMARK SMILES IDX 33 57 34 58 39 59 35 60 36 61 38 62 40 63 37 64 59 65 60 66
REMARK SMILES IDX 65 67 61 68 62 69 64 70 66 71 63 72 47 73 48 74 53 75 49 76
REMARK SMILES IDX 50 77 52 78 54 79 51 80
REMARK H PARENT 14 20 71 42 45 53
REMARK Flexibility Score: inf
ROOT
ATOM      1  C   UNL A   1      37.661  20.108  25.225  1.00  0.00     0.274 C 
ENDROOT
BRANCH   1   2
ATOM      2  O   UNL A   1      37.681  21.281  24.382  1.00  0.00    -0.462 OA
BRANCH   2   3
ATOM      3  C   UNL A   1      37.215  22.522  24.664  1.00  0.00     0.306 C 
ATOM      4  O   UNL A   1      37.660  23.135  25.631  1.00  0.00    -0.252 OA
BRANCH   3   5
ATOM      5  C   UNL A   1      36.057  23.107  23.870  1.00  0.00     0.126 C 
BRANCH   5   6
ATOM      6  C   UNL A   1      34.652  22.916  24.462  1.00  0.00     0.003 C 
ATOM      7  C   UNL A   1      33.624  22.512  23.385  1.00  0.00     0.021 C 
ATOM      8  C   UNL A   1      34.121  24.179  25.132  1.00  0.00     0.021 C 
ATOM      9  C   UNL A   1      33.298  23.628  22.384  1.00  0.00     0.103 C 
ATOM     10  C   UNL A   1      33.870  25.296  24.128  1.00  0.00     0.103 C 
ATOM     11  N   UNL A   1      32.922  24.915  23.060  1.00  0.00    -0.198 NA
BRANCH  11  12
ATOM     12  S   UNL A   1      32.723  26.181  21.884  1.00  0.00     0.244 S 
ATOM     13  O   UNL A   1      34.035  26.759  21.644  1.00  0.00    -0.207 OA
ATOM     14  O   UNL A   1      31.916  25.674  20.801  1.00  0.00    -0.207 OA
BRANCH  12  15
ATOM     15  C   UNL A   1      31.830  27.506  22.563  1.00  0.00     0.100 A 
ATOM     16  C   UNL A   1      30.480  27.450  23.013  1.00  0.00     0.041 A 
ATOM     17  C   UNL A   1      32.286  28.784  22.818  1.00  0.00     0.104 A 
ATOM     18  C   UNL A   1      30.144  28.704  23.472  1.00  0.00     0.083 A 
ATOM     19  N   UNL A   1      31.255  29.502  23.368  1.00  0.00    -0.366 N 
ATOM     20  H   UNL A   1      31.305  30.445  23.646  1.00  0.00     0.165 HD
ENDBRANCH  12  15
ENDBRANCH  11  12
ENDBRANCH   5   6
ENDBRANCH   3   5
ENDBRANCH   2   3
ENDBRANCH   1   2
BRANCH   1  21
ATOM     21  C   UNL A   1      38.982  19.356  25.363  1.00  0.00     0.275 C 
BRANCH  21  22
ATOM     22  O   UNL A   1      39.960  20.094  26.073  1.00  0.00    -0.458 OA
BRANCH  22  23
ATOM     23  C   UNL A   1      41.199  19.552  26.028  1.00  0.00     0.338 C 
ATOM     24  O   UNL A   1      41.490  18.395  25.806  1.00  0.00    -0.246 OA
BRANCH  23  25
ATOM     25  C   UNL A   1      42.171  20.574  26.423  1.00  0.00     0.060 A 
ATOM     26  C   UNL A   1      42.161  20.928  27.772  1.00  0.00     0.016 A 
ATOM     27  C   UNL A   1      42.795  21.357  25.442  1.00  0.00     0.016 A 
ATOM     28  C   UNL A   1      42.545  22.203  28.098  1.00  0.00     0.010 A 
ATOM     29  C   UNL A   1      43.157  22.640  25.761  1.00  0.00     0.010 A 
ATOM     30  C   UNL A   1      42.943  23.068  27.070  1.00  0.00    -0.014 A 
BRANCH  30  31
ATOM     31  C   UNL A   1      43.236  24.445  27.441  1.00  0.00     0.031 A 
ATOM     32  C   UNL A   1      41.893  25.198  27.575  1.00  0.00     0.074 A 
ATOM     33  C   UNL A   1      44.581  24.743  27.467  1.00  0.00     0.049 A 
ATOM     34  N   UNL A   1      41.606  26.428  27.307  1.00  0.00    -0.248 NA
ATOM     35  C   UNL A   1      40.653  24.457  27.976  1.00  0.00     0.031 C 
ATOM     36  C   UNL A   1      45.700  23.760  27.361  1.00  0.00     0.029 A 
ATOM     37  N   UNL A   1      45.304  25.911  27.574  1.00  0.00    -0.354 N 
ATOM     38  C   UNL A   1      40.280  26.672  27.733  1.00  0.00     0.074 A 
ATOM     39  C   UNL A   1      39.702  25.395  28.005  1.00  0.00     0.031 C 
ATOM     40  C   UNL A   1      46.906  24.377  27.295  1.00  0.00     0.029 A 
ATOM     41  C   UNL A   1      46.716  25.812  27.356  1.00  0.00     0.049 A 
ATOM     42  H   UNL A   1      44.872  26.769  27.790  1.00  0.00     0.167 HD
ATOM     43  C   UNL A   1      39.820  27.936  27.974  1.00  0.00     0.037 A 
ATOM     44  C   UNL A   1      47.627  26.831  27.186  1.00  0.00     0.037 A 
ATOM     45  C   UNL A   1      40.851  28.868  27.661  1.00  0.00     0.049 A 
ATOM     46  C   UNL A   1      46.829  28.031  27.443  1.00  0.00     0.074 A 
ATOM     47  C   UNL A   1      41.377  29.244  26.453  1.00  0.00     0.029 A 
ATOM     48  N   UNL A   1      41.754  29.133  28.665  1.00  0.00    -0.354 N 
ATOM     49  N   UNL A   1      46.416  28.390  28.619  1.00  0.00    -0.248 NA
ATOM     50  C   UNL A   1      46.352  28.814  26.300  1.00  0.00     0.031 C 
ATOM     51  C   UNL A   1      42.761  29.199  26.706  1.00  0.00     0.029 A 
ATOM     52  C   UNL A   1      42.996  29.166  28.087  1.00  0.00     0.049 A 
ATOM     53  H   UNL A   1      41.547  29.272  29.617  1.00  0.00     0.167 HD
ATOM     54  C   UNL A   1      45.352  29.195  28.309  1.00  0.00     0.074 A 
ATOM     55  C   UNL A   1      45.568  29.666  26.954  1.00  0.00     0.031 C 
ATOM     56  C   UNL A   1      44.156  28.979  28.921  1.00  0.00     0.037 A 
BRANCH  43  57
ATOM     57  C   UNL A   1      38.628  28.483  28.701  1.00  0.00     0.057 A 
ATOM     58  C   UNL A   1      37.948  29.581  28.120  1.00  0.00     0.134 A 
ATOM     59  C   UNL A   1      38.371  28.251  30.053  1.00  0.00     0.134 A 
ATOM     60  F   UNL A   1      38.076  29.862  26.813  1.00  0.00    -0.206 F 
ATOM     61  C   UNL A   1      37.193  30.483  28.871  1.00  0.00     0.040 A 
ATOM     62  C   UNL A   1      37.573  29.125  30.808  1.00  0.00     0.040 A 
ATOM     63  F   UNL A   1      38.953  27.240  30.711  1.00  0.00    -0.206 F 
ATOM     64  C   UNL A   1      37.023  30.268  30.230  1.00  0.00     0.006 A 
ENDBRANCH  43  57
BRANCH  44  65
ATOM     65  C   UNL A   1      49.058  27.120  26.757  1.00  0.00     0.057 A 
ATOM     66  C   UNL A   1      50.063  27.706  27.526  1.00  0.00     0.134 A 
ATOM     67  C   UNL A   1      49.517  26.664  25.480  1.00  0.00     0.134 A 
ATOM     68  F   UNL A   1      49.783  28.292  28.695  1.00  0.00    -0.206 F 
ATOM     69  C   UNL A   1      51.420  27.716  27.112  1.00  0.00     0.040 A 
ATOM     70  C   UNL A   1      50.858  26.608  25.087  1.00  0.00     0.040 A 
ATOM     71  F   UNL A   1      48.671  26.228  24.536  1.00  0.00    -0.206 F 
ATOM     72  C   UNL A   1      51.828  27.121  25.918  1.00  0.00     0.006 A 
ENDBRANCH  44  65
BRANCH  56  73
ATOM     73  C   UNL A   1      44.236  28.224  30.246  1.00  0.00     0.057 A 
ATOM     74  C   UNL A   1      44.988  28.750  31.308  1.00  0.00     0.134 A 
ATOM     75  C   UNL A   1      43.710  26.942  30.480  1.00  0.00     0.134 A 
ATOM     76  F   UNL A   1      45.507  29.983  31.216  1.00  0.00    -0.206 F 
ATOM     77  C   UNL A   1      45.237  28.035  32.490  1.00  0.00     0.040 A 
ATOM     78  C   UNL A   1      43.950  26.208  31.654  1.00  0.00     0.040 A 
ATOM     79  F   UNL A   1      42.935  26.346  29.581  1.00  0.00    -0.206 F 
ATOM     80  C   UNL A   1      44.727  26.752  32.664  1.00  0.00     0.006 A 
ENDBRANCH  56  73
ENDBRANCH  30  31
ENDBRANCH  23  25
ENDBRANCH  22  23
ENDBRANCH  21  22
ENDBRANCH   1  21
TORSDOF 14
ENDMDL
MODEL 3
REMARK VINA RESULT:     -11.1      5.013      9.893
REMARK SMILES O=C(CC1CCN(S(=O)(=O)c2cc[nH]c2)CC1)OCCOC(=O)c1ccc(-c2c3nc(c(-c4c(F)cccc4F)c4ccc([nH]4)c(-c4c(F)cccc4F)c4nc(c(-c5c(F)cccc5F)c5ccc2[nH]5)C=C4)C=C3)cc1
REMARK SMILES IDX 19 1 18 2 2 3 1 4 3 5 4 6 5 7 17 8 6 9 16 10 7 11 8 12 9 13
REMARK SMILES IDX 10 14 11 15 12 16 15 17 13 18 14 19 20 21 21 22 22 23 23 24
REMARK SMILES IDX 24 25 25 26 77 27 26 28 76 29 27 30 28 31 29 32 70 33 30 34
REMARK SMILES IDX 75 35 69 36 71 37 31 38 74 39 68 40 67 41 32 43 58 44 41 45
REMARK SMILES IDX 57 46 42 47 45 48 56 49 72 50 43 51 44 52 55 54 73 55 46 56
REMARK SMILES IDX 33 57 34 58 39 59 35 60 36 61 38 62 40 63 37 64 59 65 60 66
REMARK SMILES IDX 65 67 61 68 62 69 64 70 66 71 63 72 47 73 48 74 53 75 49 76
REMARK SMILES IDX 50 77 52 78 54 79 51 80
REMARK H PARENT 14 20 71 42 45 53
REMARK Flexibility Score: inf
ROOT
ATOM      1  C   UNL A   1      31.573  31.574  26.558  1.00  0.00     0.274 C 
ENDROOT
BRANCH   1   2
ATOM      2  O   UNL A   1      32.247  30.570  27.347  1.00  0.00    -0.462 OA
BRANCH   2   3
ATOM      3  C   UNL A   1      32.931  29.483  26.911  1.00  0.00     0.306 C 
ATOM      4  O   UNL A   1      34.122  29.587  26.625  1.00  0.00    -0.252 OA
BRANCH   3   5
ATOM      5  C   UNL A   1      32.207  28.171  26.654  1.00  0.00     0.126 C 
BRANCH   5   6
ATOM      6  C   UNL A   1      32.219  27.652  25.208  1.00  0.00     0.003 C 
ATOM      7  C   UNL A   1      30.886  26.971  24.830  1.00  0.00     0.021 C 
ATOM      8  C   UNL A   1      33.325  26.631  24.961  1.00  0.00     0.021 C 
ATOM      9  C   UNL A   1      30.642  25.637  25.548  1.00  0.00     0.103 C 
ATOM     10  C   UNL A   1      33.096  25.341  25.737  1.00  0.00     0.103 C 
ATOM     11  N   UNL A   1      31.805  24.696  25.423  1.00  0.00    -0.198 NA
BRANCH  11  12
ATOM     12  S   UNL A   1      31.537  23.272  26.388  1.00  0.00     0.244 S 
ATOM     13  O   UNL A   1      31.819  23.627  27.769  1.00  0.00    -0.207 OA
ATOM     14  O   UNL A   1      30.272  22.693  26.004  1.00  0.00    -0.207 OA
BRANCH  12  15
ATOM     15  C   UNL A   1      32.737  22.068  26.040  1.00  0.00     0.100 A 
ATOM     16  C   UNL A   1      32.755  21.226  24.891  1.00  0.00     0.041 A 
ATOM     17  C   UNL A   1      33.868  21.772  26.774  1.00  0.00     0.104 A 
ATOM     18  C   UNL A   1      33.860  20.411  24.994  1.00  0.00     0.083 A 
ATOM     19  N   UNL A   1      34.541  20.764  26.131  1.00  0.00    -0.366 N 
ATOM     20  H   UNL A   1      35.384  20.358  26.438  1.00  0.00     0.165 HD
ENDBRANCH  12  15
ENDBRANCH  11  12
ENDBRANCH   5   6
ENDBRANCH   3   5
ENDBRANCH   2   3
ENDBRANCH   1   2
BRANCH   1  21
ATOM     21  C   UNL A   1      31.862  33.026  26.927  1.00  0.00     0.275 C 
BRANCH  21  22
ATOM     22  O   UNL A   1      33.026  33.167  27.721  1.00  0.00    -0.458 OA
BRANCH  22  23
ATOM     23  C   UNL A   1      33.071  34.317  28.432  1.00  0.00     0.338 C 
ATOM     24  O   UNL A   1      32.343  35.282  28.322  1.00  0.00    -0.246 OA
BRANCH  23  25
ATOM     25  C   UNL A   1      34.247  34.281  29.304  1.00  0.00     0.060 A 
ATOM     26  C   UNL A   1      35.476  34.464  28.669  1.00  0.00     0.016 A 
ATOM     27  C   UNL A   1      34.139  33.756  30.599  1.00  0.00     0.016 A 
ATOM     28  C   UNL A   1      36.577  33.870  29.230  1.00  0.00     0.010 A 
ATOM     29  C   UNL A   1      35.233  33.140  31.150  1.00  0.00     0.010 A 
ATOM     30  C   UNL A   1      36.414  33.135  30.412  1.00  0.00    -0.014 A 
BRANCH  30  31
ATOM     31  C   UNL A   1      37.582  32.426  30.916  1.00  0.00     0.031 A 
ATOM     32  C   UNL A   1      37.751  31.135  30.083  1.00  0.00     0.074 A 
ATOM     33  C   UNL A   1      38.149  33.004  32.030  1.00  0.00     0.049 A 
ATOM     34  N   UNL A   1      38.186  29.973  30.442  1.00  0.00    -0.248 NA
ATOM     35  C   UNL A   1      37.281  31.091  28.661  1.00  0.00     0.031 C 
ATOM     36  C   UNL A   1      37.804  34.343  32.596  1.00  0.00     0.029 A 
ATOM     37  N   UNL A   1      39.112  32.610  32.932  1.00  0.00    -0.354 N 
ATOM     38  C   UNL A   1      38.285  29.166  29.285  1.00  0.00     0.074 A 
ATOM     39  C   UNL A   1      37.588  29.857  28.249  1.00  0.00     0.031 C 
ATOM     40  C   UNL A   1      38.448  34.574  33.767  1.00  0.00     0.029 A 
ATOM     41  C   UNL A   1      39.280  33.433  34.092  1.00  0.00     0.049 A 
ATOM     42  H   UNL A   1      39.658  31.803  32.787  1.00  0.00     0.167 HD
ATOM     43  C   UNL A   1      39.080  28.054  29.246  1.00  0.00     0.037 A 
ATOM     44  C   UNL A   1      39.997  33.161  35.236  1.00  0.00     0.037 A 
ATOM     45  C   UNL A   1      39.670  27.867  30.530  1.00  0.00     0.049 A 
ATOM     46  C   UNL A   1      40.672  31.904  34.908  1.00  0.00     0.074 A 
ATOM     47  C   UNL A   1      39.113  27.480  31.720  1.00  0.00     0.029 A 
ATOM     48  N   UNL A   1      40.841  28.550  30.763  1.00  0.00    -0.354 N 
ATOM     49  N   UNL A   1      41.665  31.808  34.080  1.00  0.00    -0.248 NA
ATOM     50  C   UNL A   1      40.124  30.654  35.443  1.00  0.00     0.031 C 
ATOM     51  C   UNL A   1      39.664  28.411  32.620  1.00  0.00     0.029 A 
ATOM     52  C   UNL A   1      40.764  29.053  32.036  1.00  0.00     0.049 A 
ATOM     53  H   UNL A   1      41.592  28.657  30.136  1.00  0.00     0.167 HD
ATOM     54  C   UNL A   1      41.603  30.487  33.720  1.00  0.00     0.074 A 
ATOM     55  C   UNL A   1      40.903  29.798  34.788  1.00  0.00     0.031 C 
ATOM     56  C   UNL A   1      41.613  30.158  32.400  1.00  0.00     0.037 A 
BRANCH  43  57
ATOM     57  C   UNL A   1      39.623  27.209  28.134  1.00  0.00     0.057 A 
ATOM     58  C   UNL A   1      39.636  25.804  28.320  1.00  0.00     0.134 A 
ATOM     59  C   UNL A   1      40.446  27.698  27.119  1.00  0.00     0.134 A 
ATOM     60  F   UNL A   1      38.840  25.219  29.229  1.00  0.00    -0.206 F 
ATOM     61  C   UNL A   1      40.526  24.964  27.651  1.00  0.00     0.040 A 
ATOM     62  C   UNL A   1      41.312  26.855  26.406  1.00  0.00     0.040 A 
ATOM     63  F   UNL A   1      40.516  29.008  26.848  1.00  0.00    -0.206 F 
ATOM     64  C   UNL A   1      41.388  25.495  26.704  1.00  0.00     0.006 A 
ENDBRANCH  43  57
BRANCH  44  65
ATOM     65  C   UNL A   1      40.235  33.638  36.660  1.00  0.00     0.057 A 
ATOM     66  C   UNL A   1      41.451  34.016  37.228  1.00  0.00     0.134 A 
ATOM     67  C   UNL A   1      39.116  33.853  37.529  1.00  0.00     0.134 A 
ATOM     68  F   UNL A   1      42.608  33.774  36.602  1.00  0.00    -0.206 F 
ATOM     69  C   UNL A   1      41.527  34.666  38.487  1.00  0.00     0.040 A 
ATOM     70  C   UNL A   1      39.168  34.548  38.741  1.00  0.00     0.040 A 
ATOM     71  F   UNL A   1      37.890  33.399  37.232  1.00  0.00    -0.206 F 
ATOM     72  C   UNL A   1      40.384  34.981  39.221  1.00  0.00     0.006 A 
ENDBRANCH  44  65
BRANCH  56  73
ATOM     73  C   UNL A   1      42.206  31.219  31.474  1.00  0.00     0.057 A 
ATOM     74  C   UNL A   1      43.527  31.653  31.662  1.00  0.00     0.134 A 
ATOM     75  C   UNL A   1      41.494  31.921  30.487  1.00  0.00     0.134 A 
ATOM     76  F   UNL A   1      44.318  31.032  32.550  1.00  0.00    -0.206 F 
ATOM     77  C   UNL A   1      44.079  32.734  30.958  1.00  0.00     0.040 A 
ATOM     78  C   UNL A   1      42.026  33.007  29.773  1.00  0.00     0.040 A 
ATOM     79  F   UNL A   1      40.250  31.579  30.168  1.00  0.00    -0.206 F 
ATOM     80  C   UNL A   1      43.324  33.425  30.015  1.00  0.00     0.006 A 
ENDBRANCH  56  73
ENDBRANCH  30  31
ENDBRANCH  23  25
ENDBRANCH  22  23
ENDBRANCH  21  22
ENDBRANCH   1  21
TORSDOF 14
ENDMDL
