MODEL 1
REMARK VINA RESULT:     -10.2      0.000      0.000
REMARK SMILES O=C(OCCOC(=O)[C@@H]1CC[C@@H](CNC(=O)c2ccno2)O1)c1ccc(-c2c3nc(c(-c4c(F)cccc4F)c4ccc([nH]4)c(-c4c(F)cccc4F)c4nc(c(-c5c(F)cccc5F)c5ccc2[nH]5)C=C4)C=C3)cc1
REMARK SMILES IDX 5 1 4 2 3 3 2 4 1 5 23 6 24 7 76 8 25 9 75 10 26 11 27 12
REMARK SMILES IDX 28 13 69 14 29 15 74 16 68 17 70 18 30 19 73 20 67 21 66 22
REMARK SMILES IDX 31 24 57 25 40 26 56 27 41 28 44 29 55 30 71 31 42 32 43 33
REMARK SMILES IDX 54 35 72 36 45 37 32 38 33 39 38 40 34 41 35 42 37 43 39 44
REMARK SMILES IDX 36 45 58 46 59 47 64 48 60 49 61 50 63 51 65 52 62 53 46 54
REMARK SMILES IDX 47 55 52 56 48 57 49 58 51 59 53 60 50 61 6 62 7 63 8 64
REMARK SMILES IDX 9 65 10 66 22 67 11 68 12 69 13 70 14 71 15 72 16 74 17 75
REMARK SMILES IDX 18 76 21 77 19 78 20 79
REMARK H PARENT 70 23 44 34 14 73
REMARK Flexibility Score: inf
ROOT
ATOM      1  C   UNL A   1      41.197  19.909  26.905  1.00  0.00     0.274 C 
ENDROOT
BRANCH   1   2
ATOM      2  C   UNL A   1      41.029  21.423  26.736  1.00  0.00     0.275 C 
BRANCH   2   3
ATOM      3  O   UNL A   1      39.843  21.781  26.005  1.00  0.00    -0.458 OA
BRANCH   3   4
ATOM      4  C   UNL A   1      38.950  22.772  26.232  1.00  0.00     0.338 C 
ATOM      5  O   UNL A   1      37.822  22.653  25.754  1.00  0.00    -0.246 OA
BRANCH   4   6
ATOM      6  C   UNL A   1      39.287  24.087  26.878  1.00  0.00     0.060 A 
ATOM      7  C   UNL A   1      39.216  24.399  28.237  1.00  0.00     0.016 A 
ATOM      8  C   UNL A   1      39.823  25.068  26.018  1.00  0.00     0.016 A 
ATOM      9  C   UNL A   1      39.752  25.588  28.739  1.00  0.00     0.010 A 
ATOM     10  C   UNL A   1      40.418  26.230  26.518  1.00  0.00     0.010 A 
ATOM     11  C   UNL A   1      40.374  26.501  27.888  1.00  0.00    -0.014 A 
BRANCH  11  12
ATOM     12  C   UNL A   1      40.768  27.825  28.414  1.00  0.00     0.031 A 
ATOM     13  C   UNL A   1      42.227  28.180  28.365  1.00  0.00     0.074 A 
ATOM     14  C   UNL A   1      39.848  28.708  28.848  1.00  0.00     0.049 A 
ATOM     15  N   UNL A   1      42.830  29.275  28.741  1.00  0.00    -0.248 NA
ATOM     16  C   UNL A   1      43.132  27.148  27.829  1.00  0.00     0.031 C 
ATOM     17  C   UNL A   1      38.403  28.478  28.904  1.00  0.00     0.029 A 
ATOM     18  N   UNL A   1      39.995  29.994  29.302  1.00  0.00    -0.354 N 
ATOM     19  C   UNL A   1      44.178  29.055  28.493  1.00  0.00     0.074 A 
ATOM     20  C   UNL A   1      44.316  27.700  28.016  1.00  0.00     0.031 C 
ATOM     21  C   UNL A   1      37.794  29.595  29.342  1.00  0.00     0.029 A 
ATOM     22  C   UNL A   1      38.807  30.611  29.617  1.00  0.00     0.049 A 
ATOM     23  H   UNL A   1      40.870  30.435  29.394  1.00  0.00     0.167 HD
ATOM     24  C   UNL A   1      45.211  29.920  28.607  1.00  0.00     0.037 A 
ATOM     25  C   UNL A   1      38.577  31.860  30.069  1.00  0.00     0.037 A 
ATOM     26  C   UNL A   1      45.061  31.271  29.058  1.00  0.00     0.049 A 
ATOM     27  C   UNL A   1      39.755  32.787  30.252  1.00  0.00     0.074 A 
ATOM     28  C   UNL A   1      46.033  32.237  29.234  1.00  0.00     0.029 A 
ATOM     29  N   UNL A   1      43.846  31.848  29.401  1.00  0.00    -0.354 N 
ATOM     30  N   UNL A   1      41.025  32.574  29.995  1.00  0.00    -0.248 NA
ATOM     31  C   UNL A   1      39.468  34.129  30.780  1.00  0.00     0.031 C 
ATOM     32  C   UNL A   1      45.409  33.388  29.726  1.00  0.00     0.029 A 
ATOM     33  C   UNL A   1      44.044  33.154  29.805  1.00  0.00     0.049 A 
ATOM     34  H   UNL A   1      42.973  31.394  29.363  1.00  0.00     0.167 HD
ATOM     35  C   UNL A   1      41.681  33.762  30.297  1.00  0.00     0.074 A 
ATOM     36  C   UNL A   1      40.666  34.696  30.741  1.00  0.00     0.031 C 
ATOM     37  C   UNL A   1      43.002  34.061  30.219  1.00  0.00     0.037 A 
BRANCH  24  38
ATOM     38  C   UNL A   1      46.570  29.393  28.253  1.00  0.00     0.057 A 
ATOM     39  C   UNL A   1      47.035  29.374  26.930  1.00  0.00     0.134 A 
ATOM     40  C   UNL A   1      47.394  28.835  29.236  1.00  0.00     0.134 A 
ATOM     41  F   UNL A   1      46.277  29.863  25.936  1.00  0.00    -0.206 F 
ATOM     42  C   UNL A   1      48.249  28.774  26.592  1.00  0.00     0.040 A 
ATOM     43  C   UNL A   1      48.625  28.261  28.915  1.00  0.00     0.040 A 
ATOM     44  F   UNL A   1      47.006  28.814  30.520  1.00  0.00    -0.206 F 
ATOM     45  C   UNL A   1      49.048  28.218  27.588  1.00  0.00     0.006 A 
ENDBRANCH  24  38
BRANCH  25  46
ATOM     46  C   UNL A   1      37.194  32.322  30.371  1.00  0.00     0.057 A 
ATOM     47  C   UNL A   1      36.600  32.085  31.617  1.00  0.00     0.134 A 
ATOM     48  C   UNL A   1      36.411  32.965  29.403  1.00  0.00     0.134 A 
ATOM     49  F   UNL A   1      37.286  31.457  32.583  1.00  0.00    -0.206 F 
ATOM     50  C   UNL A   1      35.272  32.433  31.878  1.00  0.00     0.040 A 
ATOM     51  C   UNL A   1      35.092  33.346  29.660  1.00  0.00     0.040 A 
ATOM     52  F   UNL A   1      36.915  33.221  28.186  1.00  0.00    -0.206 F 
ATOM     53  C   UNL A   1      34.514  33.068  30.897  1.00  0.00     0.006 A 
ENDBRANCH  25  46
BRANCH  37  54
ATOM     54  C   UNL A   1      43.417  35.457  30.577  1.00  0.00     0.057 A 
ATOM     55  C   UNL A   1      43.460  36.483  29.627  1.00  0.00     0.134 A 
ATOM     56  C   UNL A   1      43.701  35.791  31.908  1.00  0.00     0.134 A 
ATOM     57  F   UNL A   1      43.205  36.224  28.335  1.00  0.00    -0.206 F 
ATOM     58  C   UNL A   1      43.787  37.791  29.984  1.00  0.00     0.040 A 
ATOM     59  C   UNL A   1      43.999  37.101  32.282  1.00  0.00     0.040 A 
ATOM     60  F   UNL A   1      43.664  34.856  32.869  1.00  0.00    -0.206 F 
ATOM     61  C   UNL A   1      44.048  38.104  31.317  1.00  0.00     0.006 A 
ENDBRANCH  37  54
ENDBRANCH  11  12
ENDBRANCH   4   6
ENDBRANCH   3   4
ENDBRANCH   2   3
ENDBRANCH   1   2
BRANCH   1  62
ATOM     62  O   UNL A   1      41.737  19.287  25.726  1.00  0.00    -0.460 OA
BRANCH  62  63
ATOM     63  C   UNL A   1      42.937  18.640  25.853  1.00  0.00     0.335 C 
ATOM     64  O   UNL A   1      43.118  17.618  26.500  1.00  0.00    -0.249 OA
BRANCH  63  65
ATOM     65  C   UNL A   1      44.003  19.344  25.001  1.00  0.00     0.228 C 
ATOM     66  C   UNL A   1      45.385  18.834  25.374  1.00  0.00     0.047 C 
ATOM     67  O   UNL A   1      44.106  20.773  25.119  1.00  0.00    -0.361 OA
ATOM     68  C   UNL A   1      46.269  19.879  24.765  1.00  0.00     0.037 C 
ATOM     69  C   UNL A   1      45.507  21.124  25.168  1.00  0.00     0.138 C 
BRANCH  69  70
ATOM     70  C   UNL A   1      45.875  22.336  24.303  1.00  0.00     0.148 C 
BRANCH  70  71
ATOM     71  N   UNL A   1      44.817  23.326  24.194  1.00  0.00    -0.347 N 
ATOM     72  C   UNL A   1      44.453  24.268  25.134  1.00  0.00     0.289 C 
ATOM     73  H   UNL A   1      44.303  23.325  23.354  1.00  0.00     0.164 HD
ATOM     74  O   UNL A   1      43.354  24.807  25.011  1.00  0.00    -0.266 OA
BRANCH  72  75
ATOM     75  C   UNL A   1      45.390  24.587  26.184  1.00  0.00     0.224 A 
ATOM     76  C   UNL A   1      46.545  25.338  26.221  1.00  0.00     0.079 A 
ATOM     77  O   UNL A   1      45.150  24.096  27.434  1.00  0.00    -0.351 OA
ATOM     78  C   UNL A   1      47.017  25.189  27.534  1.00  0.00     0.159 A 
ATOM     79  N   UNL A   1      46.192  24.453  28.280  1.00  0.00    -0.088 NA
ENDBRANCH  72  75
ENDBRANCH  70  71
ENDBRANCH  69  70
ENDBRANCH  63  65
ENDBRANCH  62  63
ENDBRANCH   1  62
TORSDOF 14
ENDMDL
MODEL 2
REMARK VINA RESULT:     -10.1      4.611      7.036
REMARK SMILES O=C(OCCOC(=O)[C@@H]1CC[C@@H](CNC(=O)c2ccno2)O1)c1ccc(-c2c3nc(c(-c4c(F)cccc4F)c4ccc([nH]4)c(-c4c(F)cccc4F)c4nc(c(-c5c(F)cccc5F)c5ccc2[nH]5)C=C4)C=C3)cc1
REMARK SMILES IDX 5 1 4 2 3 3 2 4 1 5 23 6 24 7 76 8 25 9 75 10 26 11 27 12
REMARK SMILES IDX 28 13 69 14 29 15 74 16 68 17 70 18 30 19 73 20 67 21 66 22
REMARK SMILES IDX 31 24 57 25 40 26 56 27 41 28 44 29 55 30 71 31 42 32 43 33
REMARK SMILES IDX 54 35 72 36 45 37 32 38 33 39 38 40 34 41 35 42 37 43 39 44
REMARK SMILES IDX 36 45 58 46 59 47 64 48 60 49 61 50 63 51 65 52 62 53 46 54
REMARK SMILES IDX 47 55 52 56 48 57 49 58 51 59 53 60 50 61 6 62 7 63 8 64
REMARK SMILES IDX 9 65 10 66 22 67 11 68 12 69 13 70 14 71 15 72 16 74 17 75
REMARK SMILES IDX 18 76 21 77 19 78 20 79
REMARK H PARENT 70 23 44 34 14 73
REMARK Flexibility Score: inf
ROOT
ATOM      1  C   UNL A   1      42.703  21.344  26.213  1.00  0.00     0.274 C 
ENDROOT
BRANCH   1   2
ATOM      2  C   UNL A   1      43.831  21.901  25.338  1.00  0.00     0.275 C 
BRANCH   2   3
ATOM      3  O   UNL A   1      43.505  23.163  24.732  1.00  0.00    -0.458 OA
BRANCH   3   4
ATOM      4  C   UNL A   1      43.830  24.420  25.114  1.00  0.00     0.338 C 
ATOM      5  O   UNL A   1      44.840  24.929  24.627  1.00  0.00    -0.246 OA
BRANCH   4   6
ATOM      6  C   UNL A   1      43.147  25.175  26.221  1.00  0.00     0.060 A 
ATOM      7  C   UNL A   1      42.154  24.696  27.077  1.00  0.00     0.016 A 
ATOM      8  C   UNL A   1      43.644  26.470  26.470  1.00  0.00     0.016 A 
ATOM      9  C   UNL A   1      41.746  25.425  28.197  1.00  0.00     0.010 A 
ATOM     10  C   UNL A   1      43.289  27.179  27.622  1.00  0.00     0.010 A 
ATOM     11  C   UNL A   1      42.324  26.660  28.489  1.00  0.00    -0.014 A 
BRANCH  11  12
ATOM     12  C   UNL A   1      41.750  27.488  29.571  1.00  0.00     0.031 A 
ATOM     13  C   UNL A   1      42.458  27.480  30.895  1.00  0.00     0.074 A 
ATOM     14  C   UNL A   1      40.680  28.278  29.355  1.00  0.00     0.049 A 
ATOM     15  N   UNL A   1      42.177  28.127  31.994  1.00  0.00    -0.248 NA
ATOM     16  C   UNL A   1      43.643  26.610  30.996  1.00  0.00     0.031 C 
ATOM     17  C   UNL A   1      39.940  28.387  28.097  1.00  0.00     0.029 A 
ATOM     18  N   UNL A   1      40.045  29.161  30.190  1.00  0.00    -0.354 N 
ATOM     19  C   UNL A   1      43.143  27.732  32.910  1.00  0.00     0.074 A 
ATOM     20  C   UNL A   1      43.964  26.732  32.270  1.00  0.00     0.031 C 
ATOM     21  C   UNL A   1      38.966  29.307  28.236  1.00  0.00     0.029 A 
ATOM     22  C   UNL A   1      39.002  29.834  29.597  1.00  0.00     0.049 A 
ATOM     23  H   UNL A   1      40.310  29.301  31.127  1.00  0.00     0.167 HD
ATOM     24  C   UNL A   1      43.360  28.194  34.161  1.00  0.00     0.037 A 
ATOM     25  C   UNL A   1      38.181  30.774  30.107  1.00  0.00     0.037 A 
ATOM     26  C   UNL A   1      42.554  29.205  34.779  1.00  0.00     0.049 A 
ATOM     27  C   UNL A   1      38.401  31.226  31.530  1.00  0.00     0.074 A 
ATOM     28  C   UNL A   1      42.661  29.742  36.047  1.00  0.00     0.029 A 
ATOM     29  N   UNL A   1      41.485  29.836  34.158  1.00  0.00    -0.354 N 
ATOM     30  N   UNL A   1      39.332  30.860  32.382  1.00  0.00    -0.248 NA
ATOM     31  C   UNL A   1      37.464  32.226  32.062  1.00  0.00     0.031 C 
ATOM     32  C   UNL A   1      41.628  30.670  36.209  1.00  0.00     0.029 A 
ATOM     33  C   UNL A   1      40.911  30.748  35.024  1.00  0.00     0.049 A 
ATOM     34  H   UNL A   1      41.180  29.661  33.239  1.00  0.00     0.167 HD
ATOM     35  C   UNL A   1      39.112  31.608  33.533  1.00  0.00     0.074 A 
ATOM     36  C   UNL A   1      37.970  32.458  33.265  1.00  0.00     0.031 C 
ATOM     37  C   UNL A   1      39.787  31.595  34.710  1.00  0.00     0.037 A 
BRANCH  24  38
ATOM     38  C   UNL A   1      44.499  27.577  34.917  1.00  0.00     0.057 A 
ATOM     39  C   UNL A   1      45.796  28.106  34.861  1.00  0.00     0.134 A 
ATOM     40  C   UNL A   1      44.311  26.402  35.651  1.00  0.00     0.134 A 
ATOM     41  F   UNL A   1      46.050  29.214  34.145  1.00  0.00    -0.206 F 
ATOM     42  C   UNL A   1      46.875  27.461  35.468  1.00  0.00     0.040 A 
ATOM     43  C   UNL A   1      45.376  25.764  36.290  1.00  0.00     0.040 A 
ATOM     44  F   UNL A   1      43.097  25.840  35.739  1.00  0.00    -0.206 F 
ATOM     45  C   UNL A   1      46.664  26.287  36.187  1.00  0.00     0.006 A 
ENDBRANCH  24  38
BRANCH  25  46
ATOM     46  C   UNL A   1      37.088  31.363  29.285  1.00  0.00     0.057 A 
ATOM     47  C   UNL A   1      37.173  32.668  28.783  1.00  0.00     0.134 A 
ATOM     48  C   UNL A   1      35.907  30.655  29.026  1.00  0.00     0.134 A 
ATOM     49  F   UNL A   1      38.267  33.409  29.010  1.00  0.00    -0.206 F 
ATOM     50  C   UNL A   1      36.114  33.260  28.089  1.00  0.00     0.040 A 
ATOM     51  C   UNL A   1      34.853  31.224  28.307  1.00  0.00     0.040 A 
ATOM     52  F   UNL A   1      35.756  29.402  29.479  1.00  0.00    -0.206 F 
ATOM     53  C   UNL A   1      34.949  32.535  27.848  1.00  0.00     0.006 A 
ENDBRANCH  25  46
BRANCH  37  54
ATOM     54  C   UNL A   1      39.340  32.554  35.773  1.00  0.00     0.057 A 
ATOM     55  C   UNL A   1      38.441  32.180  36.777  1.00  0.00     0.134 A 
ATOM     56  C   UNL A   1      39.881  33.845  35.833  1.00  0.00     0.134 A 
ATOM     57  F   UNL A   1      37.883  30.959  36.770  1.00  0.00    -0.206 F 
ATOM     58  C   UNL A   1      38.081  33.062  37.796  1.00  0.00     0.040 A 
ATOM     59  C   UNL A   1      39.553  34.726  36.864  1.00  0.00     0.040 A 
ATOM     60  F   UNL A   1      40.760  34.261  34.908  1.00  0.00    -0.206 F 
ATOM     61  C   UNL A   1      38.646  34.336  37.846  1.00  0.00     0.006 A 
ENDBRANCH  37  54
ENDBRANCH  11  12
ENDBRANCH   4   6
ENDBRANCH   3   4
ENDBRANCH   2   3
ENDBRANCH   1   2
BRANCH   1  62
ATOM     62  O   UNL A   1      41.410  21.521  25.611  1.00  0.00    -0.460 OA
BRANCH  62  63
ATOM     63  C   UNL A   1      40.328  21.566  26.450  1.00  0.00     0.335 C 
ATOM     64  O   UNL A   1      40.368  21.362  27.655  1.00  0.00    -0.249 OA
BRANCH  63  65
ATOM     65  C   UNL A   1      39.076  21.984  25.667  1.00  0.00     0.228 C 
ATOM     66  C   UNL A   1      38.478  23.241  26.277  1.00  0.00     0.047 C 
ATOM     67  O   UNL A   1      37.981  21.053  25.624  1.00  0.00    -0.361 OA
ATOM     68  C   UNL A   1      37.109  23.254  25.667  1.00  0.00     0.037 C 
ATOM     69  C   UNL A   1      36.753  21.790  25.814  1.00  0.00     0.138 C 
BRANCH  69  70
ATOM     70  C   UNL A   1      35.623  21.370  24.864  1.00  0.00     0.148 C 
BRANCH  70  71
ATOM     71  N   UNL A   1      34.404  22.146  25.018  1.00  0.00    -0.347 N 
ATOM     72  C   UNL A   1      33.112  21.730  24.772  1.00  0.00     0.289 C 
ATOM     73  H   UNL A   1      34.513  23.072  25.333  1.00  0.00     0.164 HD
ATOM     74  O   UNL A   1      32.244  22.593  24.653  1.00  0.00    -0.266 OA
BRANCH  72  75
ATOM     75  C   UNL A   1      32.848  20.313  24.702  1.00  0.00     0.224 A 
ATOM     76  C   UNL A   1      32.632  19.444  23.653  1.00  0.00     0.079 A 
ATOM     77  O   UNL A   1      32.799  19.606  25.868  1.00  0.00    -0.351 OA
ATOM     78  C   UNL A   1      32.366  18.212  24.268  1.00  0.00     0.159 A 
ATOM     79  N   UNL A   1      32.467  18.285  25.596  1.00  0.00    -0.088 NA
ENDBRANCH  72  75
ENDBRANCH  70  71
ENDBRANCH  69  70
ENDBRANCH  63  65
ENDBRANCH  62  63
ENDBRANCH   1  62
TORSDOF 14
ENDMDL
MODEL 3
REMARK VINA RESULT:     -10.1      4.107      9.179
REMARK SMILES O=C(OCCOC(=O)[C@@H]1CC[C@@H](CNC(=O)c2ccno2)O1)c1ccc(-c2c3nc(c(-c4c(F)cccc4F)c4ccc([nH]4)c(-c4c(F)cccc4F)c4nc(c(-c5c(F)cccc5F)c5ccc2[nH]5)C=C4)C=C3)cc1
REMARK SMILES IDX 5 1 4 2 3 3 2 4 1 5 23 6 24 7 76 8 25 9 75 10 26 11 27 12
REMARK SMILES IDX 28 13 69 14 29 15 74 16 68 17 70 18 30 19 73 20 67 21 66 22
REMARK SMILES IDX 31 24 57 25 40 26 56 27 41 28 44 29 55 30 71 31 42 32 43 33
REMARK SMILES IDX 54 35 72 36 45 37 32 38 33 39 38 40 34 41 35 42 37 43 39 44
REMARK SMILES IDX 36 45 58 46 59 47 64 48 60 49 61 50 63 51 65 52 62 53 46 54
REMARK SMILES IDX 47 55 52 56 48 57 49 58 51 59 53 60 50 61 6 62 7 63 8 64
REMARK SMILES IDX 9 65 10 66 22 67 11 68 12 69 13 70 14 71 15 72 16 74 17 75
REMARK SMILES IDX 18 76 21 77 19 78 20 79
REMARK H PARENT 70 23 44 34 14 73
REMARK Flexibility Score: inf
ROOT
ATOM      1  C   UNL A   1      38.421  21.209  25.519  1.00  0.00     0.274 C 
ENDROOT
BRANCH   1   2
ATOM      2  C   UNL A   1      38.972  19.881  24.988  1.00  0.00     0.275 C 
BRANCH   2   3
ATOM      3  O   UNL A   1      39.960  19.294  25.852  1.00  0.00    -0.458 OA
BRANCH   3   4
ATOM      4  C   UNL A   1      41.269  19.597  26.006  1.00  0.00     0.338 C 
ATOM      5  O   UNL A   1      42.087  18.680  25.935  1.00  0.00    -0.246 OA
BRANCH   4   6
ATOM      6  C   UNL A   1      41.785  20.945  26.431  1.00  0.00     0.060 A 
ATOM      7  C   UNL A   1      42.225  21.976  25.600  1.00  0.00     0.016 A 
ATOM      8  C   UNL A   1      41.717  21.213  27.813  1.00  0.00     0.016 A 
ATOM      9  C   UNL A   1      42.484  23.254  26.103  1.00  0.00     0.010 A 
ATOM     10  C   UNL A   1      41.913  22.502  28.316  1.00  0.00     0.010 A 
ATOM     11  C   UNL A   1      42.311  23.532  27.458  1.00  0.00    -0.014 A 
BRANCH  11  12
ATOM     12  C   UNL A   1      42.764  24.834  27.991  1.00  0.00     0.031 A 
ATOM     13  C   UNL A   1      41.716  25.883  28.229  1.00  0.00     0.074 A 
ATOM     14  C   UNL A   1      44.052  25.044  28.324  1.00  0.00     0.049 A 
ATOM     15  N   UNL A   1      41.842  27.093  28.705  1.00  0.00    -0.248 NA
ATOM     16  C   UNL A   1      40.335  25.520  27.867  1.00  0.00     0.031 C 
ATOM     17  C   UNL A   1      45.143  24.080  28.168  1.00  0.00     0.029 A 
ATOM     18  N   UNL A   1      44.657  26.138  28.890  1.00  0.00    -0.354 N 
ATOM     19  C   UNL A   1      40.562  27.629  28.688  1.00  0.00     0.074 A 
ATOM     20  C   UNL A   1      39.690  26.652  28.081  1.00  0.00     0.031 C 
ATOM     21  C   UNL A   1      46.279  24.616  28.651  1.00  0.00     0.029 A 
ATOM     22  C   UNL A   1      46.000  25.967  29.131  1.00  0.00     0.049 A 
ATOM     23  H   UNL A   1      44.174  26.968  29.105  1.00  0.00     0.167 HD
ATOM     24  C   UNL A   1      40.136  28.815  29.177  1.00  0.00     0.037 A 
ATOM     25  C   UNL A   1      46.892  26.813  29.685  1.00  0.00     0.037 A 
ATOM     26  C   UNL A   1      41.004  29.769  29.800  1.00  0.00     0.049 A 
ATOM     27  C   UNL A   1      46.404  28.160  30.163  1.00  0.00     0.074 A 
ATOM     28  C   UNL A   1      40.695  31.012  30.317  1.00  0.00     0.029 A 
ATOM     29  N   UNL A   1      42.365  29.574  29.992  1.00  0.00    -0.354 N 
ATOM     30  N   UNL A   1      45.185  28.649  30.160  1.00  0.00    -0.248 NA
ATOM     31  C   UNL A   1      47.412  29.069  30.728  1.00  0.00     0.031 C 
ATOM     32  C   UNL A   1      41.880  31.588  30.785  1.00  0.00     0.029 A 
ATOM     33  C   UNL A   1      42.915  30.683  30.607  1.00  0.00     0.049 A 
ATOM     34  H   UNL A   1      42.864  28.767  29.730  1.00  0.00     0.167 HD
ATOM     35  C   UNL A   1      45.275  29.904  30.751  1.00  0.00     0.074 A 
ATOM     36  C   UNL A   1      46.665  30.094  31.114  1.00  0.00     0.031 C 
ATOM     37  C   UNL A   1      44.302  30.823  30.974  1.00  0.00     0.037 A 
BRANCH  24  38
ATOM     38  C   UNL A   1      38.675  29.119  29.021  1.00  0.00     0.057 A 
ATOM     39  C   UNL A   1      38.140  29.579  27.810  1.00  0.00     0.134 A 
ATOM     40  C   UNL A   1      37.808  29.019  30.115  1.00  0.00     0.134 A 
ATOM     41  F   UNL A   1      38.926  29.729  26.732  1.00  0.00    -0.206 F 
ATOM     42  C   UNL A   1      36.805  29.974  27.704  1.00  0.00     0.040 A 
ATOM     43  C   UNL A   1      36.464  29.382  30.013  1.00  0.00     0.040 A 
ATOM     44  F   UNL A   1      38.257  28.594  31.304  1.00  0.00    -0.206 F 
ATOM     45  C   UNL A   1      35.963  29.873  28.809  1.00  0.00     0.006 A 
ENDBRANCH  24  38
BRANCH  25  46
ATOM     46  C   UNL A   1      48.322  26.428  29.832  1.00  0.00     0.057 A 
ATOM     47  C   UNL A   1      48.789  25.772  30.979  1.00  0.00     0.134 A 
ATOM     48  C   UNL A   1      49.271  26.756  28.855  1.00  0.00     0.134 A 
ATOM     49  F   UNL A   1      47.937  25.447  31.963  1.00  0.00    -0.206 F 
ATOM     50  C   UNL A   1      50.145  25.490  31.166  1.00  0.00     0.040 A 
ATOM     51  C   UNL A   1      50.625  26.452  29.015  1.00  0.00     0.040 A 
ATOM     52  F   UNL A   1      48.896  27.388  27.733  1.00  0.00    -0.206 F 
ATOM     53  C   UNL A   1      51.067  25.829  30.180  1.00  0.00     0.006 A 
ENDBRANCH  25  46
BRANCH  37  54
ATOM     54  C   UNL A   1      44.696  32.088  31.677  1.00  0.00     0.057 A 
ATOM     55  C   UNL A   1      45.085  33.235  30.976  1.00  0.00     0.134 A 
ATOM     56  C   UNL A   1      44.606  32.178  33.073  1.00  0.00     0.134 A 
ATOM     57  F   UNL A   1      45.196  33.209  29.639  1.00  0.00    -0.206 F 
ATOM     58  C   UNL A   1      45.388  34.424  31.639  1.00  0.00     0.040 A 
ATOM     59  C   UNL A   1      44.877  33.371  33.744  1.00  0.00     0.040 A 
ATOM     60  F   UNL A   1      44.225  31.119  33.802  1.00  0.00    -0.206 F 
ATOM     61  C   UNL A   1      45.274  34.496  33.027  1.00  0.00     0.006 A 
ENDBRANCH  37  54
ENDBRANCH  11  12
ENDBRANCH   4   6
ENDBRANCH   3   4
ENDBRANCH   2   3
ENDBRANCH   1   2
BRANCH   1  62
ATOM     62  O   UNL A   1      36.983  21.238  25.520  1.00  0.00    -0.460 OA
BRANCH  62  63
ATOM     63  C   UNL A   1      36.371  21.942  24.517  1.00  0.00     0.335 C 
ATOM     64  O   UNL A   1      36.894  22.837  23.868  1.00  0.00    -0.249 OA
BRANCH  63  65
ATOM     65  C   UNL A   1      34.958  21.389  24.277  1.00  0.00     0.228 C 
ATOM     66  C   UNL A   1      33.922  22.431  24.659  1.00  0.00     0.047 C 
ATOM     67  O   UNL A   1      34.574  20.215  25.014  1.00  0.00    -0.361 OA
ATOM     68  C   UNL A   1      32.675  21.603  24.743  1.00  0.00     0.037 C 
ATOM     69  C   UNL A   1      33.220  20.399  25.482  1.00  0.00     0.138 C 
BRANCH  69  70
ATOM     70  C   UNL A   1      32.329  19.161  25.311  1.00  0.00     0.148 C 
BRANCH  70  71
ATOM     71  N   UNL A   1      32.223  18.696  23.939  1.00  0.00    -0.347 N 
ATOM     72  C   UNL A   1      33.023  17.766  23.307  1.00  0.00     0.289 C 
ATOM     73  H   UNL A   1      31.498  19.088  23.400  1.00  0.00     0.164 HD
ATOM     74  O   UNL A   1      32.993  17.723  22.078  1.00  0.00    -0.266 OA
BRANCH  72  75
ATOM     75  C   UNL A   1      33.820  16.881  24.121  1.00  0.00     0.224 A 
ATOM     76  C   UNL A   1      35.102  16.958  24.624  1.00  0.00     0.079 A 
ATOM     77  O   UNL A   1      33.263  15.706  24.534  1.00  0.00    -0.351 OA
ATOM     78  C   UNL A   1      35.297  15.732  25.277  1.00  0.00     0.159 A 
ATOM     79  N   UNL A   1      34.204  14.968  25.240  1.00  0.00    -0.088 NA
ENDBRANCH  72  75
ENDBRANCH  70  71
ENDBRANCH  69  70
ENDBRANCH  63  65
ENDBRANCH  62  63
ENDBRANCH   1  62
TORSDOF 14
ENDMDL
