MODEL 1
REMARK VINA RESULT:     -10.4      0.000      0.000
REMARK SMILES CC1(C)[C@@H](CBr)CC[C@]1(C)C(=O)OCCOC(=O)c1ccc(-c2c3nc(c(-c4c(F)cccc4F)c4ccc([nH]4)c(-c4c(F)cccc4F)c4nc(c(-c5c(F)cccc5F)c5ccc2[nH]5)C=C4)C=C3)cc1
REMARK SMILES IDX 15 1 14 2 13 3 11 4 12 5 9 6 1 7 2 8 3 9 4 10 7 11 8 12
REMARK SMILES IDX 10 13 5 14 6 15 16 16 17 17 18 18 19 19 20 20 72 21 21 22
REMARK SMILES IDX 71 23 22 24 23 25 24 26 65 27 25 28 70 29 64 30 66 31 26 32
REMARK SMILES IDX 69 33 63 34 62 35 27 37 53 38 36 39 52 40 37 41 40 42 51 43
REMARK SMILES IDX 67 44 38 45 39 46 50 48 68 49 41 50 28 51 29 52 34 53 30 54
REMARK SMILES IDX 31 55 33 56 35 57 32 58 54 59 55 60 60 61 56 62 57 63 59 64
REMARK SMILES IDX 61 65 58 66 42 67 43 68 48 69 44 70 45 71 47 72 49 73 46 74
REMARK H PARENT 66 36 40 47
REMARK Flexibility Score: inf
ROOT
ATOM      1  C   UNL A   1      31.294  29.725  25.442  1.00  0.00     0.275 C 
ENDROOT
BRANCH   1   2
ATOM      2  C   UNL A   1      31.046  29.493  23.948  1.00  0.00     0.274 C 
BRANCH   2   3
ATOM      3  O   UNL A   1      32.118  28.730  23.351  1.00  0.00    -0.462 OA
BRANCH   3   4
ATOM      4  C   UNL A   1      31.772  27.524  22.829  1.00  0.00     0.312 C 
ATOM      5  O   UNL A   1      30.881  27.373  21.999  1.00  0.00    -0.252 OA
BRANCH   4   6
ATOM      6  C   UNL A   1      32.513  26.335  23.471  1.00  0.00     0.071 C 
ATOM      7  C   UNL A   1      31.062  24.166  23.701  1.00  0.00     0.012 C 
ATOM      8  C   UNL A   1      31.712  25.358  24.421  1.00  0.00    -0.016 C 
ATOM      9  C   UNL A   1      30.559  26.076  25.192  1.00  0.00     0.012 C 
ATOM     10  C   UNL A   1      32.775  24.931  25.509  1.00  0.00     0.006 C 
ATOM     11  C   UNL A   1      33.520  26.241  25.758  1.00  0.00     0.006 C 
ATOM     12  C   UNL A   1      33.652  26.889  24.382  1.00  0.00     0.019 C 
ATOM     13  C   UNL A   1      33.144  25.630  22.250  1.00  0.00     0.024 C 
BRANCH  10  14
ATOM     14  C   UNL A   1      33.641  23.683  25.261  1.00  0.00     0.084 C 
ATOM     15  Br  UNL A   1      35.567  23.853  25.446  1.00  0.00    -0.092 Br
ENDBRANCH  10  14
ENDBRANCH   4   6
ENDBRANCH   3   4
ENDBRANCH   2   3
ENDBRANCH   1   2
BRANCH   1  16
ATOM     16  O   UNL A   1      32.668  30.092  25.648  1.00  0.00    -0.458 OA
BRANCH  16  17
ATOM     17  C   UNL A   1      32.910  30.995  26.625  1.00  0.00     0.338 C 
ATOM     18  O   UNL A   1      32.149  31.880  26.996  1.00  0.00    -0.246 OA
BRANCH  17  19
ATOM     19  C   UNL A   1      34.233  30.735  27.250  1.00  0.00     0.060 A 
ATOM     20  C   UNL A   1      34.646  29.436  27.541  1.00  0.00     0.016 A 
ATOM     21  C   UNL A   1      35.048  31.800  27.642  1.00  0.00     0.016 A 
ATOM     22  C   UNL A   1      35.788  29.199  28.308  1.00  0.00     0.010 A 
ATOM     23  C   UNL A   1      36.256  31.555  28.314  1.00  0.00     0.010 A 
ATOM     24  C   UNL A   1      36.625  30.252  28.697  1.00  0.00    -0.014 A 
BRANCH  24  25
ATOM     25  C   UNL A   1      37.843  29.992  29.529  1.00  0.00     0.031 A 
ATOM     26  C   UNL A   1      39.000  29.197  28.972  1.00  0.00     0.074 A 
ATOM     27  C   UNL A   1      37.947  30.481  30.784  1.00  0.00     0.049 A 
ATOM     28  N   UNL A   1      40.049  28.712  29.591  1.00  0.00    -0.248 NA
ATOM     29  C   UNL A   1      38.964  28.887  27.534  1.00  0.00     0.031 C 
ATOM     30  C   UNL A   1      36.940  31.288  31.473  1.00  0.00     0.029 A 
ATOM     31  N   UNL A   1      38.969  30.383  31.701  1.00  0.00    -0.354 N 
ATOM     32  C   UNL A   1      40.744  27.969  28.644  1.00  0.00     0.074 A 
ATOM     33  C   UNL A   1      40.008  28.080  27.402  1.00  0.00     0.031 C 
ATOM     34  C   UNL A   1      37.418  31.671  32.666  1.00  0.00     0.029 A 
ATOM     35  C   UNL A   1      38.725  31.060  32.873  1.00  0.00     0.049 A 
ATOM     36  H   UNL A   1      39.796  29.876  31.535  1.00  0.00     0.167 HD
ATOM     37  C   UNL A   1      41.885  27.253  28.793  1.00  0.00     0.037 A 
ATOM     38  C   UNL A   1      39.450  31.159  34.004  1.00  0.00     0.037 A 
ATOM     39  C   UNL A   1      42.678  27.215  29.996  1.00  0.00     0.049 A 
ATOM     40  C   UNL A   1      40.745  30.410  34.128  1.00  0.00     0.074 A 
ATOM     41  C   UNL A   1      43.857  26.528  30.231  1.00  0.00     0.029 A 
ATOM     42  N   UNL A   1      42.393  27.922  31.153  1.00  0.00    -0.354 N 
ATOM     43  N   UNL A   1      41.334  29.633  33.254  1.00  0.00    -0.248 NA
ATOM     44  C   UNL A   1      41.460  30.530  35.407  1.00  0.00     0.031 C 
ATOM     45  C   UNL A   1      44.280  26.809  31.535  1.00  0.00     0.029 A 
ATOM     46  C   UNL A   1      43.378  27.694  32.101  1.00  0.00     0.049 A 
ATOM     47  H   UNL A   1      41.607  28.500  31.283  1.00  0.00     0.167 HD
ATOM     48  C   UNL A   1      42.483  29.167  33.877  1.00  0.00     0.074 A 
ATOM     49  C   UNL A   1      42.527  29.773  35.191  1.00  0.00     0.031 C 
ATOM     50  C   UNL A   1      43.411  28.299  33.406  1.00  0.00     0.037 A 
BRANCH  37  51
ATOM     51  C   UNL A   1      42.338  26.417  27.632  1.00  0.00     0.057 A 
ATOM     52  C   UNL A   1      41.934  25.089  27.461  1.00  0.00     0.134 A 
ATOM     53  C   UNL A   1      43.161  26.977  26.643  1.00  0.00     0.134 A 
ATOM     54  F   UNL A   1      41.160  24.490  28.379  1.00  0.00    -0.206 F 
ATOM     55  C   UNL A   1      42.343  24.340  26.355  1.00  0.00     0.040 A 
ATOM     56  C   UNL A   1      43.557  26.245  25.523  1.00  0.00     0.040 A 
ATOM     57  F   UNL A   1      43.579  28.247  26.744  1.00  0.00    -0.206 F 
ATOM     58  C   UNL A   1      43.151  24.921  25.378  1.00  0.00     0.006 A 
ENDBRANCH  37  51
BRANCH  38  59
ATOM     59  C   UNL A   1      38.947  31.985  35.130  1.00  0.00     0.057 A 
ATOM     60  C   UNL A   1      39.098  33.377  35.127  1.00  0.00     0.134 A 
ATOM     61  C   UNL A   1      38.288  31.409  36.222  1.00  0.00     0.134 A 
ATOM     62  F   UNL A   1      39.745  33.983  34.122  1.00  0.00    -0.206 F 
ATOM     63  C   UNL A   1      38.610  34.165  36.170  1.00  0.00     0.040 A 
ATOM     64  C   UNL A   1      37.773  32.187  37.259  1.00  0.00     0.040 A 
ATOM     65  F   UNL A   1      38.114  30.080  36.283  1.00  0.00    -0.206 F 
ATOM     66  C   UNL A   1      37.936  33.570  37.235  1.00  0.00     0.006 A 
ENDBRANCH  38  59
BRANCH  50  67
ATOM     67  C   UNL A   1      44.555  27.970  34.316  1.00  0.00     0.057 A 
ATOM     68  C   UNL A   1      45.729  28.732  34.324  1.00  0.00     0.134 A 
ATOM     69  C   UNL A   1      44.481  26.880  35.192  1.00  0.00     0.134 A 
ATOM     70  F   UNL A   1      45.865  29.781  33.498  1.00  0.00    -0.206 F 
ATOM     71  C   UNL A   1      46.803  28.406  35.154  1.00  0.00     0.040 A 
ATOM     72  C   UNL A   1      45.542  26.555  36.039  1.00  0.00     0.040 A 
ATOM     73  F   UNL A   1      43.381  26.114  35.235  1.00  0.00    -0.206 F 
ATOM     74  C   UNL A   1      46.709  27.315  36.017  1.00  0.00     0.006 A 
ENDBRANCH  50  67
ENDBRANCH  24  25
ENDBRANCH  17  19
ENDBRANCH  16  17
ENDBRANCH   1  16
TORSDOF 12
ENDMDL
MODEL 2
REMARK VINA RESULT:     -10.4      4.240      8.690
REMARK SMILES CC1(C)[C@@H](CBr)CC[C@]1(C)C(=O)OCCOC(=O)c1ccc(-c2c3nc(c(-c4c(F)cccc4F)c4ccc([nH]4)c(-c4c(F)cccc4F)c4nc(c(-c5c(F)cccc5F)c5ccc2[nH]5)C=C4)C=C3)cc1
REMARK SMILES IDX 15 1 14 2 13 3 11 4 12 5 9 6 1 7 2 8 3 9 4 10 7 11 8 12
REMARK SMILES IDX 10 13 5 14 6 15 16 16 17 17 18 18 19 19 20 20 72 21 21 22
REMARK SMILES IDX 71 23 22 24 23 25 24 26 65 27 25 28 70 29 64 30 66 31 26 32
REMARK SMILES IDX 69 33 63 34 62 35 27 37 53 38 36 39 52 40 37 41 40 42 51 43
REMARK SMILES IDX 67 44 38 45 39 46 50 48 68 49 41 50 28 51 29 52 34 53 30 54
REMARK SMILES IDX 31 55 33 56 35 57 32 58 54 59 55 60 60 61 56 62 57 63 59 64
REMARK SMILES IDX 61 65 58 66 42 67 43 68 48 69 44 70 45 71 47 72 49 73 46 74
REMARK H PARENT 66 36 40 47
REMARK Flexibility Score: inf
ROOT
ATOM      1  C   UNL A   1      36.174  20.809  24.601  1.00  0.00     0.275 C 
ENDROOT
BRANCH   1   2
ATOM      2  C   UNL A   1      34.773  20.337  25.002  1.00  0.00     0.274 C 
BRANCH   2   3
ATOM      3  O   UNL A   1      33.758  20.940  24.168  1.00  0.00    -0.462 OA
BRANCH   3   4
ATOM      4  C   UNL A   1      32.650  21.392  24.810  1.00  0.00     0.312 C 
ATOM      5  O   UNL A   1      31.770  20.657  25.247  1.00  0.00    -0.252 OA
BRANCH   4   6
ATOM      6  C   UNL A   1      32.526  22.928  24.826  1.00  0.00     0.071 C 
ATOM      7  C   UNL A   1      34.786  24.181  25.257  1.00  0.00     0.012 C 
ATOM      8  C   UNL A   1      33.424  23.757  25.828  1.00  0.00    -0.016 C 
ATOM      9  C   UNL A   1      33.735  22.979  27.147  1.00  0.00     0.012 C 
ATOM     10  C   UNL A   1      32.507  24.977  26.238  1.00  0.00     0.006 C 
ATOM     11  C   UNL A   1      31.138  24.315  26.377  1.00  0.00     0.006 C 
ATOM     12  C   UNL A   1      31.068  23.308  25.231  1.00  0.00     0.019 C 
ATOM     13  C   UNL A   1      32.748  23.301  23.344  1.00  0.00     0.024 C 
BRANCH  10  14
ATOM     14  C   UNL A   1      32.565  26.271  25.407  1.00  0.00     0.084 C 
ATOM     15  Br  UNL A   1      33.643  27.742  26.074  1.00  0.00    -0.092 Br
ENDBRANCH  10  14
ENDBRANCH   4   6
ENDBRANCH   3   4
ENDBRANCH   2   3
ENDBRANCH   1   2
BRANCH   1  16
ATOM     16  O   UNL A   1      36.880  21.261  25.768  1.00  0.00    -0.458 OA
BRANCH  16  17
ATOM     17  C   UNL A   1      38.220  21.080  25.771  1.00  0.00     0.338 C 
ATOM     18  O   UNL A   1      38.818  20.108  25.326  1.00  0.00    -0.246 OA
BRANCH  17  19
ATOM     19  C   UNL A   1      38.899  22.270  26.346  1.00  0.00     0.060 A 
ATOM     20  C   UNL A   1      38.416  23.556  26.109  1.00  0.00     0.016 A 
ATOM     21  C   UNL A   1      40.090  22.122  27.061  1.00  0.00     0.016 A 
ATOM     22  C   UNL A   1      39.160  24.680  26.472  1.00  0.00     0.010 A 
ATOM     23  C   UNL A   1      40.779  23.254  27.526  1.00  0.00     0.010 A 
ATOM     24  C   UNL A   1      40.348  24.554  27.203  1.00  0.00    -0.014 A 
BRANCH  24  25
ATOM     25  C   UNL A   1      41.145  25.764  27.579  1.00  0.00     0.031 A 
ATOM     26  C   UNL A   1      40.569  26.807  28.507  1.00  0.00     0.074 A 
ATOM     27  C   UNL A   1      42.404  25.940  27.121  1.00  0.00     0.049 A 
ATOM     28  N   UNL A   1      41.024  28.001  28.799  1.00  0.00    -0.248 NA
ATOM     29  C   UNL A   1      39.302  26.474  29.178  1.00  0.00     0.031 C 
ATOM     30  C   UNL A   1      43.127  25.024  26.238  1.00  0.00     0.029 A 
ATOM     31  N   UNL A   1      43.309  26.950  27.355  1.00  0.00    -0.354 N 
ATOM     32  C   UNL A   1      40.061  28.591  29.610  1.00  0.00     0.074 A 
ATOM     33  C   UNL A   1      39.003  27.617  29.779  1.00  0.00     0.031 C 
ATOM     34  C   UNL A   1      44.379  25.473  26.064  1.00  0.00     0.029 A 
ATOM     35  C   UNL A   1      44.524  26.755  26.741  1.00  0.00     0.049 A 
ATOM     36  H   UNL A   1      43.106  27.737  27.909  1.00  0.00     0.167 HD
ATOM     37  C   UNL A   1      40.053  29.831  30.158  1.00  0.00     0.037 A 
ATOM     38  C   UNL A   1      45.626  27.530  26.695  1.00  0.00     0.037 A 
ATOM     39  C   UNL A   1      41.143  30.770  30.078  1.00  0.00     0.049 A 
ATOM     40  C   UNL A   1      45.620  28.874  27.363  1.00  0.00     0.074 A 
ATOM     41  C   UNL A   1      41.227  32.043  30.617  1.00  0.00     0.029 A 
ATOM     42  N   UNL A   1      42.353  30.524  29.451  1.00  0.00    -0.354 N 
ATOM     43  N   UNL A   1      44.662  29.453  28.042  1.00  0.00    -0.248 NA
ATOM     44  C   UNL A   1      46.842  29.682  27.235  1.00  0.00     0.031 C 
ATOM     45  C   UNL A   1      42.483  32.573  30.305  1.00  0.00     0.029 A 
ATOM     46  C   UNL A   1      43.192  31.618  29.597  1.00  0.00     0.049 A 
ATOM     47  H   UNL A   1      42.584  29.695  28.972  1.00  0.00     0.167 HD
ATOM     48  C   UNL A   1      45.160  30.694  28.414  1.00  0.00     0.074 A 
ATOM     49  C   UNL A   1      46.517  30.772  27.916  1.00  0.00     0.031 C 
ATOM     50  C   UNL A   1      44.539  31.687  29.095  1.00  0.00     0.037 A 
BRANCH  37  51
ATOM     51  C   UNL A   1      38.808  30.266  30.873  1.00  0.00     0.057 A 
ATOM     52  C   UNL A   1      38.614  30.051  32.242  1.00  0.00     0.134 A 
ATOM     53  C   UNL A   1      37.804  30.957  30.178  1.00  0.00     0.134 A 
ATOM     54  F   UNL A   1      39.529  29.382  32.961  1.00  0.00    -0.206 F 
ATOM     55  C   UNL A   1      37.461  30.493  32.893  1.00  0.00     0.040 A 
ATOM     56  C   UNL A   1      36.658  31.424  30.823  1.00  0.00     0.040 A 
ATOM     57  F   UNL A   1      37.931  31.202  28.865  1.00  0.00    -0.206 F 
ATOM     58  C   UNL A   1      36.482  31.189  32.184  1.00  0.00     0.006 A 
ENDBRANCH  37  51
BRANCH  38  59
ATOM     59  C   UNL A   1      46.825  27.058  25.959  1.00  0.00     0.057 A 
ATOM     60  C   UNL A   1      47.016  27.382  24.611  1.00  0.00     0.134 A 
ATOM     61  C   UNL A   1      47.813  26.291  26.586  1.00  0.00     0.134 A 
ATOM     62  F   UNL A   1      46.090  28.090  23.948  1.00  0.00    -0.206 F 
ATOM     63  C   UNL A   1      48.150  26.961  23.913  1.00  0.00     0.040 A 
ATOM     64  C   UNL A   1      48.963  25.886  25.909  1.00  0.00     0.040 A 
ATOM     65  F   UNL A   1      47.685  25.947  27.877  1.00  0.00    -0.206 F 
ATOM     66  C   UNL A   1      49.132  26.219  24.566  1.00  0.00     0.006 A 
ENDBRANCH  38  59
BRANCH  50  67
ATOM     67  C   UNL A   1      45.332  32.933  29.349  1.00  0.00     0.057 A 
ATOM     68  C   UNL A   1      45.308  34.013  28.458  1.00  0.00     0.134 A 
ATOM     69  C   UNL A   1      46.128  33.053  30.494  1.00  0.00     0.134 A 
ATOM     70  F   UNL A   1      44.575  33.952  27.335  1.00  0.00    -0.206 F 
ATOM     71  C   UNL A   1      46.069  35.160  28.684  1.00  0.00     0.040 A 
ATOM     72  C   UNL A   1      46.880  34.203  30.740  1.00  0.00     0.040 A 
ATOM     73  F   UNL A   1      46.190  32.055  31.389  1.00  0.00    -0.206 F 
ATOM     74  C   UNL A   1      46.857  35.258  29.830  1.00  0.00     0.006 A 
ENDBRANCH  50  67
ENDBRANCH  24  25
ENDBRANCH  17  19
ENDBRANCH  16  17
ENDBRANCH   1  16
TORSDOF 12
ENDMDL
MODEL 3
REMARK VINA RESULT:     -10.3      4.262      8.744
REMARK SMILES CC1(C)[C@@H](CBr)CC[C@]1(C)C(=O)OCCOC(=O)c1ccc(-c2c3nc(c(-c4c(F)cccc4F)c4ccc([nH]4)c(-c4c(F)cccc4F)c4nc(c(-c5c(F)cccc5F)c5ccc2[nH]5)C=C4)C=C3)cc1
REMARK SMILES IDX 15 1 14 2 13 3 11 4 12 5 9 6 1 7 2 8 3 9 4 10 7 11 8 12
REMARK SMILES IDX 10 13 5 14 6 15 16 16 17 17 18 18 19 19 20 20 72 21 21 22
REMARK SMILES IDX 71 23 22 24 23 25 24 26 65 27 25 28 70 29 64 30 66 31 26 32
REMARK SMILES IDX 69 33 63 34 62 35 27 37 53 38 36 39 52 40 37 41 40 42 51 43
REMARK SMILES IDX 67 44 38 45 39 46 50 48 68 49 41 50 28 51 29 52 34 53 30 54
REMARK SMILES IDX 31 55 33 56 35 57 32 58 54 59 55 60 60 61 56 62 57 63 59 64
REMARK SMILES IDX 61 65 58 66 42 67 43 68 48 69 44 70 45 71 47 72 49 73 46 74
REMARK H PARENT 66 36 40 47
REMARK Flexibility Score: inf
ROOT
ATOM      1  C   UNL A   1      36.185  20.469  25.004  1.00  0.00     0.275 C 
ENDROOT
BRANCH   1   2
ATOM      2  C   UNL A   1      34.906  21.306  25.113  1.00  0.00     0.274 C 
BRANCH   2   3
ATOM      3  O   UNL A   1      35.189  22.716  24.981  1.00  0.00    -0.462 OA
BRANCH   3   4
ATOM      4  C   UNL A   1      34.796  23.298  23.817  1.00  0.00     0.312 C 
ATOM      5  O   UNL A   1      35.433  23.224  22.771  1.00  0.00    -0.252 OA
BRANCH   4   6
ATOM      6  C   UNL A   1      33.537  24.175  23.957  1.00  0.00     0.071 C 
ATOM      7  C   UNL A   1      31.525  22.983  25.137  1.00  0.00     0.012 C 
ATOM      8  C   UNL A   1      32.115  23.500  23.816  1.00  0.00    -0.016 C 
ATOM      9  C   UNL A   1      32.119  22.281  22.840  1.00  0.00     0.012 C 
ATOM     10  C   UNL A   1      31.232  24.616  23.128  1.00  0.00     0.006 C 
ATOM     11  C   UNL A   1      32.205  25.209  22.111  1.00  0.00     0.006 C 
ATOM     12  C   UNL A   1      33.551  25.253  22.829  1.00  0.00     0.019 C 
ATOM     13  C   UNL A   1      33.758  24.870  25.319  1.00  0.00     0.024 C 
BRANCH  10  14
ATOM     14  C   UNL A   1      30.465  25.616  24.012  1.00  0.00     0.084 C 
ATOM     15  Br  UNL A   1      30.384  27.470  23.439  1.00  0.00    -0.092 Br
ENDBRANCH  10  14
ENDBRANCH   4   6
ENDBRANCH   3   4
ENDBRANCH   2   3
ENDBRANCH   1   2
BRANCH   1  16
ATOM     16  O   UNL A   1      37.319  21.343  24.879  1.00  0.00    -0.458 OA
BRANCH  16  17
ATOM     17  C   UNL A   1      38.433  20.986  25.559  1.00  0.00     0.338 C 
ATOM     18  O   UNL A   1      38.892  19.854  25.649  1.00  0.00    -0.246 OA
BRANCH  17  19
ATOM     19  C   UNL A   1      39.080  22.184  26.152  1.00  0.00     0.060 A 
ATOM     20  C   UNL A   1      38.522  23.452  25.996  1.00  0.00     0.016 A 
ATOM     21  C   UNL A   1      40.312  22.069  26.801  1.00  0.00     0.016 A 
ATOM     22  C   UNL A   1      39.226  24.598  26.372  1.00  0.00     0.010 A 
ATOM     23  C   UNL A   1      40.966  23.215  27.282  1.00  0.00     0.010 A 
ATOM     24  C   UNL A   1      40.454  24.503  27.038  1.00  0.00    -0.014 A 
BRANCH  24  25
ATOM     25  C   UNL A   1      41.209  25.737  27.428  1.00  0.00     0.031 A 
ATOM     26  C   UNL A   1      40.585  26.760  28.346  1.00  0.00     0.074 A 
ATOM     27  C   UNL A   1      42.469  25.950  26.992  1.00  0.00     0.049 A 
ATOM     28  N   UNL A   1      40.999  27.967  28.647  1.00  0.00    -0.248 NA
ATOM     29  C   UNL A   1      39.318  26.390  28.995  1.00  0.00     0.031 C 
ATOM     30  C   UNL A   1      43.235  25.057  26.121  1.00  0.00     0.029 A 
ATOM     31  N   UNL A   1      43.339  26.987  27.242  1.00  0.00    -0.354 N 
ATOM     32  C   UNL A   1      40.005  28.528  29.441  1.00  0.00     0.074 A 
ATOM     33  C   UNL A   1      38.973  27.523  29.591  1.00  0.00     0.031 C 
ATOM     34  C   UNL A   1      44.475  25.544  25.969  1.00  0.00     0.029 A 
ATOM     35  C   UNL A   1      44.570  26.830  26.649  1.00  0.00     0.049 A 
ATOM     36  H   UNL A   1      43.104  27.767  27.793  1.00  0.00     0.167 HD
ATOM     37  C   UNL A   1      39.950  29.766  29.989  1.00  0.00     0.037 A 
ATOM     38  C   UNL A   1      45.649  27.637  26.622  1.00  0.00     0.037 A 
ATOM     39  C   UNL A   1      41.012  30.738  29.928  1.00  0.00     0.049 A 
ATOM     40  C   UNL A   1      45.591  28.980  27.290  1.00  0.00     0.074 A 
ATOM     41  C   UNL A   1      41.049  32.012  30.469  1.00  0.00     0.029 A 
ATOM     42  N   UNL A   1      42.240  30.529  29.322  1.00  0.00    -0.354 N 
ATOM     43  N   UNL A   1      44.604  29.530  27.952  1.00  0.00    -0.248 NA
ATOM     44  C   UNL A   1      46.790  29.824  27.183  1.00  0.00     0.031 C 
ATOM     45  C   UNL A   1      42.294  32.580  30.178  1.00  0.00     0.029 A 
ATOM     46  C   UNL A   1      43.043  31.648  29.483  1.00  0.00     0.049 A 
ATOM     47  H   UNL A   1      42.504  29.708  28.847  1.00  0.00     0.167 HD
ATOM     48  C   UNL A   1      45.058  30.785  28.334  1.00  0.00     0.074 A 
ATOM     49  C   UNL A   1      46.421  30.903  27.859  1.00  0.00     0.031 C 
ATOM     50  C   UNL A   1      44.396  31.758  29.004  1.00  0.00     0.037 A 
BRANCH  37  51
ATOM     51  C   UNL A   1      38.680  30.164  30.683  1.00  0.00     0.057 A 
ATOM     52  C   UNL A   1      37.621  30.785  30.011  1.00  0.00     0.134 A 
ATOM     53  C   UNL A   1      38.502  29.871  32.043  1.00  0.00     0.134 A 
ATOM     54  F   UNL A   1      37.735  31.106  28.713  1.00  0.00    -0.206 F 
ATOM     55  C   UNL A   1      36.436  31.117  30.670  1.00  0.00     0.040 A 
ATOM     56  C   UNL A   1      37.313  30.177  32.706  1.00  0.00     0.040 A 
ATOM     57  F   UNL A   1      39.475  29.270  32.743  1.00  0.00    -0.206 F 
ATOM     58  C   UNL A   1      36.277  30.806  32.020  1.00  0.00     0.006 A 
ENDBRANCH  37  51
BRANCH  38  59
ATOM     59  C   UNL A   1      46.874  27.202  25.906  1.00  0.00     0.057 A 
ATOM     60  C   UNL A   1      47.868  26.466  26.560  1.00  0.00     0.134 A 
ATOM     61  C   UNL A   1      47.071  27.496  24.552  1.00  0.00     0.134 A 
ATOM     62  F   UNL A   1      47.748  26.180  27.864  1.00  0.00    -0.206 F 
ATOM     63  C   UNL A   1      49.015  26.035  25.891  1.00  0.00     0.040 A 
ATOM     64  C   UNL A   1      48.200  27.049  23.864  1.00  0.00     0.040 A 
ATOM     65  F   UNL A   1      46.154  28.200  23.871  1.00  0.00    -0.206 F 
ATOM     66  C   UNL A   1      49.177  26.318  24.536  1.00  0.00     0.006 A 
ENDBRANCH  38  59
BRANCH  50  67
ATOM     67  C   UNL A   1      45.146  33.026  29.272  1.00  0.00     0.057 A 
ATOM     68  C   UNL A   1      45.103  34.107  28.382  1.00  0.00     0.134 A 
ATOM     69  C   UNL A   1      45.921  33.168  30.429  1.00  0.00     0.134 A 
ATOM     70  F   UNL A   1      44.390  34.026  27.248  1.00  0.00    -0.206 F 
ATOM     71  C   UNL A   1      45.825  35.276  28.622  1.00  0.00     0.040 A 
ATOM     72  C   UNL A   1      46.634  34.340  30.688  1.00  0.00     0.040 A 
ATOM     73  F   UNL A   1      46.000  32.172  31.323  1.00  0.00    -0.206 F 
ATOM     74  C   UNL A   1      46.592  35.396  29.780  1.00  0.00     0.006 A 
ENDBRANCH  50  67
ENDBRANCH  24  25
ENDBRANCH  17  19
ENDBRANCH  16  17
ENDBRANCH   1  16
TORSDOF 12
ENDMDL
