MODEL 1
REMARK VINA RESULT:     -12.5      0.000      0.000
REMARK SMILES O=C(N[C@@H](Cc1ccc(O)cc1)C(=O)N[C@@H](Cc1c[nH]c2ccccc12)C(=O)N[C@@H](CO)C(=O)OCCOC(=O)c1ccc(-c2c3nc(c(-c4c(F)cccc4F)c4ccc([nH]4)c(-c4c(F)cccc4F)c4nc(c(-c5c(F)cccc5F)c5ccc2[nH]5)C=C4)C=C3)cc1)c1ccc(F)cc1
REMARK SMILES IDX 33 1 34 2 30 3 29 4 27 5 28 6 16 8 15 9 13 10 14 11 4 13
REMARK SMILES IDX 3 14 1 15 2 16 95 18 96 19 101 20 97 21 100 22 98 23 99 24
REMARK SMILES IDX 5 25 6 26 7 27 12 28 8 29 11 30 9 31 10 32 17 34 18 35 19 36
REMARK SMILES IDX 26 37 20 38 21 39 25 40 22 42 24 43 23 44 31 45 32 46 35 48
REMARK SMILES IDX 36 49 37 50 38 51 39 52 40 53 41 54 42 55 94 56 43 57 93 58
REMARK SMILES IDX 44 59 45 60 46 61 87 62 47 63 92 64 86 65 88 66 48 67 91 68
REMARK SMILES IDX 85 69 84 70 49 72 75 73 58 74 74 75 59 76 62 77 73 78 89 79
REMARK SMILES IDX 60 80 61 81 72 83 90 84 63 85 50 86 51 87 56 88 52 89 53 90
REMARK SMILES IDX 55 91 57 92 54 93 76 94 77 95 82 96 78 97 79 98 81 99 83 100
REMARK SMILES IDX 80 101 64 102 65 103 70 104 66 105 67 106 69 107 71 108
REMARK SMILES IDX 68 109
REMARK H PARENT 29 7 15 12 3 17 10 33 20 41 32 47 88 71 62 82
REMARK Flexibility Score: inf
ROOT
ATOM      1  C   UNL A   1      38.006  21.124  25.397  1.00  0.00     0.331 C 
ATOM      2  O   UNL A   1      38.439  20.033  25.030  1.00  0.00    -0.250 OA
ENDROOT
BRANCH   1   3
ATOM      3  C   UNL A   1      36.515  21.479  25.334  1.00  0.00     0.218 C 
BRANCH   3   4
ATOM      4  N   UNL A   1      35.618  21.210  26.476  1.00  0.00    -0.339 N 
ATOM      5  C   UNL A   1      34.526  22.039  26.674  1.00  0.00     0.243 C 
ATOM      6  O   UNL A   1      34.674  23.058  27.353  1.00  0.00    -0.273 OA
ATOM      7  H   UNL A   1      35.793  20.457  27.086  1.00  0.00     0.164 HD
BRANCH   5   8
ATOM      8  C   UNL A   1      33.108  21.546  26.222  1.00  0.00     0.175 C 
BRANCH   8   9
ATOM      9  N   UNL A   1      32.032  22.299  26.876  1.00  0.00    -0.342 N 
ATOM     10  C   UNL A   1      31.259  23.361  26.545  1.00  0.00     0.243 C 
ATOM     11  O   UNL A   1      30.189  23.418  27.174  1.00  0.00    -0.273 OA
ATOM     12  H   UNL A   1      31.820  21.948  27.771  1.00  0.00     0.164 HD
BRANCH  10  13
ATOM     13  C   UNL A   1      31.590  24.514  25.554  1.00  0.00     0.176 C 
BRANCH  13  14
ATOM     14  N   UNL A   1      33.022  24.687  25.307  1.00  0.00    -0.340 N 
ATOM     15  O   UNL A   1      34.948  25.834  25.105  1.00  0.00    -0.269 OA
ATOM     16  C   UNL A   1      33.788  25.833  25.450  1.00  0.00     0.251 C 
ATOM     17  H   UNL A   1      33.503  23.884  24.999  1.00  0.00     0.164 HD
BRANCH  16  18
ATOM     18  C   UNL A   1      33.166  27.088  25.967  1.00  0.00     0.040 A 
ATOM     19  C   UNL A   1      32.268  27.070  27.042  1.00  0.00     0.017 A 
ATOM     20  C   UNL A   1      33.484  28.304  25.344  1.00  0.00     0.017 A 
ATOM     21  C   UNL A   1      31.615  28.244  27.427  1.00  0.00     0.040 A 
ATOM     22  C   UNL A   1      32.840  29.480  25.744  1.00  0.00     0.040 A 
ATOM     23  C   UNL A   1      31.897  29.436  26.767  1.00  0.00     0.123 A 
ATOM     24  F   UNL A   1      31.251  30.555  27.120  1.00  0.00    -0.207 F 
ENDBRANCH  16  18
ENDBRANCH  13  14
BRANCH  13  25
ATOM     25  C   UNL A   1      30.666  24.800  24.350  1.00  0.00     0.070 C 
BRANCH  25  26
ATOM     26  C   UNL A   1      30.739  26.145  23.677  1.00  0.00    -0.045 A 
ATOM     27  C   UNL A   1      29.938  27.191  24.133  1.00  0.00     0.007 A 
ATOM     28  C   UNL A   1      31.638  26.397  22.631  1.00  0.00     0.007 A 
ATOM     29  C   UNL A   1      29.890  28.406  23.450  1.00  0.00     0.046 A 
ATOM     30  C   UNL A   1      31.648  27.638  21.990  1.00  0.00     0.046 A 
ATOM     31  C   UNL A   1      30.728  28.607  22.363  1.00  0.00     0.115 A 
BRANCH  31  32
ATOM     32  O   UNL A   1      30.665  29.759  21.640  1.00  0.00    -0.508 OA
ATOM     33  H   UNL A   1      30.289  30.530  22.017  1.00  0.00     0.293 HD
ENDBRANCH  31  32
ENDBRANCH  25  26
ENDBRANCH  13  25
ENDBRANCH  10  13
ENDBRANCH   8   9
BRANCH   8  34
ATOM     34  C   UNL A   1      32.933  21.436  24.709  1.00  0.00     0.072 C 
BRANCH  34  35
ATOM     35  C   UNL A   1      32.907  20.147  23.907  1.00  0.00    -0.020 A 
ATOM     36  C   UNL A   1      31.913  19.862  22.971  1.00  0.00     0.087 A 
ATOM     37  C   UNL A   1      33.682  18.935  24.012  1.00  0.00     0.003 A 
ATOM     38  N   UNL A   1      31.989  18.550  22.603  1.00  0.00    -0.361 N 
ATOM     39  C   UNL A   1      33.003  17.942  23.290  1.00  0.00     0.046 A 
ATOM     40  C   UNL A   1      34.786  18.522  24.780  1.00  0.00     0.010 A 
ATOM     41  H   UNL A   1      31.404  18.109  21.944  1.00  0.00     0.166 HD
ATOM     42  C   UNL A   1      33.319  16.583  23.357  1.00  0.00     0.026 A 
ATOM     43  C   UNL A   1      35.120  17.165  24.859  1.00  0.00     0.001 A 
ATOM     44  C   UNL A   1      34.380  16.208  24.175  1.00  0.00     0.002 A 
ENDBRANCH  34  35
ENDBRANCH   8  34
ENDBRANCH   5   8
ENDBRANCH   3   4
BRANCH   3  45
ATOM     45  C   UNL A   1      36.325  22.905  24.798  1.00  0.00     0.193 C 
BRANCH  45  46
ATOM     46  O   UNL A   1      37.115  23.075  23.623  1.00  0.00    -0.394 OA
ATOM     47  H   UNL A   1      36.605  22.793  22.846  1.00  0.00     0.210 HD
ENDBRANCH  45  46
ENDBRANCH   3  45
ENDBRANCH   1   3
BRANCH   1  48
ATOM     48  O   UNL A   1      38.777  22.066  26.022  1.00  0.00    -0.460 OA
BRANCH  48  49
ATOM     49  C   UNL A   1      39.975  21.498  26.594  1.00  0.00     0.274 C 
BRANCH  49  50
ATOM     50  C   UNL A   1      41.231  22.293  26.244  1.00  0.00     0.275 C 
BRANCH  50  51
ATOM     51  O   UNL A   1      40.977  23.713  26.215  1.00  0.00    -0.458 OA
BRANCH  51  52
ATOM     52  C   UNL A   1      41.937  24.476  26.788  1.00  0.00     0.338 C 
ATOM     53  O   UNL A   1      43.146  24.371  26.642  1.00  0.00    -0.246 OA
BRANCH  52  54
ATOM     54  C   UNL A   1      41.333  25.609  27.512  1.00  0.00     0.060 A 
ATOM     55  C   UNL A   1      42.150  26.712  27.669  1.00  0.00     0.016 A 
ATOM     56  C   UNL A   1      40.141  25.544  28.222  1.00  0.00     0.016 A 
ATOM     57  C   UNL A   1      41.884  27.700  28.604  1.00  0.00     0.010 A 
ATOM     58  C   UNL A   1      39.818  26.582  29.121  1.00  0.00     0.010 A 
ATOM     59  C   UNL A   1      40.718  27.644  29.363  1.00  0.00    -0.014 A 
BRANCH  59  60
ATOM     60  C   UNL A   1      40.575  28.587  30.513  1.00  0.00     0.031 A 
ATOM     61  C   UNL A   1      39.456  29.597  30.483  1.00  0.00     0.074 A 
ATOM     62  C   UNL A   1      41.300  28.451  31.644  1.00  0.00     0.049 A 
ATOM     63  N   UNL A   1      39.252  30.639  31.247  1.00  0.00    -0.248 NA
ATOM     64  C   UNL A   1      38.429  29.405  29.445  1.00  0.00     0.031 C 
ATOM     65  C   UNL A   1      42.290  27.401  31.898  1.00  0.00     0.029 A 
ATOM     66  N   UNL A   1      41.286  29.174  32.813  1.00  0.00    -0.354 N 
ATOM     67  C   UNL A   1      38.115  31.259  30.739  1.00  0.00     0.074 A 
ATOM     68  C   UNL A   1      37.665  30.472  29.614  1.00  0.00     0.031 C 
ATOM     69  C   UNL A   1      42.745  27.517  33.157  1.00  0.00     0.029 A 
ATOM     70  C   UNL A   1      42.176  28.717  33.760  1.00  0.00     0.049 A 
ATOM     71  H   UNL A   1      40.695  29.946  32.960  1.00  0.00     0.167 HD
ATOM     72  C   UNL A   1      37.519  32.397  31.167  1.00  0.00     0.037 A 
ATOM     73  C   UNL A   1      42.534  29.239  34.949  1.00  0.00     0.037 A 
ATOM     74  C   UNL A   1      37.929  33.115  32.344  1.00  0.00     0.049 A 
ATOM     75  C   UNL A   1      41.910  30.545  35.372  1.00  0.00     0.074 A 
ATOM     76  C   UNL A   1      37.469  34.327  32.827  1.00  0.00     0.029 A 
ATOM     77  N   UNL A   1      38.875  32.654  33.247  1.00  0.00    -0.354 N 
ATOM     78  N   UNL A   1      40.964  31.239  34.787  1.00  0.00    -0.248 NA
ATOM     79  C   UNL A   1      42.427  31.161  36.603  1.00  0.00     0.031 C 
ATOM     80  C   UNL A   1      38.169  34.619  34.003  1.00  0.00     0.029 A 
ATOM     81  C   UNL A   1      39.024  33.563  34.279  1.00  0.00     0.049 A 
ATOM     82  H   UNL A   1      39.367  31.805  33.165  1.00  0.00     0.167 HD
ATOM     83  C   UNL A   1      40.754  32.353  35.588  1.00  0.00     0.074 A 
ATOM     84  C   UNL A   1      41.655  32.232  36.714  1.00  0.00     0.031 C 
ATOM     85  C   UNL A   1      39.905  33.394  35.404  1.00  0.00     0.037 A 
BRANCH  72  86
ATOM     86  C   UNL A   1      36.448  32.985  30.297  1.00  0.00     0.057 A 
ATOM     87  C   UNL A   1      36.716  33.722  29.139  1.00  0.00     0.134 A 
ATOM     88  C   UNL A   1      35.101  32.797  30.644  1.00  0.00     0.134 A 
ATOM     89  F   UNL A   1      37.980  33.959  28.757  1.00  0.00    -0.206 F 
ATOM     90  C   UNL A   1      35.685  34.271  28.370  1.00  0.00     0.040 A 
ATOM     91  C   UNL A   1      34.064  33.316  29.870  1.00  0.00     0.040 A 
ATOM     92  F   UNL A   1      34.772  32.100  31.742  1.00  0.00    -0.206 F 
ATOM     93  C   UNL A   1      34.354  34.063  28.732  1.00  0.00     0.006 A 
ENDBRANCH  72  86
BRANCH  73  94
ATOM     94  C   UNL A   1      43.601  28.611  35.782  1.00  0.00     0.057 A 
ATOM     95  C   UNL A   1      43.308  27.634  36.743  1.00  0.00     0.134 A 
ATOM     96  C   UNL A   1      44.936  29.032  35.695  1.00  0.00     0.134 A 
ATOM     97  F   UNL A   1      42.048  27.203  36.906  1.00  0.00    -0.206 F 
ATOM     98  C   UNL A   1      44.288  27.130  37.604  1.00  0.00     0.040 A 
ATOM     99  C   UNL A   1      45.933  28.507  36.521  1.00  0.00     0.040 A 
ATOM    100  F   UNL A   1      45.297  29.969  34.805  1.00  0.00    -0.206 F 
ATOM    101  C   UNL A   1      45.606  27.564  37.491  1.00  0.00     0.006 A 
ENDBRANCH  73  94
BRANCH  85 102
ATOM    102  C   UNL A   1      39.868  34.440  36.479  1.00  0.00     0.057 A 
ATOM    103  C   UNL A   1      39.070  34.306  37.621  1.00  0.00     0.134 A 
ATOM    104  C   UNL A   1      40.668  35.584  36.375  1.00  0.00     0.134 A 
ATOM    105  F   UNL A   1      38.271  33.238  37.772  1.00  0.00    -0.206 F 
ATOM    106  C   UNL A   1      39.044  35.291  38.608  1.00  0.00     0.040 A 
ATOM    107  C   UNL A   1      40.673  36.561  37.370  1.00  0.00     0.040 A 
ATOM    108  F   UNL A   1      41.464  35.767  35.311  1.00  0.00    -0.206 F 
ATOM    109  C   UNL A   1      39.852  36.420  38.487  1.00  0.00     0.006 A 
ENDBRANCH  85 102
ENDBRANCH  59  60
ENDBRANCH  52  54
ENDBRANCH  51  52
ENDBRANCH  50  51
ENDBRANCH  49  50
ENDBRANCH  48  49
ENDBRANCH   1  48
TORSDOF 24
ENDMDL
MODEL 2
REMARK VINA RESULT:     -12.5      1.217      2.258
REMARK SMILES O=C(N[C@@H](Cc1ccc(O)cc1)C(=O)N[C@@H](Cc1c[nH]c2ccccc12)C(=O)N[C@@H](CO)C(=O)OCCOC(=O)c1ccc(-c2c3nc(c(-c4c(F)cccc4F)c4ccc([nH]4)c(-c4c(F)cccc4F)c4nc(c(-c5c(F)cccc5F)c5ccc2[nH]5)C=C4)C=C3)cc1)c1ccc(F)cc1
REMARK SMILES IDX 33 1 34 2 30 3 29 4 27 5 28 6 16 8 15 9 13 10 14 11 4 13
REMARK SMILES IDX 3 14 1 15 2 16 95 18 96 19 101 20 97 21 100 22 98 23 99 24
REMARK SMILES IDX 5 25 6 26 7 27 12 28 8 29 11 30 9 31 10 32 17 34 18 35 19 36
REMARK SMILES IDX 26 37 20 38 21 39 25 40 22 42 24 43 23 44 31 45 32 46 35 48
REMARK SMILES IDX 36 49 37 50 38 51 39 52 40 53 41 54 42 55 94 56 43 57 93 58
REMARK SMILES IDX 44 59 45 60 46 61 87 62 47 63 92 64 86 65 88 66 48 67 91 68
REMARK SMILES IDX 85 69 84 70 49 72 75 73 58 74 74 75 59 76 62 77 73 78 89 79
REMARK SMILES IDX 60 80 61 81 72 83 90 84 63 85 50 86 51 87 56 88 52 89 53 90
REMARK SMILES IDX 55 91 57 92 54 93 76 94 77 95 82 96 78 97 79 98 81 99 83 100
REMARK SMILES IDX 80 101 64 102 65 103 70 104 66 105 67 106 69 107 71 108
REMARK SMILES IDX 68 109
REMARK H PARENT 29 7 15 12 3 17 10 33 20 41 32 47 88 71 62 82
REMARK Flexibility Score: inf
ROOT
ATOM      1  C   UNL A   1      37.621  21.383  25.357  1.00  0.00     0.331 C 
ATOM      2  O   UNL A   1      37.862  20.221  25.033  1.00  0.00    -0.250 OA
ENDROOT
BRANCH   1   3
ATOM      3  C   UNL A   1      36.232  22.012  25.188  1.00  0.00     0.218 C 
BRANCH   3   4
ATOM      4  N   UNL A   1      35.256  22.013  26.297  1.00  0.00    -0.339 N 
ATOM      5  C   UNL A   1      34.220  22.931  26.271  1.00  0.00     0.243 C 
ATOM      6  O   UNL A   1      34.407  24.045  26.767  1.00  0.00    -0.273 OA
ATOM      7  H   UNL A   1      35.341  21.374  27.041  1.00  0.00     0.164 HD
BRANCH   5   8
ATOM      8  C   UNL A   1      32.796  22.456  25.819  1.00  0.00     0.175 C 
BRANCH   8   9
ATOM      9  N   UNL A   1      31.729  23.161  26.538  1.00  0.00    -0.342 N 
ATOM     10  C   UNL A   1      31.188  24.402  26.487  1.00  0.00     0.243 C 
ATOM     11  O   UNL A   1      30.036  24.466  26.946  1.00  0.00    -0.273 OA
ATOM     12  H   UNL A   1      31.303  22.596  27.222  1.00  0.00     0.164 HD
BRANCH  10  13
ATOM     13  C   UNL A   1      31.860  25.719  26.003  1.00  0.00     0.176 C 
BRANCH  13  14
ATOM     14  N   UNL A   1      32.360  25.656  24.629  1.00  0.00    -0.340 N 
ATOM     15  O   UNL A   1      32.252  25.871  22.391  1.00  0.00    -0.269 OA
ATOM     16  C   UNL A   1      31.741  26.089  23.466  1.00  0.00     0.251 C 
ATOM     17  H   UNL A   1      33.253  25.255  24.517  1.00  0.00     0.164 HD
BRANCH  16  18
ATOM     18  C   UNL A   1      30.412  26.765  23.535  1.00  0.00     0.040 A 
ATOM     19  C   UNL A   1      29.260  26.074  23.932  1.00  0.00     0.017 A 
ATOM     20  C   UNL A   1      30.324  28.118  23.177  1.00  0.00     0.017 A 
ATOM     21  C   UNL A   1      28.013  26.702  23.876  1.00  0.00     0.040 A 
ATOM     22  C   UNL A   1      29.075  28.748  23.137  1.00  0.00     0.040 A 
ATOM     23  C   UNL A   1      27.930  28.029  23.467  1.00  0.00     0.123 A 
ATOM     24  F   UNL A   1      26.731  28.622  23.388  1.00  0.00    -0.207 F 
ENDBRANCH  16  18
ENDBRANCH  13  14
BRANCH  13  25
ATOM     25  C   UNL A   1      31.305  27.090  26.448  1.00  0.00     0.070 C 
BRANCH  25  26
ATOM     26  C   UNL A   1      32.270  28.206  26.748  1.00  0.00    -0.045 A 
ATOM     27  C   UNL A   1      31.794  29.503  26.932  1.00  0.00     0.007 A 
ATOM     28  C   UNL A   1      33.644  27.968  26.905  1.00  0.00     0.007 A 
ATOM     29  C   UNL A   1      32.674  30.575  27.082  1.00  0.00     0.046 A 
ATOM     30  C   UNL A   1      34.524  29.030  27.130  1.00  0.00     0.046 A 
ATOM     31  C   UNL A   1      34.037  30.329  27.151  1.00  0.00     0.115 A 
BRANCH  31  32
ATOM     32  O   UNL A   1      34.925  31.357  27.239  1.00  0.00    -0.508 OA
ATOM     33  H   UNL A   1      35.846  31.185  27.216  1.00  0.00     0.293 HD
ENDBRANCH  31  32
ENDBRANCH  25  26
ENDBRANCH  13  25
ENDBRANCH  10  13
ENDBRANCH   8   9
BRANCH   8  34
ATOM     34  C   UNL A   1      32.591  22.435  24.306  1.00  0.00     0.072 C 
BRANCH  34  35
ATOM     35  C   UNL A   1      32.570  21.197  23.427  1.00  0.00    -0.020 A 
ATOM     36  C   UNL A   1      31.824  21.119  22.252  1.00  0.00     0.087 A 
ATOM     37  C   UNL A   1      33.087  19.865  23.632  1.00  0.00     0.003 A 
ATOM     38  N   UNL A   1      31.784  19.826  21.815  1.00  0.00    -0.361 N 
ATOM     39  C   UNL A   1      32.472  19.029  22.688  1.00  0.00     0.046 A 
ATOM     40  C   UNL A   1      33.871  19.242  24.620  1.00  0.00     0.010 A 
ATOM     41  H   UNL A   1      31.329  19.515  20.999  1.00  0.00     0.166 HD
ATOM     42  C   UNL A   1      32.538  17.634  22.729  1.00  0.00     0.026 A 
ATOM     43  C   UNL A   1      33.951  17.845  24.677  1.00  0.00     0.001 A 
ATOM     44  C   UNL A   1      33.274  17.054  23.758  1.00  0.00     0.002 A 
ENDBRANCH  34  35
ENDBRANCH   8  34
ENDBRANCH   5   8
ENDBRANCH   3   4
BRANCH   3  45
ATOM     45  C   UNL A   1      36.346  23.400  24.543  1.00  0.00     0.193 C 
BRANCH  45  46
ATOM     46  O   UNL A   1      37.210  23.323  23.411  1.00  0.00    -0.394 OA
ATOM     47  H   UNL A   1      36.688  23.417  22.598  1.00  0.00     0.210 HD
ENDBRANCH  45  46
ENDBRANCH   3  45
ENDBRANCH   1   3
BRANCH   1  48
ATOM     48  O   UNL A   1      38.516  22.178  26.020  1.00  0.00    -0.460 OA
BRANCH  48  49
ATOM     49  C   UNL A   1      39.743  21.482  26.324  1.00  0.00     0.274 C 
BRANCH  49  50
ATOM     50  C   UNL A   1      40.931  22.426  26.497  1.00  0.00     0.275 C 
BRANCH  50  51
ATOM     51  O   UNL A   1      40.585  23.789  26.173  1.00  0.00    -0.458 OA
BRANCH  51  52
ATOM     52  C   UNL A   1      41.501  24.713  26.547  1.00  0.00     0.338 C 
ATOM     53  O   UNL A   1      42.664  24.788  26.181  1.00  0.00    -0.246 OA
BRANCH  52  54
ATOM     54  C   UNL A   1      40.865  25.772  27.352  1.00  0.00     0.060 A 
ATOM     55  C   UNL A   1      41.569  26.959  27.427  1.00  0.00     0.016 A 
ATOM     56  C   UNL A   1      39.780  25.576  28.195  1.00  0.00     0.016 A 
ATOM     57  C   UNL A   1      41.309  27.911  28.400  1.00  0.00     0.010 A 
ATOM     58  C   UNL A   1      39.454  26.572  29.140  1.00  0.00     0.010 A 
ATOM     59  C   UNL A   1      40.254  27.726  29.289  1.00  0.00    -0.014 A 
BRANCH  59  60
ATOM     60  C   UNL A   1      40.145  28.646  30.461  1.00  0.00     0.031 A 
ATOM     61  C   UNL A   1      39.066  29.699  30.455  1.00  0.00     0.074 A 
ATOM     62  C   UNL A   1      40.864  28.457  31.589  1.00  0.00     0.049 A 
ATOM     63  N   UNL A   1      38.900  30.730  31.242  1.00  0.00    -0.248 NA
ATOM     64  C   UNL A   1      38.034  29.570  29.411  1.00  0.00     0.031 C 
ATOM     65  C   UNL A   1      41.813  27.365  31.819  1.00  0.00     0.029 A 
ATOM     66  N   UNL A   1      40.876  29.152  32.775  1.00  0.00    -0.354 N 
ATOM     67  C   UNL A   1      37.789  31.404  30.749  1.00  0.00     0.074 A 
ATOM     68  C   UNL A   1      37.310  30.662  29.605  1.00  0.00     0.031 C 
ATOM     69  C   UNL A   1      42.271  27.434  33.080  1.00  0.00     0.029 A 
ATOM     70  C   UNL A   1      41.747  28.640  33.710  1.00  0.00     0.049 A 
ATOM     71  H   UNL A   1      40.314  29.943  32.939  1.00  0.00     0.167 HD
ATOM     72  C   UNL A   1      37.236  32.554  31.203  1.00  0.00     0.037 A 
ATOM     73  C   UNL A   1      42.123  29.121  34.912  1.00  0.00     0.037 A 
ATOM     74  C   UNL A   1      37.671  33.229  32.396  1.00  0.00     0.049 A 
ATOM     75  C   UNL A   1      41.548  30.440  35.365  1.00  0.00     0.074 A 
ATOM     76  C   UNL A   1      37.256  34.445  32.907  1.00  0.00     0.029 A 
ATOM     77  N   UNL A   1      38.598  32.710  33.288  1.00  0.00    -0.354 N 
ATOM     78  N   UNL A   1      40.629  31.182  34.796  1.00  0.00    -0.248 NA
ATOM     79  C   UNL A   1      42.086  31.006  36.610  1.00  0.00     0.031 C 
ATOM     80  C   UNL A   1      37.965  34.683  34.090  1.00  0.00     0.029 A 
ATOM     81  C   UNL A   1      38.780  33.589  34.341  1.00  0.00     0.049 A 
ATOM     82  H   UNL A   1      39.057  31.846  33.187  1.00  0.00     0.167 HD
ATOM     83  C   UNL A   1      40.461  32.284  35.623  1.00  0.00     0.074 A 
ATOM     84  C   UNL A   1      41.356  32.103  36.746  1.00  0.00     0.031 C 
ATOM     85  C   UNL A   1      39.652  33.361  35.463  1.00  0.00     0.037 A 
BRANCH  72  86
ATOM     86  C   UNL A   1      36.188  33.202  30.346  1.00  0.00     0.057 A 
ATOM     87  C   UNL A   1      36.486  33.965  29.212  1.00  0.00     0.134 A 
ATOM     88  C   UNL A   1      34.834  33.047  30.681  1.00  0.00     0.134 A 
ATOM     89  F   UNL A   1      37.759  34.173  28.843  1.00  0.00    -0.206 F 
ATOM     90  C   UNL A   1      35.478  34.570  28.456  1.00  0.00     0.040 A 
ATOM     91  C   UNL A   1      33.818  33.623  29.919  1.00  0.00     0.040 A 
ATOM     92  F   UNL A   1      34.478  32.328  31.756  1.00  0.00    -0.206 F 
ATOM     93  C   UNL A   1      34.139  34.393  28.805  1.00  0.00     0.006 A 
ENDBRANCH  72  86
BRANCH  73  94
ATOM     94  C   UNL A   1      43.164  28.433  35.730  1.00  0.00     0.057 A 
ATOM     95  C   UNL A   1      44.529  28.716  35.577  1.00  0.00     0.134 A 
ATOM     96  C   UNL A   1      42.827  27.413  36.631  1.00  0.00     0.134 A 
ATOM     97  F   UNL A   1      44.931  29.658  34.711  1.00  0.00    -0.206 F 
ATOM     98  C   UNL A   1      45.512  27.990  36.257  1.00  0.00     0.040 A 
ATOM     99  C   UNL A   1      43.797  26.708  37.347  1.00  0.00     0.040 A 
ATOM    100  F   UNL A   1      41.543  27.077  36.829  1.00  0.00    -0.206 F 
ATOM    101  C   UNL A   1      45.146  26.986  37.148  1.00  0.00     0.006 A 
ENDBRANCH  73  94
BRANCH  85 102
ATOM    102  C   UNL A   1      39.654  34.382  36.561  1.00  0.00     0.057 A 
ATOM    103  C   UNL A   1      38.879  34.232  37.718  1.00  0.00     0.134 A 
ATOM    104  C   UNL A   1      40.468  35.517  36.466  1.00  0.00     0.134 A 
ATOM    105  F   UNL A   1      38.069  33.173  37.862  1.00  0.00    -0.206 F 
ATOM    106  C   UNL A   1      38.888  35.194  38.727  1.00  0.00     0.040 A 
ATOM    107  C   UNL A   1      40.507  36.471  37.482  1.00  0.00     0.040 A 
ATOM    108  F   UNL A   1      41.243  35.714  35.389  1.00  0.00    -0.206 F 
ATOM    109  C   UNL A   1      39.709  36.316  38.614  1.00  0.00     0.006 A 
ENDBRANCH  85 102
ENDBRANCH  59  60
ENDBRANCH  52  54
ENDBRANCH  51  52
ENDBRANCH  50  51
ENDBRANCH  49  50
ENDBRANCH  48  49
ENDBRANCH   1  48
TORSDOF 24
ENDMDL
MODEL 3
REMARK VINA RESULT:     -11.8      3.422      6.390
REMARK SMILES O=C(N[C@@H](Cc1ccc(O)cc1)C(=O)N[C@@H](Cc1c[nH]c2ccccc12)C(=O)N[C@@H](CO)C(=O)OCCOC(=O)c1ccc(-c2c3nc(c(-c4c(F)cccc4F)c4ccc([nH]4)c(-c4c(F)cccc4F)c4nc(c(-c5c(F)cccc5F)c5ccc2[nH]5)C=C4)C=C3)cc1)c1ccc(F)cc1
REMARK SMILES IDX 33 1 34 2 30 3 29 4 27 5 28 6 16 8 15 9 13 10 14 11 4 13
REMARK SMILES IDX 3 14 1 15 2 16 95 18 96 19 101 20 97 21 100 22 98 23 99 24
REMARK SMILES IDX 5 25 6 26 7 27 12 28 8 29 11 30 9 31 10 32 17 34 18 35 19 36
REMARK SMILES IDX 26 37 20 38 21 39 25 40 22 42 24 43 23 44 31 45 32 46 35 48
REMARK SMILES IDX 36 49 37 50 38 51 39 52 40 53 41 54 42 55 94 56 43 57 93 58
REMARK SMILES IDX 44 59 45 60 46 61 87 62 47 63 92 64 86 65 88 66 48 67 91 68
REMARK SMILES IDX 85 69 84 70 49 72 75 73 58 74 74 75 59 76 62 77 73 78 89 79
REMARK SMILES IDX 60 80 61 81 72 83 90 84 63 85 50 86 51 87 56 88 52 89 53 90
REMARK SMILES IDX 55 91 57 92 54 93 76 94 77 95 82 96 78 97 79 98 81 99 83 100
REMARK SMILES IDX 80 101 64 102 65 103 70 104 66 105 67 106 69 107 71 108
REMARK SMILES IDX 68 109
REMARK H PARENT 29 7 15 12 3 17 10 33 20 41 32 47 88 71 62 82
REMARK Flexibility Score: inf
ROOT
ATOM      1  C   UNL A   1      37.596  20.353  24.965  1.00  0.00     0.331 C 
ATOM      2  O   UNL A   1      37.276  19.166  24.937  1.00  0.00    -0.250 OA
ENDROOT
BRANCH   1   3
ATOM      3  C   UNL A   1      36.608  21.478  24.632  1.00  0.00     0.218 C 
BRANCH   3   4
ATOM      4  N   UNL A   1      35.677  22.002  25.653  1.00  0.00    -0.339 N 
ATOM      5  C   UNL A   1      35.246  23.314  25.551  1.00  0.00     0.243 C 
ATOM      6  O   UNL A   1      35.924  24.200  26.077  1.00  0.00    -0.273 OA
ATOM      7  H   UNL A   1      35.369  21.428  26.392  1.00  0.00     0.164 HD
BRANCH   5   8
ATOM      8  C   UNL A   1      33.819  23.600  24.971  1.00  0.00     0.175 C 
BRANCH   8   9
ATOM      9  N   UNL A   1      33.881  24.273  23.668  1.00  0.00    -0.342 N 
ATOM     10  C   UNL A   1      33.345  25.397  23.136  1.00  0.00     0.243 C 
ATOM     11  O   UNL A   1      33.977  25.843  22.164  1.00  0.00    -0.273 OA
ATOM     12  H   UNL A   1      34.450  23.790  23.025  1.00  0.00     0.164 HD
BRANCH  10  13
ATOM     13  C   UNL A   1      32.031  26.119  23.549  1.00  0.00     0.176 C 
BRANCH  13  14
ATOM     14  N   UNL A   1      31.383  25.537  24.726  1.00  0.00    -0.340 N 
ATOM     15  O   UNL A   1      30.935  25.302  26.920  1.00  0.00    -0.269 OA
ATOM     16  C   UNL A   1      31.453  25.959  26.045  1.00  0.00     0.251 C 
ATOM     17  H   UNL A   1      30.824  24.743  24.558  1.00  0.00     0.164 HD
BRANCH  16  18
ATOM     18  C   UNL A   1      32.226  27.186  26.396  1.00  0.00     0.040 A 
ATOM     19  C   UNL A   1      31.586  28.355  26.828  1.00  0.00     0.017 A 
ATOM     20  C   UNL A   1      33.623  27.161  26.273  1.00  0.00     0.017 A 
ATOM     21  C   UNL A   1      32.327  29.521  27.039  1.00  0.00     0.040 A 
ATOM     22  C   UNL A   1      34.363  28.327  26.501  1.00  0.00     0.040 A 
ATOM     23  C   UNL A   1      33.707  29.500  26.861  1.00  0.00     0.123 A 
ATOM     24  F   UNL A   1      34.412  30.625  27.038  1.00  0.00    -0.207 F 
ENDBRANCH  16  18
ENDBRANCH  13  14
BRANCH  13  25
ATOM     25  C   UNL A   1      31.900  27.650  23.406  1.00  0.00     0.070 C 
BRANCH  25  26
ATOM     26  C   UNL A   1      30.528  28.260  23.302  1.00  0.00    -0.045 A 
ATOM     27  C   UNL A   1      29.399  27.446  23.396  1.00  0.00     0.007 A 
ATOM     28  C   UNL A   1      30.345  29.644  23.167  1.00  0.00     0.007 A 
ATOM     29  C   UNL A   1      28.123  27.963  23.175  1.00  0.00     0.046 A 
ATOM     30  C   UNL A   1      29.063  30.178  23.020  1.00  0.00     0.046 A 
ATOM     31  C   UNL A   1      27.970  29.325  22.959  1.00  0.00     0.115 A 
BRANCH  31  32
ATOM     32  O   UNL A   1      26.746  29.852  22.683  1.00  0.00    -0.508 OA
ATOM     33  H   UNL A   1      25.987  29.301  22.682  1.00  0.00     0.293 HD
ENDBRANCH  31  32
ENDBRANCH  25  26
ENDBRANCH  13  25
ENDBRANCH  10  13
ENDBRANCH   8   9
BRANCH   8  34
ATOM     34  C   UNL A   1      32.880  22.396  24.982  1.00  0.00     0.072 C 
BRANCH  34  35
ATOM     35  C   UNL A   1      32.730  21.373  23.870  1.00  0.00    -0.020 A 
ATOM     36  C   UNL A   1      31.991  21.619  22.713  1.00  0.00     0.087 A 
ATOM     37  C   UNL A   1      33.094  19.979  23.792  1.00  0.00     0.003 A 
ATOM     38  N   UNL A   1      31.811  20.456  22.023  1.00  0.00    -0.361 N 
ATOM     39  C   UNL A   1      32.398  19.426  22.706  1.00  0.00     0.046 A 
ATOM     40  C   UNL A   1      33.794  19.084  24.622  1.00  0.00     0.010 A 
ATOM     41  H   UNL A   1      31.333  20.370  21.167  1.00  0.00     0.166 HD
ATOM     42  C   UNL A   1      32.308  18.053  22.461  1.00  0.00     0.026 A 
ATOM     43  C   UNL A   1      33.718  17.705  24.392  1.00  0.00     0.001 A 
ATOM     44  C   UNL A   1      32.965  17.198  23.341  1.00  0.00     0.002 A 
ENDBRANCH  34  35
ENDBRANCH   8  34
ENDBRANCH   5   8
ENDBRANCH   3   4
BRANCH   3  45
ATOM     45  C   UNL A   1      37.322  22.618  23.891  1.00  0.00     0.193 C 
BRANCH  45  46
ATOM     46  O   UNL A   1      36.686  22.831  22.633  1.00  0.00    -0.394 OA
ATOM     47  H   UNL A   1      35.921  23.416  22.752  1.00  0.00     0.210 HD
ENDBRANCH  45  46
ENDBRANCH   3  45
ENDBRANCH   1   3
BRANCH   1  48
ATOM     48  O   UNL A   1      38.807  20.793  25.425  1.00  0.00    -0.460 OA
BRANCH  48  49
ATOM     49  C   UNL A   1      39.709  19.703  25.715  1.00  0.00     0.274 C 
BRANCH  49  50
ATOM     50  C   UNL A   1      41.116  20.179  26.072  1.00  0.00     0.275 C 
BRANCH  50  51
ATOM     51  O   UNL A   1      41.092  21.408  26.828  1.00  0.00    -0.458 OA
BRANCH  51  52
ATOM     52  C   UNL A   1      41.661  22.469  26.209  1.00  0.00     0.338 C 
ATOM     53  O   UNL A   1      42.270  22.465  25.150  1.00  0.00    -0.246 OA
BRANCH  52  54
ATOM     54  C   UNL A   1      41.305  23.721  26.902  1.00  0.00     0.060 A 
ATOM     55  C   UNL A   1      41.140  24.821  26.082  1.00  0.00     0.016 A 
ATOM     56  C   UNL A   1      41.365  23.905  28.277  1.00  0.00     0.016 A 
ATOM     57  C   UNL A   1      41.157  26.117  26.575  1.00  0.00     0.010 A 
ATOM     58  C   UNL A   1      41.304  25.214  28.799  1.00  0.00     0.010 A 
ATOM     59  C   UNL A   1      41.257  26.338  27.946  1.00  0.00    -0.014 A 
BRANCH  59  60
ATOM     60  C   UNL A   1      41.505  27.733  28.422  1.00  0.00     0.031 A 
ATOM     61  C   UNL A   1      42.906  28.285  28.341  1.00  0.00     0.074 A 
ATOM     62  C   UNL A   1      40.495  28.564  28.758  1.00  0.00     0.049 A 
ATOM     63  N   UNL A   1      43.407  29.370  28.872  1.00  0.00    -0.248 NA
ATOM     64  C   UNL A   1      43.873  27.500  27.555  1.00  0.00     0.031 C 
ATOM     65  C   UNL A   1      39.069  28.235  28.704  1.00  0.00     0.029 A 
ATOM     66  N   UNL A   1      40.510  29.876  29.169  1.00  0.00    -0.354 N 
ATOM     67  C   UNL A   1      44.757  29.360  28.538  1.00  0.00     0.074 A 
ATOM     68  C   UNL A   1      44.996  28.173  27.750  1.00  0.00     0.031 C 
ATOM     69  C   UNL A   1      38.350  29.326  29.016  1.00  0.00     0.029 A 
ATOM     70  C   UNL A   1      39.258  30.397  29.410  1.00  0.00     0.049 A 
ATOM     71  H   UNL A   1      41.339  30.394  29.282  1.00  0.00     0.167 HD
ATOM     72  C   UNL A   1      45.712  30.256  28.884  1.00  0.00     0.037 A 
ATOM     73  C   UNL A   1      38.889  31.578  29.944  1.00  0.00     0.037 A 
ATOM     74  C   UNL A   1      45.438  31.477  29.592  1.00  0.00     0.049 A 
ATOM     75  C   UNL A   1      39.971  32.530  30.387  1.00  0.00     0.074 A 
ATOM     76  C   UNL A   1      46.327  32.417  30.081  1.00  0.00     0.029 A 
ATOM     77  N   UNL A   1      44.162  31.944  29.872  1.00  0.00    -0.354 N 
ATOM     78  N   UNL A   1      41.271  32.431  30.246  1.00  0.00    -0.248 NA
ATOM     79  C   UNL A   1      39.539  33.744  31.094  1.00  0.00     0.031 C 
ATOM     80  C   UNL A   1      45.589  33.434  30.696  1.00  0.00     0.029 A 
ATOM     81  C   UNL A   1      44.240  33.153  30.540  1.00  0.00     0.049 A 
ATOM     82  H   UNL A   1      43.327  31.484  29.631  1.00  0.00     0.167 HD
ATOM     83  C   UNL A   1      41.808  33.575  30.821  1.00  0.00     0.074 A 
ATOM     84  C   UNL A   1      40.692  34.367  31.292  1.00  0.00     0.031 C 
ATOM     85  C   UNL A   1      43.108  33.934  30.963  1.00  0.00     0.037 A 
BRANCH  72  86
ATOM     86  C   UNL A   1      47.139  29.889  28.601  1.00  0.00     0.057 A 
ATOM     87  C   UNL A   1      47.935  29.157  29.489  1.00  0.00     0.134 A 
ATOM     88  C   UNL A   1      47.725  30.288  27.389  1.00  0.00     0.134 A 
ATOM     89  F   UNL A   1      47.449  28.760  30.674  1.00  0.00    -0.206 F 
ATOM     90  C   UNL A   1      49.268  28.857  29.193  1.00  0.00     0.040 A 
ATOM     91  C   UNL A   1      49.044  29.971  27.072  1.00  0.00     0.040 A 
ATOM     92  F   UNL A   1      47.018  30.993  26.493  1.00  0.00    -0.206 F 
ATOM     93  C   UNL A   1      49.824  29.258  27.978  1.00  0.00     0.006 A 
ENDBRANCH  72  86
BRANCH  73  94
ATOM     94  C   UNL A   1      37.454  31.899  30.197  1.00  0.00     0.057 A 
ATOM     95  C   UNL A   1      36.686  32.627  29.277  1.00  0.00     0.134 A 
ATOM     96  C   UNL A   1      36.834  31.557  31.408  1.00  0.00     0.134 A 
ATOM     97  F   UNL A   1      37.220  33.016  28.110  1.00  0.00    -0.206 F 
ATOM     98  C   UNL A   1      35.378  33.029  29.565  1.00  0.00     0.040 A 
ATOM     99  C   UNL A   1      35.514  31.917  31.691  1.00  0.00     0.040 A 
ATOM    100  F   UNL A   1      37.503  30.867  32.344  1.00  0.00    -0.206 F 
ATOM    101  C   UNL A   1      34.788  32.670  30.773  1.00  0.00     0.006 A 
ENDBRANCH  73  94
BRANCH  85 102
ATOM    102  C   UNL A   1      43.379  35.268  31.592  1.00  0.00     0.057 A 
ATOM    103  C   UNL A   1      43.637  36.413  30.829  1.00  0.00     0.134 A 
ATOM    104  C   UNL A   1      43.353  35.408  32.986  1.00  0.00     0.134 A 
ATOM    105  F   UNL A   1      43.687  36.341  29.490  1.00  0.00    -0.206 F 
ATOM    106  C   UNL A   1      43.892  37.645  31.431  1.00  0.00     0.040 A 
ATOM    107  C   UNL A   1      43.578  36.641  33.597  1.00  0.00     0.040 A 
ATOM    108  F   UNL A   1      43.101  34.352  33.773  1.00  0.00    -0.206 F 
ATOM    109  C   UNL A   1      43.858  37.762  32.820  1.00  0.00     0.006 A 
ENDBRANCH  85 102
ENDBRANCH  59  60
ENDBRANCH  52  54
ENDBRANCH  51  52
ENDBRANCH  50  51
ENDBRANCH  49  50
ENDBRANCH  48  49
ENDBRANCH   1  48
TORSDOF 24
ENDMDL
