MODEL 1
REMARK VINA RESULT:     -11.3      0.000      0.000
REMARK SMILES C[C@@H](C(=O)OCCOC(=O)c1ccc(-c2c3nc(c(-c4c(F)cccc4F)c4ccc([nH]4)c(-c4c(F)cccc4F)c4nc(c(-c5c(F)cccc5F)c5ccc2[nH]5)C=C4)C=C3)cc1)c1cc(C(=O)c2ccccc2)ccc1O
REMARK SMILES IDX 6 1 5 2 3 3 4 4 2 5 1 6 65 7 66 8 78 9 67 10 77 11 76 12
REMARK SMILES IDX 79 13 68 15 69 16 70 17 71 18 75 19 72 20 74 21 73 22 7 23
REMARK SMILES IDX 8 24 9 25 10 26 11 27 12 28 64 29 13 30 63 31 14 32 15 33
REMARK SMILES IDX 16 34 57 35 17 36 62 37 56 38 58 39 18 40 61 41 55 42 54 43
REMARK SMILES IDX 19 45 45 46 28 47 44 48 29 49 32 50 43 51 59 52 30 53 31 54
REMARK SMILES IDX 42 56 60 57 33 58 20 59 21 60 26 61 22 62 23 63 25 64 27 65
REMARK SMILES IDX 24 66 46 67 47 68 52 69 48 70 49 71 51 72 53 73 50 74 34 75
REMARK SMILES IDX 35 76 40 77 36 78 37 79 39 80 41 81 38 82
REMARK H PARENT 79 14 58 44 32 55
REMARK Flexibility Score: inf
ROOT
ATOM      1  C   UNL A   1      31.400  31.992  26.509  1.00  0.00     0.274 C 
ENDROOT
BRANCH   1   2
ATOM      2  O   UNL A   1      32.353  31.038  27.018  1.00  0.00    -0.462 OA
BRANCH   2   3
ATOM      3  C   UNL A   1      32.742  30.041  26.182  1.00  0.00     0.313 C 
ATOM      4  O   UNL A   1      32.501  30.016  24.976  1.00  0.00    -0.252 OA
BRANCH   3   5
ATOM      5  C   UNL A   1      33.454  28.892  26.904  1.00  0.00     0.130 C 
ATOM      6  C   UNL A   1      34.972  29.088  26.990  1.00  0.00     0.025 C 
BRANCH   5   7
ATOM      7  C   UNL A   1      33.023  27.521  26.366  1.00  0.00     0.009 A 
ATOM      8  C   UNL A   1      33.781  26.806  25.416  1.00  0.00     0.020 A 
ATOM      9  C   UNL A   1      31.846  26.911  26.826  1.00  0.00     0.119 A 
ATOM     10  C   UNL A   1      33.409  25.514  24.987  1.00  0.00     0.023 A 
ATOM     11  C   UNL A   1      31.494  25.616  26.457  1.00  0.00     0.047 A 
ATOM     12  C   UNL A   1      32.290  24.905  25.560  1.00  0.00     0.016 A 
BRANCH   9  13
ATOM     13  O   UNL A   1      30.971  27.562  27.651  1.00  0.00    -0.508 OA
ATOM     14  H   UNL A   1      30.052  27.544  27.467  1.00  0.00     0.293 HD
ENDBRANCH   9  13
BRANCH  10  15
ATOM     15  C   UNL A   1      34.260  24.840  23.959  1.00  0.00     0.193 C 
ATOM     16  O   UNL A   1      34.032  25.066  22.771  1.00  0.00    -0.289 OA
BRANCH  15  17
ATOM     17  C   UNL A   1      35.375  23.909  24.290  1.00  0.00     0.022 A 
ATOM     18  C   UNL A   1      35.843  23.892  25.610  1.00  0.00     0.012 A 
ATOM     19  C   UNL A   1      36.010  23.106  23.336  1.00  0.00     0.012 A 
ATOM     20  C   UNL A   1      36.901  23.057  25.975  1.00  0.00     0.001 A 
ATOM     21  C   UNL A   1      37.064  22.265  23.706  1.00  0.00     0.001 A 
ATOM     22  C   UNL A   1      37.511  22.244  25.024  1.00  0.00     0.000 A 
ENDBRANCH  15  17
ENDBRANCH  10  15
ENDBRANCH   5   7
ENDBRANCH   3   5
ENDBRANCH   2   3
ENDBRANCH   1   2
BRANCH   1  23
ATOM     23  C   UNL A   1      31.878  33.415  26.786  1.00  0.00     0.275 C 
BRANCH  23  24
ATOM     24  O   UNL A   1      32.154  33.570  28.190  1.00  0.00    -0.458 OA
BRANCH  24  25
ATOM     25  C   UNL A   1      33.142  34.438  28.500  1.00  0.00     0.338 C 
ATOM     26  O   UNL A   1      33.073  35.651  28.585  1.00  0.00    -0.246 OA
BRANCH  25  27
ATOM     27  C   UNL A   1      34.371  33.684  28.784  1.00  0.00     0.060 A 
ATOM     28  C   UNL A   1      34.260  32.390  29.283  1.00  0.00     0.016 A 
ATOM     29  C   UNL A   1      35.620  34.297  28.688  1.00  0.00     0.016 A 
ATOM     30  C   UNL A   1      35.387  31.740  29.775  1.00  0.00     0.010 A 
ATOM     31  C   UNL A   1      36.765  33.604  29.108  1.00  0.00     0.010 A 
ATOM     32  C   UNL A   1      36.657  32.334  29.701  1.00  0.00    -0.014 A 
BRANCH  32  33
ATOM     33  C   UNL A   1      37.832  31.654  30.325  1.00  0.00     0.031 A 
ATOM     34  C   UNL A   1      38.140  31.856  31.792  1.00  0.00     0.074 A 
ATOM     35  C   UNL A   1      38.543  30.743  29.628  1.00  0.00     0.049 A 
ATOM     36  N   UNL A   1      39.143  31.393  32.499  1.00  0.00    -0.248 NA
ATOM     37  C   UNL A   1      37.191  32.671  32.567  1.00  0.00     0.031 C 
ATOM     38  C   UNL A   1      38.307  30.373  28.231  1.00  0.00     0.029 A 
ATOM     39  N   UNL A   1      39.572  29.918  30.016  1.00  0.00    -0.354 N 
ATOM     40  C   UNL A   1      38.949  31.870  33.792  1.00  0.00     0.074 A 
ATOM     41  C   UNL A   1      37.761  32.694  33.764  1.00  0.00     0.031 C 
ATOM     42  C   UNL A   1      39.100  29.338  27.909  1.00  0.00     0.029 A 
ATOM     43  C   UNL A   1      39.965  29.029  29.042  1.00  0.00     0.049 A 
ATOM     44  H   UNL A   1      39.988  29.958  30.907  1.00  0.00     0.167 HD
ATOM     45  C   UNL A   1      39.670  31.618  34.912  1.00  0.00     0.037 A 
ATOM     46  C   UNL A   1      40.923  28.083  29.047  1.00  0.00     0.037 A 
ATOM     47  C   UNL A   1      40.792  30.721  34.978  1.00  0.00     0.049 A 
ATOM     48  C   UNL A   1      41.776  27.904  30.270  1.00  0.00     0.074 A 
ATOM     49  C   UNL A   1      41.587  30.413  36.070  1.00  0.00     0.029 A 
ATOM     50  N   UNL A   1      41.255  29.957  33.920  1.00  0.00    -0.354 N 
ATOM     51  N   UNL A   1      41.654  28.459  31.450  1.00  0.00    -0.248 NA
ATOM     52  C   UNL A   1      42.922  26.988  30.150  1.00  0.00     0.031 C 
ATOM     53  C   UNL A   1      42.541  29.473  35.668  1.00  0.00     0.029 A 
ATOM     54  C   UNL A   1      42.325  29.178  34.332  1.00  0.00     0.049 A 
ATOM     55  H   UNL A   1      40.880  29.966  33.010  1.00  0.00     0.167 HD
ATOM     56  C   UNL A   1      42.707  27.966  32.210  1.00  0.00     0.074 A 
ATOM     57  C   UNL A   1      43.436  27.039  31.370  1.00  0.00     0.031 C 
ATOM     58  C   UNL A   1      43.046  28.265  33.487  1.00  0.00     0.037 A 
BRANCH  45  59
ATOM     59  C   UNL A   1      39.267  32.323  36.175  1.00  0.00     0.057 A 
ATOM     60  C   UNL A   1      39.764  33.588  36.509  1.00  0.00     0.134 A 
ATOM     61  C   UNL A   1      38.317  31.756  37.034  1.00  0.00     0.134 A 
ATOM     62  F   UNL A   1      40.677  34.187  35.733  1.00  0.00    -0.206 F 
ATOM     63  C   UNL A   1      39.344  34.259  37.659  1.00  0.00     0.040 A 
ATOM     64  C   UNL A   1      37.872  32.426  38.175  1.00  0.00     0.040 A 
ATOM     65  F   UNL A   1      37.789  30.553  36.764  1.00  0.00    -0.206 F 
ATOM     66  C   UNL A   1      38.389  33.681  38.491  1.00  0.00     0.006 A 
ENDBRANCH  45  59
BRANCH  46  67
ATOM     67  C   UNL A   1      41.158  27.245  27.842  1.00  0.00     0.057 A 
ATOM     68  C   UNL A   1      40.520  26.009  27.685  1.00  0.00     0.134 A 
ATOM     69  C   UNL A   1      42.043  27.645  26.834  1.00  0.00     0.134 A 
ATOM     70  F   UNL A   1      39.684  25.556  28.632  1.00  0.00    -0.206 F 
ATOM     71  C   UNL A   1      40.758  25.199  26.573  1.00  0.00     0.040 A 
ATOM     72  C   UNL A   1      42.268  26.861  25.702  1.00  0.00     0.040 A 
ATOM     73  F   UNL A   1      42.692  28.815  26.929  1.00  0.00    -0.206 F 
ATOM     74  C   UNL A   1      41.629  25.630  25.573  1.00  0.00     0.006 A 
ENDBRANCH  46  67
BRANCH  58  75
ATOM     75  C   UNL A   1      44.255  27.582  34.050  1.00  0.00     0.057 A 
ATOM     76  C   UNL A   1      45.519  28.183  34.006  1.00  0.00     0.134 A 
ATOM     77  C   UNL A   1      44.154  26.327  34.662  1.00  0.00     0.134 A 
ATOM     78  F   UNL A   1      45.684  29.378  33.419  1.00  0.00    -0.206 F 
ATOM     79  C   UNL A   1      46.645  27.552  34.540  1.00  0.00     0.040 A 
ATOM     80  C   UNL A   1      45.268  25.695  35.216  1.00  0.00     0.040 A 
ATOM     81  F   UNL A   1      42.969  25.701  34.739  1.00  0.00    -0.206 F 
ATOM     82  C   UNL A   1      46.518  26.306  35.152  1.00  0.00     0.006 A 
ENDBRANCH  58  75
ENDBRANCH  32  33
ENDBRANCH  25  27
ENDBRANCH  24  25
ENDBRANCH  23  24
ENDBRANCH   1  23
TORSDOF 15
ENDMDL
MODEL 2
REMARK VINA RESULT:     -11.1      1.966      3.934
REMARK SMILES C[C@@H](C(=O)OCCOC(=O)c1ccc(-c2c3nc(c(-c4c(F)cccc4F)c4ccc([nH]4)c(-c4c(F)cccc4F)c4nc(c(-c5c(F)cccc5F)c5ccc2[nH]5)C=C4)C=C3)cc1)c1cc(C(=O)c2ccccc2)ccc1O
REMARK SMILES IDX 6 1 5 2 3 3 4 4 2 5 1 6 65 7 66 8 78 9 67 10 77 11 76 12
REMARK SMILES IDX 79 13 68 15 69 16 70 17 71 18 75 19 72 20 74 21 73 22 7 23
REMARK SMILES IDX 8 24 9 25 10 26 11 27 12 28 64 29 13 30 63 31 14 32 15 33
REMARK SMILES IDX 16 34 57 35 17 36 62 37 56 38 58 39 18 40 61 41 55 42 54 43
REMARK SMILES IDX 19 45 45 46 28 47 44 48 29 49 32 50 43 51 59 52 30 53 31 54
REMARK SMILES IDX 42 56 60 57 33 58 20 59 21 60 26 61 22 62 23 63 25 64 27 65
REMARK SMILES IDX 24 66 46 67 47 68 52 69 48 70 49 71 51 72 53 73 50 74 34 75
REMARK SMILES IDX 35 76 40 77 36 78 37 79 39 80 41 81 38 82
REMARK H PARENT 79 14 58 44 32 55
REMARK Flexibility Score: inf
ROOT
ATOM      1  C   UNL A   1      31.465  30.952  26.393  1.00  0.00     0.274 C 
ENDROOT
BRANCH   1   2
ATOM      2  O   UNL A   1      32.185  30.088  27.294  1.00  0.00    -0.462 OA
BRANCH   2   3
ATOM      3  C   UNL A   1      31.961  28.753  27.187  1.00  0.00     0.313 C 
ATOM      4  O   UNL A   1      31.153  28.130  27.873  1.00  0.00    -0.252 OA
BRANCH   3   5
ATOM      5  C   UNL A   1      32.878  28.068  26.169  1.00  0.00     0.130 C 
ATOM      6  C   UNL A   1      34.192  28.824  25.940  1.00  0.00     0.025 C 
BRANCH   5   7
ATOM      7  C   UNL A   1      32.131  27.696  24.881  1.00  0.00     0.009 A 
ATOM      8  C   UNL A   1      30.876  28.245  24.547  1.00  0.00     0.020 A 
ATOM      9  C   UNL A   1      32.692  26.794  23.964  1.00  0.00     0.119 A 
ATOM     10  C   UNL A   1      30.235  27.949  23.324  1.00  0.00     0.023 A 
ATOM     11  C   UNL A   1      32.102  26.534  22.731  1.00  0.00     0.047 A 
ATOM     12  C   UNL A   1      30.888  27.133  22.397  1.00  0.00     0.016 A 
BRANCH   9  13
ATOM     13  O   UNL A   1      33.841  26.108  24.240  1.00  0.00    -0.508 OA
ATOM     14  H   UNL A   1      33.927  25.643  25.050  1.00  0.00     0.293 HD
ENDBRANCH   9  13
BRANCH  10  15
ATOM     15  C   UNL A   1      28.895  28.558  23.064  1.00  0.00     0.193 C 
ATOM     16  O   UNL A   1      27.898  27.842  23.158  1.00  0.00    -0.289 OA
BRANCH  15  17
ATOM     17  C   UNL A   1      28.693  29.989  22.700  1.00  0.00     0.022 A 
ATOM     18  C   UNL A   1      28.333  30.283  21.379  1.00  0.00     0.012 A 
ATOM     19  C   UNL A   1      28.907  31.043  23.596  1.00  0.00     0.012 A 
ATOM     20  C   UNL A   1      28.152  31.608  20.974  1.00  0.00     0.001 A 
ATOM     21  C   UNL A   1      28.718  32.367  23.189  1.00  0.00     0.001 A 
ATOM     22  C   UNL A   1      28.343  32.648  21.878  1.00  0.00     0.000 A 
ENDBRANCH  15  17
ENDBRANCH  10  15
ENDBRANCH   5   7
ENDBRANCH   3   5
ENDBRANCH   2   3
ENDBRANCH   1   2
BRANCH   1  23
ATOM     23  C   UNL A   1      31.361  32.357  26.980  1.00  0.00     0.275 C 
BRANCH  23  24
ATOM     24  O   UNL A   1      32.599  33.061  26.777  1.00  0.00    -0.458 OA
BRANCH  24  25
ATOM     25  C   UNL A   1      33.104  33.683  27.866  1.00  0.00     0.338 C 
ATOM     26  O   UNL A   1      32.601  34.583  28.514  1.00  0.00    -0.246 OA
BRANCH  25  27
ATOM     27  C   UNL A   1      34.388  33.062  28.220  1.00  0.00     0.060 A 
ATOM     28  C   UNL A   1      34.410  31.710  28.543  1.00  0.00     0.016 A 
ATOM     29  C   UNL A   1      35.538  33.839  28.362  1.00  0.00     0.016 A 
ATOM     30  C   UNL A   1      35.556  31.151  29.099  1.00  0.00     0.010 A 
ATOM     31  C   UNL A   1      36.716  33.251  28.844  1.00  0.00     0.010 A 
ATOM     32  C   UNL A   1      36.727  31.909  29.264  1.00  0.00    -0.014 A 
BRANCH  32  33
ATOM     33  C   UNL A   1      37.909  31.309  29.953  1.00  0.00     0.031 A 
ATOM     34  C   UNL A   1      38.147  31.568  31.424  1.00  0.00     0.074 A 
ATOM     35  C   UNL A   1      38.693  30.417  29.311  1.00  0.00     0.049 A 
ATOM     36  N   UNL A   1      39.144  31.178  32.182  1.00  0.00    -0.248 NA
ATOM     37  C   UNL A   1      37.128  32.354  32.137  1.00  0.00     0.031 C 
ATOM     38  C   UNL A   1      38.532  29.996  27.918  1.00  0.00     0.029 A 
ATOM     39  N   UNL A   1      39.746  29.658  29.763  1.00  0.00    -0.354 N 
ATOM     40  C   UNL A   1      38.874  31.680  33.452  1.00  0.00     0.074 A 
ATOM     41  C   UNL A   1      37.648  32.439  33.353  1.00  0.00     0.031 C 
ATOM     42  C   UNL A   1      39.388  28.996  27.658  1.00  0.00     0.029 A 
ATOM     43  C   UNL A   1      40.222  28.764  28.832  1.00  0.00     0.049 A 
ATOM     44  H   UNL A   1      40.123  29.744  30.668  1.00  0.00     0.167 HD
ATOM     45  C   UNL A   1      39.561  31.497  34.606  1.00  0.00     0.037 A 
ATOM     46  C   UNL A   1      41.226  27.869  28.903  1.00  0.00     0.037 A 
ATOM     47  C   UNL A   1      40.725  30.662  34.742  1.00  0.00     0.049 A 
ATOM     48  C   UNL A   1      42.038  27.769  30.162  1.00  0.00     0.074 A 
ATOM     49  C   UNL A   1      41.490  30.427  35.873  1.00  0.00     0.029 A 
ATOM     50  N   UNL A   1      41.268  29.894  33.726  1.00  0.00    -0.354 N 
ATOM     51  N   UNL A   1      41.841  28.350  31.319  1.00  0.00    -0.248 NA
ATOM     52  C   UNL A   1      43.233  26.912  30.113  1.00  0.00     0.031 C 
ATOM     53  C   UNL A   1      42.507  29.527  35.536  1.00  0.00     0.029 A 
ATOM     54  C   UNL A   1      42.359  29.184  34.202  1.00  0.00     0.049 A 
ATOM     55  H   UNL A   1      40.929  29.858  32.803  1.00  0.00     0.167 HD
ATOM     56  C   UNL A   1      42.887  27.934  32.133  1.00  0.00     0.074 A 
ATOM     57  C   UNL A   1      43.695  27.024  31.350  1.00  0.00     0.031 C 
ATOM     58  C   UNL A   1      43.159  28.287  33.413  1.00  0.00     0.037 A 
BRANCH  45  59
ATOM     59  C   UNL A   1      39.074  32.216  35.831  1.00  0.00     0.057 A 
ATOM     60  C   UNL A   1      38.233  31.602  36.765  1.00  0.00     0.134 A 
ATOM     61  C   UNL A   1      39.507  33.518  36.111  1.00  0.00     0.134 A 
ATOM     62  F   UNL A   1      37.779  30.358  36.559  1.00  0.00    -0.206 F 
ATOM     63  C   UNL A   1      37.827  32.259  37.928  1.00  0.00     0.040 A 
ATOM     64  C   UNL A   1      39.126  34.179  37.280  1.00  0.00     0.040 A 
ATOM     65  F   UNL A   1      40.326  34.159  35.263  1.00  0.00    -0.206 F 
ATOM     66  C   UNL A   1      38.280  33.550  38.191  1.00  0.00     0.006 A 
ENDBRANCH  45  59
BRANCH  46  67
ATOM     67  C   UNL A   1      41.551  27.011  27.733  1.00  0.00     0.057 A 
ATOM     68  C   UNL A   1      41.021  25.721  27.612  1.00  0.00     0.134 A 
ATOM     69  C   UNL A   1      42.419  27.448  26.724  1.00  0.00     0.134 A 
ATOM     70  F   UNL A   1      40.208  25.234  28.562  1.00  0.00    -0.206 F 
ATOM     71  C   UNL A   1      41.345  24.895  26.535  1.00  0.00     0.040 A 
ATOM     72  C   UNL A   1      42.729  26.645  25.626  1.00  0.00     0.040 A 
ATOM     73  F   UNL A   1      42.967  28.670  26.785  1.00  0.00    -0.206 F 
ATOM     74  C   UNL A   1      42.196  25.361  25.533  1.00  0.00     0.006 A 
ENDBRANCH  46  67
BRANCH  58  75
ATOM     75  C   UNL A   1      44.377  27.683  34.042  1.00  0.00     0.057 A 
ATOM     76  C   UNL A   1      44.326  26.440  34.686  1.00  0.00     0.134 A 
ATOM     77  C   UNL A   1      45.616  28.333  33.984  1.00  0.00     0.134 A 
ATOM     78  F   UNL A   1      43.165  25.775  34.789  1.00  0.00    -0.206 F 
ATOM     79  C   UNL A   1      45.462  25.872  35.265  1.00  0.00     0.040 A 
ATOM     80  C   UNL A   1      46.763  27.766  34.542  1.00  0.00     0.040 A 
ATOM     81  F   UNL A   1      45.731  29.525  33.378  1.00  0.00    -0.206 F 
ATOM     82  C   UNL A   1      46.687  26.534  35.188  1.00  0.00     0.006 A 
ENDBRANCH  58  75
ENDBRANCH  32  33
ENDBRANCH  25  27
ENDBRANCH  24  25
ENDBRANCH  23  24
ENDBRANCH   1  23
TORSDOF 15
ENDMDL
MODEL 3
REMARK VINA RESULT:     -11.1      5.350     10.006
REMARK SMILES C[C@@H](C(=O)OCCOC(=O)c1ccc(-c2c3nc(c(-c4c(F)cccc4F)c4ccc([nH]4)c(-c4c(F)cccc4F)c4nc(c(-c5c(F)cccc5F)c5ccc2[nH]5)C=C4)C=C3)cc1)c1cc(C(=O)c2ccccc2)ccc1O
REMARK SMILES IDX 6 1 5 2 3 3 4 4 2 5 1 6 65 7 66 8 78 9 67 10 77 11 76 12
REMARK SMILES IDX 79 13 68 15 69 16 70 17 71 18 75 19 72 20 74 21 73 22 7 23
REMARK SMILES IDX 8 24 9 25 10 26 11 27 12 28 64 29 13 30 63 31 14 32 15 33
REMARK SMILES IDX 16 34 57 35 17 36 62 37 56 38 58 39 18 40 61 41 55 42 54 43
REMARK SMILES IDX 19 45 45 46 28 47 44 48 29 49 32 50 43 51 59 52 30 53 31 54
REMARK SMILES IDX 42 56 60 57 33 58 20 59 21 60 26 61 22 62 23 63 25 64 27 65
REMARK SMILES IDX 24 66 46 67 47 68 52 69 48 70 49 71 51 72 53 73 50 74 34 75
REMARK SMILES IDX 35 76 40 77 36 78 37 79 39 80 41 81 38 82
REMARK H PARENT 79 14 58 44 32 55
REMARK Flexibility Score: inf
ROOT
ATOM      1  C   UNL A   1      41.979  19.383  26.098  1.00  0.00     0.274 C 
ENDROOT
BRANCH   1   2
ATOM      2  O   UNL A   1      42.849  19.691  24.990  1.00  0.00    -0.462 OA
BRANCH   2   3
ATOM      3  C   UNL A   1      44.110  19.191  25.032  1.00  0.00     0.313 C 
ATOM      4  O   UNL A   1      44.396  18.068  25.445  1.00  0.00    -0.252 OA
BRANCH   3   5
ATOM      5  C   UNL A   1      45.173  20.199  24.583  1.00  0.00     0.130 C 
ATOM      6  C   UNL A   1      46.605  19.717  24.844  1.00  0.00     0.025 C 
BRANCH   5   7
ATOM      7  C   UNL A   1      44.879  21.613  25.100  1.00  0.00     0.009 A 
ATOM      8  C   UNL A   1      44.990  21.962  26.462  1.00  0.00     0.020 A 
ATOM      9  C   UNL A   1      44.500  22.634  24.215  1.00  0.00     0.119 A 
ATOM     10  C   UNL A   1      44.787  23.285  26.912  1.00  0.00     0.023 A 
ATOM     11  C   UNL A   1      44.351  23.954  24.631  1.00  0.00     0.047 A 
ATOM     12  C   UNL A   1      44.523  24.285  25.974  1.00  0.00     0.016 A 
BRANCH   9  13
ATOM     13  O   UNL A   1      44.242  22.384  22.896  1.00  0.00    -0.508 OA
ATOM     14  H   UNL A   1      44.387  21.527  22.544  1.00  0.00     0.293 HD
ENDBRANCH   9  13
BRANCH  10  15
ATOM     15  C   UNL A   1      44.903  23.557  28.377  1.00  0.00     0.193 C 
ATOM     16  O   UNL A   1      44.178  22.929  29.148  1.00  0.00    -0.289 OA
BRANCH  15  17
ATOM     17  C   UNL A   1      45.851  24.547  28.961  1.00  0.00     0.022 A 
ATOM     18  C   UNL A   1      47.058  24.773  28.287  1.00  0.00     0.012 A 
ATOM     19  C   UNL A   1      45.618  25.206  30.174  1.00  0.00     0.012 A 
ATOM     20  C   UNL A   1      47.996  25.672  28.799  1.00  0.00     0.001 A 
ATOM     21  C   UNL A   1      46.556  26.111  30.679  1.00  0.00     0.001 A 
ATOM     22  C   UNL A   1      47.745  26.341  29.994  1.00  0.00     0.000 A 
ENDBRANCH  15  17
ENDBRANCH  10  15
ENDBRANCH   5   7
ENDBRANCH   3   5
ENDBRANCH   2   3
ENDBRANCH   1   2
BRANCH   1  23
ATOM     23  C   UNL A   1      41.873  20.583  27.035  1.00  0.00     0.275 C 
BRANCH  23  24
ATOM     24  O   UNL A   1      41.602  21.772  26.271  1.00  0.00    -0.458 OA
BRANCH  24  25
ATOM     25  C   UNL A   1      40.364  22.294  26.423  1.00  0.00     0.338 C 
ATOM     26  O   UNL A   1      39.293  21.757  26.202  1.00  0.00    -0.246 OA
BRANCH  25  27
ATOM     27  C   UNL A   1      40.480  23.654  26.966  1.00  0.00     0.060 A 
ATOM     28  C   UNL A   1      40.070  24.725  26.178  1.00  0.00     0.016 A 
ATOM     29  C   UNL A   1      41.114  23.881  28.188  1.00  0.00     0.016 A 
ATOM     30  C   UNL A   1      40.377  26.025  26.566  1.00  0.00     0.010 A 
ATOM     31  C   UNL A   1      41.346  25.196  28.614  1.00  0.00     0.010 A 
ATOM     32  C   UNL A   1      41.023  26.285  27.786  1.00  0.00    -0.014 A 
BRANCH  32  33
ATOM     33  C   UNL A   1      41.426  27.683  28.129  1.00  0.00     0.031 A 
ATOM     34  C   UNL A   1      40.420  28.643  28.724  1.00  0.00     0.074 A 
ATOM     35  C   UNL A   1      42.719  28.060  28.047  1.00  0.00     0.049 A 
ATOM     36  N   UNL A   1      40.568  29.908  29.037  1.00  0.00    -0.248 NA
ATOM     37  C   UNL A   1      39.081  28.108  29.018  1.00  0.00     0.031 C 
ATOM     38  C   UNL A   1      43.820  27.215  27.578  1.00  0.00     0.029 A 
ATOM     39  N   UNL A   1      43.338  29.231  28.411  1.00  0.00    -0.354 N 
ATOM     40  C   UNL A   1      39.341  30.317  29.552  1.00  0.00     0.074 A 
ATOM     41  C   UNL A   1      38.448  29.183  29.467  1.00  0.00     0.031 C 
ATOM     42  C   UNL A   1      44.982  27.859  27.768  1.00  0.00     0.029 A 
ATOM     43  C   UNL A   1      44.708  29.196  28.285  1.00  0.00     0.049 A 
ATOM     44  H   UNL A   1      42.849  30.022  28.733  1.00  0.00     0.167 HD
ATOM     45  C   UNL A   1      38.995  31.516  30.082  1.00  0.00     0.037 A 
ATOM     46  C   UNL A   1      45.641  30.133  28.537  1.00  0.00     0.037 A 
ATOM     47  C   UNL A   1      39.899  32.620  30.268  1.00  0.00     0.049 A 
ATOM     48  C   UNL A   1      45.213  31.488  29.022  1.00  0.00     0.074 A 
ATOM     49  C   UNL A   1      39.631  33.876  30.788  1.00  0.00     0.029 A 
ATOM     50  N   UNL A   1      41.252  32.590  29.976  1.00  0.00    -0.354 N 
ATOM     51  N   UNL A   1      44.023  31.896  29.386  1.00  0.00    -0.248 NA
ATOM     52  C   UNL A   1      46.256  32.524  29.100  1.00  0.00     0.031 C 
ATOM     53  C   UNL A   1      40.821  34.610  30.798  1.00  0.00     0.029 A 
ATOM     54  C   UNL A   1      41.834  33.804  30.306  1.00  0.00     0.049 A 
ATOM     55  H   UNL A   1      41.730  31.820  29.592  1.00  0.00     0.167 HD
ATOM     56  C   UNL A   1      44.172  33.234  29.730  1.00  0.00     0.074 A 
ATOM     57  C   UNL A   1      45.572  33.559  29.567  1.00  0.00     0.031 C 
ATOM     58  C   UNL A   1      43.227  34.117  30.133  1.00  0.00     0.037 A 
BRANCH  45  59
ATOM     59  C   UNL A   1      37.568  31.705  30.509  1.00  0.00     0.057 A 
ATOM     60  C   UNL A   1      37.152  31.481  31.826  1.00  0.00     0.134 A 
ATOM     61  C   UNL A   1      36.613  32.183  29.604  1.00  0.00     0.134 A 
ATOM     62  F   UNL A   1      38.014  31.022  32.743  1.00  0.00    -0.206 F 
ATOM     63  C   UNL A   1      35.835  31.711  32.227  1.00  0.00     0.040 A 
ATOM     64  C   UNL A   1      35.298  32.438  29.996  1.00  0.00     0.040 A 
ATOM     65  F   UNL A   1      36.949  32.433  28.329  1.00  0.00    -0.206 F 
ATOM     66  C   UNL A   1      34.905  32.198  31.311  1.00  0.00     0.006 A 
ENDBRANCH  45  59
BRANCH  46  67
ATOM     67  C   UNL A   1      47.080  29.842  28.306  1.00  0.00     0.057 A 
ATOM     68  C   UNL A   1      47.955  29.623  29.377  1.00  0.00     0.134 A 
ATOM     69  C   UNL A   1      47.621  29.802  27.015  1.00  0.00     0.134 A 
ATOM     70  F   UNL A   1      47.504  29.678  30.639  1.00  0.00    -0.206 F 
ATOM     71  C   UNL A   1      49.314  29.380  29.173  1.00  0.00     0.040 A 
ATOM     72  C   UNL A   1      48.972  29.531  26.794  1.00  0.00     0.040 A 
ATOM     73  F   UNL A   1      46.837  30.012  25.947  1.00  0.00    -0.206 F 
ATOM     74  C   UNL A   1      49.824  29.326  27.876  1.00  0.00     0.006 A 
ENDBRANCH  46  67
BRANCH  58  75
ATOM     75  C   UNL A   1      43.680  35.515  30.427  1.00  0.00     0.057 A 
ATOM     76  C   UNL A   1      43.648  36.514  29.446  1.00  0.00     0.134 A 
ATOM     77  C   UNL A   1      44.129  35.873  31.704  1.00  0.00     0.134 A 
ATOM     78  F   UNL A   1      43.243  36.229  28.199  1.00  0.00    -0.206 F 
ATOM     79  C   UNL A   1      44.061  37.819  29.721  1.00  0.00     0.040 A 
ATOM     80  C   UNL A   1      44.525  37.179  31.997  1.00  0.00     0.040 A 
ATOM     81  F   UNL A   1      44.179  34.962  32.688  1.00  0.00    -0.206 F 
ATOM     82  C   UNL A   1      44.497  38.155  31.003  1.00  0.00     0.006 A 
ENDBRANCH  58  75
ENDBRANCH  32  33
ENDBRANCH  25  27
ENDBRANCH  24  25
ENDBRANCH  23  24
ENDBRANCH   1  23
TORSDOF 15
ENDMDL
