MODEL 1
REMARK VINA RESULT:     -10.9      0.000      0.000
REMARK SMILES C[N@H+]1CCO[C@H](C[C@@H](NC(=O)OC(C)(C)C)C(=O)OCCOC(=O)c2ccc(-c3c4nc(c(-c5c(F)cccc5F)c5ccc([nH]5)c(-c5c(F)cccc5F)c5nc(c(-c6c(F)cccc6F)c6ccc3[nH]6)C=C5)C=C4)cc2)C1
REMARK SMILES IDX 20 1 19 2 17 3 18 4 8 5 7 6 6 7 1 8 2 9 3 10 79 11 4 13 5 14
REMARK SMILES IDX 9 15 10 16 11 18 12 19 13 20 14 21 15 22 16 23 21 24 22 25
REMARK SMILES IDX 23 26 24 27 25 28 26 29 78 30 27 31 77 32 28 33 29 34 30 35
REMARK SMILES IDX 71 36 31 37 76 38 70 39 72 40 32 41 75 42 69 43 68 44 33 46
REMARK SMILES IDX 59 47 42 48 58 49 43 50 46 51 57 52 73 53 44 54 45 55 56 57
REMARK SMILES IDX 74 58 47 59 34 60 35 61 40 62 36 63 37 64 39 65 41 66 38 67
REMARK SMILES IDX 60 68 61 69 66 70 62 71 63 72 65 73 67 74 64 75 48 76 49 77
REMARK SMILES IDX 54 78 50 79 51 80 53 81 55 82 52 83
REMARK H PARENT 2 12 9 17 72 45 46 56
REMARK Flexibility Score: inf
ROOT
ATOM      1  C   UNL A   1      32.549  29.527  24.741  1.00  0.00     0.274 C 
ENDROOT
BRANCH   1   2
ATOM      2  O   UNL A   1      32.719  28.166  25.184  1.00  0.00    -0.461 OA
BRANCH   2   3
ATOM      3  C   UNL A   1      31.574  27.458  25.396  1.00  0.00     0.328 C 
ATOM      4  O   UNL A   1      30.996  27.378  26.476  1.00  0.00    -0.250 OA
BRANCH   3   5
ATOM      5  C   UNL A   1      31.114  26.686  24.141  1.00  0.00     0.198 C 
BRANCH   5   6
ATOM      6  C   UNL A   1      29.668  27.030  23.744  1.00  0.00     0.075 C 
BRANCH   6   7
ATOM      7  C   UNL A   1      29.409  28.469  23.245  1.00  0.00     0.176 C 
ATOM      8  C   UNL A   1      27.653  31.086  23.538  1.00  0.00     0.332 C 
ATOM      9  N   UNL A   1      27.553  30.056  22.508  1.00  0.00    -0.333 N 
ATOM     10  C   UNL A   1      28.408  30.352  21.343  1.00  0.00     0.290 C 
ATOM     11  C   UNL A   1      27.889  28.714  23.028  1.00  0.00     0.294 C 
ATOM     12  H   UNL A   1      26.578  30.058  22.209  1.00  0.00     0.348 HD
ATOM     13  C   UNL A   1      29.903  30.079  21.580  1.00  0.00     0.222 C 
ATOM     14  O   UNL A   1      30.132  28.734  22.031  1.00  0.00    -0.366 OA
ENDBRANCH   6   7
ENDBRANCH   5   6
BRANCH   5  15
ATOM     15  N   UNL A   1      32.009  26.699  22.983  1.00  0.00    -0.308 N 
ATOM     16  C   UNL A   1      33.108  25.940  22.718  1.00  0.00     0.408 C 
ATOM     17  H   UNL A   1      31.782  27.359  22.289  1.00  0.00     0.168 HD
ATOM     18  O   UNL A   1      33.653  25.990  21.626  1.00  0.00    -0.225 OA
BRANCH  16  19
ATOM     19  O   UNL A   1      33.509  25.187  23.765  1.00  0.00    -0.444 OA
BRANCH  19  20
ATOM     20  C   UNL A   1      33.436  23.740  23.731  1.00  0.00     0.106 C 
ATOM     21  C   UNL A   1      32.172  23.256  23.015  1.00  0.00     0.056 C 
ATOM     22  C   UNL A   1      34.716  23.154  23.127  1.00  0.00     0.056 C 
ATOM     23  C   UNL A   1      33.349  23.300  25.200  1.00  0.00     0.056 C 
ENDBRANCH  19  20
ENDBRANCH  16  19
ENDBRANCH   5  15
ENDBRANCH   3   5
ENDBRANCH   2   3
ENDBRANCH   1   2
BRANCH   1  24
ATOM     24  C   UNL A   1      31.737  30.367  25.728  1.00  0.00     0.275 C 
BRANCH  24  25
ATOM     25  O   UNL A   1      32.375  30.423  27.016  1.00  0.00    -0.458 OA
BRANCH  25  26
ATOM     26  C   UNL A   1      33.065  31.562  27.251  1.00  0.00     0.338 C 
ATOM     27  O   UNL A   1      32.649  32.706  27.185  1.00  0.00    -0.246 OA
BRANCH  26  28
ATOM     28  C   UNL A   1      34.401  31.239  27.771  1.00  0.00     0.060 A 
ATOM     29  C   UNL A   1      34.666  29.906  28.099  1.00  0.00     0.016 A 
ATOM     30  C   UNL A   1      35.342  32.238  28.021  1.00  0.00     0.016 A 
ATOM     31  C   UNL A   1      35.870  29.562  28.700  1.00  0.00     0.010 A 
ATOM     32  C   UNL A   1      36.546  31.894  28.637  1.00  0.00     0.010 A 
ATOM     33  C   UNL A   1      36.802  30.559  29.002  1.00  0.00    -0.014 A 
BRANCH  33  34
ATOM     34  C   UNL A   1      37.986  30.221  29.818  1.00  0.00     0.031 A 
ATOM     35  C   UNL A   1      39.045  29.335  29.229  1.00  0.00     0.074 A 
ATOM     36  C   UNL A   1      38.125  30.729  31.054  1.00  0.00     0.049 A 
ATOM     37  N   UNL A   1      40.116  28.837  29.787  1.00  0.00    -0.248 NA
ATOM     38  C   UNL A   1      38.867  28.957  27.817  1.00  0.00     0.031 C 
ATOM     39  C   UNL A   1      37.190  31.653  31.697  1.00  0.00     0.029 A 
ATOM     40  N   UNL A   1      39.107  30.536  31.989  1.00  0.00    -0.354 N 
ATOM     41  C   UNL A   1      40.731  28.074  28.805  1.00  0.00     0.074 A 
ATOM     42  C   UNL A   1      39.903  28.154  27.621  1.00  0.00     0.031 C 
ATOM     43  C   UNL A   1      37.642  31.941  32.929  1.00  0.00     0.029 A 
ATOM     44  C   UNL A   1      38.869  31.187  33.173  1.00  0.00     0.049 A 
ATOM     45  H   UNL A   1      39.905  29.982  31.828  1.00  0.00     0.167 HD
ATOM     46  C   UNL A   1      41.887  27.372  28.885  1.00  0.00     0.037 A 
ATOM     47  C   UNL A   1      39.555  31.153  34.332  1.00  0.00     0.037 A 
ATOM     48  C   UNL A   1      42.704  27.307  30.067  1.00  0.00     0.049 A 
ATOM     49  C   UNL A   1      40.793  30.304  34.419  1.00  0.00     0.074 A 
ATOM     50  C   UNL A   1      43.892  26.624  30.260  1.00  0.00     0.029 A 
ATOM     51  N   UNL A   1      42.414  27.952  31.261  1.00  0.00    -0.354 N 
ATOM     52  N   UNL A   1      41.364  29.571  33.493  1.00  0.00    -0.248 NA
ATOM     53  C   UNL A   1      41.484  30.276  35.716  1.00  0.00     0.031 C 
ATOM     54  C   UNL A   1      44.298  26.821  31.584  1.00  0.00     0.029 A 
ATOM     55  C   UNL A   1      43.391  27.668  32.201  1.00  0.00     0.049 A 
ATOM     56  H   UNL A   1      41.630  28.527  31.417  1.00  0.00     0.167 HD
ATOM     57  C   UNL A   1      42.491  29.018  34.084  1.00  0.00     0.074 A 
ATOM     58  C   UNL A   1      42.532  29.510  35.446  1.00  0.00     0.031 C 
ATOM     59  C   UNL A   1      43.413  28.178  33.549  1.00  0.00     0.037 A 
BRANCH  46  60
ATOM     60  C   UNL A   1      42.306  26.594  27.672  1.00  0.00     0.057 A 
ATOM     61  C   UNL A   1      41.919  25.262  27.473  1.00  0.00     0.134 A 
ATOM     62  C   UNL A   1      43.101  27.189  26.683  1.00  0.00     0.134 A 
ATOM     63  F   UNL A   1      41.172  24.626  28.389  1.00  0.00    -0.206 F 
ATOM     64  C   UNL A   1      42.329  24.543  26.348  1.00  0.00     0.040 A 
ATOM     65  C   UNL A   1      43.494  26.488  25.542  1.00  0.00     0.040 A 
ATOM     66  F   UNL A   1      43.505  28.462  26.810  1.00  0.00    -0.206 F 
ATOM     67  C   UNL A   1      43.115  25.158  25.376  1.00  0.00     0.006 A 
ENDBRANCH  46  60
BRANCH  47  68
ATOM     68  C   UNL A   1      39.075  31.928  35.502  1.00  0.00     0.057 A 
ATOM     69  C   UNL A   1      39.454  33.262  35.692  1.00  0.00     0.134 A 
ATOM     70  C   UNL A   1      38.235  31.353  36.465  1.00  0.00     0.134 A 
ATOM     71  F   UNL A   1      40.275  33.861  34.818  1.00  0.00    -0.206 F 
ATOM     72  C   UNL A   1      39.028  33.992  36.803  1.00  0.00     0.040 A 
ATOM     73  C   UNL A   1      37.780  32.078  37.567  1.00  0.00     0.040 A 
ATOM     74  F   UNL A   1      37.837  30.078  36.341  1.00  0.00    -0.206 F 
ATOM     75  C   UNL A   1      38.183  33.400  37.742  1.00  0.00     0.006 A 
ENDBRANCH  47  68
BRANCH  59  76
ATOM     76  C   UNL A   1      44.562  27.777  34.427  1.00  0.00     0.057 A 
ATOM     77  C   UNL A   1      45.743  28.526  34.491  1.00  0.00     0.134 A 
ATOM     78  C   UNL A   1      44.470  26.642  35.242  1.00  0.00     0.134 A 
ATOM     79  F   UNL A   1      45.899  29.617  33.725  1.00  0.00    -0.206 F 
ATOM     80  C   UNL A   1      46.803  28.146  35.316  1.00  0.00     0.040 A 
ATOM     81  C   UNL A   1      45.511  26.268  36.092  1.00  0.00     0.040 A 
ATOM     82  F   UNL A   1      43.362  25.885  35.235  1.00  0.00    -0.206 F 
ATOM     83  C   UNL A   1      46.685  27.017  36.124  1.00  0.00     0.006 A 
ENDBRANCH  59  76
ENDBRANCH  33  34
ENDBRANCH  26  28
ENDBRANCH  25  26
ENDBRANCH  24  25
ENDBRANCH   1  24
TORSDOF 16
ENDMDL
MODEL 2
REMARK VINA RESULT:     -10.8      4.595      9.586
REMARK SMILES C[N@H+]1CCO[C@H](C[C@@H](NC(=O)OC(C)(C)C)C(=O)OCCOC(=O)c2ccc(-c3c4nc(c(-c5c(F)cccc5F)c5ccc([nH]5)c(-c5c(F)cccc5F)c5nc(c(-c6c(F)cccc6F)c6ccc3[nH]6)C=C5)C=C4)cc2)C1
REMARK SMILES IDX 20 1 19 2 17 3 18 4 8 5 7 6 6 7 1 8 2 9 3 10 79 11 4 13 5 14
REMARK SMILES IDX 9 15 10 16 11 18 12 19 13 20 14 21 15 22 16 23 21 24 22 25
REMARK SMILES IDX 23 26 24 27 25 28 26 29 78 30 27 31 77 32 28 33 29 34 30 35
REMARK SMILES IDX 71 36 31 37 76 38 70 39 72 40 32 41 75 42 69 43 68 44 33 46
REMARK SMILES IDX 59 47 42 48 58 49 43 50 46 51 57 52 73 53 44 54 45 55 56 57
REMARK SMILES IDX 74 58 47 59 34 60 35 61 40 62 36 63 37 64 39 65 41 66 38 67
REMARK SMILES IDX 60 68 61 69 66 70 62 71 63 72 65 73 67 74 64 75 48 76 49 77
REMARK SMILES IDX 54 78 50 79 51 80 53 81 55 82 52 83
REMARK H PARENT 2 12 9 17 72 45 46 56
REMARK Flexibility Score: inf
ROOT
ATOM      1  C   UNL A   1      36.063  20.344  25.021  1.00  0.00     0.274 C 
ENDROOT
BRANCH   1   2
ATOM      2  O   UNL A   1      35.100  21.398  24.825  1.00  0.00    -0.461 OA
BRANCH   2   3
ATOM      3  C   UNL A   1      34.157  21.536  25.800  1.00  0.00     0.328 C 
ATOM      4  O   UNL A   1      34.374  21.403  27.001  1.00  0.00    -0.250 OA
BRANCH   3   5
ATOM      5  C   UNL A   1      32.748  21.801  25.227  1.00  0.00     0.198 C 
BRANCH   5   6
ATOM      6  C   UNL A   1      32.346  20.759  24.170  1.00  0.00     0.075 C 
BRANCH   6   7
ATOM      7  C   UNL A   1      32.812  19.307  24.414  1.00  0.00     0.176 C 
ATOM      8  C   UNL A   1      34.173  16.731  23.176  1.00  0.00     0.332 C 
ATOM      9  N   UNL A   1      32.751  16.962  23.412  1.00  0.00    -0.333 N 
ATOM     10  C   UNL A   1      32.330  16.511  24.752  1.00  0.00     0.290 C 
ATOM     11  C   UNL A   1      32.382  18.383  23.240  1.00  0.00     0.294 C 
ATOM     12  H   UNL A   1      32.261  16.407  22.710  1.00  0.00     0.348 HD
ATOM     13  C   UNL A   1      32.750  17.455  25.890  1.00  0.00     0.222 C 
ATOM     14  O   UNL A   1      32.299  18.800  25.658  1.00  0.00    -0.366 OA
ENDBRANCH   6   7
ENDBRANCH   5   6
BRANCH   5  15
ATOM     15  N   UNL A   1      31.670  22.040  26.188  1.00  0.00    -0.308 N 
ATOM     16  C   UNL A   1      31.197  23.211  26.698  1.00  0.00     0.408 C 
ATOM     17  H   UNL A   1      31.219  21.230  26.516  1.00  0.00     0.168 HD
ATOM     18  O   UNL A   1      30.187  23.228  27.385  1.00  0.00    -0.225 OA
BRANCH  16  19
ATOM     19  O   UNL A   1      31.957  24.282  26.386  1.00  0.00    -0.444 OA
BRANCH  19  20
ATOM     20  C   UNL A   1      31.508  25.278  25.434  1.00  0.00     0.106 C 
ATOM     21  C   UNL A   1      30.662  24.654  24.321  1.00  0.00     0.056 C 
ATOM     22  C   UNL A   1      30.785  26.420  26.154  1.00  0.00     0.056 C 
ATOM     23  C   UNL A   1      32.789  25.842  24.798  1.00  0.00     0.056 C 
ENDBRANCH  19  20
ENDBRANCH  16  19
ENDBRANCH   5  15
ENDBRANCH   3   5
ENDBRANCH   2   3
ENDBRANCH   1   2
BRANCH   1  24
ATOM     24  C   UNL A   1      37.497  20.800  24.750  1.00  0.00     0.275 C 
BRANCH  24  25
ATOM     25  O   UNL A   1      37.947  21.733  25.748  1.00  0.00    -0.458 OA
BRANCH  25  26
ATOM     26  C   UNL A   1      39.180  21.477  26.239  1.00  0.00     0.338 C 
ATOM     27  O   UNL A   1      39.808  20.435  26.157  1.00  0.00    -0.246 OA
BRANCH  26  28
ATOM     28  C   UNL A   1      39.770  22.711  26.777  1.00  0.00     0.060 A 
ATOM     29  C   UNL A   1      39.340  23.927  26.237  1.00  0.00     0.016 A 
ATOM     30  C   UNL A   1      40.794  22.671  27.724  1.00  0.00     0.016 A 
ATOM     31  C   UNL A   1      39.944  25.116  26.625  1.00  0.00     0.010 A 
ATOM     32  C   UNL A   1      41.410  23.865  28.105  1.00  0.00     0.010 A 
ATOM     33  C   UNL A   1      41.004  25.087  27.536  1.00  0.00    -0.014 A 
BRANCH  33  34
ATOM     34  C   UNL A   1      41.772  26.322  27.792  1.00  0.00     0.031 A 
ATOM     35  C   UNL A   1      41.140  27.416  28.603  1.00  0.00     0.074 A 
ATOM     36  C   UNL A   1      43.029  26.446  27.335  1.00  0.00     0.049 A 
ATOM     37  N   UNL A   1      41.587  28.613  28.875  1.00  0.00    -0.248 NA
ATOM     38  C   UNL A   1      39.819  27.117  29.183  1.00  0.00     0.031 C 
ATOM     39  C   UNL A   1      43.763  25.419  26.595  1.00  0.00     0.029 A 
ATOM     40  N   UNL A   1      43.908  27.492  27.424  1.00  0.00    -0.354 N 
ATOM     41  C   UNL A   1      40.600  29.218  29.641  1.00  0.00     0.074 A 
ATOM     42  C   UNL A   1      39.518  28.265  29.771  1.00  0.00     0.031 C 
ATOM     43  C   UNL A   1      44.984  25.892  26.290  1.00  0.00     0.029 A 
ATOM     44  C   UNL A   1      45.096  27.265  26.774  1.00  0.00     0.049 A 
ATOM     45  H   UNL A   1      43.708  28.326  27.907  1.00  0.00     0.167 HD
ATOM     46  C   UNL A   1      40.600  30.456  30.188  1.00  0.00     0.037 A 
ATOM     47  C   UNL A   1      46.141  28.089  26.570  1.00  0.00     0.037 A 
ATOM     48  C   UNL A   1      41.686  31.391  30.055  1.00  0.00     0.049 A 
ATOM     49  C   UNL A   1      46.085  29.487  27.122  1.00  0.00     0.074 A 
ATOM     50  C   UNL A   1      41.791  32.673  30.566  1.00  0.00     0.029 A 
ATOM     51  N   UNL A   1      42.860  31.139  29.359  1.00  0.00    -0.354 N 
ATOM     52  N   UNL A   1      45.143  30.061  27.832  1.00  0.00    -0.248 NA
ATOM     53  C   UNL A   1      47.237  30.354  26.842  1.00  0.00     0.031 C 
ATOM     54  C   UNL A   1      43.010  33.212  30.141  1.00  0.00     0.029 A 
ATOM     55  C   UNL A   1      43.686  32.249  29.410  1.00  0.00     0.049 A 
ATOM     56  H   UNL A   1      43.073  30.296  28.897  1.00  0.00     0.167 HD
ATOM     57  C   UNL A   1      45.598  31.343  28.107  1.00  0.00     0.074 A 
ATOM     58  C   UNL A   1      46.908  31.459  27.497  1.00  0.00     0.031 C 
ATOM     59  C   UNL A   1      44.991  32.337  28.801  1.00  0.00     0.037 A 
BRANCH  46  60
ATOM     60  C   UNL A   1      39.373  30.876  30.943  1.00  0.00     0.057 A 
ATOM     61  C   UNL A   1      38.293  31.509  30.313  1.00  0.00     0.134 A 
ATOM     62  C   UNL A   1      39.266  30.636  32.319  1.00  0.00     0.134 A 
ATOM     63  F   UNL A   1      38.336  31.785  29.001  1.00  0.00    -0.206 F 
ATOM     64  C   UNL A   1      37.163  31.910  31.030  1.00  0.00     0.040 A 
ATOM     65  C   UNL A   1      38.131  31.008  33.040  1.00  0.00     0.040 A 
ATOM     66  F   UNL A   1      40.263  30.033  32.985  1.00  0.00    -0.206 F 
ATOM     67  C   UNL A   1      37.078  31.655  32.397  1.00  0.00     0.006 A 
ENDBRANCH  46  60
BRANCH  47  68
ATOM     68  C   UNL A   1      47.317  27.620  25.795  1.00  0.00     0.057 A 
ATOM     69  C   UNL A   1      47.332  27.679  24.397  1.00  0.00     0.134 A 
ATOM     70  C   UNL A   1      48.448  27.094  26.431  1.00  0.00     0.134 A 
ATOM     71  F   UNL A   1      46.270  28.151  23.729  1.00  0.00    -0.206 F 
ATOM     72  C   UNL A   1      48.424  27.218  23.658  1.00  0.00     0.040 A 
ATOM     73  C   UNL A   1      49.557  26.654  25.707  1.00  0.00     0.040 A 
ATOM     74  F   UNL A   1      48.496  27.010  27.769  1.00  0.00    -0.206 F 
ATOM     75  C   UNL A   1      49.543  26.709  24.315  1.00  0.00     0.006 A 
ENDBRANCH  47  68
BRANCH  59  76
ATOM     76  C   UNL A   1      45.756  33.616  28.973  1.00  0.00     0.057 A 
ATOM     77  C   UNL A   1      46.640  33.813  30.041  1.00  0.00     0.134 A 
ATOM     78  C   UNL A   1      45.626  34.652  28.040  1.00  0.00     0.134 A 
ATOM     79  F   UNL A   1      46.800  32.864  30.977  1.00  0.00    -0.206 F 
ATOM     80  C   UNL A   1      47.351  35.006  30.187  1.00  0.00     0.040 A 
ATOM     81  C   UNL A   1      46.352  35.837  28.160  1.00  0.00     0.040 A 
ATOM     82  F   UNL A   1      44.801  34.524  26.989  1.00  0.00    -0.206 F 
ATOM     83  C   UNL A   1      47.212  36.019  29.241  1.00  0.00     0.006 A 
ENDBRANCH  59  76
ENDBRANCH  33  34
ENDBRANCH  26  28
ENDBRANCH  25  26
ENDBRANCH  24  25
ENDBRANCH   1  24
TORSDOF 16
ENDMDL
MODEL 3
REMARK VINA RESULT:     -10.7      4.413      9.423
REMARK SMILES C[N@H+]1CCO[C@H](C[C@@H](NC(=O)OC(C)(C)C)C(=O)OCCOC(=O)c2ccc(-c3c4nc(c(-c5c(F)cccc5F)c5ccc([nH]5)c(-c5c(F)cccc5F)c5nc(c(-c6c(F)cccc6F)c6ccc3[nH]6)C=C5)C=C4)cc2)C1
REMARK SMILES IDX 20 1 19 2 17 3 18 4 8 5 7 6 6 7 1 8 2 9 3 10 79 11 4 13 5 14
REMARK SMILES IDX 9 15 10 16 11 18 12 19 13 20 14 21 15 22 16 23 21 24 22 25
REMARK SMILES IDX 23 26 24 27 25 28 26 29 78 30 27 31 77 32 28 33 29 34 30 35
REMARK SMILES IDX 71 36 31 37 76 38 70 39 72 40 32 41 75 42 69 43 68 44 33 46
REMARK SMILES IDX 59 47 42 48 58 49 43 50 46 51 57 52 73 53 44 54 45 55 56 57
REMARK SMILES IDX 74 58 47 59 34 60 35 61 40 62 36 63 37 64 39 65 41 66 38 67
REMARK SMILES IDX 60 68 61 69 66 70 62 71 63 72 65 73 67 74 64 75 48 76 49 77
REMARK SMILES IDX 54 78 50 79 51 80 53 81 55 82 52 83
REMARK H PARENT 2 12 9 17 72 45 46 56
REMARK Flexibility Score: inf
ROOT
ATOM      1  C   UNL A   1      35.537  20.642  25.400  1.00  0.00     0.274 C 
ENDROOT
BRANCH   1   2
ATOM      2  O   UNL A   1      34.903  21.936  25.433  1.00  0.00    -0.461 OA
BRANCH   2   3
ATOM      3  C   UNL A   1      34.310  22.341  24.274  1.00  0.00     0.328 C 
ATOM      4  O   UNL A   1      34.916  22.769  23.295  1.00  0.00    -0.250 OA
BRANCH   3   5
ATOM      5  C   UNL A   1      32.769  22.285  24.346  1.00  0.00     0.198 C 
BRANCH   5   6
ATOM      6  C   UNL A   1      32.195  21.074  23.592  1.00  0.00     0.075 C 
BRANCH   6   7
ATOM      7  C   UNL A   1      32.700  19.681  24.030  1.00  0.00     0.176 C 
ATOM      8  C   UNL A   1      34.029  16.954  23.126  1.00  0.00     0.332 C 
ATOM      9  N   UNL A   1      32.619  17.208  23.411  1.00  0.00    -0.333 N 
ATOM     10  C   UNL A   1      32.287  16.969  24.827  1.00  0.00     0.290 C 
ATOM     11  C   UNL A   1      32.217  18.582  23.043  1.00  0.00     0.294 C 
ATOM     12  H   UNL A   1      32.098  16.547  22.834  1.00  0.00     0.348 HD
ATOM     13  C   UNL A   1      32.759  18.082  25.776  1.00  0.00     0.222 C 
ATOM     14  O   UNL A   1      32.272  19.370  25.366  1.00  0.00    -0.366 OA
ENDBRANCH   6   7
ENDBRANCH   5   6
BRANCH   5  15
ATOM     15  N   UNL A   1      32.156  22.439  25.666  1.00  0.00    -0.308 N 
ATOM     16  C   UNL A   1      31.954  23.561  26.411  1.00  0.00     0.408 C 
ATOM     17  H   UNL A   1      31.842  21.604  26.079  1.00  0.00     0.168 HD
ATOM     18  O   UNL A   1      31.291  23.519  27.436  1.00  0.00    -0.225 OA
BRANCH  16  19
ATOM     19  O   UNL A   1      32.567  24.657  25.914  1.00  0.00    -0.444 OA
BRANCH  19  20
ATOM     20  C   UNL A   1      31.809  25.769  25.374  1.00  0.00     0.106 C 
ATOM     21  C   UNL A   1      30.522  25.297  24.693  1.00  0.00     0.056 C 
ATOM     22  C   UNL A   1      31.551  26.818  26.459  1.00  0.00     0.056 C 
ATOM     23  C   UNL A   1      32.713  26.397  24.301  1.00  0.00     0.056 C 
ENDBRANCH  19  20
ENDBRANCH  16  19
ENDBRANCH   5  15
ENDBRANCH   3   5
ENDBRANCH   2   3
ENDBRANCH   1   2
BRANCH   1  24
ATOM     24  C   UNL A   1      37.008  20.720  24.987  1.00  0.00     0.275 C 
BRANCH  24  25
ATOM     25  O   UNL A   1      37.677  21.814  25.639  1.00  0.00    -0.458 OA
BRANCH  25  26
ATOM     26  C   UNL A   1      38.912  21.519  26.104  1.00  0.00     0.338 C 
ATOM     27  O   UNL A   1      39.517  20.467  25.982  1.00  0.00    -0.246 OA
BRANCH  26  28
ATOM     28  C   UNL A   1      39.534  22.724  26.669  1.00  0.00     0.060 A 
ATOM     29  C   UNL A   1      39.099  23.965  26.195  1.00  0.00     0.016 A 
ATOM     30  C   UNL A   1      40.591  22.636  27.577  1.00  0.00     0.016 A 
ATOM     31  C   UNL A   1      39.729  25.131  26.608  1.00  0.00     0.010 A 
ATOM     32  C   UNL A   1      41.233  23.807  27.983  1.00  0.00     0.010 A 
ATOM     33  C   UNL A   1      40.821  25.055  27.479  1.00  0.00    -0.014 A 
BRANCH  33  34
ATOM     34  C   UNL A   1      41.612  26.271  27.756  1.00  0.00     0.031 A 
ATOM     35  C   UNL A   1      40.993  27.369  28.571  1.00  0.00     0.074 A 
ATOM     36  C   UNL A   1      42.876  26.373  27.314  1.00  0.00     0.049 A 
ATOM     37  N   UNL A   1      41.462  28.554  28.861  1.00  0.00    -0.248 NA
ATOM     38  C   UNL A   1      39.660  27.093  29.133  1.00  0.00     0.031 C 
ATOM     39  C   UNL A   1      43.597  25.339  26.572  1.00  0.00     0.029 A 
ATOM     40  N   UNL A   1      43.776  27.400  27.424  1.00  0.00    -0.354 N 
ATOM     41  C   UNL A   1      40.479  29.172  29.621  1.00  0.00     0.074 A 
ATOM     42  C   UNL A   1      39.376  28.241  29.730  1.00  0.00     0.031 C 
ATOM     43  C   UNL A   1      44.831  25.789  26.286  1.00  0.00     0.029 A 
ATOM     44  C   UNL A   1      44.966  27.155  26.785  1.00  0.00     0.049 A 
ATOM     45  H   UNL A   1      43.588  28.233  27.913  1.00  0.00     0.167 HD
ATOM     46  C   UNL A   1      40.498  30.405  30.182  1.00  0.00     0.037 A 
ATOM     47  C   UNL A   1      46.031  27.958  26.602  1.00  0.00     0.037 A 
ATOM     48  C   UNL A   1      41.605  31.317  30.071  1.00  0.00     0.049 A 
ATOM     49  C   UNL A   1      45.997  29.352  27.168  1.00  0.00     0.074 A 
ATOM     50  C   UNL A   1      41.730  32.591  30.596  1.00  0.00     0.029 A 
ATOM     51  N   UNL A   1      42.781  31.048  29.385  1.00  0.00    -0.354 N 
ATOM     52  N   UNL A   1      45.059  29.938  27.873  1.00  0.00    -0.248 NA
ATOM     53  C   UNL A   1      47.170  30.197  26.910  1.00  0.00     0.031 C 
ATOM     54  C   UNL A   1      42.965  33.110  30.190  1.00  0.00     0.029 A 
ATOM     55  C   UNL A   1      43.630  32.140  29.457  1.00  0.00     0.049 A 
ATOM     56  H   UNL A   1      42.983  30.206  28.917  1.00  0.00     0.167 HD
ATOM     57  C   UNL A   1      45.538  31.207  28.166  1.00  0.00     0.074 A 
ATOM     58  C   UNL A   1      46.857  31.302  27.573  1.00  0.00     0.031 C 
ATOM     59  C   UNL A   1      44.943  32.207  28.864  1.00  0.00     0.037 A 
BRANCH  46  60
ATOM     60  C   UNL A   1      39.271  30.842  30.927  1.00  0.00     0.057 A 
ATOM     61  C   UNL A   1      39.123  30.629  32.304  1.00  0.00     0.134 A 
ATOM     62  C   UNL A   1      38.227  31.495  30.259  1.00  0.00     0.134 A 
ATOM     63  F   UNL A   1      40.076  29.994  33.001  1.00  0.00    -0.206 F 
ATOM     64  C   UNL A   1      37.968  31.026  32.983  1.00  0.00     0.040 A 
ATOM     65  C   UNL A   1      37.081  31.920  30.932  1.00  0.00     0.040 A 
ATOM     66  F   UNL A   1      38.305  31.732  28.940  1.00  0.00    -0.206 F 
ATOM     67  C   UNL A   1      36.946  31.678  32.298  1.00  0.00     0.006 A 
ENDBRANCH  46  60
BRANCH  47  68
ATOM     68  C   UNL A   1      47.205  27.474  25.835  1.00  0.00     0.057 A 
ATOM     69  C   UNL A   1      48.294  26.878  26.480  1.00  0.00     0.134 A 
ATOM     70  C   UNL A   1      47.271  27.601  24.442  1.00  0.00     0.134 A 
ATOM     71  F   UNL A   1      48.301  26.748  27.815  1.00  0.00    -0.206 F 
ATOM     72  C   UNL A   1      49.414  26.441  25.770  1.00  0.00     0.040 A 
ATOM     73  C   UNL A   1      48.372  27.145  23.716  1.00  0.00     0.040 A 
ATOM     74  F   UNL A   1      46.259  28.164  23.765  1.00  0.00    -0.206 F 
ATOM     75  C   UNL A   1      49.452  26.569  24.383  1.00  0.00     0.006 A 
ENDBRANCH  47  68
BRANCH  59  76
ATOM     76  C   UNL A   1      45.732  33.468  29.058  1.00  0.00     0.057 A 
ATOM     77  C   UNL A   1      45.633  34.548  28.173  1.00  0.00     0.134 A 
ATOM     78  C   UNL A   1      46.580  33.612  30.163  1.00  0.00     0.134 A 
ATOM     79  F   UNL A   1      44.848  34.469  27.087  1.00  0.00    -0.206 F 
ATOM     80  C   UNL A   1      46.368  35.719  28.367  1.00  0.00     0.040 A 
ATOM     81  C   UNL A   1      47.298  34.787  30.383  1.00  0.00     0.040 A 
ATOM     82  F   UNL A   1      46.714  32.617  31.055  1.00  0.00    -0.206 F 
ATOM     83  C   UNL A   1      47.199  35.842  29.479  1.00  0.00     0.006 A 
ENDBRANCH  59  76
ENDBRANCH  33  34
ENDBRANCH  26  28
ENDBRANCH  25  26
ENDBRANCH  24  25
ENDBRANCH   1  24
TORSDOF 16
ENDMDL
