MODEL 1
REMARK VINA RESULT:     -11.6      0.000      0.000
REMARK SMILES O=C(OCCOC(=O)c1ccc(-c2c3nc(c(-c4c(F)cccc4F)c4ccc([nH]4)c(-c4c(F)cccc4F)c4nc(c(-c5c(F)cccc5F)c5ccc2[nH]5)C=C4)C=C3)cc1)c1ccc(CNC(=O)c2ccccc2I)cc1
REMARK SMILES IDX 4 1 3 2 2 3 1 4 63 5 64 6 79 7 65 8 78 9 66 10 67 11 68 12
REMARK SMILES IDX 69 13 70 15 71 16 72 17 76 18 73 19 75 20 77 21 74 22 5 23
REMARK SMILES IDX 6 24 7 25 8 26 9 27 10 28 62 29 11 30 61 31 12 32 13 33
REMARK SMILES IDX 14 34 55 35 15 36 60 37 54 38 56 39 16 40 59 41 53 42 52 43
REMARK SMILES IDX 17 45 43 46 26 47 42 48 27 49 30 50 41 51 57 52 28 53 29 54
REMARK SMILES IDX 40 56 58 57 31 58 18 59 19 60 24 61 20 62 21 63 23 64 25 65
REMARK SMILES IDX 22 66 44 67 45 68 50 69 46 70 47 71 49 72 51 73 48 74 32 75
REMARK SMILES IDX 33 76 38 77 34 78 35 79 37 80 39 81 36 82
REMARK H PARENT 68 14 56 44 30 55
REMARK Flexibility Score: inf
ROOT
ATOM      1  C   UNL A   1      42.990  21.424  26.081  1.00  0.00     0.275 C 
ENDROOT
BRANCH   1   2
ATOM      2  O   UNL A   1      41.588  21.471  25.763  1.00  0.00    -0.458 OA
BRANCH   2   3
ATOM      3  C   UNL A   1      40.505  21.578  26.567  1.00  0.00     0.338 C 
ATOM      4  O   UNL A   1      40.576  21.076  27.690  1.00  0.00    -0.246 OA
BRANCH   3   5
ATOM      5  C   UNL A   1      39.179  22.158  26.156  1.00  0.00     0.060 A 
ATOM      6  C   UNL A   1      38.161  21.515  25.449  1.00  0.00     0.016 A 
ATOM      7  C   UNL A   1      38.921  23.475  26.584  1.00  0.00     0.016 A 
ATOM      8  C   UNL A   1      36.904  22.107  25.277  1.00  0.00     0.006 A 
ATOM      9  C   UNL A   1      37.678  24.086  26.379  1.00  0.00     0.006 A 
ATOM     10  C   UNL A   1      36.639  23.386  25.765  1.00  0.00    -0.029 A 
BRANCH  10  11
ATOM     11  C   UNL A   1      35.241  23.948  25.726  1.00  0.00     0.152 C 
BRANCH  11  12
ATOM     12  N   UNL A   1      34.933  24.529  24.436  1.00  0.00    -0.348 N 
ATOM     13  C   UNL A   1      34.096  25.562  24.108  1.00  0.00     0.252 C 
ATOM     14  H   UNL A   1      35.398  24.116  23.673  1.00  0.00     0.164 HD
ATOM     15  O   UNL A   1      33.882  25.817  22.925  1.00  0.00    -0.269 OA
BRANCH  13  16
ATOM     16  C   UNL A   1      33.363  26.324  25.142  1.00  0.00     0.053 A 
ATOM     17  C   UNL A   1      34.055  27.419  25.692  1.00  0.00     0.015 A 
ATOM     18  C   UNL A   1      32.118  25.962  25.675  1.00  0.00     0.026 A 
ATOM     19  C   UNL A   1      33.498  28.169  26.729  1.00  0.00     0.001 A 
ATOM     20  C   UNL A   1      31.551  26.738  26.698  1.00  0.00     0.015 A 
ATOM     21  I   UNL A   1      31.068  24.227  25.135  1.00  0.00    -0.043 I 
ATOM     22  C   UNL A   1      32.239  27.835  27.222  1.00  0.00     0.001 A 
ENDBRANCH  13  16
ENDBRANCH  11  12
ENDBRANCH  10  11
ENDBRANCH   3   5
ENDBRANCH   2   3
ENDBRANCH   1   2
BRANCH   1  23
ATOM     23  C   UNL A   1      43.866  22.122  25.034  1.00  0.00     0.275 C 
BRANCH  23  24
ATOM     24  O   UNL A   1      43.362  23.420  24.672  1.00  0.00    -0.458 OA
BRANCH  24  25
ATOM     25  C   UNL A   1      44.131  24.467  25.069  1.00  0.00     0.338 C 
ATOM     26  O   UNL A   1      45.222  24.774  24.615  1.00  0.00    -0.246 OA
BRANCH  25  27
ATOM     27  C   UNL A   1      43.421  25.292  26.078  1.00  0.00     0.060 A 
ATOM     28  C   UNL A   1      43.959  26.548  26.384  1.00  0.00     0.016 A 
ATOM     29  C   UNL A   1      42.267  24.856  26.737  1.00  0.00     0.016 A 
ATOM     30  C   UNL A   1      43.374  27.350  27.368  1.00  0.00     0.010 A 
ATOM     31  C   UNL A   1      41.673  25.666  27.717  1.00  0.00     0.010 A 
ATOM     32  C   UNL A   1      42.238  26.908  28.061  1.00  0.00    -0.014 A 
BRANCH  32  33
ATOM     33  C   UNL A   1      41.718  27.693  29.215  1.00  0.00     0.031 A 
ATOM     34  C   UNL A   1      42.402  27.593  30.550  1.00  0.00     0.074 A 
ATOM     35  C   UNL A   1      40.663  28.519  29.085  1.00  0.00     0.049 A 
ATOM     36  N   UNL A   1      42.137  28.227  31.664  1.00  0.00    -0.248 NA
ATOM     37  C   UNL A   1      43.536  26.662  30.639  1.00  0.00     0.031 C 
ATOM     38  C   UNL A   1      39.924  28.753  27.850  1.00  0.00     0.029 A 
ATOM     39  N   UNL A   1      40.030  29.316  30.008  1.00  0.00    -0.354 N 
ATOM     40  C   UNL A   1      43.083  27.788  32.582  1.00  0.00     0.074 A 
ATOM     41  C   UNL A   1      43.888  26.789  31.910  1.00  0.00     0.031 C 
ATOM     42  C   UNL A   1      38.922  29.615  28.092  1.00  0.00     0.029 A 
ATOM     43  C   UNL A   1      38.953  30.001  29.500  1.00  0.00     0.049 A 
ATOM     44  H   UNL A   1      40.322  29.389  30.946  1.00  0.00     0.167 HD
ATOM     45  C   UNL A   1      43.284  28.196  33.857  1.00  0.00     0.037 A 
ATOM     46  C   UNL A   1      38.095  30.851  30.097  1.00  0.00     0.037 A 
ATOM     47  C   UNL A   1      42.494  29.185  34.541  1.00  0.00     0.049 A 
ATOM     48  C   UNL A   1      38.283  31.222  31.545  1.00  0.00     0.074 A 
ATOM     49  C   UNL A   1      42.659  29.681  35.824  1.00  0.00     0.029 A 
ATOM     50  N   UNL A   1      41.385  29.821  34.008  1.00  0.00    -0.354 N 
ATOM     51  N   UNL A   1      39.223  30.850  32.378  1.00  0.00    -0.248 NA
ATOM     52  C   UNL A   1      37.297  32.146  32.128  1.00  0.00     0.031 C 
ATOM     53  C   UNL A   1      41.618  30.580  36.085  1.00  0.00     0.029 A 
ATOM     54  C   UNL A   1      40.834  30.678  34.948  1.00  0.00     0.049 A 
ATOM     55  H   UNL A   1      41.039  29.684  33.096  1.00  0.00     0.167 HD
ATOM     56  C   UNL A   1      38.968  31.527  33.566  1.00  0.00     0.074 A 
ATOM     57  C   UNL A   1      37.784  32.330  33.347  1.00  0.00     0.031 C 
ATOM     58  C   UNL A   1      39.661  31.486  34.730  1.00  0.00     0.037 A 
BRANCH  45  59
ATOM     59  C   UNL A   1      44.415  27.554  34.603  1.00  0.00     0.057 A 
ATOM     60  C   UNL A   1      45.702  28.108  34.606  1.00  0.00     0.134 A 
ATOM     61  C   UNL A   1      44.211  26.382  35.340  1.00  0.00     0.134 A 
ATOM     62  F   UNL A   1      45.963  29.224  33.908  1.00  0.00    -0.206 F 
ATOM     63  C   UNL A   1      46.753  27.503  35.295  1.00  0.00     0.040 A 
ATOM     64  C   UNL A   1      45.249  25.781  36.053  1.00  0.00     0.040 A 
ATOM     65  F   UNL A   1      43.001  25.804  35.381  1.00  0.00    -0.206 F 
ATOM     66  C   UNL A   1      46.526  26.338  36.025  1.00  0.00     0.006 A 
ENDBRANCH  45  59
BRANCH  46  67
ATOM     67  C   UNL A   1      36.976  31.444  29.322  1.00  0.00     0.057 A 
ATOM     68  C   UNL A   1      35.823  30.706  29.035  1.00  0.00     0.134 A 
ATOM     69  C   UNL A   1      37.054  32.747  28.817  1.00  0.00     0.134 A 
ATOM     70  F   UNL A   1      35.703  29.444  29.473  1.00  0.00    -0.206 F 
ATOM     71  C   UNL A   1      34.794  31.234  28.255  1.00  0.00     0.040 A 
ATOM     72  C   UNL A   1      36.023  33.295  28.052  1.00  0.00     0.040 A 
ATOM     73  F   UNL A   1      38.134  33.504  29.060  1.00  0.00    -0.206 F 
ATOM     74  C   UNL A   1      34.892  32.535  27.763  1.00  0.00     0.006 A 
ENDBRANCH  46  67
BRANCH  58  75
ATOM     75  C   UNL A   1      39.188  32.364  35.854  1.00  0.00     0.057 A 
ATOM     76  C   UNL A   1      38.316  31.896  36.844  1.00  0.00     0.134 A 
ATOM     77  C   UNL A   1      39.649  33.682  35.972  1.00  0.00     0.134 A 
ATOM     78  F   UNL A   1      37.828  30.647  36.784  1.00  0.00    -0.206 F 
ATOM     79  C   UNL A   1      37.906  32.710  37.902  1.00  0.00     0.040 A 
ATOM     80  C   UNL A   1      39.266  34.499  37.038  1.00  0.00     0.040 A 
ATOM     81  F   UNL A   1      40.492  34.193  35.063  1.00  0.00    -0.206 F 
ATOM     82  C   UNL A   1      38.387  34.014  38.004  1.00  0.00     0.006 A 
ENDBRANCH  58  75
ENDBRANCH  32  33
ENDBRANCH  25  27
ENDBRANCH  24  25
ENDBRANCH  23  24
ENDBRANCH   1  23
TORSDOF 14
ENDMDL
MODEL 2
REMARK VINA RESULT:     -11.5      1.366      2.307
REMARK SMILES O=C(OCCOC(=O)c1ccc(-c2c3nc(c(-c4c(F)cccc4F)c4ccc([nH]4)c(-c4c(F)cccc4F)c4nc(c(-c5c(F)cccc5F)c5ccc2[nH]5)C=C4)C=C3)cc1)c1ccc(CNC(=O)c2ccccc2I)cc1
REMARK SMILES IDX 4 1 3 2 2 3 1 4 63 5 64 6 79 7 65 8 78 9 66 10 67 11 68 12
REMARK SMILES IDX 69 13 70 15 71 16 72 17 76 18 73 19 75 20 77 21 74 22 5 23
REMARK SMILES IDX 6 24 7 25 8 26 9 27 10 28 62 29 11 30 61 31 12 32 13 33
REMARK SMILES IDX 14 34 55 35 15 36 60 37 54 38 56 39 16 40 59 41 53 42 52 43
REMARK SMILES IDX 17 45 43 46 26 47 42 48 27 49 30 50 41 51 57 52 28 53 29 54
REMARK SMILES IDX 40 56 58 57 31 58 18 59 19 60 24 61 20 62 21 63 23 64 25 65
REMARK SMILES IDX 22 66 44 67 45 68 50 69 46 70 47 71 49 72 51 73 48 74 32 75
REMARK SMILES IDX 33 76 38 77 34 78 35 79 37 80 39 81 36 82
REMARK H PARENT 68 14 56 44 30 55
REMARK Flexibility Score: inf
ROOT
ATOM      1  C   UNL A   1      43.040  21.088  25.747  1.00  0.00     0.275 C 
ENDROOT
BRANCH   1   2
ATOM      2  O   UNL A   1      41.710  21.630  25.664  1.00  0.00    -0.458 OA
BRANCH   2   3
ATOM      3  C   UNL A   1      40.532  21.151  26.126  1.00  0.00     0.338 C 
ATOM      4  O   UNL A   1      40.510  19.991  26.540  1.00  0.00    -0.246 OA
BRANCH   3   5
ATOM      5  C   UNL A   1      39.218  21.882  26.064  1.00  0.00     0.060 A 
ATOM      6  C   UNL A   1      38.959  23.187  26.489  1.00  0.00     0.016 A 
ATOM      7  C   UNL A   1      38.153  21.187  25.459  1.00  0.00     0.016 A 
ATOM      8  C   UNL A   1      37.737  23.814  26.221  1.00  0.00     0.006 A 
ATOM      9  C   UNL A   1      36.915  21.799  25.224  1.00  0.00     0.006 A 
ATOM     10  C   UNL A   1      36.712  23.138  25.560  1.00  0.00    -0.029 A 
BRANCH  10  11
ATOM     11  C   UNL A   1      35.466  23.866  25.126  1.00  0.00     0.152 C 
BRANCH  11  12
ATOM     12  N   UNL A   1      34.452  23.856  26.160  1.00  0.00    -0.348 N 
ATOM     13  C   UNL A   1      33.339  23.071  26.299  1.00  0.00     0.252 C 
ATOM     14  H   UNL A   1      34.582  24.519  26.875  1.00  0.00     0.164 HD
ATOM     15  O   UNL A   1      32.533  23.313  27.195  1.00  0.00    -0.269 OA
BRANCH  13  16
ATOM     16  C   UNL A   1      33.027  21.990  25.338  1.00  0.00     0.053 A 
ATOM     17  C   UNL A   1      33.584  20.734  25.637  1.00  0.00     0.015 A 
ATOM     18  C   UNL A   1      32.339  22.165  24.129  1.00  0.00     0.026 A 
ATOM     19  C   UNL A   1      33.424  19.655  24.766  1.00  0.00     0.001 A 
ATOM     20  C   UNL A   1      32.157  21.068  23.272  1.00  0.00     0.015 A 
ATOM     21  I   UNL A   1      31.655  24.019  23.423  1.00  0.00    -0.043 I 
ATOM     22  C   UNL A   1      32.698  19.820  23.590  1.00  0.00     0.001 A 
ENDBRANCH  13  16
ENDBRANCH  11  12
ENDBRANCH  10  11
ENDBRANCH   3   5
ENDBRANCH   2   3
ENDBRANCH   1   2
BRANCH   1  23
ATOM     23  C   UNL A   1      44.108  22.031  25.182  1.00  0.00     0.275 C 
BRANCH  23  24
ATOM     24  O   UNL A   1      43.558  23.287  24.745  1.00  0.00    -0.458 OA
BRANCH  24  25
ATOM     25  C   UNL A   1      44.277  24.384  25.099  1.00  0.00     0.338 C 
ATOM     26  O   UNL A   1      45.336  24.741  24.609  1.00  0.00    -0.246 OA
BRANCH  25  27
ATOM     27  C   UNL A   1      43.547  25.192  26.108  1.00  0.00     0.060 A 
ATOM     28  C   UNL A   1      43.994  26.499  26.339  1.00  0.00     0.016 A 
ATOM     29  C   UNL A   1      42.462  24.693  26.837  1.00  0.00     0.016 A 
ATOM     30  C   UNL A   1      43.389  27.291  27.319  1.00  0.00     0.010 A 
ATOM     31  C   UNL A   1      41.848  25.494  27.812  1.00  0.00     0.010 A 
ATOM     32  C   UNL A   1      42.325  26.790  28.081  1.00  0.00    -0.014 A 
BRANCH  32  33
ATOM     33  C   UNL A   1      41.794  27.579  29.227  1.00  0.00     0.031 A 
ATOM     34  C   UNL A   1      42.463  27.481  30.570  1.00  0.00     0.074 A 
ATOM     35  C   UNL A   1      40.741  28.406  29.084  1.00  0.00     0.049 A 
ATOM     36  N   UNL A   1      42.188  28.119  31.680  1.00  0.00    -0.248 NA
ATOM     37  C   UNL A   1      43.595  26.549  30.674  1.00  0.00     0.031 C 
ATOM     38  C   UNL A   1      40.015  28.637  27.841  1.00  0.00     0.029 A 
ATOM     39  N   UNL A   1      40.100  29.206  29.999  1.00  0.00    -0.354 N 
ATOM     40  C   UNL A   1      43.123  27.681  32.608  1.00  0.00     0.074 A 
ATOM     41  C   UNL A   1      43.934  26.680  31.947  1.00  0.00     0.031 C 
ATOM     42  C   UNL A   1      39.012  29.501  28.070  1.00  0.00     0.029 A 
ATOM     43  C   UNL A   1      39.029  29.892  29.478  1.00  0.00     0.049 A 
ATOM     44  H   UNL A   1      40.382  29.282  30.939  1.00  0.00     0.167 HD
ATOM     45  C   UNL A   1      43.312  28.092  33.884  1.00  0.00     0.037 A 
ATOM     46  C   UNL A   1      38.166  30.744  30.064  1.00  0.00     0.037 A 
ATOM     47  C   UNL A   1      42.516  29.084  34.558  1.00  0.00     0.049 A 
ATOM     48  C   UNL A   1      38.340  31.118  31.513  1.00  0.00     0.074 A 
ATOM     49  C   UNL A   1      42.669  29.584  35.840  1.00  0.00     0.029 A 
ATOM     50  N   UNL A   1      41.414  29.720  34.012  1.00  0.00    -0.354 N 
ATOM     51  N   UNL A   1      39.270  30.748  32.356  1.00  0.00    -0.248 NA
ATOM     52  C   UNL A   1      37.349  32.045  32.083  1.00  0.00     0.031 C 
ATOM     53  C   UNL A   1      41.627  30.484  36.089  1.00  0.00     0.029 A 
ATOM     54  C   UNL A   1      40.854  30.580  34.943  1.00  0.00     0.049 A 
ATOM     55  H   UNL A   1      41.077  29.581  33.096  1.00  0.00     0.167 HD
ATOM     56  C   UNL A   1      39.003  31.428  33.540  1.00  0.00     0.074 A 
ATOM     57  C   UNL A   1      37.824  32.232  33.307  1.00  0.00     0.031 C 
ATOM     58  C   UNL A   1      39.685  31.390  34.711  1.00  0.00     0.037 A 
BRANCH  45  59
ATOM     59  C   UNL A   1      44.434  27.451  34.643  1.00  0.00     0.057 A 
ATOM     60  C   UNL A   1      45.724  27.998  34.650  1.00  0.00     0.134 A 
ATOM     61  C   UNL A   1      44.219  26.287  35.390  1.00  0.00     0.134 A 
ATOM     62  F   UNL A   1      45.996  29.105  33.943  1.00  0.00    -0.206 F 
ATOM     63  C   UNL A   1      46.768  27.393  35.351  1.00  0.00     0.040 A 
ATOM     64  C   UNL A   1      45.248  25.687  36.115  1.00  0.00     0.040 A 
ATOM     65  F   UNL A   1      43.005  25.717  35.428  1.00  0.00    -0.206 F 
ATOM     66  C   UNL A   1      46.529  26.236  36.090  1.00  0.00     0.006 A 
ENDBRANCH  45  59
BRANCH  46  67
ATOM     67  C   UNL A   1      37.056  31.336  29.276  1.00  0.00     0.057 A 
ATOM     68  C   UNL A   1      35.910  30.595  28.969  1.00  0.00     0.134 A 
ATOM     69  C   UNL A   1      37.136  32.642  28.778  1.00  0.00     0.134 A 
ATOM     70  F   UNL A   1      35.789  29.331  29.399  1.00  0.00    -0.206 F 
ATOM     71  C   UNL A   1      34.890  31.124  28.177  1.00  0.00     0.040 A 
ATOM     72  C   UNL A   1      36.114  33.190  28.001  1.00  0.00     0.040 A 
ATOM     73  F   UNL A   1      38.209  33.402  29.040  1.00  0.00    -0.206 F 
ATOM     74  C   UNL A   1      34.990  32.426  27.692  1.00  0.00     0.006 A 
ENDBRANCH  46  67
BRANCH  58  75
ATOM     75  C   UNL A   1      39.202  32.271  35.828  1.00  0.00     0.057 A 
ATOM     76  C   UNL A   1      39.638  33.594  35.971  1.00  0.00     0.134 A 
ATOM     77  C   UNL A   1      38.252  31.803  36.745  1.00  0.00     0.134 A 
ATOM     78  F   UNL A   1      40.556  34.101  35.133  1.00  0.00    -0.206 F 
ATOM     79  C   UNL A   1      39.160  34.414  36.994  1.00  0.00     0.040 A 
ATOM     80  C   UNL A   1      37.748  32.621  37.759  1.00  0.00     0.040 A 
ATOM     81  F   UNL A   1      37.785  30.548  36.663  1.00  0.00    -0.206 F 
ATOM     82  C   UNL A   1      38.207  33.930  37.888  1.00  0.00     0.006 A 
ENDBRANCH  58  75
ENDBRANCH  32  33
ENDBRANCH  25  27
ENDBRANCH  24  25
ENDBRANCH  23  24
ENDBRANCH   1  23
TORSDOF 14
ENDMDL
MODEL 3
REMARK VINA RESULT:     -11.4      0.274      1.633
REMARK SMILES O=C(OCCOC(=O)c1ccc(-c2c3nc(c(-c4c(F)cccc4F)c4ccc([nH]4)c(-c4c(F)cccc4F)c4nc(c(-c5c(F)cccc5F)c5ccc2[nH]5)C=C4)C=C3)cc1)c1ccc(CNC(=O)c2ccccc2I)cc1
REMARK SMILES IDX 4 1 3 2 2 3 1 4 63 5 64 6 79 7 65 8 78 9 66 10 67 11 68 12
REMARK SMILES IDX 69 13 70 15 71 16 72 17 76 18 73 19 75 20 77 21 74 22 5 23
REMARK SMILES IDX 6 24 7 25 8 26 9 27 10 28 62 29 11 30 61 31 12 32 13 33
REMARK SMILES IDX 14 34 55 35 15 36 60 37 54 38 56 39 16 40 59 41 53 42 52 43
REMARK SMILES IDX 17 45 43 46 26 47 42 48 27 49 30 50 41 51 57 52 28 53 29 54
REMARK SMILES IDX 40 56 58 57 31 58 18 59 19 60 24 61 20 62 21 63 23 64 25 65
REMARK SMILES IDX 22 66 44 67 45 68 50 69 46 70 47 71 49 72 51 73 48 74 32 75
REMARK SMILES IDX 33 76 38 77 34 78 35 79 37 80 39 81 36 82
REMARK H PARENT 68 14 56 44 30 55
REMARK Flexibility Score: inf
ROOT
ATOM      1  C   UNL A   1      42.854  20.919  25.777  1.00  0.00     0.275 C 
ENDROOT
BRANCH   1   2
ATOM      2  O   UNL A   1      41.646  21.582  26.192  1.00  0.00    -0.458 OA
BRANCH   2   3
ATOM      3  C   UNL A   1      40.382  21.115  26.313  1.00  0.00     0.338 C 
ATOM      4  O   UNL A   1      40.237  19.931  26.623  1.00  0.00    -0.246 OA
BRANCH   3   5
ATOM      5  C   UNL A   1      39.139  21.895  25.983  1.00  0.00     0.060 A 
ATOM      6  C   UNL A   1      38.062  21.473  25.201  1.00  0.00     0.016 A 
ATOM      7  C   UNL A   1      39.032  23.167  26.577  1.00  0.00     0.016 A 
ATOM      8  C   UNL A   1      36.886  22.226  25.109  1.00  0.00     0.006 A 
ATOM      9  C   UNL A   1      37.872  23.942  26.454  1.00  0.00     0.006 A 
ATOM     10  C   UNL A   1      36.766  23.455  25.757  1.00  0.00    -0.029 A 
BRANCH  10  11
ATOM     11  C   UNL A   1      35.445  24.179  25.794  1.00  0.00     0.152 C 
BRANCH  11  12
ATOM     12  N   UNL A   1      35.024  24.592  24.471  1.00  0.00    -0.348 N 
ATOM     13  C   UNL A   1      34.059  25.485  24.090  1.00  0.00     0.252 C 
ATOM     14  H   UNL A   1      35.507  24.164  23.729  1.00  0.00     0.164 HD
ATOM     15  O   UNL A   1      33.773  25.598  22.900  1.00  0.00    -0.269 OA
BRANCH  13  16
ATOM     16  C   UNL A   1      33.277  26.255  25.083  1.00  0.00     0.053 A 
ATOM     17  C   UNL A   1      33.846  27.477  25.485  1.00  0.00     0.015 A 
ATOM     18  C   UNL A   1      32.112  25.799  25.715  1.00  0.00     0.026 A 
ATOM     19  C   UNL A   1      33.240  28.256  26.473  1.00  0.00     0.001 A 
ATOM     20  C   UNL A   1      31.493  26.602  26.686  1.00  0.00     0.015 A 
ATOM     21  I   UNL A   1      31.271  23.901  25.404  1.00  0.00    -0.043 I 
ATOM     22  C   UNL A   1      32.057  27.823  27.063  1.00  0.00     0.001 A 
ENDBRANCH  13  16
ENDBRANCH  11  12
ENDBRANCH  10  11
ENDBRANCH   3   5
ENDBRANCH   2   3
ENDBRANCH   1   2
BRANCH   1  23
ATOM     23  C   UNL A   1      43.942  21.894  25.313  1.00  0.00     0.275 C 
BRANCH  23  24
ATOM     24  O   UNL A   1      43.399  23.130  24.816  1.00  0.00    -0.458 OA
BRANCH  24  25
ATOM     25  C   UNL A   1      44.134  24.236  25.099  1.00  0.00     0.338 C 
ATOM     26  O   UNL A   1      45.182  24.563  24.564  1.00  0.00    -0.246 OA
BRANCH  25  27
ATOM     27  C   UNL A   1      43.438  25.096  26.089  1.00  0.00     0.060 A 
ATOM     28  C   UNL A   1      44.038  26.315  26.426  1.00  0.00     0.016 A 
ATOM     29  C   UNL A   1      42.236  24.724  26.701  1.00  0.00     0.016 A 
ATOM     30  C   UNL A   1      43.466  27.142  27.397  1.00  0.00     0.010 A 
ATOM     31  C   UNL A   1      41.656  25.561  27.667  1.00  0.00     0.010 A 
ATOM     32  C   UNL A   1      42.281  26.764  28.043  1.00  0.00    -0.014 A 
BRANCH  32  33
ATOM     33  C   UNL A   1      41.766  27.570  29.185  1.00  0.00     0.031 A 
ATOM     34  C   UNL A   1      42.448  27.484  30.522  1.00  0.00     0.074 A 
ATOM     35  C   UNL A   1      40.718  28.402  29.042  1.00  0.00     0.049 A 
ATOM     36  N   UNL A   1      42.187  28.136  31.627  1.00  0.00    -0.248 NA
ATOM     37  C   UNL A   1      43.575  26.545  30.626  1.00  0.00     0.031 C 
ATOM     38  C   UNL A   1      39.981  28.624  27.803  1.00  0.00     0.029 A 
ATOM     39  N   UNL A   1      40.091  29.218  29.953  1.00  0.00    -0.354 N 
ATOM     40  C   UNL A   1      43.129  27.703  32.551  1.00  0.00     0.074 A 
ATOM     41  C   UNL A   1      43.927  26.688  31.895  1.00  0.00     0.031 C 
ATOM     42  C   UNL A   1      38.987  29.497  28.032  1.00  0.00     0.029 A 
ATOM     43  C   UNL A   1      39.019  29.904  29.435  1.00  0.00     0.049 A 
ATOM     44  H   UNL A   1      40.383  29.302  30.890  1.00  0.00     0.167 HD
ATOM     45  C   UNL A   1      43.333  28.128  33.821  1.00  0.00     0.037 A 
ATOM     46  C   UNL A   1      38.168  30.770  30.019  1.00  0.00     0.037 A 
ATOM     47  C   UNL A   1      42.550  29.133  34.490  1.00  0.00     0.049 A 
ATOM     48  C   UNL A   1      38.358  31.159  31.461  1.00  0.00     0.074 A 
ATOM     49  C   UNL A   1      42.718  29.647  35.765  1.00  0.00     0.029 A 
ATOM     50  N   UNL A   1      41.447  29.770  33.947  1.00  0.00    -0.354 N 
ATOM     51  N   UNL A   1      39.294  30.793  32.300  1.00  0.00    -0.248 NA
ATOM     52  C   UNL A   1      37.379  32.100  32.029  1.00  0.00     0.031 C 
ATOM     53  C   UNL A   1      41.685  30.557  36.012  1.00  0.00     0.029 A 
ATOM     54  C   UNL A   1      40.902  30.645  34.873  1.00  0.00     0.049 A 
ATOM     55  H   UNL A   1      41.101  29.623  33.036  1.00  0.00     0.167 HD
ATOM     56  C   UNL A   1      39.043  31.488  33.478  1.00  0.00     0.074 A 
ATOM     57  C   UNL A   1      37.867  32.298  33.246  1.00  0.00     0.031 C 
ATOM     58  C   UNL A   1      39.736  31.460  34.643  1.00  0.00     0.037 A 
BRANCH  45  59
ATOM     59  C   UNL A   1      44.458  27.488  34.577  1.00  0.00     0.057 A 
ATOM     60  C   UNL A   1      44.264  26.334  35.348  1.00  0.00     0.134 A 
ATOM     61  C   UNL A   1      45.751  28.019  34.518  1.00  0.00     0.134 A 
ATOM     62  F   UNL A   1      43.044  25.786  35.454  1.00  0.00    -0.206 F 
ATOM     63  C   UNL A   1      45.312  25.747  36.057  1.00  0.00     0.040 A 
ATOM     64  C   UNL A   1      46.813  27.426  35.202  1.00  0.00     0.040 A 
ATOM     65  F   UNL A   1      46.004  29.119  33.793  1.00  0.00    -0.206 F 
ATOM     66  C   UNL A   1      46.592  26.291  35.980  1.00  0.00     0.006 A 
ENDBRANCH  45  59
BRANCH  46  67
ATOM     67  C   UNL A   1      37.054  31.360  29.234  1.00  0.00     0.057 A 
ATOM     68  C   UNL A   1      37.129  32.666  28.739  1.00  0.00     0.134 A 
ATOM     69  C   UNL A   1      35.875  30.642  28.997  1.00  0.00     0.134 A 
ATOM     70  F   UNL A   1      38.224  33.408  28.957  1.00  0.00    -0.206 F 
ATOM     71  C   UNL A   1      36.062  33.248  28.054  1.00  0.00     0.040 A 
ATOM     72  C   UNL A   1      34.808  31.206  28.296  1.00  0.00     0.040 A 
ATOM     73  F   UNL A   1      35.745  29.386  29.445  1.00  0.00    -0.206 F 
ATOM     74  C   UNL A   1      34.898  32.516  27.829  1.00  0.00     0.006 A 
ENDBRANCH  46  67
BRANCH  58  75
ATOM     75  C   UNL A   1      39.269  32.357  35.754  1.00  0.00     0.057 A 
ATOM     76  C   UNL A   1      39.729  33.673  35.887  1.00  0.00     0.134 A 
ATOM     77  C   UNL A   1      38.312  31.913  36.675  1.00  0.00     0.134 A 
ATOM     78  F   UNL A   1      40.656  34.157  35.045  1.00  0.00    -0.206 F 
ATOM     79  C   UNL A   1      39.267  34.509  36.905  1.00  0.00     0.040 A 
ATOM     80  C   UNL A   1      37.823  32.747  37.682  1.00  0.00     0.040 A 
ATOM     81  F   UNL A   1      37.823  30.666  36.602  1.00  0.00    -0.206 F 
ATOM     82  C   UNL A   1      38.305  34.048  37.802  1.00  0.00     0.006 A 
ENDBRANCH  58  75
ENDBRANCH  32  33
ENDBRANCH  25  27
ENDBRANCH  24  25
ENDBRANCH  23  24
ENDBRANCH   1  23
TORSDOF 14
ENDMDL
