MODEL 1
REMARK VINA RESULT:     -13.2      0.000      0.000
REMARK SMILES O=C(OCCOC(=O)[C@H]1CC2(CC[NH+](C(=O)c3cc4ccccc4[nH]3)CC2)CN1C(=O)C1CC1)c1ccc(-c2c3nc(c(-c4c(F)cccc4F)c4ccc([nH]4)c(-c4c(F)cccc4F)c4nc(c(-c5c(F)cccc5F)c5ccc2[nH]5)C=C4)C=C3)cc1
REMARK SMILES IDX 4 1 3 2 2 3 1 4 35 5 36 6 88 7 37 8 87 9 38 10 39 11 40 12
REMARK SMILES IDX 81 13 41 14 86 15 80 16 82 17 42 18 85 19 79 20 78 21 43 23
REMARK SMILES IDX 69 24 52 25 68 26 53 27 56 28 67 29 83 30 54 31 55 32 66 34
REMARK SMILES IDX 84 35 57 36 44 37 45 38 50 39 46 40 47 41 49 42 51 43 48 44
REMARK SMILES IDX 70 45 71 46 76 47 72 48 73 49 75 50 77 51 74 52 58 53 59 54
REMARK SMILES IDX 64 55 60 56 61 57 63 58 65 59 62 60 5 61 6 62 7 63 8 64 9 65
REMARK SMILES IDX 10 66 29 67 11 68 28 69 12 70 27 71 13 72 26 73 14 74 30 76
REMARK SMILES IDX 31 77 32 78 33 79 34 80 15 81 16 82 17 83 18 84 25 85 19 86
REMARK SMILES IDX 24 87 20 89 23 90 21 91 22 92
REMARK H PARENT 82 22 56 33 14 75 25 88
REMARK Flexibility Score: inf
ROOT
ATOM      1  C   UNL A   1      32.499  32.588  26.866  1.00  0.00     0.275 C 
ENDROOT
BRANCH   1   2
ATOM      2  O   UNL A   1      32.168  33.765  27.613  1.00  0.00    -0.458 OA
BRANCH   2   3
ATOM      3  C   UNL A   1      32.932  34.513  28.436  1.00  0.00     0.338 C 
ATOM      4  O   UNL A   1      32.502  35.630  28.730  1.00  0.00    -0.246 OA
BRANCH   3   5
ATOM      5  C   UNL A   1      34.264  34.119  29.030  1.00  0.00     0.060 A 
ATOM      6  C   UNL A   1      35.547  34.587  28.725  1.00  0.00     0.016 A 
ATOM      7  C   UNL A   1      34.177  33.203  30.088  1.00  0.00     0.016 A 
ATOM      8  C   UNL A   1      36.682  34.217  29.487  1.00  0.00     0.010 A 
ATOM      9  C   UNL A   1      35.283  32.879  30.882  1.00  0.00     0.010 A 
ATOM     10  C   UNL A   1      36.560  33.375  30.593  1.00  0.00    -0.014 A 
BRANCH  10  11
ATOM     11  C   UNL A   1      37.723  32.819  31.350  1.00  0.00     0.031 A 
ATOM     12  C   UNL A   1      38.463  31.690  30.706  1.00  0.00     0.074 A 
ATOM     13  C   UNL A   1      38.061  33.179  32.606  1.00  0.00     0.049 A 
ATOM     14  N   UNL A   1      39.308  30.850  31.234  1.00  0.00    -0.248 NA
ATOM     15  C   UNL A   1      38.126  31.417  29.299  1.00  0.00     0.031 C 
ATOM     16  C   UNL A   1      37.397  34.216  33.364  1.00  0.00     0.029 A 
ATOM     17  N   UNL A   1      39.015  32.714  33.483  1.00  0.00    -0.354 N 
ATOM     18  C   UNL A   1      39.535  29.905  30.249  1.00  0.00     0.074 A 
ATOM     19  C   UNL A   1      38.678  30.230  29.131  1.00  0.00     0.031 C 
ATOM     20  C   UNL A   1      37.921  34.312  34.594  1.00  0.00     0.029 A 
ATOM     21  C   UNL A   1      39.005  33.352  34.708  1.00  0.00     0.049 A 
ATOM     22  H   UNL A   1      39.645  31.991  33.258  1.00  0.00     0.167 HD
ATOM     23  C   UNL A   1      40.412  28.878  30.263  1.00  0.00     0.037 A 
ATOM     24  C   UNL A   1      39.796  33.202  35.790  1.00  0.00     0.037 A 
ATOM     25  C   UNL A   1      41.330  28.635  31.338  1.00  0.00     0.049 A 
ATOM     26  C   UNL A   1      40.868  32.156  35.730  1.00  0.00     0.074 A 
ATOM     27  C   UNL A   1      42.331  27.687  31.420  1.00  0.00     0.029 A 
ATOM     28  N   UNL A   1      41.380  29.379  32.511  1.00  0.00    -0.354 N 
ATOM     29  N   UNL A   1      41.099  31.284  34.778  1.00  0.00    -0.248 NA
ATOM     30  C   UNL A   1      41.786  32.062  36.873  1.00  0.00     0.031 C 
ATOM     31  C   UNL A   1      42.990  27.857  32.643  1.00  0.00     0.029 A 
ATOM     32  C   UNL A   1      42.411  28.925  33.315  1.00  0.00     0.049 A 
ATOM     33  H   UNL A   1      40.772  30.121  32.737  1.00  0.00     0.167 HD
ATOM     34  C   UNL A   1      42.184  30.536  35.202  1.00  0.00     0.074 A 
ATOM     35  C   UNL A   1      42.587  31.077  36.486  1.00  0.00     0.031 C 
ATOM     36  C   UNL A   1      42.782  29.487  34.590  1.00  0.00     0.037 A 
BRANCH  23  37
ATOM     37  C   UNL A   1      40.397  27.990  29.058  1.00  0.00     0.057 A 
ATOM     38  C   UNL A   1      39.654  26.800  29.028  1.00  0.00     0.134 A 
ATOM     39  C   UNL A   1      41.222  28.269  27.964  1.00  0.00     0.134 A 
ATOM     40  F   UNL A   1      38.880  26.455  30.068  1.00  0.00    -0.206 F 
ATOM     41  C   UNL A   1      39.781  25.889  27.979  1.00  0.00     0.040 A 
ATOM     42  C   UNL A   1      41.327  27.383  26.890  1.00  0.00     0.040 A 
ATOM     43  F   UNL A   1      41.968  29.383  27.938  1.00  0.00    -0.206 F 
ATOM     44  C   UNL A   1      40.618  26.182  26.905  1.00  0.00     0.006 A 
ENDBRANCH  23  37
BRANCH  24  45
ATOM     45  C   UNL A   1      39.645  34.091  36.975  1.00  0.00     0.057 A 
ATOM     46  C   UNL A   1      38.901  33.686  38.093  1.00  0.00     0.134 A 
ATOM     47  C   UNL A   1      40.254  35.350  37.040  1.00  0.00     0.134 A 
ATOM     48  F   UNL A   1      38.270  32.502  38.090  1.00  0.00    -0.206 F 
ATOM     49  C   UNL A   1      38.768  34.495  39.225  1.00  0.00     0.040 A 
ATOM     50  C   UNL A   1      40.146  36.162  38.175  1.00  0.00     0.040 A 
ATOM     51  F   UNL A   1      40.979  35.804  36.008  1.00  0.00    -0.206 F 
ATOM     52  C   UNL A   1      39.400  35.736  39.271  1.00  0.00     0.006 A 
ENDBRANCH  24  45
BRANCH  36  53
ATOM     53  C   UNL A   1      43.941  28.875  35.307  1.00  0.00     0.057 A 
ATOM     54  C   UNL A   1      45.257  29.271  35.039  1.00  0.00     0.134 A 
ATOM     55  C   UNL A   1      43.735  27.898  36.286  1.00  0.00     0.134 A 
ATOM     56  F   UNL A   1      45.512  30.191  34.096  1.00  0.00    -0.206 F 
ATOM     57  C   UNL A   1      46.334  28.701  35.713  1.00  0.00     0.040 A 
ATOM     58  C   UNL A   1      44.804  27.336  36.982  1.00  0.00     0.040 A 
ATOM     59  F   UNL A   1      42.495  27.482  36.583  1.00  0.00    -0.206 F 
ATOM     60  C   UNL A   1      46.108  27.734  36.692  1.00  0.00     0.006 A 
ENDBRANCH  36  53
ENDBRANCH  10  11
ENDBRANCH   3   5
ENDBRANCH   2   3
ENDBRANCH   1   2
BRANCH   1  61
ATOM     61  C   UNL A   1      31.259  31.767  26.527  1.00  0.00     0.274 C 
BRANCH  61  62
ATOM     62  O   UNL A   1      31.581  30.659  25.666  1.00  0.00    -0.461 OA
BRANCH  62  63
ATOM     63  C   UNL A   1      31.780  29.451  26.257  1.00  0.00     0.328 C 
ATOM     64  O   UNL A   1      31.550  29.210  27.437  1.00  0.00    -0.250 OA
BRANCH  63  65
ATOM     65  C   UNL A   1      32.326  28.382  25.293  1.00  0.00     0.195 C 
ATOM     66  C   UNL A   1      32.568  27.066  26.081  1.00  0.00     0.046 C 
ATOM     67  N   UNL A   1      31.572  27.956  24.120  1.00  0.00    -0.328 N 
ATOM     68  C   UNL A   1      32.466  25.890  25.076  1.00  0.00     0.001 C 
ATOM     69  C   UNL A   1      31.842  26.552  23.837  1.00  0.00     0.128 C 
ATOM     70  C   UNL A   1      31.527  24.768  25.563  1.00  0.00     0.071 C 
ATOM     71  C   UNL A   1      33.811  25.215  24.730  1.00  0.00     0.071 C 
ATOM     72  C   UNL A   1      32.065  23.906  26.686  1.00  0.00     0.271 C 
ATOM     73  C   UNL A   1      34.328  24.239  25.803  1.00  0.00     0.271 C 
ATOM     74  N   UNL A   1      33.313  23.293  26.280  1.00  0.00    -0.266 N 
ATOM     75  H   UNL A   1      33.570  23.817  27.074  1.00  0.00     0.357 HD
BRANCH  67  76
ATOM     76  C   UNL A   1      31.284  28.779  23.031  1.00  0.00     0.226 C 
ATOM     77  O   UNL A   1      32.167  29.361  22.401  1.00  0.00    -0.275 OA
BRANCH  76  78
ATOM     78  C   UNL A   1      29.898  28.854  22.484  1.00  0.00     0.079 C 
ATOM     79  C   UNL A   1      28.646  28.461  23.224  1.00  0.00     0.014 C 
ATOM     80  C   UNL A   1      28.992  29.909  23.104  1.00  0.00     0.014 C 
ENDBRANCH  76  78
ENDBRANCH  67  76
BRANCH  74  81
ATOM     81  C   UNL A   1      33.704  21.994  26.637  1.00  0.00     0.360 C 
ATOM     82  O   UNL A   1      34.086  21.744  27.778  1.00  0.00    -0.224 OA
BRANCH  81  83
ATOM     83  C   UNL A   1      33.602  20.928  25.650  1.00  0.00     0.145 A 
ATOM     84  C   UNL A   1      32.672  20.822  24.626  1.00  0.00     0.046 A 
ATOM     85  N   UNL A   1      34.327  19.753  25.628  1.00  0.00    -0.347 N 
ATOM     86  C   UNL A   1      32.872  19.591  23.945  1.00  0.00     0.000 A 
ATOM     87  C   UNL A   1      33.919  18.937  24.591  1.00  0.00     0.046 A 
ATOM     88  H   UNL A   1      35.040  19.527  26.268  1.00  0.00     0.167 HD
ATOM     89  C   UNL A   1      32.245  18.965  22.849  1.00  0.00     0.010 A 
ATOM     90  C   UNL A   1      34.371  17.671  24.186  1.00  0.00     0.026 A 
ATOM     91  C   UNL A   1      32.686  17.703  22.433  1.00  0.00     0.001 A 
ATOM     92  C   UNL A   1      33.734  17.069  23.093  1.00  0.00     0.002 A 
ENDBRANCH  81  83
ENDBRANCH  74  81
ENDBRANCH  63  65
ENDBRANCH  62  63
ENDBRANCH  61  62
ENDBRANCH   1  61
TORSDOF 15
ENDMDL
MODEL 2
REMARK VINA RESULT:     -13.2      1.347      6.089
REMARK SMILES O=C(OCCOC(=O)[C@H]1CC2(CC[NH+](C(=O)c3cc4ccccc4[nH]3)CC2)CN1C(=O)C1CC1)c1ccc(-c2c3nc(c(-c4c(F)cccc4F)c4ccc([nH]4)c(-c4c(F)cccc4F)c4nc(c(-c5c(F)cccc5F)c5ccc2[nH]5)C=C4)C=C3)cc1
REMARK SMILES IDX 4 1 3 2 2 3 1 4 35 5 36 6 88 7 37 8 87 9 38 10 39 11 40 12
REMARK SMILES IDX 81 13 41 14 86 15 80 16 82 17 42 18 85 19 79 20 78 21 43 23
REMARK SMILES IDX 69 24 52 25 68 26 53 27 56 28 67 29 83 30 54 31 55 32 66 34
REMARK SMILES IDX 84 35 57 36 44 37 45 38 50 39 46 40 47 41 49 42 51 43 48 44
REMARK SMILES IDX 70 45 71 46 76 47 72 48 73 49 75 50 77 51 74 52 58 53 59 54
REMARK SMILES IDX 64 55 60 56 61 57 63 58 65 59 62 60 5 61 6 62 7 63 8 64 9 65
REMARK SMILES IDX 10 66 29 67 11 68 28 69 12 70 27 71 13 72 26 73 14 74 30 76
REMARK SMILES IDX 31 77 32 78 33 79 34 80 15 81 16 82 17 83 18 84 25 85 19 86
REMARK SMILES IDX 24 87 20 89 23 90 21 91 22 92
REMARK H PARENT 82 22 56 33 14 75 25 88
REMARK Flexibility Score: inf
ROOT
ATOM      1  C   UNL A   1      31.271  32.113  26.925  1.00  0.00     0.275 C 
ENDROOT
BRANCH   1   2
ATOM      2  O   UNL A   1      32.281  33.128  26.864  1.00  0.00    -0.458 OA
BRANCH   2   3
ATOM      3  C   UNL A   1      33.051  33.644  27.844  1.00  0.00     0.338 C 
ATOM      4  O   UNL A   1      32.656  34.686  28.371  1.00  0.00    -0.246 OA
BRANCH   3   5
ATOM      5  C   UNL A   1      34.353  33.076  28.357  1.00  0.00     0.060 A 
ATOM      6  C   UNL A   1      35.630  33.650  28.372  1.00  0.00     0.016 A 
ATOM      7  C   UNL A   1      34.235  31.818  28.965  1.00  0.00     0.016 A 
ATOM      8  C   UNL A   1      36.721  33.033  29.031  1.00  0.00     0.010 A 
ATOM      9  C   UNL A   1      35.294  31.231  29.668  1.00  0.00     0.010 A 
ATOM     10  C   UNL A   1      36.561  31.825  29.709  1.00  0.00    -0.014 A 
BRANCH  10  11
ATOM     11  C   UNL A   1      37.691  31.039  30.294  1.00  0.00     0.031 A 
ATOM     12  C   UNL A   1      37.977  31.258  31.746  1.00  0.00     0.074 A 
ATOM     13  C   UNL A   1      38.530  30.260  29.582  1.00  0.00     0.049 A 
ATOM     14  N   UNL A   1      39.037  30.940  32.435  1.00  0.00    -0.248 NA
ATOM     15  C   UNL A   1      36.967  32.024  32.495  1.00  0.00     0.031 C 
ATOM     16  C   UNL A   1      38.402  30.005  28.163  1.00  0.00     0.029 A 
ATOM     17  N   UNL A   1      39.664  29.558  29.922  1.00  0.00    -0.354 N 
ATOM     18  C   UNL A   1      38.855  31.541  33.668  1.00  0.00     0.074 A 
ATOM     19  C   UNL A   1      37.630  32.306  33.601  1.00  0.00     0.031 C 
ATOM     20  C   UNL A   1      39.409  29.237  27.727  1.00  0.00     0.029 A 
ATOM     21  C   UNL A   1      40.254  28.900  28.860  1.00  0.00     0.049 A 
ATOM     22  H   UNL A   1      40.022  29.528  30.839  1.00  0.00     0.167 HD
ATOM     23  C   UNL A   1      39.624  31.431  34.772  1.00  0.00     0.037 A 
ATOM     24  C   UNL A   1      41.336  28.098  28.807  1.00  0.00     0.037 A 
ATOM     25  C   UNL A   1      40.778  30.581  34.852  1.00  0.00     0.049 A 
ATOM     26  C   UNL A   1      42.093  27.863  30.080  1.00  0.00     0.074 A 
ATOM     27  C   UNL A   1      41.577  30.313  35.946  1.00  0.00     0.029 A 
ATOM     28  N   UNL A   1      41.276  29.831  33.793  1.00  0.00    -0.354 N 
ATOM     29  N   UNL A   1      41.895  28.411  31.254  1.00  0.00    -0.248 NA
ATOM     30  C   UNL A   1      43.212  26.912  30.035  1.00  0.00     0.031 C 
ATOM     31  C   UNL A   1      42.559  29.396  35.551  1.00  0.00     0.029 A 
ATOM     32  C   UNL A   1      42.359  29.080  34.215  1.00  0.00     0.049 A 
ATOM     33  H   UNL A   1      40.910  29.832  32.879  1.00  0.00     0.167 HD
ATOM     34  C   UNL A   1      42.861  27.878  32.091  1.00  0.00     0.074 A 
ATOM     35  C   UNL A   1      43.627  26.937  31.296  1.00  0.00     0.031 C 
ATOM     36  C   UNL A   1      43.100  28.155  33.394  1.00  0.00     0.037 A 
BRANCH  23  37
ATOM     37  C   UNL A   1      39.193  32.244  35.952  1.00  0.00     0.057 A 
ATOM     38  C   UNL A   1      38.267  31.756  36.886  1.00  0.00     0.134 A 
ATOM     39  C   UNL A   1      39.620  33.568  36.093  1.00  0.00     0.134 A 
ATOM     40  F   UNL A   1      37.785  30.508  36.777  1.00  0.00    -0.206 F 
ATOM     41  C   UNL A   1      37.735  32.575  37.881  1.00  0.00     0.040 A 
ATOM     42  C   UNL A   1      39.124  34.386  37.108  1.00  0.00     0.040 A 
ATOM     43  F   UNL A   1      40.494  34.099  35.225  1.00  0.00    -0.206 F 
ATOM     44  C   UNL A   1      38.166  33.895  37.995  1.00  0.00     0.006 A 
ENDBRANCH  23  37
BRANCH  24  45
ATOM     45  C   UNL A   1      41.722  27.419  27.539  1.00  0.00     0.057 A 
ATOM     46  C   UNL A   1      41.258  26.131  27.236  1.00  0.00     0.134 A 
ATOM     47  C   UNL A   1      42.538  28.040  26.585  1.00  0.00     0.134 A 
ATOM     48  F   UNL A   1      40.492  25.468  28.115  1.00  0.00    -0.206 F 
ATOM     49  C   UNL A   1      41.590  25.487  26.040  1.00  0.00     0.040 A 
ATOM     50  C   UNL A   1      42.861  27.416  25.375  1.00  0.00     0.040 A 
ATOM     51  F   UNL A   1      43.021  29.271  26.806  1.00  0.00    -0.206 F 
ATOM     52  C   UNL A   1      42.388  26.135  25.100  1.00  0.00     0.006 A 
ENDBRANCH  24  45
BRANCH  36  53
ATOM     53  C   UNL A   1      44.230  27.414  34.031  1.00  0.00     0.057 A 
ATOM     54  C   UNL A   1      44.037  26.167  34.638  1.00  0.00     0.134 A 
ATOM     55  C   UNL A   1      45.524  27.944  34.019  1.00  0.00     0.134 A 
ATOM     56  F   UNL A   1      42.812  25.622  34.694  1.00  0.00    -0.206 F 
ATOM     57  C   UNL A   1      45.094  25.478  35.226  1.00  0.00     0.040 A 
ATOM     58  C   UNL A   1      46.594  27.255  34.586  1.00  0.00     0.040 A 
ATOM     59  F   UNL A   1      45.767  29.135  33.450  1.00  0.00    -0.206 F 
ATOM     60  C   UNL A   1      46.379  26.020  35.197  1.00  0.00     0.006 A 
ENDBRANCH  36  53
ENDBRANCH  10  11
ENDBRANCH   3   5
ENDBRANCH   2   3
ENDBRANCH   1   2
BRANCH   1  61
ATOM     61  C   UNL A   1      31.374  31.143  25.753  1.00  0.00     0.274 C 
BRANCH  61  62
ATOM     62  O   UNL A   1      31.781  29.832  26.189  1.00  0.00    -0.461 OA
BRANCH  62  63
ATOM     63  C   UNL A   1      33.068  29.468  25.943  1.00  0.00     0.328 C 
ATOM     64  O   UNL A   1      34.050  30.032  26.413  1.00  0.00    -0.250 OA
BRANCH  63  65
ATOM     65  C   UNL A   1      33.191  28.253  25.008  1.00  0.00     0.195 C 
ATOM     66  C   UNL A   1      33.317  26.964  25.864  1.00  0.00     0.046 C 
ATOM     67  N   UNL A   1      32.152  27.929  24.036  1.00  0.00    -0.328 N 
ATOM     68  C   UNL A   1      32.789  25.780  25.015  1.00  0.00     0.001 C 
ATOM     69  C   UNL A   1      32.077  26.485  23.849  1.00  0.00     0.128 C 
ATOM     70  C   UNL A   1      31.760  24.915  25.770  1.00  0.00     0.071 C 
ATOM     71  C   UNL A   1      33.878  24.814  24.500  1.00  0.00     0.071 C 
ATOM     72  C   UNL A   1      32.326  24.025  26.858  1.00  0.00     0.271 C 
ATOM     73  C   UNL A   1      34.392  23.815  25.554  1.00  0.00     0.271 C 
ATOM     74  N   UNL A   1      33.323  23.138  26.296  1.00  0.00    -0.266 N 
ATOM     75  H   UNL A   1      33.829  23.640  26.976  1.00  0.00     0.357 HD
BRANCH  67  76
ATOM     76  C   UNL A   1      31.825  28.729  22.941  1.00  0.00     0.226 C 
ATOM     77  O   UNL A   1      32.680  29.341  22.301  1.00  0.00    -0.275 OA
BRANCH  76  78
ATOM     78  C   UNL A   1      30.435  28.741  22.401  1.00  0.00     0.079 C 
ATOM     79  C   UNL A   1      29.207  28.277  23.140  1.00  0.00     0.014 C 
ATOM     80  C   UNL A   1      29.480  29.742  23.037  1.00  0.00     0.014 C 
ENDBRANCH  76  78
ENDBRANCH  67  76
BRANCH  74  81
ATOM     81  C   UNL A   1      33.511  21.808  26.703  1.00  0.00     0.360 C 
ATOM     82  O   UNL A   1      33.648  21.528  27.892  1.00  0.00    -0.224 OA
BRANCH  81  83
ATOM     83  C   UNL A   1      33.489  20.752  25.701  1.00  0.00     0.145 A 
ATOM     84  C   UNL A   1      32.503  20.517  24.754  1.00  0.00     0.046 A 
ATOM     85  N   UNL A   1      34.381  19.703  25.590  1.00  0.00    -0.347 N 
ATOM     86  C   UNL A   1      32.829  19.340  24.028  1.00  0.00     0.000 A 
ATOM     87  C   UNL A   1      34.016  18.847  24.569  1.00  0.00     0.046 A 
ATOM     88  H   UNL A   1      35.172  19.581  26.163  1.00  0.00     0.167 HD
ATOM     89  C   UNL A   1      32.215  18.638  22.972  1.00  0.00     0.010 A 
ATOM     90  C   UNL A   1      34.620  17.671  24.096  1.00  0.00     0.026 A 
ATOM     91  C   UNL A   1      32.806  17.465  22.489  1.00  0.00     0.001 A 
ATOM     92  C   UNL A   1      33.991  16.991  23.044  1.00  0.00     0.002 A 
ENDBRANCH  81  83
ENDBRANCH  74  81
ENDBRANCH  63  65
ENDBRANCH  62  63
ENDBRANCH  61  62
ENDBRANCH   1  61
TORSDOF 15
ENDMDL
MODEL 3
REMARK VINA RESULT:     -13.0      5.000     10.928
REMARK SMILES O=C(OCCOC(=O)[C@H]1CC2(CC[NH+](C(=O)c3cc4ccccc4[nH]3)CC2)CN1C(=O)C1CC1)c1ccc(-c2c3nc(c(-c4c(F)cccc4F)c4ccc([nH]4)c(-c4c(F)cccc4F)c4nc(c(-c5c(F)cccc5F)c5ccc2[nH]5)C=C4)C=C3)cc1
REMARK SMILES IDX 4 1 3 2 2 3 1 4 35 5 36 6 88 7 37 8 87 9 38 10 39 11 40 12
REMARK SMILES IDX 81 13 41 14 86 15 80 16 82 17 42 18 85 19 79 20 78 21 43 23
REMARK SMILES IDX 69 24 52 25 68 26 53 27 56 28 67 29 83 30 54 31 55 32 66 34
REMARK SMILES IDX 84 35 57 36 44 37 45 38 50 39 46 40 47 41 49 42 51 43 48 44
REMARK SMILES IDX 70 45 71 46 76 47 72 48 73 49 75 50 77 51 74 52 58 53 59 54
REMARK SMILES IDX 64 55 60 56 61 57 63 58 65 59 62 60 5 61 6 62 7 63 8 64 9 65
REMARK SMILES IDX 10 66 29 67 11 68 28 69 12 70 27 71 13 72 26 73 14 74 30 76
REMARK SMILES IDX 31 77 32 78 33 79 34 80 15 81 16 82 17 83 18 84 25 85 19 86
REMARK SMILES IDX 24 87 20 89 23 90 21 91 22 92
REMARK H PARENT 82 22 56 33 14 75 25 88
REMARK Flexibility Score: inf
ROOT
ATOM      1  C   UNL A   1      38.661  19.852  25.000  1.00  0.00     0.275 C 
ENDROOT
BRANCH   1   2
ATOM      2  O   UNL A   1      39.604  19.365  25.963  1.00  0.00    -0.458 OA
BRANCH   2   3
ATOM      3  C   UNL A   1      40.930  19.588  26.067  1.00  0.00     0.338 C 
ATOM      4  O   UNL A   1      41.677  18.690  25.674  1.00  0.00    -0.246 OA
BRANCH   3   5
ATOM      5  C   UNL A   1      41.591  20.828  26.621  1.00  0.00     0.060 A 
ATOM      6  C   UNL A   1      42.078  21.076  27.910  1.00  0.00     0.016 A 
ATOM      7  C   UNL A   1      41.803  21.842  25.676  1.00  0.00     0.016 A 
ATOM      8  C   UNL A   1      42.810  22.248  28.222  1.00  0.00     0.010 A 
ATOM      9  C   UNL A   1      42.575  22.974  25.962  1.00  0.00     0.010 A 
ATOM     10  C   UNL A   1      43.088  23.202  27.244  1.00  0.00    -0.014 A 
BRANCH  10  11
ATOM     11  C   UNL A   1      43.717  24.529  27.529  1.00  0.00     0.031 A 
ATOM     12  C   UNL A   1      42.804  25.614  28.005  1.00  0.00     0.074 A 
ATOM     13  C   UNL A   1      45.004  24.838  27.267  1.00  0.00     0.049 A 
ATOM     14  N   UNL A   1      43.008  26.900  28.058  1.00  0.00    -0.248 NA
ATOM     15  C   UNL A   1      41.443  25.194  28.379  1.00  0.00     0.031 C 
ATOM     16  C   UNL A   1      45.980  23.901  26.755  1.00  0.00     0.029 A 
ATOM     17  N   UNL A   1      45.718  26.010  27.363  1.00  0.00    -0.354 N 
ATOM     18  C   UNL A   1      41.780  27.444  28.389  1.00  0.00     0.074 A 
ATOM     19  C   UNL A   1      40.825  26.359  28.440  1.00  0.00     0.031 C 
ATOM     20  C   UNL A   1      47.157  24.509  26.549  1.00  0.00     0.029 A 
ATOM     21  C   UNL A   1      47.034  25.898  26.957  1.00  0.00     0.049 A 
ATOM     22  H   UNL A   1      45.327  26.852  27.690  1.00  0.00     0.167 HD
ATOM     23  C   UNL A   1      41.484  28.732  28.665  1.00  0.00     0.037 A 
ATOM     24  C   UNL A   1      48.035  26.801  26.940  1.00  0.00     0.037 A 
ATOM     25  C   UNL A   1      42.466  29.777  28.714  1.00  0.00     0.049 A 
ATOM     26  C   UNL A   1      47.724  28.194  27.396  1.00  0.00     0.074 A 
ATOM     27  C   UNL A   1      42.301  31.099  29.078  1.00  0.00     0.029 A 
ATOM     28  N   UNL A   1      43.813  29.604  28.420  1.00  0.00    -0.354 N 
ATOM     29  N   UNL A   1      46.563  28.696  27.741  1.00  0.00    -0.248 NA
ATOM     30  C   UNL A   1      48.840  29.148  27.466  1.00  0.00     0.031 C 
ATOM     31  C   UNL A   1      43.550  31.727  29.008  1.00  0.00     0.029 A 
ATOM     32  C   UNL A   1      44.496  30.791  28.617  1.00  0.00     0.049 A 
ATOM     33  H   UNL A   1      44.221  28.760  28.118  1.00  0.00     0.167 HD
ATOM     34  C   UNL A   1      46.801  30.020  28.067  1.00  0.00     0.074 A 
ATOM     35  C   UNL A   1      48.227  30.238  27.909  1.00  0.00     0.031 C 
ATOM     36  C   UNL A   1      45.916  30.972  28.448  1.00  0.00     0.037 A 
BRANCH  23  37
ATOM     37  C   UNL A   1      40.044  29.025  28.947  1.00  0.00     0.057 A 
ATOM     38  C   UNL A   1      39.514  28.942  30.243  1.00  0.00     0.134 A 
ATOM     39  C   UNL A   1      39.156  29.281  27.898  1.00  0.00     0.134 A 
ATOM     40  F   UNL A   1      40.309  28.653  31.286  1.00  0.00    -0.206 F 
ATOM     41  C   UNL A   1      38.143  29.041  30.478  1.00  0.00     0.040 A 
ATOM     42  C   UNL A   1      37.786  29.422  28.125  1.00  0.00     0.040 A 
ATOM     43  F   UNL A   1      39.597  29.359  26.634  1.00  0.00    -0.206 F 
ATOM     44  C   UNL A   1      37.275  29.284  29.416  1.00  0.00     0.006 A 
ENDBRANCH  23  37
BRANCH  24  45
ATOM     45  C   UNL A   1      49.414  26.405  26.541  1.00  0.00     0.057 A 
ATOM     46  C   UNL A   1      49.910  26.699  25.262  1.00  0.00     0.134 A 
ATOM     47  C   UNL A   1      50.282  25.750  27.423  1.00  0.00     0.134 A 
ATOM     48  F   UNL A   1      49.125  27.303  24.358  1.00  0.00    -0.206 F 
ATOM     49  C   UNL A   1      51.210  26.357  24.877  1.00  0.00     0.040 A 
ATOM     50  C   UNL A   1      51.592  25.420  27.058  1.00  0.00     0.040 A 
ATOM     51  F   UNL A   1      49.876  25.435  28.662  1.00  0.00    -0.206 F 
ATOM     52  C   UNL A   1      52.059  25.723  25.781  1.00  0.00     0.006 A 
ENDBRANCH  24  45
BRANCH  36  53
ATOM     53  C   UNL A   1      46.482  32.326  28.729  1.00  0.00     0.057 A 
ATOM     54  C   UNL A   1      46.959  32.669  30.000  1.00  0.00     0.134 A 
ATOM     55  C   UNL A   1      46.567  33.285  27.715  1.00  0.00     0.134 A 
ATOM     56  F   UNL A   1      46.884  31.792  31.013  1.00  0.00    -0.206 F 
ATOM     57  C   UNL A   1      47.490  33.930  30.256  1.00  0.00     0.040 A 
ATOM     58  C   UNL A   1      47.114  34.543  27.954  1.00  0.00     0.040 A 
ATOM     59  F   UNL A   1      46.125  33.009  26.478  1.00  0.00    -0.206 F 
ATOM     60  C   UNL A   1      47.573  34.871  29.229  1.00  0.00     0.006 A 
ENDBRANCH  36  53
ENDBRANCH  10  11
ENDBRANCH   3   5
ENDBRANCH   2   3
ENDBRANCH   1   2
BRANCH   1  61
ATOM     61  C   UNL A   1      38.128  21.230  25.379  1.00  0.00     0.274 C 
BRANCH  61  62
ATOM     62  O   UNL A   1      36.689  21.265  25.346  1.00  0.00    -0.461 OA
BRANCH  62  63
ATOM     63  C   UNL A   1      36.108  22.098  24.442  1.00  0.00     0.328 C 
ATOM     64  O   UNL A   1      36.608  22.410  23.367  1.00  0.00    -0.250 OA
BRANCH  63  65
ATOM     65  C   UNL A   1      34.734  22.624  24.890  1.00  0.00     0.195 C 
ATOM     66  C   UNL A   1      34.748  24.176  24.855  1.00  0.00     0.046 C 
ATOM     67  N   UNL A   1      33.510  22.268  24.181  1.00  0.00    -0.328 N 
ATOM     68  C   UNL A   1      33.289  24.657  24.653  1.00  0.00     0.001 C 
ATOM     69  C   UNL A   1      32.556  23.367  24.247  1.00  0.00     0.128 C 
ATOM     70  C   UNL A   1      33.150  25.683  23.511  1.00  0.00     0.071 C 
ATOM     71  C   UNL A   1      32.639  25.298  25.898  1.00  0.00     0.071 C 
ATOM     72  C   UNL A   1      33.682  27.070  23.810  1.00  0.00     0.271 C 
ATOM     73  C   UNL A   1      33.070  26.754  26.163  1.00  0.00     0.271 C 
ATOM     74  N   UNL A   1      33.013  27.612  24.974  1.00  0.00    -0.266 N 
ATOM     75  H   UNL A   1      33.960  27.608  25.243  1.00  0.00     0.357 HD
BRANCH  67  76
ATOM     76  C   UNL A   1      32.987  20.976  24.119  1.00  0.00     0.226 C 
ATOM     77  O   UNL A   1      32.317  20.588  23.162  1.00  0.00    -0.275 OA
BRANCH  76  78
ATOM     78  C   UNL A   1      33.361  19.958  25.142  1.00  0.00     0.079 C 
ATOM     79  C   UNL A   1      32.854  18.540  25.190  1.00  0.00     0.014 C 
ATOM     80  C   UNL A   1      34.222  18.802  24.651  1.00  0.00     0.014 C 
ENDBRANCH  76  78
ENDBRANCH  67  76
BRANCH  74  81
ATOM     81  C   UNL A   1      32.663  28.962  25.124  1.00  0.00     0.360 C 
ATOM     82  O   UNL A   1      33.395  29.736  25.737  1.00  0.00    -0.224 OA
BRANCH  81  83
ATOM     83  C   UNL A   1      31.444  29.451  24.496  1.00  0.00     0.145 A 
ATOM     84  C   UNL A   1      30.771  28.886  23.422  1.00  0.00     0.046 A 
ATOM     85  N   UNL A   1      30.799  30.643  24.764  1.00  0.00    -0.347 N 
ATOM     86  C   UNL A   1      29.676  29.721  23.070  1.00  0.00     0.000 A 
ATOM     87  C   UNL A   1      29.712  30.818  23.929  1.00  0.00     0.046 A 
ATOM     88  H   UNL A   1      31.078  31.283  25.458  1.00  0.00     0.167 HD
ATOM     89  C   UNL A   1      28.669  29.654  22.088  1.00  0.00     0.010 A 
ATOM     90  C   UNL A   1      28.776  31.861  23.848  1.00  0.00     0.026 A 
ATOM     91  C   UNL A   1      27.728  30.686  21.995  1.00  0.00     0.001 A 
ATOM     92  C   UNL A   1      27.783  31.772  22.864  1.00  0.00     0.002 A 
ENDBRANCH  81  83
ENDBRANCH  74  81
ENDBRANCH  63  65
ENDBRANCH  62  63
ENDBRANCH  61  62
ENDBRANCH   1  61
TORSDOF 15
ENDMDL
