MODEL 1
REMARK VINA RESULT:     -11.8      0.000      0.000
REMARK SMILES Cc1c[nH]c(C[N@@H+](C)[C@@H](C(=O)OCCOC(=O)c2ccc(-c3c4nc(c(-c5c(F)cccc5F)c5ccc([nH]5)c(-c5c(F)cccc5F)c5nc(c(-c6c(F)cccc6F)c6ccc3[nH]6)C=C5)C=C4)cc2)c2ccc(NC(=O)N3CCCC3)cc2)n1
REMARK SMILES IDX 13 1 12 2 10 3 11 4 9 5 7 6 8 7 6 9 5 10 1 11 2 12 3 13
REMARK SMILES IDX 86 14 4 15 72 17 73 18 85 19 74 20 84 21 75 22 76 23 77 24
REMARK SMILES IDX 78 26 79 27 80 28 83 29 81 30 82 31 14 32 15 33 16 34 17 35
REMARK SMILES IDX 18 36 19 37 71 38 20 39 70 40 21 41 22 42 23 43 64 44 24 45
REMARK SMILES IDX 69 46 63 47 65 48 25 49 68 50 62 51 61 52 26 54 52 55 35 56
REMARK SMILES IDX 51 57 36 58 39 59 50 60 66 61 37 62 38 63 49 65 67 66 40 67
REMARK SMILES IDX 27 68 28 69 33 70 29 71 30 72 32 73 34 74 31 75 53 76 54 77
REMARK SMILES IDX 59 78 55 79 56 80 58 81 60 82 57 83 41 84 42 85 47 86 43 87
REMARK SMILES IDX 44 88 46 89 48 90 45 91
REMARK H PARENT 7 8 4 16 76 25 65 53 39 64
REMARK Flexibility Score: inf
ROOT
ATOM      1  C   UNL A   1      36.527  22.925  23.608  1.00  0.00     0.274 C 
ENDROOT
BRANCH   1   2
ATOM      2  O   UNL A   1      35.455  23.835  23.896  1.00  0.00    -0.457 OA
BRANCH   2   3
ATOM      3  C   UNL A   1      34.213  23.367  23.589  1.00  0.00     0.370 C 
ATOM      4  O   UNL A   1      33.923  22.892  22.492  1.00  0.00    -0.245 OA
BRANCH   3   5
ATOM      5  C   UNL A   1      33.238  23.375  24.796  1.00  0.00     0.326 C 
BRANCH   5   6
ATOM      6  N   UNL A   1      32.561  22.051  25.051  1.00  0.00    -0.316 N 
ATOM      7  C   UNL A   1      31.282  22.337  25.736  1.00  0.00     0.334 C 
ATOM      8  H   UNL A   1      32.487  21.626  24.127  1.00  0.00     0.349 HD
BRANCH   6   9
ATOM      9  C   UNL A   1      33.278  21.041  25.861  1.00  0.00     0.339 C 
BRANCH   9  10
ATOM     10  C   UNL A   1      33.243  19.599  25.436  1.00  0.00     0.161 A 
ATOM     11  C   UNL A   1      33.833  16.677  23.473  1.00  0.00     0.068 C 
ATOM     12  C   UNL A   1      33.411  17.662  24.493  1.00  0.00     0.056 A 
ATOM     13  C   UNL A   1      32.859  17.423  25.731  1.00  0.00     0.107 A 
ATOM     14  N   UNL A   1      33.595  19.016  24.306  1.00  0.00    -0.233 NA
ATOM     15  N   UNL A   1      32.750  18.653  26.315  1.00  0.00    -0.344 N 
ATOM     16  H   UNL A   1      32.382  18.835  27.210  1.00  0.00     0.167 HD
ENDBRANCH   9  10
ENDBRANCH   6   9
ENDBRANCH   5   6
BRANCH   5  17
ATOM     17  C   UNL A   1      32.475  24.697  24.918  1.00  0.00     0.021 A 
ATOM     18  C   UNL A   1      32.514  25.390  26.149  1.00  0.00     0.012 A 
ATOM     19  C   UNL A   1      31.607  25.187  23.932  1.00  0.00     0.012 A 
ATOM     20  C   UNL A   1      31.846  26.592  26.340  1.00  0.00     0.027 A 
ATOM     21  C   UNL A   1      30.946  26.416  24.101  1.00  0.00     0.027 A 
ATOM     22  C   UNL A   1      31.144  27.152  25.282  1.00  0.00     0.042 A 
BRANCH  22  23
ATOM     23  N   UNL A   1      31.164  28.585  25.221  1.00  0.00    -0.308 N 
ATOM     24  C   UNL A   1      32.479  28.972  25.107  1.00  0.00     0.321 C 
ATOM     25  H   UNL A   1      30.381  29.181  25.254  1.00  0.00     0.171 HD
ATOM     26  O   UNL A   1      33.077  28.594  24.101  1.00  0.00    -0.248 OA
ATOM     27  N   UNL A   1      33.132  29.406  26.222  1.00  0.00    -0.325 N 
ATOM     28  C   UNL A   1      34.491  28.967  26.420  1.00  0.00     0.121 C 
ATOM     29  C   UNL A   1      32.903  30.654  26.924  1.00  0.00     0.121 C 
ATOM     30  C   UNL A   1      34.850  29.515  27.779  1.00  0.00     0.023 C 
ATOM     31  C   UNL A   1      34.183  30.884  27.739  1.00  0.00     0.023 C 
ENDBRANCH  22  23
ENDBRANCH   5  17
ENDBRANCH   3   5
ENDBRANCH   2   3
ENDBRANCH   1   2
BRANCH   1  32
ATOM     32  C   UNL A   1      36.953  22.185  24.878  1.00  0.00     0.275 C 
BRANCH  32  33
ATOM     33  O   UNL A   1      37.471  23.097  25.871  1.00  0.00    -0.458 OA
BRANCH  33  34
ATOM     34  C   UNL A   1      38.768  22.895  26.223  1.00  0.00     0.338 C 
ATOM     35  O   UNL A   1      39.425  21.878  26.078  1.00  0.00    -0.246 OA
BRANCH  34  36
ATOM     36  C   UNL A   1      39.360  24.144  26.746  1.00  0.00     0.060 A 
ATOM     37  C   UNL A   1      39.098  24.478  28.072  1.00  0.00     0.016 A 
ATOM     38  C   UNL A   1      40.089  25.029  25.956  1.00  0.00     0.016 A 
ATOM     39  C   UNL A   1      39.506  25.707  28.606  1.00  0.00     0.010 A 
ATOM     40  C   UNL A   1      40.578  26.224  26.525  1.00  0.00     0.010 A 
ATOM     41  C   UNL A   1      40.310  26.569  27.870  1.00  0.00    -0.014 A 
BRANCH  41  42
ATOM     42  C   UNL A   1      40.792  27.872  28.411  1.00  0.00     0.031 A 
ATOM     43  C   UNL A   1      42.252  28.071  28.573  1.00  0.00     0.074 A 
ATOM     44  C   UNL A   1      40.053  28.985  28.593  1.00  0.00     0.049 A 
ATOM     45  N   UNL A   1      42.867  29.142  28.987  1.00  0.00    -0.248 NA
ATOM     46  C   UNL A   1      43.126  27.005  28.066  1.00  0.00     0.031 C 
ATOM     47  C   UNL A   1      38.873  29.331  27.845  1.00  0.00     0.029 A 
ATOM     48  N   UNL A   1      40.195  30.074  29.421  1.00  0.00    -0.354 N 
ATOM     49  C   UNL A   1      44.195  28.928  28.701  1.00  0.00     0.074 A 
ATOM     50  C   UNL A   1      44.311  27.590  28.156  1.00  0.00     0.031 C 
ATOM     51  C   UNL A   1      38.229  30.365  28.402  1.00  0.00     0.029 A 
ATOM     52  C   UNL A   1      39.044  30.833  29.499  1.00  0.00     0.049 A 
ATOM     53  H   UNL A   1      41.025  30.288  29.905  1.00  0.00     0.167 HD
ATOM     54  C   UNL A   1      45.207  29.807  28.845  1.00  0.00     0.037 A 
ATOM     55  C   UNL A   1      38.696  31.877  30.270  1.00  0.00     0.037 A 
ATOM     56  C   UNL A   1      45.068  31.117  29.426  1.00  0.00     0.049 A 
ATOM     57  C   UNL A   1      39.842  32.674  30.783  1.00  0.00     0.074 A 
ATOM     58  C   UNL A   1      46.067  32.014  29.753  1.00  0.00     0.029 A 
ATOM     59  N   UNL A   1      43.861  31.711  29.789  1.00  0.00    -0.354 N 
ATOM     60  N   UNL A   1      41.114  32.437  30.591  1.00  0.00    -0.248 NA
ATOM     61  C   UNL A   1      39.545  33.947  31.442  1.00  0.00     0.031 C 
ATOM     62  C   UNL A   1      45.478  33.119  30.376  1.00  0.00     0.029 A 
ATOM     63  C   UNL A   1      44.103  32.938  30.398  1.00  0.00     0.049 A 
ATOM     64  H   UNL A   1      42.971  31.322  29.637  1.00  0.00     0.167 HD
ATOM     65  C   UNL A   1      41.773  33.573  31.000  1.00  0.00     0.074 A 
ATOM     66  C   UNL A   1      40.756  34.489  31.487  1.00  0.00     0.031 C 
ATOM     67  C   UNL A   1      43.099  33.832  30.925  1.00  0.00     0.037 A 
BRANCH  54  68
ATOM     68  C   UNL A   1      46.549  29.291  28.452  1.00  0.00     0.057 A 
ATOM     69  C   UNL A   1      47.393  28.641  29.361  1.00  0.00     0.134 A 
ATOM     70  C   UNL A   1      47.043  29.561  27.172  1.00  0.00     0.134 A 
ATOM     71  F   UNL A   1      46.990  28.406  30.620  1.00  0.00    -0.206 F 
ATOM     72  C   UNL A   1      48.698  28.294  29.012  1.00  0.00     0.040 A 
ATOM     73  C   UNL A   1      48.339  29.204  26.808  1.00  0.00     0.040 A 
ATOM     74  F   UNL A   1      46.288  30.212  26.276  1.00  0.00    -0.206 F 
ATOM     75  C   UNL A   1      49.173  28.576  27.732  1.00  0.00     0.006 A 
ENDBRANCH  54  68
BRANCH  55  76
ATOM     76  C   UNL A   1      37.283  32.324  30.375  1.00  0.00     0.057 A 
ATOM     77  C   UNL A   1      36.727  33.281  29.522  1.00  0.00     0.134 A 
ATOM     78  C   UNL A   1      36.443  31.783  31.360  1.00  0.00     0.134 A 
ATOM     79  F   UNL A   1      37.471  33.833  28.553  1.00  0.00    -0.206 F 
ATOM     80  C   UNL A   1      35.402  33.707  29.660  1.00  0.00     0.040 A 
ATOM     81  C   UNL A   1      35.112  32.192  31.504  1.00  0.00     0.040 A 
ATOM     82  F   UNL A   1      36.904  30.851  32.210  1.00  0.00    -0.206 F 
ATOM     83  C   UNL A   1      34.591  33.164  30.655  1.00  0.00     0.006 A 
ENDBRANCH  55  76
BRANCH  67  84
ATOM     84  C   UNL A   1      43.530  35.166  31.447  1.00  0.00     0.057 A 
ATOM     85  C   UNL A   1      43.818  35.349  32.804  1.00  0.00     0.134 A 
ATOM     86  C   UNL A   1      43.664  36.266  30.594  1.00  0.00     0.134 A 
ATOM     87  F   UNL A   1      43.684  34.334  33.671  1.00  0.00    -0.206 F 
ATOM     88  C   UNL A   1      44.199  36.593  33.304  1.00  0.00     0.040 A 
ATOM     89  C   UNL A   1      44.076  37.509  31.077  1.00  0.00     0.040 A 
ATOM     90  F   UNL A   1      43.402  36.154  29.284  1.00  0.00    -0.206 F 
ATOM     91  C   UNL A   1      44.337  37.675  32.437  1.00  0.00     0.006 A 
ENDBRANCH  67  84
ENDBRANCH  41  42
ENDBRANCH  34  36
ENDBRANCH  33  34
ENDBRANCH  32  33
ENDBRANCH   1  32
TORSDOF 16
ENDMDL
MODEL 2
REMARK VINA RESULT:     -11.7      3.728      7.475
REMARK SMILES Cc1c[nH]c(C[N@@H+](C)[C@@H](C(=O)OCCOC(=O)c2ccc(-c3c4nc(c(-c5c(F)cccc5F)c5ccc([nH]5)c(-c5c(F)cccc5F)c5nc(c(-c6c(F)cccc6F)c6ccc3[nH]6)C=C5)C=C4)cc2)c2ccc(NC(=O)N3CCCC3)cc2)n1
REMARK SMILES IDX 13 1 12 2 10 3 11 4 9 5 7 6 8 7 6 9 5 10 1 11 2 12 3 13
REMARK SMILES IDX 86 14 4 15 72 17 73 18 85 19 74 20 84 21 75 22 76 23 77 24
REMARK SMILES IDX 78 26 79 27 80 28 83 29 81 30 82 31 14 32 15 33 16 34 17 35
REMARK SMILES IDX 18 36 19 37 71 38 20 39 70 40 21 41 22 42 23 43 64 44 24 45
REMARK SMILES IDX 69 46 63 47 65 48 25 49 68 50 62 51 61 52 26 54 52 55 35 56
REMARK SMILES IDX 51 57 36 58 39 59 50 60 66 61 37 62 38 63 49 65 67 66 40 67
REMARK SMILES IDX 27 68 28 69 33 70 29 71 30 72 32 73 34 74 31 75 53 76 54 77
REMARK SMILES IDX 59 78 55 79 56 80 58 81 60 82 57 83 41 84 42 85 47 86 43 87
REMARK SMILES IDX 44 88 46 89 48 90 45 91
REMARK H PARENT 7 8 4 16 76 25 65 53 39 64
REMARK Flexibility Score: inf
ROOT
ATOM      1  C   UNL A   1      30.888  24.576  24.822  1.00  0.00     0.274 C 
ENDROOT
BRANCH   1   2
ATOM      2  O   UNL A   1      31.850  25.604  25.097  1.00  0.00    -0.457 OA
BRANCH   2   3
ATOM      3  C   UNL A   1      31.332  26.738  25.647  1.00  0.00     0.370 C 
ATOM      4  O   UNL A   1      30.628  26.737  26.655  1.00  0.00    -0.245 OA
BRANCH   3   5
ATOM      5  C   UNL A   1      31.820  28.037  24.952  1.00  0.00     0.326 C 
BRANCH   5   6
ATOM      6  N   UNL A   1      32.099  27.880  23.478  1.00  0.00    -0.316 N 
ATOM      7  C   UNL A   1      32.999  28.985  23.081  1.00  0.00     0.334 C 
ATOM      8  H   UNL A   1      32.485  26.939  23.395  1.00  0.00     0.349 HD
BRANCH   6   9
ATOM      9  C   UNL A   1      30.953  27.888  22.542  1.00  0.00     0.339 C 
BRANCH   9  10
ATOM     10  C   UNL A   1      30.031  29.076  22.520  1.00  0.00     0.161 A 
ATOM     11  C   UNL A   1      27.506  31.369  23.572  1.00  0.00     0.068 C 
ATOM     12  C   UNL A   1      28.568  30.631  22.854  1.00  0.00     0.056 A 
ATOM     13  C   UNL A   1      29.293  31.035  21.755  1.00  0.00     0.107 A 
ATOM     14  N   UNL A   1      29.004  29.394  23.283  1.00  0.00    -0.233 NA
ATOM     15  N   UNL A   1      30.208  30.043  21.548  1.00  0.00    -0.344 N 
ATOM     16  H   UNL A   1      30.880  30.020  20.828  1.00  0.00     0.167 HD
ENDBRANCH   9  10
ENDBRANCH   6   9
ENDBRANCH   5   6
BRANCH   5  17
ATOM     17  C   UNL A   1      32.738  28.868  25.853  1.00  0.00     0.021 A 
ATOM     18  C   UNL A   1      33.976  28.315  26.252  1.00  0.00     0.012 A 
ATOM     19  C   UNL A   1      32.359  30.084  26.438  1.00  0.00     0.012 A 
ATOM     20  C   UNL A   1      34.861  29.003  27.071  1.00  0.00     0.027 A 
ATOM     21  C   UNL A   1      33.257  30.805  27.246  1.00  0.00     0.027 A 
ATOM     22  C   UNL A   1      34.542  30.289  27.484  1.00  0.00     0.042 A 
BRANCH  22  23
ATOM     23  N   UNL A   1      35.651  31.192  27.600  1.00  0.00    -0.308 N 
ATOM     24  C   UNL A   1      36.087  31.137  28.903  1.00  0.00     0.321 C 
ATOM     25  H   UNL A   1      36.028  31.747  26.880  1.00  0.00     0.171 HD
ATOM     26  O   UNL A   1      36.510  30.051  29.296  1.00  0.00    -0.248 OA
ATOM     27  N   UNL A   1      35.705  32.124  29.762  1.00  0.00    -0.325 N 
ATOM     28  C   UNL A   1      35.322  31.742  31.099  1.00  0.00     0.121 C 
ATOM     29  C   UNL A   1      36.153  33.503  29.747  1.00  0.00     0.121 C 
ATOM     30  C   UNL A   1      34.845  33.032  31.718  1.00  0.00     0.023 C 
ATOM     31  C   UNL A   1      35.854  34.026  31.158  1.00  0.00     0.023 C 
ENDBRANCH  22  23
ENDBRANCH   5  17
ENDBRANCH   3   5
ENDBRANCH   2   3
ENDBRANCH   1   2
BRANCH   1  32
ATOM     32  C   UNL A   1      31.355  23.240  25.404  1.00  0.00     0.275 C 
BRANCH  32  33
ATOM     33  O   UNL A   1      32.731  23.307  25.839  1.00  0.00    -0.458 OA
BRANCH  33  34
ATOM     34  C   UNL A   1      33.643  22.829  24.953  1.00  0.00     0.338 C 
ATOM     35  O   UNL A   1      33.423  22.295  23.879  1.00  0.00    -0.246 OA
BRANCH  34  36
ATOM     36  C   UNL A   1      35.015  23.124  25.416  1.00  0.00     0.060 A 
ATOM     37  C   UNL A   1      35.281  22.992  26.776  1.00  0.00     0.016 A 
ATOM     38  C   UNL A   1      36.015  23.602  24.573  1.00  0.00     0.016 A 
ATOM     39  C   UNL A   1      36.514  23.381  27.317  1.00  0.00     0.010 A 
ATOM     40  C   UNL A   1      37.286  23.905  25.108  1.00  0.00     0.010 A 
ATOM     41  C   UNL A   1      37.559  23.776  26.490  1.00  0.00    -0.014 A 
BRANCH  41  42
ATOM     42  C   UNL A   1      38.895  24.168  27.021  1.00  0.00     0.031 A 
ATOM     43  C   UNL A   1      40.045  23.267  26.770  1.00  0.00     0.074 A 
ATOM     44  C   UNL A   1      39.227  25.365  27.546  1.00  0.00     0.049 A 
ATOM     45  N   UNL A   1      41.289  23.451  27.114  1.00  0.00    -0.248 NA
ATOM     46  C   UNL A   1      39.801  22.108  25.903  1.00  0.00     0.031 C 
ATOM     47  C   UNL A   1      38.595  26.618  27.226  1.00  0.00     0.029 A 
ATOM     48  N   UNL A   1      40.211  25.758  28.424  1.00  0.00    -0.354 N 
ATOM     49  C   UNL A   1      41.997  22.494  26.427  1.00  0.00     0.074 A 
ATOM     50  C   UNL A   1      41.038  21.674  25.711  1.00  0.00     0.031 C 
ATOM     51  C   UNL A   1      38.977  27.585  28.070  1.00  0.00     0.029 A 
ATOM     52  C   UNL A   1      39.995  27.025  28.929  1.00  0.00     0.049 A 
ATOM     53  H   UNL A   1      40.983  25.197  28.665  1.00  0.00     0.167 HD
ATOM     54  C   UNL A   1      43.338  22.360  26.373  1.00  0.00     0.037 A 
ATOM     55  C   UNL A   1      40.609  27.736  29.889  1.00  0.00     0.037 A 
ATOM     56  C   UNL A   1      44.264  23.164  27.126  1.00  0.00     0.049 A 
ATOM     57  C   UNL A   1      42.022  27.346  30.137  1.00  0.00     0.074 A 
ATOM     58  C   UNL A   1      45.630  22.997  27.252  1.00  0.00     0.029 A 
ATOM     59  N   UNL A   1      43.923  24.274  27.897  1.00  0.00    -0.354 N 
ATOM     60  N   UNL A   1      42.687  26.384  29.552  1.00  0.00    -0.248 NA
ATOM     61  C   UNL A   1      42.825  28.211  31.005  1.00  0.00     0.031 C 
ATOM     62  C   UNL A   1      46.108  23.956  28.152  1.00  0.00     0.029 A 
ATOM     63  C   UNL A   1      45.050  24.757  28.553  1.00  0.00     0.049 A 
ATOM     64  H   UNL A   1      43.020  24.658  27.967  1.00  0.00     0.167 HD
ATOM     65  C   UNL A   1      44.007  26.582  29.886  1.00  0.00     0.074 A 
ATOM     66  C   UNL A   1      44.042  27.743  30.759  1.00  0.00     0.031 C 
ATOM     67  C   UNL A   1      45.083  25.883  29.458  1.00  0.00     0.037 A 
BRANCH  54  68
ATOM     68  C   UNL A   1      43.823  21.221  25.544  1.00  0.00     0.057 A 
ATOM     69  C   UNL A   1      43.625  19.887  25.920  1.00  0.00     0.134 A 
ATOM     70  C   UNL A   1      44.606  21.476  24.414  1.00  0.00     0.134 A 
ATOM     71  F   UNL A   1      42.927  19.586  27.027  1.00  0.00    -0.206 F 
ATOM     72  C   UNL A   1      44.209  18.841  25.206  1.00  0.00     0.040 A 
ATOM     73  C   UNL A   1      45.181  20.438  23.684  1.00  0.00     0.040 A 
ATOM     74  F   UNL A   1      44.856  22.736  24.031  1.00  0.00    -0.206 F 
ATOM     75  C   UNL A   1      44.990  19.117  24.084  1.00  0.00     0.006 A 
ENDBRANCH  54  68
BRANCH  55  76
ATOM     76  C   UNL A   1      39.991  28.961  30.458  1.00  0.00     0.057 A 
ATOM     77  C   UNL A   1      40.234  30.239  29.946  1.00  0.00     0.134 A 
ATOM     78  C   UNL A   1      39.123  28.869  31.558  1.00  0.00     0.134 A 
ATOM     79  F   UNL A   1      41.046  30.398  28.892  1.00  0.00    -0.206 F 
ATOM     80  C   UNL A   1      39.663  31.381  30.517  1.00  0.00     0.040 A 
ATOM     81  C   UNL A   1      38.538  30.002  32.134  1.00  0.00     0.040 A 
ATOM     82  F   UNL A   1      38.835  27.675  32.098  1.00  0.00    -0.206 F 
ATOM     83  C   UNL A   1      38.814  31.264  31.617  1.00  0.00     0.006 A 
ENDBRANCH  55  76
BRANCH  67  84
ATOM     84  C   UNL A   1      46.405  26.336  29.989  1.00  0.00     0.057 A 
ATOM     85  C   UNL A   1      46.869  25.899  31.235  1.00  0.00     0.134 A 
ATOM     86  C   UNL A   1      47.220  27.204  29.255  1.00  0.00     0.134 A 
ATOM     87  F   UNL A   1      46.119  25.084  31.993  1.00  0.00    -0.206 F 
ATOM     88  C   UNL A   1      48.089  26.333  31.749  1.00  0.00     0.040 A 
ATOM     89  C   UNL A   1      48.458  27.620  29.744  1.00  0.00     0.040 A 
ATOM     90  F   UNL A   1      46.832  27.659  28.054  1.00  0.00    -0.206 F 
ATOM     91  C   UNL A   1      48.891  27.190  30.998  1.00  0.00     0.006 A 
ENDBRANCH  67  84
ENDBRANCH  41  42
ENDBRANCH  34  36
ENDBRANCH  33  34
ENDBRANCH  32  33
ENDBRANCH   1  32
TORSDOF 16
ENDMDL
MODEL 3
REMARK VINA RESULT:     -11.6      3.372      8.624
REMARK SMILES Cc1c[nH]c(C[N@@H+](C)[C@@H](C(=O)OCCOC(=O)c2ccc(-c3c4nc(c(-c5c(F)cccc5F)c5ccc([nH]5)c(-c5c(F)cccc5F)c5nc(c(-c6c(F)cccc6F)c6ccc3[nH]6)C=C5)C=C4)cc2)c2ccc(NC(=O)N3CCCC3)cc2)n1
REMARK SMILES IDX 13 1 12 2 10 3 11 4 9 5 7 6 8 7 6 9 5 10 1 11 2 12 3 13
REMARK SMILES IDX 86 14 4 15 72 17 73 18 85 19 74 20 84 21 75 22 76 23 77 24
REMARK SMILES IDX 78 26 79 27 80 28 83 29 81 30 82 31 14 32 15 33 16 34 17 35
REMARK SMILES IDX 18 36 19 37 71 38 20 39 70 40 21 41 22 42 23 43 64 44 24 45
REMARK SMILES IDX 69 46 63 47 65 48 25 49 68 50 62 51 61 52 26 54 52 55 35 56
REMARK SMILES IDX 51 57 36 58 39 59 50 60 66 61 37 62 38 63 49 65 67 66 40 67
REMARK SMILES IDX 27 68 28 69 33 70 29 71 30 72 32 73 34 74 31 75 53 76 54 77
REMARK SMILES IDX 59 78 55 79 56 80 58 81 60 82 57 83 41 84 42 85 47 86 43 87
REMARK SMILES IDX 44 88 46 89 48 90 45 91
REMARK H PARENT 7 8 4 16 76 25 65 53 39 64
REMARK Flexibility Score: inf
ROOT
ATOM      1  C   UNL A   1      32.229  28.599  27.311  1.00  0.00     0.274 C 
ENDROOT
BRANCH   1   2
ATOM      2  O   UNL A   1      32.737  27.397  26.714  1.00  0.00    -0.457 OA
BRANCH   2   3
ATOM      3  C   UNL A   1      31.821  26.682  26.002  1.00  0.00     0.370 C 
ATOM      4  O   UNL A   1      30.716  26.373  26.444  1.00  0.00    -0.245 OA
BRANCH   3   5
ATOM      5  C   UNL A   1      32.259  26.407  24.539  1.00  0.00     0.326 C 
BRANCH   5   6
ATOM      6  N   UNL A   1      31.369  27.041  23.500  1.00  0.00    -0.316 N 
ATOM      7  C   UNL A   1      31.456  26.210  22.280  1.00  0.00     0.334 C 
ATOM      8  H   UNL A   1      30.452  27.083  23.946  1.00  0.00     0.349 HD
BRANCH   6   9
ATOM      9  C   UNL A   1      31.643  28.440  23.099  1.00  0.00     0.339 C 
BRANCH   9  10
ATOM     10  C   UNL A   1      30.490  29.374  22.858  1.00  0.00     0.161 A 
ATOM     11  C   UNL A   1      27.594  31.352  23.523  1.00  0.00     0.068 C 
ATOM     12  C   UNL A   1      28.749  30.654  22.918  1.00  0.00     0.056 A 
ATOM     13  C   UNL A   1      29.311  30.852  21.677  1.00  0.00     0.107 A 
ATOM     14  N   UNL A   1      29.461  29.699  23.616  1.00  0.00    -0.233 NA
ATOM     15  N   UNL A   1      30.404  30.034  21.646  1.00  0.00    -0.344 N 
ATOM     16  H   UNL A   1      31.026  29.932  20.890  1.00  0.00     0.167 HD
ENDBRANCH   9  10
ENDBRANCH   6   9
ENDBRANCH   5   6
BRANCH   5  17
ATOM     17  C   UNL A   1      32.817  24.993  24.356  1.00  0.00     0.021 A 
ATOM     18  C   UNL A   1      34.091  24.840  23.763  1.00  0.00     0.012 A 
ATOM     19  C   UNL A   1      32.075  23.828  24.595  1.00  0.00     0.012 A 
ATOM     20  C   UNL A   1      34.663  23.592  23.559  1.00  0.00     0.027 A 
ATOM     21  C   UNL A   1      32.653  22.558  24.419  1.00  0.00     0.027 A 
ATOM     22  C   UNL A   1      33.984  22.458  23.979  1.00  0.00     0.042 A 
BRANCH  22  23
ATOM     23  N   UNL A   1      34.809  21.395  24.477  1.00  0.00    -0.308 N 
ATOM     24  C   UNL A   1      35.361  21.826  25.660  1.00  0.00     0.321 C 
ATOM     25  H   UNL A   1      34.953  20.520  24.050  1.00  0.00     0.171 HD
ATOM     26  O   UNL A   1      34.576  22.083  26.571  1.00  0.00    -0.248 OA
ATOM     27  N   UNL A   1      36.645  22.286  25.654  1.00  0.00    -0.325 N 
ATOM     28  C   UNL A   1      36.943  23.461  26.434  1.00  0.00     0.121 C 
ATOM     29  C   UNL A   1      37.844  21.493  25.468  1.00  0.00     0.121 C 
ATOM     30  C   UNL A   1      38.384  23.757  26.101  1.00  0.00     0.023 C 
ATOM     31  C   UNL A   1      38.975  22.354  26.046  1.00  0.00     0.023 C 
ENDBRANCH  22  23
ENDBRANCH   5  17
ENDBRANCH   3   5
ENDBRANCH   2   3
ENDBRANCH   1   2
BRANCH   1  32
ATOM     32  C   UNL A   1      32.635  29.819  26.480  1.00  0.00     0.275 C 
BRANCH  32  33
ATOM     33  O   UNL A   1      34.062  30.040  26.532  1.00  0.00    -0.458 OA
BRANCH  33  34
ATOM     34  C   UNL A   1      34.507  30.699  27.633  1.00  0.00     0.338 C 
ATOM     35  O   UNL A   1      33.921  31.562  28.267  1.00  0.00    -0.246 OA
BRANCH  34  36
ATOM     36  C   UNL A   1      35.815  30.163  28.062  1.00  0.00     0.060 A 
ATOM     37  C   UNL A   1      35.908  29.635  29.346  1.00  0.00     0.016 A 
ATOM     38  C   UNL A   1      36.962  30.238  27.275  1.00  0.00     0.016 A 
ATOM     39  C   UNL A   1      37.141  29.231  29.878  1.00  0.00     0.010 A 
ATOM     40  C   UNL A   1      38.183  29.744  27.781  1.00  0.00     0.010 A 
ATOM     41  C   UNL A   1      38.283  29.211  29.087  1.00  0.00    -0.014 A 
BRANCH  41  42
ATOM     42  C   UNL A   1      39.606  28.760  29.604  1.00  0.00     0.031 A 
ATOM     43  C   UNL A   1      40.238  29.536  30.697  1.00  0.00     0.074 A 
ATOM     44  C   UNL A   1      40.219  27.592  29.322  1.00  0.00     0.049 A 
ATOM     45  N   UNL A   1      41.362  29.283  31.305  1.00  0.00    -0.248 NA
ATOM     46  C   UNL A   1      39.446  30.629  31.275  1.00  0.00     0.031 C 
ATOM     47  C   UNL A   1      39.553  26.371  28.950  1.00  0.00     0.029 A 
ATOM     48  N   UNL A   1      41.538  27.200  29.348  1.00  0.00    -0.354 N 
ATOM     49  C   UNL A   1      41.373  30.112  32.401  1.00  0.00     0.074 A 
ATOM     50  C   UNL A   1      40.184  30.940  32.331  1.00  0.00     0.031 C 
ATOM     51  C   UNL A   1      40.425  25.456  28.508  1.00  0.00     0.029 A 
ATOM     52  C   UNL A   1      41.749  26.006  28.687  1.00  0.00     0.049 A 
ATOM     53  H   UNL A   1      42.251  27.715  29.789  1.00  0.00     0.167 HD
ATOM     54  C   UNL A   1      42.283  30.131  33.396  1.00  0.00     0.037 A 
ATOM     55  C   UNL A   1      42.865  25.337  28.357  1.00  0.00     0.037 A 
ATOM     56  C   UNL A   1      43.475  29.324  33.419  1.00  0.00     0.049 A 
ATOM     57  C   UNL A   1      44.039  25.629  29.222  1.00  0.00     0.074 A 
ATOM     58  C   UNL A   1      44.531  29.389  34.309  1.00  0.00     0.029 A 
ATOM     59  N   UNL A   1      43.785  28.320  32.503  1.00  0.00    -0.354 N 
ATOM     60  N   UNL A   1      44.091  26.477  30.216  1.00  0.00    -0.248 NA
ATOM     61  C   UNL A   1      45.224  24.784  29.070  1.00  0.00     0.031 C 
ATOM     62  C   UNL A   1      45.509  28.479  33.896  1.00  0.00     0.029 A 
ATOM     63  C   UNL A   1      45.049  27.807  32.774  1.00  0.00     0.049 A 
ATOM     64  H   UNL A   1      43.197  28.019  31.774  1.00  0.00     0.167 HD
ATOM     65  C   UNL A   1      45.261  26.202  30.884  1.00  0.00     0.074 A 
ATOM     66  C   UNL A   1      45.910  25.126  30.154  1.00  0.00     0.031 C 
ATOM     67  C   UNL A   1      45.717  26.769  32.025  1.00  0.00     0.037 A 
BRANCH  54  68
ATOM     68  C   UNL A   1      42.035  31.146  34.457  1.00  0.00     0.057 A 
ATOM     69  C   UNL A   1      41.249  30.871  35.583  1.00  0.00     0.134 A 
ATOM     70  C   UNL A   1      42.494  32.455  34.280  1.00  0.00     0.134 A 
ATOM     71  F   UNL A   1      40.736  29.645  35.775  1.00  0.00    -0.206 F 
ATOM     72  C   UNL A   1      40.911  31.875  36.490  1.00  0.00     0.040 A 
ATOM     73  C   UNL A   1      42.176  33.462  35.188  1.00  0.00     0.040 A 
ATOM     74  F   UNL A   1      43.220  32.779  33.201  1.00  0.00    -0.206 F 
ATOM     75  C   UNL A   1      41.376  33.175  36.293  1.00  0.00     0.006 A 
ENDBRANCH  54  68
BRANCH  55  76
ATOM     76  C   UNL A   1      42.837  24.223  27.375  1.00  0.00     0.057 A 
ATOM     77  C   UNL A   1      43.047  24.416  26.006  1.00  0.00     0.134 A 
ATOM     78  C   UNL A   1      42.593  22.908  27.803  1.00  0.00     0.134 A 
ATOM     79  F   UNL A   1      43.294  25.645  25.530  1.00  0.00    -0.206 F 
ATOM     80  C   UNL A   1      42.987  23.356  25.096  1.00  0.00     0.040 A 
ATOM     81  C   UNL A   1      42.539  21.836  26.905  1.00  0.00     0.040 A 
ATOM     82  F   UNL A   1      42.392  22.644  29.103  1.00  0.00    -0.206 F 
ATOM     83  C   UNL A   1      42.730  22.061  25.545  1.00  0.00     0.006 A 
ENDBRANCH  55  76
BRANCH  67  84
ATOM     84  C   UNL A   1      47.031  26.258  32.524  1.00  0.00     0.057 A 
ATOM     85  C   UNL A   1      48.234  26.848  32.118  1.00  0.00     0.134 A 
ATOM     86  C   UNL A   1      47.097  25.183  33.415  1.00  0.00     0.134 A 
ATOM     87  F   UNL A   1      48.232  27.868  31.247  1.00  0.00    -0.206 F 
ATOM     88  C   UNL A   1      49.464  26.366  32.561  1.00  0.00     0.040 A 
ATOM     89  C   UNL A   1      48.321  24.711  33.890  1.00  0.00     0.040 A 
ATOM     90  F   UNL A   1      45.980  24.575  33.840  1.00  0.00    -0.206 F 
ATOM     91  C   UNL A   1      49.509  25.299  33.455  1.00  0.00     0.006 A 
ENDBRANCH  67  84
ENDBRANCH  41  42
ENDBRANCH  34  36
ENDBRANCH  33  34
ENDBRANCH  32  33
ENDBRANCH   1  32
TORSDOF 16
ENDMDL
