MODEL 1
REMARK VINA RESULT:     -10.6      0.000      0.000
REMARK SMILES N#CCSCC(=O)N1Cc2ccccc2C[C@@H]1C(=O)OCCOC(=O)c1ccc(-c2c3nc(c(-c4c(F)cccc4F)c4ccc([nH]4)c(-c4c(F)cccc4F)c4nc(c(-c5c(F)cccc5F)c5ccc2[nH]5)C=C4)C=C3)cc1
REMARK SMILES IDX 20 1 18 2 19 3 17 4 8 5 9 6 10 7 16 8 11 9 15 10 12 11 14 12
REMARK SMILES IDX 13 13 6 14 7 15 5 16 4 17 3 18 2 19 1 20 21 21 22 22 23 23
REMARK SMILES IDX 24 24 25 25 26 26 27 27 79 28 28 29 78 30 29 31 30 32 31 33
REMARK SMILES IDX 72 34 32 35 77 36 71 37 73 38 33 39 76 40 70 41 69 42 34 44
REMARK SMILES IDX 60 45 43 46 59 47 44 48 47 49 58 50 74 51 45 52 46 53 57 55
REMARK SMILES IDX 75 56 48 57 35 58 36 59 41 60 37 61 38 62 40 63 42 64 39 65
REMARK SMILES IDX 61 66 62 67 67 68 63 69 64 70 66 71 68 72 65 73 49 74 50 75
REMARK SMILES IDX 55 76 51 77 52 78 54 79 56 80 53 81
REMARK H PARENT 73 43 47 54
REMARK Flexibility Score: inf
ROOT
ATOM      1  O   UNL A   1      31.728  27.761  25.840  1.00  0.00    -0.461 OA
ENDROOT
BRANCH   1   2
ATOM      2  C   UNL A   1      32.891  27.157  25.484  1.00  0.00     0.329 C 
ATOM      3  O   UNL A   1      33.965  27.407  26.018  1.00  0.00    -0.250 OA
BRANCH   2   4
ATOM      4  C   UNL A   1      32.787  26.205  24.273  1.00  0.00     0.199 C 
ATOM      5  N   UNL A   1      31.401  25.735  24.194  1.00  0.00    -0.323 N 
ATOM      6  C   UNL A   1      31.091  24.419  24.796  1.00  0.00     0.156 C 
ATOM      7  C   UNL A   1      32.178  23.834  25.675  1.00  0.00    -0.025 A 
ATOM      8  C   UNL A   1      33.827  25.092  24.316  1.00  0.00     0.073 C 
ATOM      9  C   UNL A   1      31.871  22.970  26.732  1.00  0.00     0.006 A 
ATOM     10  C   UNL A   1      33.523  24.159  25.443  1.00  0.00    -0.040 A 
ATOM     11  C   UNL A   1      32.885  22.489  27.568  1.00  0.00     0.000 A 
ATOM     12  C   UNL A   1      34.536  23.673  26.275  1.00  0.00     0.004 A 
ATOM     13  C   UNL A   1      34.212  22.850  27.347  1.00  0.00     0.000 A 
BRANCH   5  14
ATOM     14  C   UNL A   1      30.349  26.546  23.780  1.00  0.00     0.233 C 
ATOM     15  O   UNL A   1      29.217  26.362  24.248  1.00  0.00    -0.274 OA
BRANCH  14  16
ATOM     16  C   UNL A   1      30.475  27.540  22.613  1.00  0.00     0.170 C 
BRANCH  16  17
ATOM     17  S   UNL A   1      30.124  29.316  22.805  1.00  0.00    -0.137 SA
BRANCH  17  18
ATOM     18  C   UNL A   1      28.357  29.450  22.306  1.00  0.00     0.189 C 
BRANCH  18  19
ATOM     19  C   UNL A   1      27.703  30.608  23.041  1.00  0.00     0.073 C 
ATOM     20  N   UNL A   1      27.160  31.569  23.652  1.00  0.00    -0.197 NA
ENDBRANCH  18  19
ENDBRANCH  17  18
ENDBRANCH  16  17
ENDBRANCH  14  16
ENDBRANCH   5  14
ENDBRANCH   2   4
ENDBRANCH   1   2
BRANCH   1  21
ATOM     21  C   UNL A   1      31.756  28.642  26.982  1.00  0.00     0.274 C 
BRANCH  21  22
ATOM     22  C   UNL A   1      31.741  30.141  26.660  1.00  0.00     0.275 C 
BRANCH  22  23
ATOM     23  O   UNL A   1      33.056  30.662  26.377  1.00  0.00    -0.458 OA
BRANCH  23  24
ATOM     24  C   UNL A   1      33.458  31.672  27.190  1.00  0.00     0.338 C 
ATOM     25  O   UNL A   1      32.793  32.628  27.546  1.00  0.00    -0.246 OA
BRANCH  24  26
ATOM     26  C   UNL A   1      34.772  31.363  27.793  1.00  0.00     0.060 A 
ATOM     27  C   UNL A   1      34.973  30.051  28.245  1.00  0.00     0.016 A 
ATOM     28  C   UNL A   1      35.778  32.314  27.942  1.00  0.00     0.016 A 
ATOM     29  C   UNL A   1      36.167  29.669  28.834  1.00  0.00     0.010 A 
ATOM     30  C   UNL A   1      36.970  31.945  28.578  1.00  0.00     0.010 A 
ATOM     31  C   UNL A   1      37.161  30.626  29.034  1.00  0.00    -0.014 A 
BRANCH  31  32
ATOM     32  C   UNL A   1      38.328  30.262  29.861  1.00  0.00     0.031 A 
ATOM     33  C   UNL A   1      39.353  29.335  29.281  1.00  0.00     0.074 A 
ATOM     34  C   UNL A   1      38.500  30.806  31.077  1.00  0.00     0.049 A 
ATOM     35  N   UNL A   1      40.409  28.811  29.843  1.00  0.00    -0.248 NA
ATOM     36  C   UNL A   1      39.165  28.953  27.871  1.00  0.00     0.031 C 
ATOM     37  C   UNL A   1      37.618  31.797  31.694  1.00  0.00     0.029 A 
ATOM     38  N   UNL A   1      39.479  30.595  32.013  1.00  0.00    -0.354 N 
ATOM     39  C   UNL A   1      41.000  28.021  28.867  1.00  0.00     0.074 A 
ATOM     40  C   UNL A   1      40.181  28.126  27.678  1.00  0.00     0.031 C 
ATOM     41  C   UNL A   1      38.084  32.090  32.920  1.00  0.00     0.029 A 
ATOM     42  C   UNL A   1      39.267  31.276  33.186  1.00  0.00     0.049 A 
ATOM     43  H   UNL A   1      40.257  30.012  31.858  1.00  0.00     0.167 HD
ATOM     44  C   UNL A   1      42.124  27.274  28.958  1.00  0.00     0.037 A 
ATOM     45  C   UNL A   1      39.935  31.212  34.352  1.00  0.00     0.037 A 
ATOM     46  C   UNL A   1      42.928  27.181  30.148  1.00  0.00     0.049 A 
ATOM     47  C   UNL A   1      41.123  30.294  34.463  1.00  0.00     0.074 A 
ATOM     48  C   UNL A   1      44.085  26.451  30.353  1.00  0.00     0.029 A 
ATOM     49  N   UNL A   1      42.653  27.840  31.337  1.00  0.00    -0.354 N 
ATOM     50  N   UNL A   1      41.668  29.531  33.545  1.00  0.00    -0.248 NA
ATOM     51  C   UNL A   1      41.784  30.223  35.773  1.00  0.00     0.031 C 
ATOM     52  C   UNL A   1      44.482  26.628  31.682  1.00  0.00     0.029 A 
ATOM     53  C   UNL A   1      43.602  27.510  32.290  1.00  0.00     0.049 A 
ATOM     54  H   UNL A   1      41.895  28.451  31.482  1.00  0.00     0.167 HD
ATOM     55  C   UNL A   1      42.746  28.905  34.158  1.00  0.00     0.074 A 
ATOM     56  C   UNL A   1      42.787  29.392  35.522  1.00  0.00     0.031 C 
ATOM     57  C   UNL A   1      43.622  28.008  33.642  1.00  0.00     0.037 A 
BRANCH  44  58
ATOM     58  C   UNL A   1      42.514  26.466  27.758  1.00  0.00     0.057 A 
ATOM     59  C   UNL A   1      42.032  25.168  27.543  1.00  0.00     0.134 A 
ATOM     60  C   UNL A   1      43.379  27.002  26.795  1.00  0.00     0.134 A 
ATOM     61  F   UNL A   1      41.219  24.588  28.439  1.00  0.00    -0.206 F 
ATOM     62  C   UNL A   1      42.412  24.425  26.424  1.00  0.00     0.040 A 
ATOM     63  C   UNL A   1      43.745  26.278  25.659  1.00  0.00     0.040 A 
ATOM     64  F   UNL A   1      43.879  28.238  26.942  1.00  0.00    -0.206 F 
ATOM     65  C   UNL A   1      43.266  24.984  25.474  1.00  0.00     0.006 A 
ENDBRANCH  44  58
BRANCH  45  66
ATOM     66  C   UNL A   1      39.472  32.004  35.520  1.00  0.00     0.057 A 
ATOM     67  C   UNL A   1      39.970  33.288  35.773  1.00  0.00     0.134 A 
ATOM     68  C   UNL A   1      38.535  31.487  36.424  1.00  0.00     0.134 A 
ATOM     69  F   UNL A   1      40.889  33.827  34.958  1.00  0.00    -0.206 F 
ATOM     70  C   UNL A   1      39.563  34.023  36.887  1.00  0.00     0.040 A 
ATOM     71  C   UNL A   1      38.099  32.221  37.528  1.00  0.00     0.040 A 
ATOM     72  F   UNL A   1      38.022  30.262  36.240  1.00  0.00    -0.206 F 
ATOM     73  C   UNL A   1      38.619  33.491  37.766  1.00  0.00     0.006 A 
ENDBRANCH  45  66
BRANCH  57  74
ATOM     74  C   UNL A   1      44.714  27.522  34.549  1.00  0.00     0.057 A 
ATOM     75  C   UNL A   1      44.582  26.347  35.300  1.00  0.00     0.134 A 
ATOM     76  C   UNL A   1      45.928  28.215  34.639  1.00  0.00     0.134 A 
ATOM     77  F   UNL A   1      43.439  25.644  35.267  1.00  0.00    -0.206 F 
ATOM     78  C   UNL A   1      45.609  25.893  36.128  1.00  0.00     0.040 A 
ATOM     79  C   UNL A   1      46.972  27.755  35.441  1.00  0.00     0.040 A 
ATOM     80  F   UNL A   1      46.123  29.342  33.937  1.00  0.00    -0.206 F 
ATOM     81  C   UNL A   1      46.812  26.594  36.194  1.00  0.00     0.006 A 
ENDBRANCH  57  74
ENDBRANCH  31  32
ENDBRANCH  24  26
ENDBRANCH  23  24
ENDBRANCH  22  23
ENDBRANCH  21  22
ENDBRANCH   1  21
TORSDOF 16
ENDMDL
MODEL 2
REMARK VINA RESULT:     -10.5      5.129      8.421
REMARK SMILES N#CCSCC(=O)N1Cc2ccccc2C[C@@H]1C(=O)OCCOC(=O)c1ccc(-c2c3nc(c(-c4c(F)cccc4F)c4ccc([nH]4)c(-c4c(F)cccc4F)c4nc(c(-c5c(F)cccc5F)c5ccc2[nH]5)C=C4)C=C3)cc1
REMARK SMILES IDX 20 1 18 2 19 3 17 4 8 5 9 6 10 7 16 8 11 9 15 10 12 11 14 12
REMARK SMILES IDX 13 13 6 14 7 15 5 16 4 17 3 18 2 19 1 20 21 21 22 22 23 23
REMARK SMILES IDX 24 24 25 25 26 26 27 27 79 28 28 29 78 30 29 31 30 32 31 33
REMARK SMILES IDX 72 34 32 35 77 36 71 37 73 38 33 39 76 40 70 41 69 42 34 44
REMARK SMILES IDX 60 45 43 46 59 47 44 48 47 49 58 50 74 51 45 52 46 53 57 55
REMARK SMILES IDX 75 56 48 57 35 58 36 59 41 60 37 61 38 62 40 63 42 64 39 65
REMARK SMILES IDX 61 66 62 67 67 68 63 69 64 70 66 71 68 72 65 73 49 74 50 75
REMARK SMILES IDX 55 76 51 77 52 78 54 79 56 80 53 81
REMARK H PARENT 73 43 47 54
REMARK Flexibility Score: inf
ROOT
ATOM      1  O   UNL A   1      38.012  21.598  25.156  1.00  0.00    -0.461 OA
ENDROOT
BRANCH   1   2
ATOM      2  C   UNL A   1      36.746  21.777  24.698  1.00  0.00     0.329 C 
ATOM      3  O   UNL A   1      36.495  22.196  23.574  1.00  0.00    -0.250 OA
BRANCH   2   4
ATOM      4  C   UNL A   1      35.634  21.522  25.737  1.00  0.00     0.199 C 
ATOM      5  N   UNL A   1      34.566  20.770  25.071  1.00  0.00    -0.323 N 
ATOM      6  C   UNL A   1      33.410  21.538  24.556  1.00  0.00     0.156 C 
ATOM      7  C   UNL A   1      33.591  23.043  24.521  1.00  0.00    -0.025 A 
ATOM      8  C   UNL A   1      35.169  22.804  26.419  1.00  0.00     0.073 C 
ATOM      9  C   UNL A   1      32.918  23.834  23.585  1.00  0.00     0.006 A 
ATOM     10  C   UNL A   1      34.452  23.669  25.434  1.00  0.00    -0.040 A 
ATOM     11  C   UNL A   1      33.146  25.213  23.532  1.00  0.00     0.000 A 
ATOM     12  C   UNL A   1      34.675  25.048  25.385  1.00  0.00     0.004 A 
ATOM     13  C   UNL A   1      34.031  25.817  24.422  1.00  0.00     0.000 A 
BRANCH   5  14
ATOM     14  C   UNL A   1      34.689  19.430  24.719  1.00  0.00     0.233 C 
ATOM     15  O   UNL A   1      35.816  18.925  24.626  1.00  0.00    -0.274 OA
BRANCH  14  16
ATOM     16  C   UNL A   1      33.497  18.583  24.244  1.00  0.00     0.170 C 
BRANCH  16  17
ATOM     17  S   UNL A   1      32.528  17.541  25.379  1.00  0.00    -0.137 SA
BRANCH  17  18
ATOM     18  C   UNL A   1      33.012  15.832  24.895  1.00  0.00     0.189 C 
BRANCH  18  19
ATOM     19  C   UNL A   1      34.495  15.625  25.159  1.00  0.00     0.073 C 
ATOM     20  N   UNL A   1      35.725  15.453  25.378  1.00  0.00    -0.197 NA
ENDBRANCH  18  19
ENDBRANCH  17  18
ENDBRANCH  16  17
ENDBRANCH  14  16
ENDBRANCH   5  14
ENDBRANCH   2   4
ENDBRANCH   1   2
BRANCH   1  21
ATOM     21  C   UNL A   1      38.580  20.276  25.049  1.00  0.00     0.274 C 
BRANCH  21  22
ATOM     22  C   UNL A   1      39.574  19.894  26.153  1.00  0.00     0.275 C 
BRANCH  22  23
ATOM     23  O   UNL A   1      40.743  19.222  25.640  1.00  0.00    -0.458 OA
BRANCH  23  24
ATOM     24  C   UNL A   1      41.888  19.463  26.327  1.00  0.00     0.338 C 
ATOM     25  O   UNL A   1      42.820  18.693  26.483  1.00  0.00    -0.246 OA
BRANCH  24  26
ATOM     26  C   UNL A   1      41.982  20.891  26.699  1.00  0.00     0.060 A 
ATOM     27  C   UNL A   1      41.830  21.829  25.668  1.00  0.00     0.016 A 
ATOM     28  C   UNL A   1      42.232  21.319  28.001  1.00  0.00     0.016 A 
ATOM     29  C   UNL A   1      41.911  23.189  25.917  1.00  0.00     0.010 A 
ATOM     30  C   UNL A   1      42.362  22.691  28.249  1.00  0.00     0.010 A 
ATOM     31  C   UNL A   1      42.213  23.626  27.206  1.00  0.00    -0.014 A 
BRANCH  31  32
ATOM     32  C   UNL A   1      42.521  25.055  27.408  1.00  0.00     0.031 A 
ATOM     33  C   UNL A   1      43.834  25.580  26.911  1.00  0.00     0.074 A 
ATOM     34  C   UNL A   1      41.615  25.878  27.960  1.00  0.00     0.049 A 
ATOM     35  N   UNL A   1      44.358  26.769  27.048  1.00  0.00    -0.248 NA
ATOM     36  C   UNL A   1      44.668  24.635  26.149  1.00  0.00     0.031 C 
ATOM     37  C   UNL A   1      40.269  25.493  28.384  1.00  0.00     0.029 A 
ATOM     38  N   UNL A   1      41.695  27.212  28.263  1.00  0.00    -0.354 N 
ATOM     39  C   UNL A   1      45.589  26.712  26.410  1.00  0.00     0.074 A 
ATOM     40  C   UNL A   1      45.741  25.369  25.893  1.00  0.00     0.031 C 
ATOM     41  C   UNL A   1      39.657  26.565  28.916  1.00  0.00     0.029 A 
ATOM     42  C   UNL A   1      40.584  27.693  28.909  1.00  0.00     0.049 A 
ATOM     43  H   UNL A   1      42.476  27.770  28.039  1.00  0.00     0.167 HD
ATOM     44  C   UNL A   1      46.509  27.694  26.273  1.00  0.00     0.037 A 
ATOM     45  C   UNL A   1      40.364  28.899  29.465  1.00  0.00     0.037 A 
ATOM     46  C   UNL A   1      46.342  29.025  26.792  1.00  0.00     0.049 A 
ATOM     47  C   UNL A   1      41.445  29.945  29.390  1.00  0.00     0.074 A 
ATOM     48  C   UNL A   1      47.212  30.098  26.714  1.00  0.00     0.029 A 
ATOM     49  N   UNL A   1      45.227  29.462  27.492  1.00  0.00    -0.354 N 
ATOM     50  N   UNL A   1      42.618  29.882  28.806  1.00  0.00    -0.248 NA
ATOM     51  C   UNL A   1      41.174  31.225  30.058  1.00  0.00     0.031 C 
ATOM     52  C   UNL A   1      46.645  31.170  27.411  1.00  0.00     0.029 A 
ATOM     53  C   UNL A   1      45.398  30.782  27.878  1.00  0.00     0.049 A 
ATOM     54  H   UNL A   1      44.431  28.916  27.686  1.00  0.00     0.167 HD
ATOM     55  C   UNL A   1      43.217  31.117  29.017  1.00  0.00     0.074 A 
ATOM     56  C   UNL A   1      42.269  31.915  29.769  1.00  0.00     0.031 C 
ATOM     57  C   UNL A   1      44.440  31.555  28.626  1.00  0.00     0.037 A 
BRANCH  44  58
ATOM     58  C   UNL A   1      47.791  27.345  25.578  1.00  0.00     0.057 A 
ATOM     59  C   UNL A   1      47.938  27.447  24.189  1.00  0.00     0.134 A 
ATOM     60  C   UNL A   1      48.900  26.912  26.316  1.00  0.00     0.134 A 
ATOM     61  F   UNL A   1      46.907  27.834  23.423  1.00  0.00    -0.206 F 
ATOM     62  C   UNL A   1      49.136  27.111  23.557  1.00  0.00     0.040 A 
ATOM     63  C   UNL A   1      50.110  26.597  25.698  1.00  0.00     0.040 A 
ATOM     64  F   UNL A   1      48.824  26.790  27.650  1.00  0.00    -0.206 F 
ATOM     65  C   UNL A   1      50.229  26.691  24.314  1.00  0.00     0.006 A 
ENDBRANCH  44  58
BRANCH  45  66
ATOM     66  C   UNL A   1      39.091  29.169  30.179  1.00  0.00     0.057 A 
ATOM     67  C   UNL A   1      38.929  28.839  31.529  1.00  0.00     0.134 A 
ATOM     68  C   UNL A   1      37.996  29.745  29.521  1.00  0.00     0.134 A 
ATOM     69  F   UNL A   1      39.932  28.260  32.207  1.00  0.00    -0.206 F 
ATOM     70  C   UNL A   1      37.724  29.060  32.197  1.00  0.00     0.040 A 
ATOM     71  C   UNL A   1      36.793  29.997  30.183  1.00  0.00     0.040 A 
ATOM     72  F   UNL A   1      38.085  30.082  28.227  1.00  0.00    -0.206 F 
ATOM     73  C   UNL A   1      36.653  29.647  31.524  1.00  0.00     0.006 A 
ENDBRANCH  45  66
BRANCH  57  74
ATOM     74  C   UNL A   1      44.806  32.965  28.980  1.00  0.00     0.057 A 
ATOM     75  C   UNL A   1      45.522  33.273  30.144  1.00  0.00     0.134 A 
ATOM     76  C   UNL A   1      44.472  34.024  28.126  1.00  0.00     0.134 A 
ATOM     77  F   UNL A   1      45.860  32.305  31.010  1.00  0.00    -0.206 F 
ATOM     78  C   UNL A   1      45.873  34.587  30.457  1.00  0.00     0.040 A 
ATOM     79  C   UNL A   1      44.842  35.338  28.415  1.00  0.00     0.040 A 
ATOM     80  F   UNL A   1      43.795  33.797  26.990  1.00  0.00    -0.206 F 
ATOM     81  C   UNL A   1      45.539  35.623  29.587  1.00  0.00     0.006 A 
ENDBRANCH  57  74
ENDBRANCH  31  32
ENDBRANCH  24  26
ENDBRANCH  23  24
ENDBRANCH  22  23
ENDBRANCH  21  22
ENDBRANCH   1  21
TORSDOF 16
ENDMDL
MODEL 3
REMARK VINA RESULT:     -10.4      0.949      1.487
REMARK SMILES N#CCSCC(=O)N1Cc2ccccc2C[C@@H]1C(=O)OCCOC(=O)c1ccc(-c2c3nc(c(-c4c(F)cccc4F)c4ccc([nH]4)c(-c4c(F)cccc4F)c4nc(c(-c5c(F)cccc5F)c5ccc2[nH]5)C=C4)C=C3)cc1
REMARK SMILES IDX 20 1 18 2 19 3 17 4 8 5 9 6 10 7 16 8 11 9 15 10 12 11 14 12
REMARK SMILES IDX 13 13 6 14 7 15 5 16 4 17 3 18 2 19 1 20 21 21 22 22 23 23
REMARK SMILES IDX 24 24 25 25 26 26 27 27 79 28 28 29 78 30 29 31 30 32 31 33
REMARK SMILES IDX 72 34 32 35 77 36 71 37 73 38 33 39 76 40 70 41 69 42 34 44
REMARK SMILES IDX 60 45 43 46 59 47 44 48 47 49 58 50 74 51 45 52 46 53 57 55
REMARK SMILES IDX 75 56 48 57 35 58 36 59 41 60 37 61 38 62 40 63 42 64 39 65
REMARK SMILES IDX 61 66 62 67 67 68 63 69 64 70 66 71 68 72 65 73 49 74 50 75
REMARK SMILES IDX 55 76 51 77 52 78 54 79 56 80 53 81
REMARK H PARENT 73 43 47 54
REMARK Flexibility Score: inf
ROOT
ATOM      1  O   UNL A   1      32.192  28.345  24.542  1.00  0.00    -0.461 OA
ENDROOT
BRANCH   1   2
ATOM      2  C   UNL A   1      32.616  28.183  23.262  1.00  0.00     0.329 C 
ATOM      3  O   UNL A   1      33.413  28.940  22.720  1.00  0.00    -0.250 OA
BRANCH   2   4
ATOM      4  C   UNL A   1      31.934  27.034  22.490  1.00  0.00     0.199 C 
ATOM      5  N   UNL A   1      30.676  26.723  23.175  1.00  0.00    -0.323 N 
ATOM      6  C   UNL A   1      30.680  25.594  24.132  1.00  0.00     0.156 C 
ATOM      7  C   UNL A   1      32.051  25.067  24.511  1.00  0.00    -0.025 A 
ATOM      8  C   UNL A   1      32.856  25.835  22.295  1.00  0.00     0.073 C 
ATOM      9  C   UNL A   1      32.280  24.467  25.753  1.00  0.00     0.006 A 
ATOM     10  C   UNL A   1      33.122  25.182  23.612  1.00  0.00    -0.040 A 
ATOM     11  C   UNL A   1      33.566  24.042  26.105  1.00  0.00     0.000 A 
ATOM     12  C   UNL A   1      34.405  24.752  23.962  1.00  0.00     0.004 A 
ATOM     13  C   UNL A   1      34.628  24.195  25.216  1.00  0.00     0.000 A 
BRANCH   5  14
ATOM     14  C   UNL A   1      29.562  27.555  23.127  1.00  0.00     0.233 C 
ATOM     15  O   UNL A   1      28.475  27.144  23.555  1.00  0.00    -0.274 OA
BRANCH  14  16
ATOM     16  C   UNL A   1      29.562  28.902  22.385  1.00  0.00     0.170 C 
BRANCH  16  17
ATOM     17  S   UNL A   1      28.030  29.818  22.028  1.00  0.00    -0.137 SA
BRANCH  17  18
ATOM     18  C   UNL A   1      27.854  30.924  23.489  1.00  0.00     0.189 C 
BRANCH  18  19
ATOM     19  C   UNL A   1      28.154  32.358  23.086  1.00  0.00     0.073 C 
ATOM     20  N   UNL A   1      28.403  33.548  22.751  1.00  0.00    -0.197 NA
ENDBRANCH  18  19
ENDBRANCH  17  18
ENDBRANCH  16  17
ENDBRANCH  14  16
ENDBRANCH   5  14
ENDBRANCH   2   4
ENDBRANCH   1   2
BRANCH   1  21
ATOM     21  C   UNL A   1      32.907  29.288  25.368  1.00  0.00     0.274 C 
BRANCH  21  22
ATOM     22  C   UNL A   1      32.098  30.506  25.830  1.00  0.00     0.275 C 
BRANCH  22  23
ATOM     23  O   UNL A   1      32.361  30.859  27.204  1.00  0.00    -0.458 OA
BRANCH  23  24
ATOM     24  C   UNL A   1      33.098  31.986  27.373  1.00  0.00     0.338 C 
ATOM     25  O   UNL A   1      32.711  33.135  27.251  1.00  0.00    -0.246 OA
BRANCH  24  26
ATOM     26  C   UNL A   1      34.418  31.662  27.955  1.00  0.00     0.060 A 
ATOM     27  C   UNL A   1      34.619  30.342  28.382  1.00  0.00     0.016 A 
ATOM     28  C   UNL A   1      35.430  32.607  28.109  1.00  0.00     0.016 A 
ATOM     29  C   UNL A   1      35.819  29.945  28.949  1.00  0.00     0.010 A 
ATOM     30  C   UNL A   1      36.627  32.222  28.724  1.00  0.00     0.010 A 
ATOM     31  C   UNL A   1      36.818  30.895  29.154  1.00  0.00    -0.014 A 
BRANCH  31  32
ATOM     32  C   UNL A   1      37.994  30.512  29.961  1.00  0.00     0.031 A 
ATOM     33  C   UNL A   1      39.020  29.609  29.345  1.00  0.00     0.074 A 
ATOM     34  C   UNL A   1      38.173  31.020  31.191  1.00  0.00     0.049 A 
ATOM     35  N   UNL A   1      40.083  29.073  29.883  1.00  0.00    -0.248 NA
ATOM     36  C   UNL A   1      38.822  29.269  27.926  1.00  0.00     0.031 C 
ATOM     37  C   UNL A   1      37.291  31.986  31.845  1.00  0.00     0.029 A 
ATOM     38  N   UNL A   1      39.160  30.786  32.113  1.00  0.00    -0.354 N 
ATOM     39  C   UNL A   1      40.670  28.317  28.878  1.00  0.00     0.074 A 
ATOM     40  C   UNL A   1      39.841  28.454  27.699  1.00  0.00     0.031 C 
ATOM     41  C   UNL A   1      37.765  32.245  33.075  1.00  0.00     0.029 A 
ATOM     42  C   UNL A   1      38.955  31.429  33.307  1.00  0.00     0.049 A 
ATOM     43  H   UNL A   1      39.940  30.212  31.934  1.00  0.00     0.167 HD
ATOM     44  C   UNL A   1      41.799  27.574  28.938  1.00  0.00     0.037 A 
ATOM     45  C   UNL A   1      39.632  31.334  34.466  1.00  0.00     0.037 A 
ATOM     46  C   UNL A   1      42.613  27.449  30.117  1.00  0.00     0.049 A 
ATOM     47  C   UNL A   1      40.826  30.419  34.540  1.00  0.00     0.074 A 
ATOM     48  C   UNL A   1      43.775  26.720  30.291  1.00  0.00     0.029 A 
ATOM     49  N   UNL A   1      42.344  28.070  31.328  1.00  0.00    -0.354 N 
ATOM     50  N   UNL A   1      41.367  29.687  33.595  1.00  0.00    -0.248 NA
ATOM     51  C   UNL A   1      41.498  30.312  35.842  1.00  0.00     0.031 C 
ATOM     52  C   UNL A   1      44.181  26.858  31.622  1.00  0.00     0.029 A 
ATOM     53  C   UNL A   1      43.302  27.716  32.264  1.00  0.00     0.049 A 
ATOM     54  H   UNL A   1      41.584  28.672  31.498  1.00  0.00     0.167 HD
ATOM     55  C   UNL A   1      42.453  29.049  34.180  1.00  0.00     0.074 A 
ATOM     56  C   UNL A   1      42.503  29.495  35.558  1.00  0.00     0.031 C 
ATOM     57  C   UNL A   1      43.330  28.173  33.630  1.00  0.00     0.037 A 
BRANCH  44  58
ATOM     58  C   UNL A   1      42.183  26.805  27.710  1.00  0.00     0.057 A 
ATOM     59  C   UNL A   1      41.767  25.485  27.496  1.00  0.00     0.134 A 
ATOM     60  C   UNL A   1      42.975  27.401  26.721  1.00  0.00     0.134 A 
ATOM     61  F   UNL A   1      41.025  24.848  28.415  1.00  0.00    -0.206 F 
ATOM     62  C   UNL A   1      42.141  24.779  26.350  1.00  0.00     0.040 A 
ATOM     63  C   UNL A   1      43.335  26.715  25.561  1.00  0.00     0.040 A 
ATOM     64  F   UNL A   1      43.411  28.662  26.866  1.00  0.00    -0.206 F 
ATOM     65  C   UNL A   1      42.921  25.398  25.376  1.00  0.00     0.006 A 
ENDBRANCH  44  58
BRANCH  45  66
ATOM     66  C   UNL A   1      39.175  32.087  35.661  1.00  0.00     0.057 A 
ATOM     67  C   UNL A   1      38.264  31.532  36.567  1.00  0.00     0.134 A 
ATOM     68  C   UNL A   1      39.622  33.390  35.915  1.00  0.00     0.134 A 
ATOM     69  F   UNL A   1      37.778  30.298  36.364  1.00  0.00    -0.206 F 
ATOM     70  C   UNL A   1      37.805  32.247  37.674  1.00  0.00     0.040 A 
ATOM     71  C   UNL A   1      39.193  34.108  37.033  1.00  0.00     0.040 A 
ATOM     72  F   UNL A   1      40.494  33.981  35.085  1.00  0.00    -0.206 F 
ATOM     73  C   UNL A   1      38.275  33.538  37.913  1.00  0.00     0.006 A 
ENDBRANCH  45  66
BRANCH  57  74
ATOM     74  C   UNL A   1      44.432  27.665  34.512  1.00  0.00     0.057 A 
ATOM     75  C   UNL A   1      44.303  26.478  35.245  1.00  0.00     0.134 A 
ATOM     76  C   UNL A   1      45.650  28.351  34.598  1.00  0.00     0.134 A 
ATOM     77  F   UNL A   1      43.157  25.782  35.216  1.00  0.00    -0.206 F 
ATOM     78  C   UNL A   1      45.340  26.004  36.051  1.00  0.00     0.040 A 
ATOM     79  C   UNL A   1      46.703  27.872  35.378  1.00  0.00     0.040 A 
ATOM     80  F   UNL A   1      45.841  29.489  33.914  1.00  0.00    -0.206 F 
ATOM     81  C   UNL A   1      46.547  26.699  36.113  1.00  0.00     0.006 A 
ENDBRANCH  57  74
ENDBRANCH  31  32
ENDBRANCH  24  26
ENDBRANCH  23  24
ENDBRANCH  22  23
ENDBRANCH  21  22
ENDBRANCH   1  21
TORSDOF 16
ENDMDL
