MODEL 1
REMARK VINA RESULT:     -11.9      0.000      0.000
REMARK SMILES C[C@H]1CC[C@@](NC(=O)N[C@H]2CCOC2)(C(=O)OCCOC(=O)c2ccc(-c3c4nc(c(-c5c(F)cccc5F)c5ccc([nH]5)c(-c5c(F)cccc5F)c5nc(c(-c6c(F)cccc6F)c6ccc3[nH]6)C=C5)C=C4)cc2)CC1
REMARK SMILES IDX 18 1 17 2 15 3 16 4 5 5 1 6 2 7 78 8 3 9 77 10 4 11 6 12
REMARK SMILES IDX 7 13 8 15 9 16 10 18 11 19 14 20 12 21 13 22 19 23 20 24
REMARK SMILES IDX 21 25 22 26 23 27 24 28 76 29 25 30 75 31 26 32 27 33 28 34
REMARK SMILES IDX 69 35 29 36 74 37 68 38 70 39 30 40 73 41 67 42 66 43 31 45
REMARK SMILES IDX 57 46 40 47 56 48 41 49 44 50 55 51 71 52 42 53 43 54 54 56
REMARK SMILES IDX 72 57 45 58 32 59 33 60 38 61 34 62 35 63 37 64 39 65 36 66
REMARK SMILES IDX 58 67 59 68 64 69 60 70 61 71 63 72 65 73 62 74 46 75 47 76
REMARK SMILES IDX 52 77 48 78 49 79 51 80 53 81 50 82
REMARK H PARENT 6 14 9 17 70 44 44 55
REMARK Flexibility Score: inf
ROOT
ATOM      1  C   UNL A   1      35.185  19.900  24.996  1.00  0.00     0.274 C 
ENDROOT
BRANCH   1   2
ATOM      2  O   UNL A   1      34.473  20.955  25.689  1.00  0.00    -0.460 OA
BRANCH   2   3
ATOM      3  C   UNL A   1      33.143  21.143  25.519  1.00  0.00     0.332 C 
ATOM      4  O   UNL A   1      32.347  20.251  25.310  1.00  0.00    -0.249 OA
BRANCH   3   5
ATOM      5  C   UNL A   1      32.695  22.593  25.776  1.00  0.00     0.139 C 
ATOM      6  C   UNL A   1      35.797  22.974  22.898  1.00  0.00     0.007 C 
ATOM      7  C   UNL A   1      34.650  23.621  23.694  1.00  0.00    -0.014 C 
ATOM      8  C   UNL A   1      35.005  23.610  25.194  1.00  0.00     0.006 C 
ATOM      9  C   UNL A   1      33.317  22.955  23.311  1.00  0.00     0.006 C 
ATOM     10  C   UNL A   1      33.843  23.534  26.193  1.00  0.00     0.041 C 
ATOM     11  C   UNL A   1      32.226  23.092  24.378  1.00  0.00     0.041 C 
BRANCH   5  12
ATOM     12  N   UNL A   1      31.559  22.709  26.724  1.00  0.00    -0.322 N 
ATOM     13  C   UNL A   1      30.447  23.429  26.852  1.00  0.00     0.316 C 
ATOM     14  H   UNL A   1      31.654  22.072  27.470  1.00  0.00     0.166 HD
ATOM     15  O   UNL A   1      29.565  22.945  27.569  1.00  0.00    -0.249 OA
ATOM     16  N   UNL A   1      30.167  24.614  26.317  1.00  0.00    -0.333 N 
ATOM     17  H   UNL A   1      29.212  24.824  26.432  1.00  0.00     0.165 HD
BRANCH  16  18
ATOM     18  C   UNL A   1      30.841  25.694  25.613  1.00  0.00     0.112 C 
ATOM     19  C   UNL A   1      29.946  26.418  24.628  1.00  0.00     0.056 C 
ATOM     20  C   UNL A   1      31.226  26.872  26.522  1.00  0.00     0.185 C 
ATOM     21  C   UNL A   1      30.707  27.713  24.422  1.00  0.00     0.162 C 
ATOM     22  O   UNL A   1      31.291  28.042  25.689  1.00  0.00    -0.379 OA
ENDBRANCH  16  18
ENDBRANCH   5  12
ENDBRANCH   3   5
ENDBRANCH   2   3
ENDBRANCH   1   2
BRANCH   1  23
ATOM     23  C   UNL A   1      36.724  19.865  24.943  1.00  0.00     0.275 C 
BRANCH  23  24
ATOM     24  O   UNL A   1      37.343  21.140  25.243  1.00  0.00    -0.458 OA
BRANCH  24  25
ATOM     25  C   UNL A   1      38.601  21.008  25.763  1.00  0.00     0.338 C 
ATOM     26  O   UNL A   1      39.316  20.022  25.630  1.00  0.00    -0.246 OA
BRANCH  25  27
ATOM     27  C   UNL A   1      39.099  22.232  26.463  1.00  0.00     0.060 A 
ATOM     28  C   UNL A   1      38.597  23.503  26.192  1.00  0.00     0.016 A 
ATOM     29  C   UNL A   1      40.236  22.132  27.271  1.00  0.00     0.016 A 
ATOM     30  C   UNL A   1      39.293  24.652  26.602  1.00  0.00     0.010 A 
ATOM     31  C   UNL A   1      40.871  23.285  27.771  1.00  0.00     0.010 A 
ATOM     32  C   UNL A   1      40.447  24.572  27.397  1.00  0.00    -0.014 A 
BRANCH  32  33
ATOM     33  C   UNL A   1      41.247  25.794  27.765  1.00  0.00     0.031 A 
ATOM     34  C   UNL A   1      40.644  26.875  28.642  1.00  0.00     0.074 A 
ATOM     35  C   UNL A   1      42.525  25.962  27.359  1.00  0.00     0.049 A 
ATOM     36  N   UNL A   1      41.056  28.103  28.858  1.00  0.00    -0.248 NA
ATOM     37  C   UNL A   1      39.408  26.533  29.362  1.00  0.00     0.031 C 
ATOM     38  C   UNL A   1      43.304  25.005  26.574  1.00  0.00     0.029 A 
ATOM     39  N   UNL A   1      43.402  27.006  27.559  1.00  0.00    -0.354 N 
ATOM     40  C   UNL A   1      40.089  28.700  29.663  1.00  0.00     0.074 A 
ATOM     41  C   UNL A   1      39.077  27.695  29.909  1.00  0.00     0.031 C 
ATOM     42  C   UNL A   1      44.550  25.474  26.410  1.00  0.00     0.029 A 
ATOM     43  C   UNL A   1      44.628  26.820  26.964  1.00  0.00     0.049 A 
ATOM     44  H   UNL A   1      43.172  27.810  28.079  1.00  0.00     0.167 HD
ATOM     45  C   UNL A   1      40.044  29.966  30.148  1.00  0.00     0.037 A 
ATOM     46  C   UNL A   1      45.681  27.649  26.815  1.00  0.00     0.037 A 
ATOM     47  C   UNL A   1      41.088  30.948  29.982  1.00  0.00     0.049 A 
ATOM     48  C   UNL A   1      45.599  29.059  27.325  1.00  0.00     0.074 A 
ATOM     49  C   UNL A   1      41.129  32.254  30.442  1.00  0.00     0.029 A 
ATOM     50  N   UNL A   1      42.288  30.722  29.327  1.00  0.00    -0.354 N 
ATOM     51  N   UNL A   1      44.628  29.646  27.981  1.00  0.00    -0.248 NA
ATOM     52  C   UNL A   1      46.748  29.933  27.044  1.00  0.00     0.031 C 
ATOM     53  C   UNL A   1      42.339  32.828  30.037  1.00  0.00     0.029 A 
ATOM     54  C   UNL A   1      43.072  31.866  29.363  1.00  0.00     0.049 A 
ATOM     55  H   UNL A   1      42.547  29.874  28.900  1.00  0.00     0.167 HD
ATOM     56  C   UNL A   1      45.049  30.953  28.192  1.00  0.00     0.074 A 
ATOM     57  C   UNL A   1      46.376  31.064  27.624  1.00  0.00     0.031 C 
ATOM     58  C   UNL A   1      44.388  31.973  28.790  1.00  0.00     0.037 A 
BRANCH  45  59
ATOM     59  C   UNL A   1      38.794  30.393  30.872  1.00  0.00     0.057 A 
ATOM     60  C   UNL A   1      37.718  31.007  30.222  1.00  0.00     0.134 A 
ATOM     61  C   UNL A   1      38.658  30.140  32.245  1.00  0.00     0.134 A 
ATOM     62  F   UNL A   1      37.784  31.286  28.912  1.00  0.00    -0.206 F 
ATOM     63  C   UNL A   1      36.562  31.378  30.916  1.00  0.00     0.040 A 
ATOM     64  C   UNL A   1      37.498  30.481  32.942  1.00  0.00     0.040 A 
ATOM     65  F   UNL A   1      39.646  29.542  32.929  1.00  0.00    -0.206 F 
ATOM     66  C   UNL A   1      36.448  31.109  32.279  1.00  0.00     0.006 A 
ENDBRANCH  45  59
BRANCH  46  67
ATOM     67  C   UNL A   1      46.888  27.189  26.077  1.00  0.00     0.057 A 
ATOM     68  C   UNL A   1      47.938  26.537  26.733  1.00  0.00     0.134 A 
ATOM     69  C   UNL A   1      47.026  27.401  24.698  1.00  0.00     0.134 A 
ATOM     70  F   UNL A   1      47.883  26.335  28.059  1.00  0.00    -0.206 F 
ATOM     71  C   UNL A   1      49.080  26.116  26.050  1.00  0.00     0.040 A 
ATOM     72  C   UNL A   1      48.146  26.956  23.996  1.00  0.00     0.040 A 
ATOM     73  F   UNL A   1      46.060  28.025  24.009  1.00  0.00    -0.206 F 
ATOM     74  C   UNL A   1      49.181  26.316  24.674  1.00  0.00     0.006 A 
ENDBRANCH  46  67
BRANCH  58  75
ATOM     75  C   UNL A   1      45.106  33.288  28.881  1.00  0.00     0.057 A 
ATOM     76  C   UNL A   1      44.963  34.277  27.898  1.00  0.00     0.134 A 
ATOM     77  C   UNL A   1      45.957  33.567  29.958  1.00  0.00     0.134 A 
ATOM     78  F   UNL A   1      44.176  34.066  26.833  1.00  0.00    -0.206 F 
ATOM     79  C   UNL A   1      45.666  35.481  27.966  1.00  0.00     0.040 A 
ATOM     80  C   UNL A   1      46.646  34.778  30.049  1.00  0.00     0.040 A 
ATOM     81  F   UNL A   1      46.135  32.667  30.937  1.00  0.00    -0.206 F 
ATOM     82  C   UNL A   1      46.509  35.735  29.047  1.00  0.00     0.006 A 
ENDBRANCH  58  75
ENDBRANCH  32  33
ENDBRANCH  25  27
ENDBRANCH  24  25
ENDBRANCH  23  24
ENDBRANCH   1  23
TORSDOF 13
ENDMDL
MODEL 2
REMARK VINA RESULT:     -11.8      3.773      8.765
REMARK SMILES C[C@H]1CC[C@@](NC(=O)N[C@H]2CCOC2)(C(=O)OCCOC(=O)c2ccc(-c3c4nc(c(-c5c(F)cccc5F)c5ccc([nH]5)c(-c5c(F)cccc5F)c5nc(c(-c6c(F)cccc6F)c6ccc3[nH]6)C=C5)C=C4)cc2)CC1
REMARK SMILES IDX 18 1 17 2 15 3 16 4 5 5 1 6 2 7 78 8 3 9 77 10 4 11 6 12
REMARK SMILES IDX 7 13 8 15 9 16 10 18 11 19 14 20 12 21 13 22 19 23 20 24
REMARK SMILES IDX 21 25 22 26 23 27 24 28 76 29 25 30 75 31 26 32 27 33 28 34
REMARK SMILES IDX 69 35 29 36 74 37 68 38 70 39 30 40 73 41 67 42 66 43 31 45
REMARK SMILES IDX 57 46 40 47 56 48 41 49 44 50 55 51 71 52 42 53 43 54 54 56
REMARK SMILES IDX 72 57 45 58 32 59 33 60 38 61 34 62 35 63 37 64 39 65 36 66
REMARK SMILES IDX 58 67 59 68 64 69 60 70 61 71 63 72 65 73 62 74 46 75 47 76
REMARK SMILES IDX 52 77 48 78 49 79 51 80 53 81 50 82
REMARK H PARENT 6 14 9 17 70 44 44 55
REMARK Flexibility Score: inf
ROOT
ATOM      1  C   UNL A   1      31.748  28.353  27.339  1.00  0.00     0.274 C 
ENDROOT
BRANCH   1   2
ATOM      2  O   UNL A   1      31.120  27.070  27.097  1.00  0.00    -0.460 OA
BRANCH   2   3
ATOM      3  C   UNL A   1      31.687  26.142  26.290  1.00  0.00     0.332 C 
ATOM      4  O   UNL A   1      32.861  25.834  26.323  1.00  0.00    -0.249 OA
BRANCH   3   5
ATOM      5  C   UNL A   1      30.668  25.386  25.420  1.00  0.00     0.139 C 
ATOM      6  C   UNL A   1      32.406  28.195  22.750  1.00  0.00     0.007 C 
ATOM      7  C   UNL A   1      31.509  26.964  22.968  1.00  0.00    -0.014 C 
ATOM      8  C   UNL A   1      30.282  27.374  23.807  1.00  0.00     0.006 C 
ATOM      9  C   UNL A   1      32.351  25.806  23.527  1.00  0.00     0.006 C 
ATOM     10  C   UNL A   1      29.654  26.303  24.709  1.00  0.00     0.041 C 
ATOM     11  C   UNL A   1      31.535  24.757  24.290  1.00  0.00     0.041 C 
BRANCH   5  12
ATOM     12  N   UNL A   1      29.964  24.293  26.138  1.00  0.00    -0.322 N 
ATOM     13  C   UNL A   1      30.277  23.240  26.889  1.00  0.00     0.316 C 
ATOM     14  H   UNL A   1      28.988  24.370  26.028  1.00  0.00     0.166 HD
ATOM     15  O   UNL A   1      29.382  22.812  27.626  1.00  0.00    -0.249 OA
ATOM     16  N   UNL A   1      31.429  22.577  26.938  1.00  0.00    -0.333 N 
ATOM     17  H   UNL A   1      31.437  21.961  27.705  1.00  0.00     0.165 HD
BRANCH  16  18
ATOM     18  C   UNL A   1      32.681  22.484  26.203  1.00  0.00     0.112 C 
ATOM     19  C   UNL A   1      33.894  22.346  27.101  1.00  0.00     0.056 C 
ATOM     20  C   UNL A   1      32.819  21.190  25.386  1.00  0.00     0.185 C 
ATOM     21  C   UNL A   1      34.928  21.807  26.132  1.00  0.00     0.162 C 
ATOM     22  O   UNL A   1      34.226  20.933  25.239  1.00  0.00    -0.379 OA
ENDBRANCH  16  18
ENDBRANCH   5  12
ENDBRANCH   3   5
ENDBRANCH   2   3
ENDBRANCH   1   2
BRANCH   1  23
ATOM     23  C   UNL A   1      31.632  29.512  26.332  1.00  0.00     0.275 C 
BRANCH  23  24
ATOM     24  O   UNL A   1      32.907  30.100  25.976  1.00  0.00    -0.458 OA
BRANCH  24  25
ATOM     25  C   UNL A   1      33.350  31.004  26.902  1.00  0.00     0.338 C 
ATOM     26  O   UNL A   1      32.680  31.919  27.366  1.00  0.00    -0.246 OA
BRANCH  25  27
ATOM     27  C   UNL A   1      34.737  30.738  27.394  1.00  0.00     0.060 A 
ATOM     28  C   UNL A   1      35.225  29.448  27.587  1.00  0.00     0.016 A 
ATOM     29  C   UNL A   1      35.504  31.809  27.863  1.00  0.00     0.016 A 
ATOM     30  C   UNL A   1      36.384  29.225  28.350  1.00  0.00     0.010 A 
ATOM     31  C   UNL A   1      36.721  31.587  28.535  1.00  0.00     0.010 A 
ATOM     32  C   UNL A   1      37.156  30.287  28.846  1.00  0.00    -0.014 A 
BRANCH  32  33
ATOM     33  C   UNL A   1      38.347  30.056  29.739  1.00  0.00     0.031 A 
ATOM     34  C   UNL A   1      39.513  29.210  29.266  1.00  0.00     0.074 A 
ATOM     35  C   UNL A   1      38.436  30.609  30.969  1.00  0.00     0.049 A 
ATOM     36  N   UNL A   1      40.497  28.680  29.957  1.00  0.00    -0.248 NA
ATOM     37  C   UNL A   1      39.576  28.911  27.827  1.00  0.00     0.031 C 
ATOM     38  C   UNL A   1      37.456  31.511  31.574  1.00  0.00     0.029 A 
ATOM     39  N   UNL A   1      39.412  30.496  31.937  1.00  0.00    -0.354 N 
ATOM     40  C   UNL A   1      41.238  27.920  29.055  1.00  0.00     0.074 A 
ATOM     41  C   UNL A   1      40.599  28.069  27.765  1.00  0.00     0.031 C 
ATOM     42  C   UNL A   1      37.902  31.912  32.773  1.00  0.00     0.029 A 
ATOM     43  C   UNL A   1      39.136  31.201  33.085  1.00  0.00     0.049 A 
ATOM     44  H   UNL A   1      40.229  29.960  31.817  1.00  0.00     0.167 HD
ATOM     45  C   UNL A   1      42.341  27.164  29.280  1.00  0.00     0.037 A 
ATOM     46  C   UNL A   1      39.757  31.234  34.281  1.00  0.00     0.037 A 
ATOM     47  C   UNL A   1      43.036  27.078  30.541  1.00  0.00     0.049 A 
ATOM     48  C   UNL A   1      40.956  30.363  34.524  1.00  0.00     0.074 A 
ATOM     49  C   UNL A   1      44.165  26.341  30.859  1.00  0.00     0.029 A 
ATOM     50  N   UNL A   1      42.684  27.776  31.687  1.00  0.00    -0.354 N 
ATOM     51  N   UNL A   1      41.574  29.558  33.696  1.00  0.00    -0.248 NA
ATOM     52  C   UNL A   1      41.523  30.381  35.880  1.00  0.00     0.031 C 
ATOM     53  C   UNL A   1      44.477  26.567  32.205  1.00  0.00     0.029 A 
ATOM     54  C   UNL A   1      43.568  27.479  32.714  1.00  0.00     0.049 A 
ATOM     55  H   UNL A   1      41.920  28.392  31.760  1.00  0.00     0.167 HD
ATOM     56  C   UNL A   1      42.602  28.976  34.428  1.00  0.00     0.074 A 
ATOM     57  C   UNL A   1      42.544  29.545  35.758  1.00  0.00     0.031 C 
ATOM     58  C   UNL A   1      43.502  28.043  34.036  1.00  0.00     0.037 A 
BRANCH  45  59
ATOM     59  C   UNL A   1      42.852  26.318  28.144  1.00  0.00     0.057 A 
ATOM     60  C   UNL A   1      43.863  26.750  27.278  1.00  0.00     0.134 A 
ATOM     61  C   UNL A   1      42.344  25.025  27.948  1.00  0.00     0.134 A 
ATOM     62  F   UNL A   1      44.388  27.977  27.402  1.00  0.00    -0.206 F 
ATOM     63  C   UNL A   1      44.331  25.937  26.240  1.00  0.00     0.040 A 
ATOM     64  C   UNL A   1      42.823  24.195  26.934  1.00  0.00     0.040 A 
ATOM     65  F   UNL A   1      41.383  24.542  28.750  1.00  0.00    -0.206 F 
ATOM     66  C   UNL A   1      43.815  24.653  26.071  1.00  0.00     0.006 A 
ENDBRANCH  45  59
BRANCH  46  67
ATOM     67  C   UNL A   1      39.205  32.072  35.380  1.00  0.00     0.057 A 
ATOM     68  C   UNL A   1      39.567  33.416  35.522  1.00  0.00     0.134 A 
ATOM     69  C   UNL A   1      38.311  31.545  36.323  1.00  0.00     0.134 A 
ATOM     70  F   UNL A   1      40.446  33.971  34.673  1.00  0.00    -0.206 F 
ATOM     71  C   UNL A   1      39.065  34.204  36.559  1.00  0.00     0.040 A 
ATOM     72  C   UNL A   1      37.776  32.329  37.344  1.00  0.00     0.040 A 
ATOM     73  F   UNL A   1      37.928  30.262  36.248  1.00  0.00    -0.206 F 
ATOM     74  C   UNL A   1      38.158  33.663  37.468  1.00  0.00     0.006 A 
ENDBRANCH  46  67
BRANCH  58  75
ATOM     75  C   UNL A   1      44.512  27.603  35.056  1.00  0.00     0.057 A 
ATOM     76  C   UNL A   1      45.731  28.275  35.225  1.00  0.00     0.134 A 
ATOM     77  C   UNL A   1      44.269  26.491  35.872  1.00  0.00     0.134 A 
ATOM     78  F   UNL A   1      46.032  29.337  34.464  1.00  0.00    -0.206 F 
ATOM     79  C   UNL A   1      46.684  27.835  36.146  1.00  0.00     0.040 A 
ATOM     80  C   UNL A   1      45.205  26.058  36.813  1.00  0.00     0.040 A 
ATOM     81  F   UNL A   1      43.120  25.806  35.766  1.00  0.00    -0.206 F 
ATOM     82  C   UNL A   1      46.420  26.725  36.946  1.00  0.00     0.006 A 
ENDBRANCH  58  75
ENDBRANCH  32  33
ENDBRANCH  25  27
ENDBRANCH  24  25
ENDBRANCH  23  24
ENDBRANCH   1  23
TORSDOF 13
ENDMDL
MODEL 3
REMARK VINA RESULT:     -11.8      1.678      2.665
REMARK SMILES C[C@H]1CC[C@@](NC(=O)N[C@H]2CCOC2)(C(=O)OCCOC(=O)c2ccc(-c3c4nc(c(-c5c(F)cccc5F)c5ccc([nH]5)c(-c5c(F)cccc5F)c5nc(c(-c6c(F)cccc6F)c6ccc3[nH]6)C=C5)C=C4)cc2)CC1
REMARK SMILES IDX 18 1 17 2 15 3 16 4 5 5 1 6 2 7 78 8 3 9 77 10 4 11 6 12
REMARK SMILES IDX 7 13 8 15 9 16 10 18 11 19 14 20 12 21 13 22 19 23 20 24
REMARK SMILES IDX 21 25 22 26 23 27 24 28 76 29 25 30 75 31 26 32 27 33 28 34
REMARK SMILES IDX 69 35 29 36 74 37 68 38 70 39 30 40 73 41 67 42 66 43 31 45
REMARK SMILES IDX 57 46 40 47 56 48 41 49 44 50 55 51 71 52 42 53 43 54 54 56
REMARK SMILES IDX 72 57 45 58 32 59 33 60 38 61 34 62 35 63 37 64 39 65 36 66
REMARK SMILES IDX 58 67 59 68 64 69 60 70 61 71 63 72 65 73 62 74 46 75 47 76
REMARK SMILES IDX 52 77 48 78 49 79 51 80 53 81 50 82
REMARK H PARENT 6 14 9 17 70 44 44 55
REMARK Flexibility Score: inf
ROOT
ATOM      1  C   UNL A   1      36.615  22.828  23.493  1.00  0.00     0.274 C 
ENDROOT
BRANCH   1   2
ATOM      2  O   UNL A   1      35.463  23.317  22.764  1.00  0.00    -0.460 OA
BRANCH   2   3
ATOM      3  C   UNL A   1      34.472  24.006  23.379  1.00  0.00     0.332 C 
ATOM      4  O   UNL A   1      34.657  24.900  24.181  1.00  0.00    -0.249 OA
BRANCH   3   5
ATOM      5  C   UNL A   1      33.070  23.661  22.850  1.00  0.00     0.139 C 
ATOM      6  C   UNL A   1      33.202  21.817  26.675  1.00  0.00     0.007 C 
ATOM      7  C   UNL A   1      32.383  22.239  25.442  1.00  0.00    -0.014 C 
ATOM      8  C   UNL A   1      32.889  21.464  24.209  1.00  0.00     0.006 C 
ATOM      9  C   UNL A   1      32.385  23.772  25.322  1.00  0.00     0.006 C 
ATOM     10  C   UNL A   1      32.761  22.151  22.843  1.00  0.00     0.041 C 
ATOM     11  C   UNL A   1      32.109  24.284  23.905  1.00  0.00     0.041 C 
BRANCH   5  12
ATOM     12  N   UNL A   1      32.767  24.258  21.525  1.00  0.00    -0.322 N 
ATOM     13  C   UNL A   1      32.871  25.442  20.926  1.00  0.00     0.316 C 
ATOM     14  H   UNL A   1      32.380  23.588  20.916  1.00  0.00     0.166 HD
ATOM     15  O   UNL A   1      32.880  25.428  19.691  1.00  0.00    -0.249 OA
ATOM     16  N   UNL A   1      32.954  26.645  21.488  1.00  0.00    -0.333 N 
ATOM     17  H   UNL A   1      33.202  27.320  20.816  1.00  0.00     0.165 HD
BRANCH  16  18
ATOM     18  C   UNL A   1      32.790  27.266  22.793  1.00  0.00     0.112 C 
ATOM     19  C   UNL A   1      33.762  28.401  23.042  1.00  0.00     0.056 C 
ATOM     20  C   UNL A   1      31.464  28.028  22.946  1.00  0.00     0.185 C 
ATOM     21  C   UNL A   1      33.086  29.135  24.184  1.00  0.00     0.162 C 
ATOM     22  O   UNL A   1      31.676  29.047  23.939  1.00  0.00    -0.379 OA
ENDBRANCH  16  18
ENDBRANCH   5  12
ENDBRANCH   3   5
ENDBRANCH   2   3
ENDBRANCH   1   2
BRANCH   1  23
ATOM     23  C   UNL A   1      36.558  21.528  24.316  1.00  0.00     0.275 C 
BRANCH  23  24
ATOM     24  O   UNL A   1      36.980  21.695  25.692  1.00  0.00    -0.458 OA
BRANCH  24  25
ATOM     25  C   UNL A   1      38.337  21.619  25.842  1.00  0.00     0.338 C 
ATOM     26  O   UNL A   1      39.044  20.723  25.394  1.00  0.00    -0.246 OA
BRANCH  25  27
ATOM     27  C   UNL A   1      38.937  22.795  26.544  1.00  0.00     0.060 A 
ATOM     28  C   UNL A   1      38.489  24.097  26.335  1.00  0.00     0.016 A 
ATOM     29  C   UNL A   1      40.109  22.613  27.286  1.00  0.00     0.016 A 
ATOM     30  C   UNL A   1      39.266  25.197  26.737  1.00  0.00     0.010 A 
ATOM     31  C   UNL A   1      40.830  23.716  27.780  1.00  0.00     0.010 A 
ATOM     32  C   UNL A   1      40.455  25.034  27.464  1.00  0.00    -0.014 A 
BRANCH  32  33
ATOM     33  C   UNL A   1      41.338  26.202  27.819  1.00  0.00     0.031 A 
ATOM     34  C   UNL A   1      40.819  27.319  28.705  1.00  0.00     0.074 A 
ATOM     35  C   UNL A   1      42.617  26.288  27.393  1.00  0.00     0.049 A 
ATOM     36  N   UNL A   1      41.312  28.518  28.915  1.00  0.00    -0.248 NA
ATOM     37  C   UNL A   1      39.575  27.056  29.445  1.00  0.00     0.031 C 
ATOM     38  C   UNL A   1      43.321  25.284  26.596  1.00  0.00     0.029 A 
ATOM     39  N   UNL A   1      43.562  27.274  27.579  1.00  0.00    -0.354 N 
ATOM     40  C   UNL A   1      40.399  29.175  29.735  1.00  0.00     0.074 A 
ATOM     41  C   UNL A   1      39.328  28.236  29.997  1.00  0.00     0.031 C 
ATOM     42  C   UNL A   1      44.591  25.673  26.413  1.00  0.00     0.029 A 
ATOM     43  C   UNL A   1      44.764  27.010  26.965  1.00  0.00     0.049 A 
ATOM     44  H   UNL A   1      43.393  28.090  28.103  1.00  0.00     0.167 HD
ATOM     45  C   UNL A   1      40.442  30.441  30.220  1.00  0.00     0.037 A 
ATOM     46  C   UNL A   1      45.866  27.770  26.799  1.00  0.00     0.037 A 
ATOM     47  C   UNL A   1      41.544  31.354  30.038  1.00  0.00     0.049 A 
ATOM     48  C   UNL A   1      45.883  29.182  27.311  1.00  0.00     0.074 A 
ATOM     49  C   UNL A   1      41.676  32.654  30.497  1.00  0.00     0.029 A 
ATOM     50  N   UNL A   1      42.717  31.052  29.364  1.00  0.00    -0.354 N 
ATOM     51  N   UNL A   1      44.962  29.829  27.981  1.00  0.00    -0.248 NA
ATOM     52  C   UNL A   1      47.081  29.980  27.011  1.00  0.00     0.031 C 
ATOM     53  C   UNL A   1      42.914  33.150  30.073  1.00  0.00     0.029 A 
ATOM     54  C   UNL A   1      43.573  32.143  29.387  1.00  0.00     0.049 A 
ATOM     55  H   UNL A   1      42.915  30.189  28.932  1.00  0.00     0.167 HD
ATOM     56  C   UNL A   1      45.469  31.107  28.186  1.00  0.00     0.074 A 
ATOM     57  C   UNL A   1      46.791  31.133  27.596  1.00  0.00     0.031 C 
ATOM     58  C   UNL A   1      44.884  32.166  28.794  1.00  0.00     0.037 A 
BRANCH  45  59
ATOM     59  C   UNL A   1      39.234  30.946  30.964  1.00  0.00     0.057 A 
ATOM     60  C   UNL A   1      39.119  30.870  32.356  1.00  0.00     0.134 A 
ATOM     61  C   UNL A   1      38.186  31.561  30.264  1.00  0.00     0.134 A 
ATOM     62  F   UNL A   1      40.080  30.287  33.087  1.00  0.00    -0.206 F 
ATOM     63  C   UNL A   1      37.993  31.362  33.024  1.00  0.00     0.040 A 
ATOM     64  C   UNL A   1      37.070  32.082  30.921  1.00  0.00     0.040 A 
ATOM     65  F   UNL A   1      38.236  31.681  28.928  1.00  0.00    -0.206 F 
ATOM     66  C   UNL A   1      36.968  31.976  32.306  1.00  0.00     0.006 A 
ENDBRANCH  45  59
BRANCH  46  67
ATOM     67  C   UNL A   1      47.029  27.234  26.042  1.00  0.00     0.057 A 
ATOM     68  C   UNL A   1      48.094  26.602  26.695  1.00  0.00     0.134 A 
ATOM     69  C   UNL A   1      47.110  27.351  24.648  1.00  0.00     0.134 A 
ATOM     70  F   UNL A   1      48.094  26.490  28.032  1.00  0.00    -0.206 F 
ATOM     71  C   UNL A   1      49.196  26.111  25.993  1.00  0.00     0.040 A 
ATOM     72  C   UNL A   1      48.188  26.835  23.930  1.00  0.00     0.040 A 
ATOM     73  F   UNL A   1      46.127  27.950  23.961  1.00  0.00    -0.206 F 
ATOM     74  C   UNL A   1      49.240  26.217  24.604  1.00  0.00     0.006 A 
ENDBRANCH  46  67
BRANCH  58  75
ATOM     75  C   UNL A   1      45.686  33.432  28.873  1.00  0.00     0.057 A 
ATOM     76  C   UNL A   1      46.559  33.688  29.940  1.00  0.00     0.134 A 
ATOM     77  C   UNL A   1      45.580  34.412  27.878  1.00  0.00     0.134 A 
ATOM     78  F   UNL A   1      46.695  32.798  30.934  1.00  0.00    -0.206 F 
ATOM     79  C   UNL A   1      47.271  34.886  30.029  1.00  0.00     0.040 A 
ATOM     80  C   UNL A   1      46.305  35.602  27.944  1.00  0.00     0.040 A 
ATOM     81  F   UNL A   1      44.767  34.228  26.826  1.00  0.00    -0.206 F 
ATOM     82  C   UNL A   1      47.146  35.846  29.027  1.00  0.00     0.006 A 
ENDBRANCH  58  75
ENDBRANCH  32  33
ENDBRANCH  25  27
ENDBRANCH  24  25
ENDBRANCH  23  24
ENDBRANCH   1  23
TORSDOF 13
ENDMDL
