MODEL 1
REMARK VINA RESULT:     -11.0      0.000      0.000
REMARK SMILES CCCCCCNC(=O)Oc1cccc(-c2ccc([C@@H](C)C(=O)OCCOC(=O)c3ccc(-c4c5nc(c(-c6c(F)cccc6F)c6ccc([nH]6)c(-c6c(F)cccc6F)c6nc(c(-c7c(F)cccc7F)c7ccc4[nH]7)C=C6)C=C5)cc3)cc2[N+](=O)[O-])c1
REMARK SMILES IDX 20 1 21 2 19 3 16 4 17 5 85 6 18 7 84 8 15 9 11 10 12 11
REMARK SMILES IDX 89 12 13 13 14 14 10 15 8 16 7 17 9 19 6 20 5 21 4 22 3 23
REMARK SMILES IDX 2 24 1 25 86 26 87 27 88 28 22 29 23 30 24 31 25 32 26 33
REMARK SMILES IDX 27 34 28 35 29 36 30 37 31 38 83 39 32 40 82 41 33 42 34 43
REMARK SMILES IDX 35 44 76 45 36 46 81 47 75 48 77 49 37 50 80 51 74 52 73 53
REMARK SMILES IDX 38 55 64 56 47 57 63 58 48 59 51 60 62 61 78 62 49 63 50 64
REMARK SMILES IDX 61 66 79 67 52 68 39 69 40 70 45 71 41 72 42 73 44 74 46 75
REMARK SMILES IDX 43 76 65 77 66 78 71 79 67 80 68 81 70 82 72 83 69 84 53 85
REMARK SMILES IDX 54 86 59 87 55 88 56 89 58 90 60 91 57 92
REMARK H PARENT 7 18 77 54 51 65
REMARK Flexibility Score: inf
ROOT
ATOM      1  C   UNL A   1      42.126  19.937  26.738  1.00  0.00     0.126 C 
ATOM      2  C   UNL A   1      42.003  18.943  27.891  1.00  0.00     0.025 C 
ENDROOT
BRANCH   1   3
ATOM      3  C   UNL A   1      40.787  20.551  26.352  1.00  0.00    -0.027 A 
ATOM      4  C   UNL A   1      38.265  21.734  25.670  1.00  0.00     0.060 A 
ATOM      5  C   UNL A   1      38.557  20.387  25.379  1.00  0.00     0.016 A 
ATOM      6  C   UNL A   1      39.283  22.471  26.298  1.00  0.00     0.277 A 
ATOM      7  C   UNL A   1      39.785  19.806  25.719  1.00  0.00     0.006 A 
ATOM      8  C   UNL A   1      40.523  21.898  26.637  1.00  0.00     0.091 A 
BRANCH   4   9
ATOM      9  C   UNL A   1      36.931  22.261  25.328  1.00  0.00    -0.008 A 
ATOM     10  C   UNL A   1      34.574  22.582  25.791  1.00  0.00     0.133 A 
ATOM     11  C   UNL A   1      34.397  23.253  24.583  1.00  0.00     0.047 A 
ATOM     12  C   UNL A   1      35.824  22.086  26.171  1.00  0.00     0.056 A 
ATOM     13  C   UNL A   1      35.490  23.448  23.746  1.00  0.00     0.004 A 
ATOM     14  C   UNL A   1      36.743  22.953  24.115  1.00  0.00     0.009 A 
BRANCH  10  15
ATOM     15  O   UNL A   1      33.413  22.303  26.530  1.00  0.00    -0.410 OA
BRANCH  15  16
ATOM     16  C   UNL A   1      32.212  22.158  25.855  1.00  0.00     0.412 C 
ATOM     17  N   UNL A   1      32.005  20.882  25.405  1.00  0.00    -0.321 N 
ATOM     18  H   UNL A   1      31.170  20.720  24.911  1.00  0.00     0.167 HD
ATOM     19  O   UNL A   1      31.393  23.043  25.640  1.00  0.00    -0.224 OA
BRANCH  17  20
ATOM     20  C   UNL A   1      32.887  19.745  25.581  1.00  0.00     0.119 C 
BRANCH  20  21
ATOM     21  C   UNL A   1      33.525  19.303  24.264  1.00  0.00     0.021 C 
BRANCH  21  22
ATOM     22  C   UNL A   1      34.594  18.210  24.397  1.00  0.00     0.002 C 
BRANCH  22  23
ATOM     23  C   UNL A   1      34.195  16.827  23.870  1.00  0.00    -0.000 C 
BRANCH  23  24
ATOM     24  C   UNL A   1      33.950  15.761  24.940  1.00  0.00    -0.003 C 
ATOM     25  C   UNL A   1      32.673  15.988  25.735  1.00  0.00     0.004 C 
ENDBRANCH  23  24
ENDBRANCH  22  23
ENDBRANCH  21  22
ENDBRANCH  20  21
ENDBRANCH  17  20
ENDBRANCH  15  16
ENDBRANCH  10  15
ENDBRANCH   4   9
BRANCH   6  26
ATOM     26  N   UNL A   1      39.082  23.862  26.682  1.00  0.00     0.063 N 
ATOM     27  O   UNL A   1      39.382  24.726  25.843  1.00  0.00    -0.258 OA
ATOM     28  O   UNL A   1      38.690  24.092  27.833  1.00  0.00    -0.258 OA
ENDBRANCH   6  26
ENDBRANCH   1   3
BRANCH   1  29
ATOM     29  C   UNL A   1      42.934  19.321  25.600  1.00  0.00     0.313 C 
ATOM     30  O   UNL A   1      43.042  18.106  25.463  1.00  0.00    -0.252 OA
BRANCH  29  31
ATOM     31  O   UNL A   1      43.470  20.238  24.753  1.00  0.00    -0.462 OA
BRANCH  31  32
ATOM     32  C   UNL A   1      44.142  21.364  25.350  1.00  0.00     0.274 C 
BRANCH  32  33
ATOM     33  C   UNL A   1      44.170  22.566  24.400  1.00  0.00     0.275 C 
BRANCH  33  34
ATOM     34  O   UNL A   1      43.395  23.664  24.917  1.00  0.00    -0.458 OA
BRANCH  34  35
ATOM     35  C   UNL A   1      44.110  24.769  25.230  1.00  0.00     0.338 C 
ATOM     36  O   UNL A   1      45.103  25.193  24.668  1.00  0.00    -0.246 OA
BRANCH  35  37
ATOM     37  C   UNL A   1      43.429  25.514  26.299  1.00  0.00     0.060 A 
ATOM     38  C   UNL A   1      43.700  26.879  26.411  1.00  0.00     0.016 A 
ATOM     39  C   UNL A   1      42.614  24.874  27.233  1.00  0.00     0.016 A 
ATOM     40  C   UNL A   1      43.184  27.612  27.472  1.00  0.00     0.010 A 
ATOM     41  C   UNL A   1      42.084  25.614  28.296  1.00  0.00     0.010 A 
ATOM     42  C   UNL A   1      42.381  26.981  28.431  1.00  0.00    -0.014 A 
BRANCH  42  43
ATOM     43  C   UNL A   1      41.912  27.756  29.604  1.00  0.00     0.031 A 
ATOM     44  C   UNL A   1      40.679  28.606  29.492  1.00  0.00     0.074 A 
ATOM     45  C   UNL A   1      42.565  27.659  30.775  1.00  0.00     0.049 A 
ATOM     46  N   UNL A   1      40.138  29.399  30.382  1.00  0.00    -0.248 NA
ATOM     47  C   UNL A   1      39.962  28.560  28.208  1.00  0.00     0.031 C 
ATOM     48  C   UNL A   1      43.746  26.830  31.018  1.00  0.00     0.029 A 
ATOM     49  N   UNL A   1      42.324  28.262  31.984  1.00  0.00    -0.354 N 
ATOM     50  C   UNL A   1      39.031  29.961  29.761  1.00  0.00     0.074 A 
ATOM     51  C   UNL A   1      38.987  29.433  28.414  1.00  0.00     0.031 C 
ATOM     52  C   UNL A   1      44.123  26.972  32.299  1.00  0.00     0.029 A 
ATOM     53  C   UNL A   1      43.237  27.931  32.954  1.00  0.00     0.049 A 
ATOM     54  H   UNL A   1      41.568  28.872  32.140  1.00  0.00     0.167 HD
ATOM     55  C   UNL A   1      38.131  30.835  30.273  1.00  0.00     0.037 A 
ATOM     56  C   UNL A   1      43.358  28.370  34.220  1.00  0.00     0.037 A 
ATOM     57  C   UNL A   1      38.163  31.338  31.621  1.00  0.00     0.049 A 
ATOM     58  C   UNL A   1      42.369  29.370  34.750  1.00  0.00     0.074 A 
ATOM     59  C   UNL A   1      37.289  32.219  32.235  1.00  0.00     0.029 A 
ATOM     60  N   UNL A   1      39.119  30.999  32.566  1.00  0.00    -0.354 N 
ATOM     61  N   UNL A   1      41.334  29.905  34.151  1.00  0.00    -0.248 NA
ATOM     62  C   UNL A   1      42.568  29.828  36.132  1.00  0.00     0.031 C 
ATOM     63  C   UNL A   1      37.736  32.438  33.543  1.00  0.00     0.029 A 
ATOM     64  C   UNL A   1      38.865  31.665  33.754  1.00  0.00     0.049 A 
ATOM     65  H   UNL A   1      39.868  30.378  32.415  1.00  0.00     0.167 HD
ATOM     66  C   UNL A   1      40.748  30.748  35.086  1.00  0.00     0.074 A 
ATOM     67  C   UNL A   1      41.534  30.642  36.297  1.00  0.00     0.031 C 
ATOM     68  C   UNL A   1      39.657  31.542  34.951  1.00  0.00     0.037 A 
BRANCH  55  69
ATOM     69  C   UNL A   1      37.049  31.322  29.356  1.00  0.00     0.057 A 
ATOM     70  C   UNL A   1      35.942  30.530  29.028  1.00  0.00     0.134 A 
ATOM     71  C   UNL A   1      37.103  32.613  28.816  1.00  0.00     0.134 A 
ATOM     72  F   UNL A   1      35.837  29.279  29.503  1.00  0.00    -0.206 F 
ATOM     73  C   UNL A   1      34.939  30.995  28.176  1.00  0.00     0.040 A 
ATOM     74  C   UNL A   1      36.096  33.099  27.981  1.00  0.00     0.040 A 
ATOM     75  F   UNL A   1      38.134  33.426  29.094  1.00  0.00    -0.206 F 
ATOM     76  C   UNL A   1      35.012  32.286  27.655  1.00  0.00     0.006 A 
ENDBRANCH  55  69
BRANCH  56  77
ATOM     77  C   UNL A   1      44.469  27.877  35.069  1.00  0.00     0.057 A 
ATOM     78  C   UNL A   1      44.288  26.808  35.953  1.00  0.00     0.134 A 
ATOM     79  C   UNL A   1      45.737  28.468  35.022  1.00  0.00     0.134 A 
ATOM     80  F   UNL A   1      43.090  26.216  36.061  1.00  0.00    -0.206 F 
ATOM     81  C   UNL A   1      45.325  26.350  36.768  1.00  0.00     0.040 A 
ATOM     82  C   UNL A   1      46.790  28.006  35.812  1.00  0.00     0.040 A 
ATOM     83  F   UNL A   1      45.975  29.497  34.194  1.00  0.00    -0.206 F 
ATOM     84  C   UNL A   1      46.582  26.946  36.694  1.00  0.00     0.006 A 
ENDBRANCH  56  77
BRANCH  68  85
ATOM     85  C   UNL A   1      39.237  32.332  36.155  1.00  0.00     0.057 A 
ATOM     86  C   UNL A   1      39.723  33.623  36.395  1.00  0.00     0.134 A 
ATOM     87  C   UNL A   1      38.315  31.806  37.068  1.00  0.00     0.134 A 
ATOM     88  F   UNL A   1      40.619  34.177  35.565  1.00  0.00    -0.206 F 
ATOM     89  C   UNL A   1      39.322  34.356  37.513  1.00  0.00     0.040 A 
ATOM     90  C   UNL A   1      37.889  32.536  38.177  1.00  0.00     0.040 A 
ATOM     91  F   UNL A   1      37.807  30.576  36.890  1.00  0.00    -0.206 F 
ATOM     92  C   UNL A   1      38.398  33.813  38.405  1.00  0.00     0.006 A 
ENDBRANCH  68  85
ENDBRANCH  42  43
ENDBRANCH  35  37
ENDBRANCH  34  35
ENDBRANCH  33  34
ENDBRANCH  32  33
ENDBRANCH  31  32
ENDBRANCH  29  31
ENDBRANCH   1  29
TORSDOF 21
ENDMDL
MODEL 2
REMARK VINA RESULT:     -10.8      1.381      6.359
REMARK SMILES CCCCCCNC(=O)Oc1cccc(-c2ccc([C@@H](C)C(=O)OCCOC(=O)c3ccc(-c4c5nc(c(-c6c(F)cccc6F)c6ccc([nH]6)c(-c6c(F)cccc6F)c6nc(c(-c7c(F)cccc7F)c7ccc4[nH]7)C=C6)C=C5)cc3)cc2[N+](=O)[O-])c1
REMARK SMILES IDX 20 1 21 2 19 3 16 4 17 5 85 6 18 7 84 8 15 9 11 10 12 11
REMARK SMILES IDX 89 12 13 13 14 14 10 15 8 16 7 17 9 19 6 20 5 21 4 22 3 23
REMARK SMILES IDX 2 24 1 25 86 26 87 27 88 28 22 29 23 30 24 31 25 32 26 33
REMARK SMILES IDX 27 34 28 35 29 36 30 37 31 38 83 39 32 40 82 41 33 42 34 43
REMARK SMILES IDX 35 44 76 45 36 46 81 47 75 48 77 49 37 50 80 51 74 52 73 53
REMARK SMILES IDX 38 55 64 56 47 57 63 58 48 59 51 60 62 61 78 62 49 63 50 64
REMARK SMILES IDX 61 66 79 67 52 68 39 69 40 70 45 71 41 72 42 73 44 74 46 75
REMARK SMILES IDX 43 76 65 77 66 78 71 79 67 80 68 81 70 82 72 83 69 84 53 85
REMARK SMILES IDX 54 86 59 87 55 88 56 89 58 90 60 91 57 92
REMARK H PARENT 7 18 77 54 51 65
REMARK Flexibility Score: inf
ROOT
ATOM      1  C   UNL A   1      41.918  19.854  26.699  1.00  0.00     0.126 C 
ATOM      2  C   UNL A   1      41.830  19.146  28.050  1.00  0.00     0.025 C 
ENDROOT
BRANCH   1   3
ATOM      3  C   UNL A   1      40.571  20.392  26.235  1.00  0.00    -0.027 A 
ATOM      4  C   UNL A   1      38.031  21.432  25.404  1.00  0.00     0.060 A 
ATOM      5  C   UNL A   1      38.409  20.101  25.144  1.00  0.00     0.016 A 
ATOM      6  C   UNL A   1      38.971  22.228  26.080  1.00  0.00     0.277 A 
ATOM      7  C   UNL A   1      39.647  19.589  25.556  1.00  0.00     0.006 A 
ATOM      8  C   UNL A   1      40.220  21.724  26.492  1.00  0.00     0.091 A 
BRANCH   4   9
ATOM      9  C   UNL A   1      36.691  21.883  24.985  1.00  0.00    -0.008 A 
ATOM     10  C   UNL A   1      34.294  22.052  25.300  1.00  0.00     0.133 A 
ATOM     11  C   UNL A   1      34.153  22.735  24.093  1.00  0.00     0.047 A 
ATOM     12  C   UNL A   1      35.545  21.625  25.752  1.00  0.00     0.056 A 
ATOM     13  C   UNL A   1      35.283  23.012  23.332  1.00  0.00     0.004 A 
ATOM     14  C   UNL A   1      36.538  22.586  23.773  1.00  0.00     0.009 A 
BRANCH  10  15
ATOM     15  O   UNL A   1      33.108  21.689  25.957  1.00  0.00    -0.410 OA
BRANCH  15  16
ATOM     16  C   UNL A   1      32.659  22.478  27.005  1.00  0.00     0.412 C 
ATOM     17  N   UNL A   1      31.581  23.250  26.665  1.00  0.00    -0.321 N 
ATOM     18  H   UNL A   1      31.222  23.837  27.369  1.00  0.00     0.167 HD
ATOM     19  O   UNL A   1      33.143  22.530  28.128  1.00  0.00    -0.224 OA
BRANCH  17  20
ATOM     20  C   UNL A   1      30.913  23.293  25.379  1.00  0.00     0.119 C 
BRANCH  20  21
ATOM     21  C   UNL A   1      30.725  24.724  24.877  1.00  0.00     0.021 C 
BRANCH  21  22
ATOM     22  C   UNL A   1      31.732  25.742  25.431  1.00  0.00     0.002 C 
BRANCH  22  23
ATOM     23  C   UNL A   1      31.140  26.842  26.320  1.00  0.00    -0.000 C 
BRANCH  23  24
ATOM     24  C   UNL A   1      31.905  28.166  26.325  1.00  0.00    -0.003 C 
ATOM     25  C   UNL A   1      33.281  28.064  26.966  1.00  0.00     0.004 C 
ENDBRANCH  23  24
ENDBRANCH  22  23
ENDBRANCH  21  22
ENDBRANCH  20  21
ENDBRANCH  17  20
ENDBRANCH  15  16
ENDBRANCH  10  15
ENDBRANCH   4   9
BRANCH   6  26
ATOM     26  N   UNL A   1      38.676  23.608  26.438  1.00  0.00     0.063 N 
ATOM     27  O   UNL A   1      37.682  23.804  27.153  1.00  0.00    -0.258 OA
ATOM     28  O   UNL A   1      39.392  24.495  25.955  1.00  0.00    -0.258 OA
ENDBRANCH   6  26
ENDBRANCH   1   3
BRANCH   1  29
ATOM     29  C   UNL A   1      42.672  18.984  25.700  1.00  0.00     0.313 C 
ATOM     30  O   UNL A   1      42.645  17.758  25.754  1.00  0.00    -0.252 OA
BRANCH  29  31
ATOM     31  O   UNL A   1      43.326  19.692  24.743  1.00  0.00    -0.462 OA
BRANCH  31  32
ATOM     32  C   UNL A   1      44.444  20.493  25.173  1.00  0.00     0.274 C 
BRANCH  32  33
ATOM     33  C   UNL A   1      44.367  21.913  24.604  1.00  0.00     0.275 C 
BRANCH  33  34
ATOM     34  O   UNL A   1      43.820  22.837  25.564  1.00  0.00    -0.458 OA
BRANCH  34  35
ATOM     35  C   UNL A   1      44.161  24.131  25.367  1.00  0.00     0.338 C 
ATOM     36  O   UNL A   1      44.824  24.593  24.456  1.00  0.00    -0.246 OA
BRANCH  35  37
ATOM     37  C   UNL A   1      43.484  24.978  26.359  1.00  0.00     0.060 A 
ATOM     38  C   UNL A   1      43.899  26.307  26.468  1.00  0.00     0.016 A 
ATOM     39  C   UNL A   1      42.526  24.461  27.232  1.00  0.00     0.016 A 
ATOM     40  C   UNL A   1      43.384  27.123  27.467  1.00  0.00     0.010 A 
ATOM     41  C   UNL A   1      41.998  25.286  28.231  1.00  0.00     0.010 A 
ATOM     42  C   UNL A   1      42.437  26.615  28.365  1.00  0.00    -0.014 A 
BRANCH  42  43
ATOM     43  C   UNL A   1      41.963  27.471  29.478  1.00  0.00     0.031 A 
ATOM     44  C   UNL A   1      42.687  27.455  30.792  1.00  0.00     0.074 A 
ATOM     45  C   UNL A   1      40.916  28.294  29.290  1.00  0.00     0.049 A 
ATOM     46  N   UNL A   1      42.400  28.087  31.903  1.00  0.00    -0.248 NA
ATOM     47  C   UNL A   1      43.892  26.614  30.870  1.00  0.00     0.031 C 
ATOM     48  C   UNL A   1      40.163  28.431  28.043  1.00  0.00     0.029 A 
ATOM     49  N   UNL A   1      40.306  29.172  30.149  1.00  0.00    -0.354 N 
ATOM     50  C   UNL A   1      43.374  27.706  32.816  1.00  0.00     0.074 A 
ATOM     51  C   UNL A   1      44.250  26.775  32.136  1.00  0.00     0.031 C 
ATOM     52  C   UNL A   1      39.195  29.346  28.217  1.00  0.00     0.029 A 
ATOM     53  C   UNL A   1      39.234  29.826  29.595  1.00  0.00     0.049 A 
ATOM     54  H   UNL A   1      40.609  29.319  31.074  1.00  0.00     0.167 HD
ATOM     55  C   UNL A   1      43.524  28.101  34.102  1.00  0.00     0.037 A 
ATOM     56  C   UNL A   1      38.368  30.697  30.146  1.00  0.00     0.037 A 
ATOM     57  C   UNL A   1      42.667  29.047  34.766  1.00  0.00     0.049 A 
ATOM     58  C   UNL A   1      38.534  31.090  31.587  1.00  0.00     0.074 A 
ATOM     59  C   UNL A   1      42.745  29.520  36.066  1.00  0.00     0.029 A 
ATOM     60  N   UNL A   1      41.575  29.669  34.180  1.00  0.00    -0.354 N 
ATOM     61  N   UNL A   1      39.450  30.713  32.445  1.00  0.00    -0.248 NA
ATOM     62  C   UNL A   1      37.543  32.026  32.136  1.00  0.00     0.031 C 
ATOM     63  C   UNL A   1      41.680  30.404  36.275  1.00  0.00     0.029 A 
ATOM     64  C   UNL A   1      40.962  30.509  35.095  1.00  0.00     0.049 A 
ATOM     65  H   UNL A   1      41.279  29.533  33.251  1.00  0.00     0.167 HD
ATOM     66  C   UNL A   1      39.159  31.378  33.628  1.00  0.00     0.074 A 
ATOM     67  C   UNL A   1      37.990  32.193  33.374  1.00  0.00     0.031 C 
ATOM     68  C   UNL A   1      39.802  31.317  34.821  1.00  0.00     0.037 A 
BRANCH  55  69
ATOM     69  C   UNL A   1      44.649  27.488  34.883  1.00  0.00     0.057 A 
ATOM     70  C   UNL A   1      44.495  26.291  35.590  1.00  0.00     0.134 A 
ATOM     71  C   UNL A   1      45.912  28.095  34.903  1.00  0.00     0.134 A 
ATOM     72  F   UNL A   1      43.307  25.666  35.620  1.00  0.00    -0.206 F 
ATOM     73  C   UNL A   1      45.550  25.728  36.310  1.00  0.00     0.040 A 
ATOM     74  C   UNL A   1      46.981  27.531  35.601  1.00  0.00     0.040 A 
ATOM     75  F   UNL A   1      46.128  29.242  34.242  1.00  0.00    -0.206 F 
ATOM     76  C   UNL A   1      46.800  26.347  36.311  1.00  0.00     0.006 A 
ENDBRANCH  55  69
BRANCH  56  77
ATOM     77  C   UNL A   1      37.255  31.245  29.332  1.00  0.00     0.057 A 
ATOM     78  C   UNL A   1      36.123  30.478  29.041  1.00  0.00     0.134 A 
ATOM     79  C   UNL A   1      37.303  32.548  28.822  1.00  0.00     0.134 A 
ATOM     80  F   UNL A   1      36.031  29.216  29.482  1.00  0.00    -0.206 F 
ATOM     81  C   UNL A   1      35.080  30.983  28.262  1.00  0.00     0.040 A 
ATOM     82  C   UNL A   1      36.258  33.074  28.062  1.00  0.00     0.040 A 
ATOM     83  F   UNL A   1      38.363  33.334  29.066  1.00  0.00    -0.206 F 
ATOM     84  C   UNL A   1      35.144  32.287  27.775  1.00  0.00     0.006 A 
ENDBRANCH  56  77
BRANCH  68  85
ATOM     85  C   UNL A   1      39.267  32.178  35.927  1.00  0.00     0.057 A 
ATOM     86  C   UNL A   1      39.697  33.499  36.105  1.00  0.00     0.134 A 
ATOM     87  C   UNL A   1      38.291  31.689  36.803  1.00  0.00     0.134 A 
ATOM     88  F   UNL A   1      40.641  34.020  35.307  1.00  0.00    -0.206 F 
ATOM     89  C   UNL A   1      39.190  34.297  37.132  1.00  0.00     0.040 A 
ATOM     90  C   UNL A   1      37.759  32.484  37.819  1.00  0.00     0.040 A 
ATOM     91  F   UNL A   1      37.832  30.434  36.679  1.00  0.00    -0.206 F 
ATOM     92  C   UNL A   1      38.213  33.790  37.989  1.00  0.00     0.006 A 
ENDBRANCH  68  85
ENDBRANCH  42  43
ENDBRANCH  35  37
ENDBRANCH  34  35
ENDBRANCH  33  34
ENDBRANCH  32  33
ENDBRANCH  31  32
ENDBRANCH  29  31
ENDBRANCH   1  29
TORSDOF 21
ENDMDL
MODEL 3
REMARK VINA RESULT:     -10.6      3.991      8.840
REMARK SMILES CCCCCCNC(=O)Oc1cccc(-c2ccc([C@@H](C)C(=O)OCCOC(=O)c3ccc(-c4c5nc(c(-c6c(F)cccc6F)c6ccc([nH]6)c(-c6c(F)cccc6F)c6nc(c(-c7c(F)cccc7F)c7ccc4[nH]7)C=C6)C=C5)cc3)cc2[N+](=O)[O-])c1
REMARK SMILES IDX 20 1 21 2 19 3 16 4 17 5 85 6 18 7 84 8 15 9 11 10 12 11
REMARK SMILES IDX 89 12 13 13 14 14 10 15 8 16 7 17 9 19 6 20 5 21 4 22 3 23
REMARK SMILES IDX 2 24 1 25 86 26 87 27 88 28 22 29 23 30 24 31 25 32 26 33
REMARK SMILES IDX 27 34 28 35 29 36 30 37 31 38 83 39 32 40 82 41 33 42 34 43
REMARK SMILES IDX 35 44 76 45 36 46 81 47 75 48 77 49 37 50 80 51 74 52 73 53
REMARK SMILES IDX 38 55 64 56 47 57 63 58 48 59 51 60 62 61 78 62 49 63 50 64
REMARK SMILES IDX 61 66 79 67 52 68 39 69 40 70 45 71 41 72 42 73 44 74 46 75
REMARK SMILES IDX 43 76 65 77 66 78 71 79 67 80 68 81 70 82 72 83 69 84 53 85
REMARK SMILES IDX 54 86 59 87 55 88 56 89 58 90 60 91 57 92
REMARK H PARENT 7 18 77 54 51 65
REMARK Flexibility Score: inf
ROOT
ATOM      1  C   UNL A   1      32.646  19.683  24.301  1.00  0.00     0.126 C 
ATOM      2  C   UNL A   1      32.154  18.914  23.077  1.00  0.00     0.025 C 
ENDROOT
BRANCH   1   3
ATOM      3  C   UNL A   1      32.213  21.143  24.285  1.00  0.00    -0.027 A 
ATOM      4  C   UNL A   1      31.361  23.881  24.290  1.00  0.00     0.060 A 
ATOM      5  C   UNL A   1      31.769  23.233  23.109  1.00  0.00     0.016 A 
ATOM      6  C   UNL A   1      31.408  23.118  25.470  1.00  0.00     0.277 A 
ATOM      7  C   UNL A   1      32.178  21.892  23.104  1.00  0.00     0.006 A 
ATOM      8  C   UNL A   1      31.824  21.773  25.475  1.00  0.00     0.091 A 
BRANCH   4   9
ATOM      9  C   UNL A   1      30.894  25.277  24.208  1.00  0.00    -0.008 A 
ATOM     10  C   UNL A   1      31.228  27.664  24.465  1.00  0.00     0.133 A 
ATOM     11  C   UNL A   1      29.915  27.920  24.076  1.00  0.00     0.047 A 
ATOM     12  C   UNL A   1      31.725  26.360  24.534  1.00  0.00     0.056 A 
ATOM     13  C   UNL A   1      29.086  26.857  23.735  1.00  0.00     0.004 A 
ATOM     14  C   UNL A   1      29.572  25.550  23.804  1.00  0.00     0.009 A 
BRANCH  10  15
ATOM     15  O   UNL A   1      31.974  28.763  24.920  1.00  0.00    -0.410 OA
BRANCH  15  16
ATOM     16  C   UNL A   1      33.167  29.069  24.284  1.00  0.00     0.412 C 
ATOM     17  N   UNL A   1      34.217  29.191  25.154  1.00  0.00    -0.321 N 
ATOM     18  H   UNL A   1      35.090  29.415  24.760  1.00  0.00     0.167 HD
ATOM     19  O   UNL A   1      33.321  29.238  23.081  1.00  0.00    -0.224 OA
BRANCH  17  20
ATOM     20  C   UNL A   1      34.177  29.024  26.594  1.00  0.00     0.119 C 
BRANCH  20  21
ATOM     21  C   UNL A   1      35.538  29.282  27.240  1.00  0.00     0.021 C 
BRANCH  21  22
ATOM     22  C   UNL A   1      35.481  29.881  28.652  1.00  0.00     0.002 C 
BRANCH  22  23
ATOM     23  C   UNL A   1      34.924  31.306  28.745  1.00  0.00    -0.000 C 
BRANCH  23  24
ATOM     24  C   UNL A   1      35.630  32.346  27.872  1.00  0.00    -0.003 C 
ATOM     25  C   UNL A   1      35.560  33.755  28.440  1.00  0.00     0.004 C 
ENDBRANCH  23  24
ENDBRANCH  22  23
ENDBRANCH  21  22
ENDBRANCH  20  21
ENDBRANCH  17  20
ENDBRANCH  15  16
ENDBRANCH  10  15
ENDBRANCH   4   9
BRANCH   6  26
ATOM     26  N   UNL A   1      30.973  23.670  26.745  1.00  0.00     0.063 N 
ATOM     27  O   UNL A   1      31.792  24.365  27.366  1.00  0.00    -0.258 OA
ATOM     28  O   UNL A   1      29.847  23.361  27.154  1.00  0.00    -0.258 OA
ENDBRANCH   6  26
ENDBRANCH   1   3
BRANCH   1  29
ATOM     29  C   UNL A   1      34.134  19.427  24.516  1.00  0.00     0.313 C 
ATOM     30  O   UNL A   1      34.586  18.294  24.652  1.00  0.00    -0.252 OA
BRANCH  29  31
ATOM     31  O   UNL A   1      34.889  20.556  24.499  1.00  0.00    -0.462 OA
BRANCH  31  32
ATOM     32  C   UNL A   1      35.896  20.683  25.523  1.00  0.00     0.274 C 
BRANCH  32  33
ATOM     33  C   UNL A   1      37.292  20.373  24.976  1.00  0.00     0.275 C 
BRANCH  33  34
ATOM     34  O   UNL A   1      38.209  21.456  25.227  1.00  0.00    -0.458 OA
BRANCH  34  35
ATOM     35  C   UNL A   1      39.235  21.153  26.055  1.00  0.00     0.338 C 
ATOM     36  O   UNL A   1      39.745  20.062  26.235  1.00  0.00    -0.246 OA
BRANCH  35  37
ATOM     37  C   UNL A   1      39.782  22.386  26.637  1.00  0.00     0.060 A 
ATOM     38  C   UNL A   1      39.294  23.603  26.155  1.00  0.00     0.016 A 
ATOM     39  C   UNL A   1      40.821  22.358  27.568  1.00  0.00     0.016 A 
ATOM     40  C   UNL A   1      39.857  24.801  26.576  1.00  0.00     0.010 A 
ATOM     41  C   UNL A   1      41.380  23.565  28.002  1.00  0.00     0.010 A 
ATOM     42  C   UNL A   1      40.914  24.791  27.495  1.00  0.00    -0.014 A 
BRANCH  42  43
ATOM     43  C   UNL A   1      41.561  26.071  27.867  1.00  0.00     0.031 A 
ATOM     44  C   UNL A   1      42.944  26.380  27.372  1.00  0.00     0.074 A 
ATOM     45  C   UNL A   1      40.889  26.970  28.607  1.00  0.00     0.049 A 
ATOM     46  N   UNL A   1      43.702  27.416  27.629  1.00  0.00    -0.248 NA
ATOM     47  C   UNL A   1      43.557  25.391  26.471  1.00  0.00     0.031 C 
ATOM     48  C   UNL A   1      39.524  26.802  29.106  1.00  0.00     0.029 A 
ATOM     49  N   UNL A   1      41.264  28.208  29.065  1.00  0.00    -0.354 N 
ATOM     50  C   UNL A   1      44.888  27.195  26.940  1.00  0.00     0.074 A 
ATOM     51  C   UNL A   1      44.756  25.920  26.269  1.00  0.00     0.031 C 
ATOM     52  C   UNL A   1      39.174  27.900  29.797  1.00  0.00     0.029 A 
ATOM     53  C   UNL A   1      40.302  28.827  29.823  1.00  0.00     0.049 A 
ATOM     54  H   UNL A   1      42.140  28.613  28.869  1.00  0.00     0.167 HD
ATOM     55  C   UNL A   1      45.983  27.989  26.871  1.00  0.00     0.037 A 
ATOM     56  C   UNL A   1      40.336  29.999  30.483  1.00  0.00     0.037 A 
ATOM     57  C   UNL A   1      46.100  29.268  27.519  1.00  0.00     0.049 A 
ATOM     58  C   UNL A   1      41.579  30.843  30.423  1.00  0.00     0.074 A 
ATOM     59  C   UNL A   1      47.167  30.152  27.499  1.00  0.00     0.029 A 
ATOM     60  N   UNL A   1      45.114  29.851  28.299  1.00  0.00    -0.354 N 
ATOM     61  N   UNL A   1      42.698  30.619  29.780  1.00  0.00    -0.248 NA
ATOM     62  C   UNL A   1      41.562  32.100  31.183  1.00  0.00     0.031 C 
ATOM     63  C   UNL A   1      46.836  31.255  28.296  1.00  0.00     0.029 A 
ATOM     64  C   UNL A   1      45.551  31.075  28.779  1.00  0.00     0.049 A 
ATOM     65  H   UNL A   1      44.232  29.453  28.485  1.00  0.00     0.167 HD
ATOM     66  C   UNL A   1      43.512  31.712  30.041  1.00  0.00     0.074 A 
ATOM     67  C   UNL A   1      42.752  32.606  30.890  1.00  0.00     0.031 C 
ATOM     68  C   UNL A   1      44.778  31.953  29.619  1.00  0.00     0.037 A 
BRANCH  55  69
ATOM     69  C   UNL A   1      47.153  27.478  26.085  1.00  0.00     0.057 A 
ATOM     70  C   UNL A   1      48.215  26.797  26.691  1.00  0.00     0.134 A 
ATOM     71  C   UNL A   1      47.203  27.648  24.695  1.00  0.00     0.134 A 
ATOM     72  F   UNL A   1      48.233  26.612  28.020  1.00  0.00    -0.206 F 
ATOM     73  C   UNL A   1      49.297  26.323  25.948  1.00  0.00     0.040 A 
ATOM     74  C   UNL A   1      48.268  27.160  23.937  1.00  0.00     0.040 A 
ATOM     75  F   UNL A   1      46.215  28.288  24.050  1.00  0.00    -0.206 F 
ATOM     76  C   UNL A   1      49.323  26.500  24.565  1.00  0.00     0.006 A 
ENDBRANCH  55  69
BRANCH  56  77
ATOM     77  C   UNL A   1      39.158  30.437  31.272  1.00  0.00     0.057 A 
ATOM     78  C   UNL A   1      38.226  31.336  30.744  1.00  0.00     0.134 A 
ATOM     79  C   UNL A   1      38.942  29.971  32.574  1.00  0.00     0.134 A 
ATOM     80  F   UNL A   1      38.391  31.836  29.511  1.00  0.00    -0.206 F 
ATOM     81  C   UNL A   1      37.124  31.766  31.487  1.00  0.00     0.040 A 
ATOM     82  C   UNL A   1      37.834  30.373  33.320  1.00  0.00     0.040 A 
ATOM     83  F   UNL A   1      39.801  29.107  33.136  1.00  0.00    -0.206 F 
ATOM     84  C   UNL A   1      36.923  31.279  32.777  1.00  0.00     0.006 A 
ENDBRANCH  56  77
BRANCH  68  85
ATOM     85  C   UNL A   1      45.403  33.248  30.046  1.00  0.00     0.057 A 
ATOM     86  C   UNL A   1      45.255  34.420  29.295  1.00  0.00     0.134 A 
ATOM     87  C   UNL A   1      46.135  33.328  31.236  1.00  0.00     0.134 A 
ATOM     88  F   UNL A   1      44.577  34.405  28.137  1.00  0.00    -0.206 F 
ATOM     89  C   UNL A   1      45.833  35.623  29.702  1.00  0.00     0.040 A 
ATOM     90  C   UNL A   1      46.699  34.529  31.666  1.00  0.00     0.040 A 
ATOM     91  F   UNL A   1      46.307  32.241  32.005  1.00  0.00    -0.206 F 
ATOM     92  C   UNL A   1      46.553  35.680  30.895  1.00  0.00     0.006 A 
ENDBRANCH  68  85
ENDBRANCH  42  43
ENDBRANCH  35  37
ENDBRANCH  34  35
ENDBRANCH  33  34
ENDBRANCH  32  33
ENDBRANCH  31  32
ENDBRANCH  29  31
ENDBRANCH   1  29
TORSDOF 21
ENDMDL
