MODEL 1
REMARK VINA RESULT:     -10.9      0.000      0.000
REMARK SMILES CC[C@@H](NS(=O)(=O)c1cc(C)ccc1C)C(=O)OCCOC(=O)c1ccc(-c2c3nc(c(-c4c(F)cccc4F)c4ccc([nH]4)c(-c4c(F)cccc4F)c4nc(c(-c5c(F)cccc5F)c5ccc2[nH]5)C=C4)C=C3)cc1
REMARK SMILES IDX 19 1 18 2 16 3 17 4 3 5 2 6 1 7 4 8 5 10 6 11 7 12 8 13 9 14
REMARK SMILES IDX 14 15 10 16 13 17 15 18 11 19 12 20 20 21 21 22 22 23 23 24
REMARK SMILES IDX 24 25 25 26 77 27 26 28 76 29 27 30 28 31 29 32 70 33 30 34
REMARK SMILES IDX 75 35 69 36 71 37 31 38 74 39 68 40 67 41 32 43 58 44 41 45
REMARK SMILES IDX 57 46 42 47 45 48 56 49 72 50 43 51 44 52 55 54 73 55 46 56
REMARK SMILES IDX 33 57 34 58 39 59 35 60 36 61 38 62 40 63 37 64 59 65 60 66
REMARK SMILES IDX 65 67 61 68 62 69 64 70 66 71 63 72 47 73 48 74 53 75 49 76
REMARK SMILES IDX 50 77 52 78 54 79 51 80
REMARK H PARENT 4 9 71 42 45 53
REMARK Flexibility Score: inf
ROOT
ATOM      1  C   UNL A   1      32.293  30.099  27.110  1.00  0.00     0.274 C 
ENDROOT
BRANCH   1   2
ATOM      2  O   UNL A   1      31.825  29.003  26.302  1.00  0.00    -0.461 OA
BRANCH   2   3
ATOM      3  C   UNL A   1      31.440  27.881  26.961  1.00  0.00     0.324 C 
ATOM      4  O   UNL A   1      31.136  27.891  28.150  1.00  0.00    -0.250 OA
BRANCH   3   5
ATOM      5  C   UNL A   1      31.336  26.621  26.069  1.00  0.00     0.179 C 
BRANCH   5   6
ATOM      6  C   UNL A   1      31.402  27.205  24.643  1.00  0.00     0.028 C 
ATOM      7  C   UNL A   1      30.122  27.117  23.840  1.00  0.00     0.006 C 
ENDBRANCH   5   6
BRANCH   5   8
ATOM      8  N   UNL A   1      32.378  25.549  26.271  1.00  0.00    -0.197 NA
ATOM      9  H   UNL A   1      32.787  25.711  27.190  1.00  0.00     0.142 HD
BRANCH   8  10
ATOM     10  S   UNL A   1      31.949  23.890  26.209  1.00  0.00     0.241 S 
ATOM     11  O   UNL A   1      31.476  23.472  27.496  1.00  0.00    -0.207 OA
ATOM     12  O   UNL A   1      31.081  23.808  25.043  1.00  0.00    -0.207 OA
BRANCH  10  13
ATOM     13  C   UNL A   1      33.470  22.990  25.787  1.00  0.00     0.085 A 
ATOM     14  C   UNL A   1      34.691  23.706  25.880  1.00  0.00     0.025 A 
ATOM     15  C   UNL A   1      33.505  21.625  25.433  1.00  0.00    -0.031 A 
ATOM     16  C   UNL A   1      35.934  23.048  25.800  1.00  0.00    -0.050 A 
ATOM     17  C   UNL A   1      34.767  20.985  25.356  1.00  0.00     0.005 A 
ATOM     18  C   UNL A   1      32.333  20.727  25.163  1.00  0.00     0.046 C 
ATOM     19  C   UNL A   1      37.236  23.772  25.992  1.00  0.00     0.044 C 
ATOM     20  C   UNL A   1      35.958  21.676  25.561  1.00  0.00     0.004 A 
ENDBRANCH  10  13
ENDBRANCH   8  10
ENDBRANCH   5   8
ENDBRANCH   3   5
ENDBRANCH   2   3
ENDBRANCH   1   2
BRANCH   1  21
ATOM     21  C   UNL A   1      33.781  30.518  27.016  1.00  0.00     0.275 C 
BRANCH  21  22
ATOM     22  O   UNL A   1      34.768  29.768  27.760  1.00  0.00    -0.458 OA
BRANCH  22  23
ATOM     23  C   UNL A   1      35.714  30.295  28.574  1.00  0.00     0.338 C 
ATOM     24  O   UNL A   1      35.491  31.195  29.370  1.00  0.00    -0.246 OA
BRANCH  23  25
ATOM     25  C   UNL A   1      36.973  29.551  28.621  1.00  0.00     0.060 A 
ATOM     26  C   UNL A   1      37.810  29.755  27.540  1.00  0.00     0.016 A 
ATOM     27  C   UNL A   1      37.425  28.884  29.749  1.00  0.00     0.016 A 
ATOM     28  C   UNL A   1      39.138  29.380  27.608  1.00  0.00     0.010 A 
ATOM     29  C   UNL A   1      38.765  28.506  29.809  1.00  0.00     0.010 A 
ATOM     30  C   UNL A   1      39.621  28.699  28.711  1.00  0.00    -0.014 A 
BRANCH  30  31
ATOM     31  C   UNL A   1      40.979  28.142  28.590  1.00  0.00     0.031 A 
ATOM     32  C   UNL A   1      41.194  26.815  27.915  1.00  0.00     0.074 A 
ATOM     33  C   UNL A   1      42.033  28.799  29.119  1.00  0.00     0.049 A 
ATOM     34  N   UNL A   1      41.902  25.820  28.360  1.00  0.00    -0.248 NA
ATOM     35  C   UNL A   1      40.531  26.527  26.632  1.00  0.00     0.031 C 
ATOM     36  C   UNL A   1      42.011  30.124  29.745  1.00  0.00     0.029 A 
ATOM     37  N   UNL A   1      43.366  28.491  29.092  1.00  0.00    -0.354 N 
ATOM     38  C   UNL A   1      41.912  24.851  27.358  1.00  0.00     0.074 A 
ATOM     39  C   UNL A   1      40.994  25.306  26.346  1.00  0.00     0.031 C 
ATOM     40  C   UNL A   1      43.249  30.641  29.723  1.00  0.00     0.029 A 
ATOM     41  C   UNL A   1      44.162  29.610  29.265  1.00  0.00     0.049 A 
ATOM     42  H   UNL A   1      43.717  27.580  28.964  1.00  0.00     0.167 HD
ATOM     43  C   UNL A   1      42.832  23.846  27.340  1.00  0.00     0.037 A 
ATOM     44  C   UNL A   1      45.476  29.752  29.007  1.00  0.00     0.037 A 
ATOM     45  C   UNL A   1      43.454  23.636  28.615  1.00  0.00     0.049 A 
ATOM     46  C   UNL A   1      46.146  28.447  29.166  1.00  0.00     0.074 A 
ATOM     47  C   UNL A   1      43.206  22.915  29.760  1.00  0.00     0.029 A 
ATOM     48  N   UNL A   1      44.509  24.461  28.872  1.00  0.00    -0.354 N 
ATOM     49  N   UNL A   1      46.260  27.831  30.311  1.00  0.00    -0.248 NA
ATOM     50  C   UNL A   1      46.471  27.642  27.993  1.00  0.00     0.031 C 
ATOM     51  C   UNL A   1      44.069  23.446  30.764  1.00  0.00     0.029 A 
ATOM     52  C   UNL A   1      44.819  24.479  30.205  1.00  0.00     0.049 A 
ATOM     53  H   UNL A   1      44.987  24.979  28.185  1.00  0.00     0.167 HD
ATOM     54  C   UNL A   1      46.221  26.494  29.980  1.00  0.00     0.074 A 
ATOM     55  C   UNL A   1      46.567  26.440  28.567  1.00  0.00     0.031 C 
ATOM     56  C   UNL A   1      45.563  25.590  30.764  1.00  0.00     0.037 A 
BRANCH  43  57
ATOM     57  C   UNL A   1      43.519  23.342  26.087  1.00  0.00     0.057 A 
ATOM     58  C   UNL A   1      43.566  21.958  25.820  1.00  0.00     0.134 A 
ATOM     59  C   UNL A   1      44.429  24.124  25.349  1.00  0.00     0.134 A 
ATOM     60  F   UNL A   1      42.767  21.101  26.473  1.00  0.00    -0.206 F 
ATOM     61  C   UNL A   1      44.496  21.393  24.933  1.00  0.00     0.040 A 
ATOM     62  C   UNL A   1      45.332  23.575  24.432  1.00  0.00     0.040 A 
ATOM     63  F   UNL A   1      44.563  25.440  25.561  1.00  0.00    -0.206 F 
ATOM     64  C   UNL A   1      45.388  22.203  24.243  1.00  0.00     0.006 A 
ENDBRANCH  43  57
BRANCH  44  65
ATOM     65  C   UNL A   1      46.110  30.974  28.480  1.00  0.00     0.057 A 
ATOM     66  C   UNL A   1      46.078  31.295  27.122  1.00  0.00     0.134 A 
ATOM     67  C   UNL A   1      46.609  31.970  29.345  1.00  0.00     0.134 A 
ATOM     68  F   UNL A   1      45.574  30.429  26.232  1.00  0.00    -0.206 F 
ATOM     69  C   UNL A   1      46.521  32.534  26.647  1.00  0.00     0.040 A 
ATOM     70  C   UNL A   1      47.070  33.204  28.884  1.00  0.00     0.040 A 
ATOM     71  F   UNL A   1      46.599  31.804  30.678  1.00  0.00    -0.206 F 
ATOM     72  C   UNL A   1      47.018  33.493  27.529  1.00  0.00     0.006 A 
ENDBRANCH  44  65
BRANCH  56  73
ATOM     73  C   UNL A   1      45.405  25.884  32.226  1.00  0.00     0.057 A 
ATOM     74  C   UNL A   1      46.374  25.618  33.203  1.00  0.00     0.134 A 
ATOM     75  C   UNL A   1      44.252  26.559  32.650  1.00  0.00     0.134 A 
ATOM     76  F   UNL A   1      47.548  25.057  32.886  1.00  0.00    -0.206 F 
ATOM     77  C   UNL A   1      46.186  25.975  34.541  1.00  0.00     0.040 A 
ATOM     78  C   UNL A   1      44.070  26.957  33.976  1.00  0.00     0.040 A 
ATOM     79  F   UNL A   1      43.292  26.883  31.769  1.00  0.00    -0.206 F 
ATOM     80  C   UNL A   1      45.035  26.654  34.931  1.00  0.00     0.006 A 
ENDBRANCH  56  73
ENDBRANCH  30  31
ENDBRANCH  23  25
ENDBRANCH  22  23
ENDBRANCH  21  22
ENDBRANCH   1  21
TORSDOF 15
ENDMDL
MODEL 2
REMARK VINA RESULT:     -10.8      2.150      6.210
REMARK SMILES CC[C@@H](NS(=O)(=O)c1cc(C)ccc1C)C(=O)OCCOC(=O)c1ccc(-c2c3nc(c(-c4c(F)cccc4F)c4ccc([nH]4)c(-c4c(F)cccc4F)c4nc(c(-c5c(F)cccc5F)c5ccc2[nH]5)C=C4)C=C3)cc1
REMARK SMILES IDX 19 1 18 2 16 3 17 4 3 5 2 6 1 7 4 8 5 10 6 11 7 12 8 13 9 14
REMARK SMILES IDX 14 15 10 16 13 17 15 18 11 19 12 20 20 21 21 22 22 23 23 24
REMARK SMILES IDX 24 25 25 26 77 27 26 28 76 29 27 30 28 31 29 32 70 33 30 34
REMARK SMILES IDX 75 35 69 36 71 37 31 38 74 39 68 40 67 41 32 43 58 44 41 45
REMARK SMILES IDX 57 46 42 47 45 48 56 49 72 50 43 51 44 52 55 54 73 55 46 56
REMARK SMILES IDX 33 57 34 58 39 59 35 60 36 61 38 62 40 63 37 64 59 65 60 66
REMARK SMILES IDX 65 67 61 68 62 69 64 70 66 71 63 72 47 73 48 74 53 75 49 76
REMARK SMILES IDX 50 77 52 78 54 79 51 80
REMARK H PARENT 4 9 71 42 45 53
REMARK Flexibility Score: inf
ROOT
ATOM      1  C   UNL A   1      31.955  29.851  25.558  1.00  0.00     0.274 C 
ENDROOT
BRANCH   1   2
ATOM      2  O   UNL A   1      33.032  29.234  24.827  1.00  0.00    -0.461 OA
BRANCH   2   3
ATOM      3  C   UNL A   1      32.714  28.677  23.631  1.00  0.00     0.324 C 
ATOM      4  O   UNL A   1      33.168  29.096  22.570  1.00  0.00    -0.250 OA
BRANCH   3   5
ATOM      5  C   UNL A   1      31.809  27.425  23.730  1.00  0.00     0.179 C 
BRANCH   5   6
ATOM      6  C   UNL A   1      30.734  27.695  22.657  1.00  0.00     0.028 C 
ATOM      7  C   UNL A   1      29.367  28.076  23.182  1.00  0.00     0.006 C 
ENDBRANCH   5   6
BRANCH   5   8
ATOM      8  N   UNL A   1      32.466  26.084  23.522  1.00  0.00    -0.197 NA
ATOM      9  H   UNL A   1      33.334  26.261  23.017  1.00  0.00     0.142 HD
BRANCH   8  10
ATOM     10  S   UNL A   1      32.872  25.091  24.860  1.00  0.00     0.241 S 
ATOM     11  O   UNL A   1      33.033  25.908  26.028  1.00  0.00    -0.207 OA
ATOM     12  O   UNL A   1      31.857  24.047  24.826  1.00  0.00    -0.207 OA
BRANCH  10  13
ATOM     13  C   UNL A   1      34.449  24.295  24.440  1.00  0.00     0.085 A 
ATOM     14  C   UNL A   1      35.534  24.499  25.331  1.00  0.00     0.025 A 
ATOM     15  C   UNL A   1      34.633  23.453  23.322  1.00  0.00    -0.031 A 
ATOM     16  C   UNL A   1      36.721  23.749  25.223  1.00  0.00    -0.050 A 
ATOM     17  C   UNL A   1      35.837  22.710  23.234  1.00  0.00     0.005 A 
ATOM     18  C   UNL A   1      33.664  23.203  22.204  1.00  0.00     0.046 C 
ATOM     19  C   UNL A   1      37.843  23.881  26.213  1.00  0.00     0.044 C 
ATOM     20  C   UNL A   1      36.851  22.835  24.179  1.00  0.00     0.004 A 
ENDBRANCH  10  13
ENDBRANCH   8  10
ENDBRANCH   5   8
ENDBRANCH   3   5
ENDBRANCH   2   3
ENDBRANCH   1   2
BRANCH   1  21
ATOM     21  C   UNL A   1      32.250  30.473  26.944  1.00  0.00     0.275 C 
BRANCH  21  22
ATOM     22  O   UNL A   1      33.582  30.355  27.495  1.00  0.00    -0.458 OA
BRANCH  22  23
ATOM     23  C   UNL A   1      34.405  31.386  27.802  1.00  0.00     0.338 C 
ATOM     24  O   UNL A   1      34.046  32.555  27.812  1.00  0.00    -0.246 OA
BRANCH  23  25
ATOM     25  C   UNL A   1      35.700  30.999  28.364  1.00  0.00     0.060 A 
ATOM     26  C   UNL A   1      35.965  29.643  28.331  1.00  0.00     0.016 A 
ATOM     27  C   UNL A   1      36.695  31.908  28.685  1.00  0.00     0.016 A 
ATOM     28  C   UNL A   1      37.253  29.182  28.525  1.00  0.00     0.010 A 
ATOM     29  C   UNL A   1      37.991  31.435  28.883  1.00  0.00     0.010 A 
ATOM     30  C   UNL A   1      38.270  30.057  28.862  1.00  0.00    -0.014 A 
BRANCH  30  31
ATOM     31  C   UNL A   1      39.546  29.447  29.275  1.00  0.00     0.031 A 
ATOM     32  C   UNL A   1      39.933  29.413  30.728  1.00  0.00     0.074 A 
ATOM     33  C   UNL A   1      40.393  28.951  28.347  1.00  0.00     0.049 A 
ATOM     34  N   UNL A   1      41.078  29.755  31.236  1.00  0.00    -0.248 NA
ATOM     35  C   UNL A   1      38.949  28.997  31.740  1.00  0.00     0.031 C 
ATOM     36  C   UNL A   1      40.144  28.843  26.907  1.00  0.00     0.029 A 
ATOM     37  N   UNL A   1      41.594  28.315  28.503  1.00  0.00    -0.354 N 
ATOM     38  C   UNL A   1      41.024  29.452  32.596  1.00  0.00     0.074 A 
ATOM     39  C   UNL A   1      39.666  29.055  32.867  1.00  0.00     0.031 C 
ATOM     40  C   UNL A   1      40.961  27.912  26.389  1.00  0.00     0.029 A 
ATOM     41  C   UNL A   1      41.903  27.514  27.418  1.00  0.00     0.049 A 
ATOM     42  H   UNL A   1      42.171  28.415  29.295  1.00  0.00     0.167 HD
ATOM     43  C   UNL A   1      42.150  29.351  33.356  1.00  0.00     0.037 A 
ATOM     44  C   UNL A   1      42.822  26.533  27.334  1.00  0.00     0.037 A 
ATOM     45  C   UNL A   1      43.284  29.997  32.760  1.00  0.00     0.049 A 
ATOM     46  C   UNL A   1      43.931  26.826  28.263  1.00  0.00     0.074 A 
ATOM     47  C   UNL A   1      43.838  31.255  32.732  1.00  0.00     0.029 A 
ATOM     48  N   UNL A   1      43.953  29.235  31.848  1.00  0.00    -0.354 N 
ATOM     49  N   UNL A   1      44.744  27.837  28.117  1.00  0.00    -0.248 NA
ATOM     50  C   UNL A   1      44.001  26.155  29.556  1.00  0.00     0.031 C 
ATOM     51  C   UNL A   1      44.777  31.256  31.658  1.00  0.00     0.029 A 
ATOM     52  C   UNL A   1      44.769  29.999  31.059  1.00  0.00     0.049 A 
ATOM     53  H   UNL A   1      43.860  28.258  31.767  1.00  0.00     0.167 HD
ATOM     54  C   UNL A   1      45.072  28.194  29.407  1.00  0.00     0.074 A 
ATOM     55  C   UNL A   1      44.776  27.020  30.216  1.00  0.00     0.031 C 
ATOM     56  C   UNL A   1      45.204  29.504  29.768  1.00  0.00     0.037 A 
BRANCH  43  57
ATOM     57  C   UNL A   1      42.371  28.291  34.416  1.00  0.00     0.057 A 
ATOM     58  C   UNL A   1      42.679  26.969  34.036  1.00  0.00     0.134 A 
ATOM     59  C   UNL A   1      41.938  28.444  35.748  1.00  0.00     0.134 A 
ATOM     60  F   UNL A   1      43.081  26.685  32.787  1.00  0.00    -0.206 F 
ATOM     61  C   UNL A   1      42.504  25.877  34.899  1.00  0.00     0.040 A 
ATOM     62  C   UNL A   1      41.800  27.366  36.629  1.00  0.00     0.040 A 
ATOM     63  F   UNL A   1      41.524  29.626  36.224  1.00  0.00    -0.206 F 
ATOM     64  C   UNL A   1      42.054  26.074  36.198  1.00  0.00     0.006 A 
ENDBRANCH  43  57
BRANCH  44  65
ATOM     65  C   UNL A   1      42.662  25.282  26.571  1.00  0.00     0.057 A 
ATOM     66  C   UNL A   1      43.473  24.976  25.478  1.00  0.00     0.134 A 
ATOM     67  C   UNL A   1      41.814  24.251  27.027  1.00  0.00     0.134 A 
ATOM     68  F   UNL A   1      44.346  25.877  25.007  1.00  0.00    -0.206 F 
ATOM     69  C   UNL A   1      43.441  23.719  24.865  1.00  0.00     0.040 A 
ATOM     70  C   UNL A   1      41.759  22.998  26.416  1.00  0.00     0.040 A 
ATOM     71  F   UNL A   1      41.059  24.405  28.127  1.00  0.00    -0.206 F 
ATOM     72  C   UNL A   1      42.583  22.725  25.335  1.00  0.00     0.006 A 
ENDBRANCH  44  65
BRANCH  56  73
ATOM     73  C   UNL A   1      45.586  30.505  28.717  1.00  0.00     0.057 A 
ATOM     74  C   UNL A   1      46.900  30.776  28.314  1.00  0.00     0.134 A 
ATOM     75  C   UNL A   1      44.564  31.157  28.013  1.00  0.00     0.134 A 
ATOM     76  F   UNL A   1      47.943  30.139  28.863  1.00  0.00    -0.206 F 
ATOM     77  C   UNL A   1      47.182  31.678  27.284  1.00  0.00     0.040 A 
ATOM     78  C   UNL A   1      44.831  32.029  26.956  1.00  0.00     0.040 A 
ATOM     79  F   UNL A   1      43.276  30.925  28.315  1.00  0.00    -0.206 F 
ATOM     80  C   UNL A   1      46.146  32.302  26.596  1.00  0.00     0.006 A 
ENDBRANCH  56  73
ENDBRANCH  30  31
ENDBRANCH  23  25
ENDBRANCH  22  23
ENDBRANCH  21  22
ENDBRANCH   1  21
TORSDOF 15
ENDMDL
MODEL 3
REMARK VINA RESULT:     -10.7      1.568      3.448
REMARK SMILES CC[C@@H](NS(=O)(=O)c1cc(C)ccc1C)C(=O)OCCOC(=O)c1ccc(-c2c3nc(c(-c4c(F)cccc4F)c4ccc([nH]4)c(-c4c(F)cccc4F)c4nc(c(-c5c(F)cccc5F)c5ccc2[nH]5)C=C4)C=C3)cc1
REMARK SMILES IDX 19 1 18 2 16 3 17 4 3 5 2 6 1 7 4 8 5 10 6 11 7 12 8 13 9 14
REMARK SMILES IDX 14 15 10 16 13 17 15 18 11 19 12 20 20 21 21 22 22 23 23 24
REMARK SMILES IDX 24 25 25 26 77 27 26 28 76 29 27 30 28 31 29 32 70 33 30 34
REMARK SMILES IDX 75 35 69 36 71 37 31 38 74 39 68 40 67 41 32 43 58 44 41 45
REMARK SMILES IDX 57 46 42 47 45 48 56 49 72 50 43 51 44 52 55 54 73 55 46 56
REMARK SMILES IDX 33 57 34 58 39 59 35 60 36 61 38 62 40 63 37 64 59 65 60 66
REMARK SMILES IDX 65 67 61 68 62 69 64 70 66 71 63 72 47 73 48 74 53 75 49 76
REMARK SMILES IDX 50 77 52 78 54 79 51 80
REMARK H PARENT 4 9 71 42 45 53
REMARK Flexibility Score: inf
ROOT
ATOM      1  C   UNL A   1      32.419  30.234  26.924  1.00  0.00     0.274 C 
ENDROOT
BRANCH   1   2
ATOM      2  O   UNL A   1      31.638  29.359  26.087  1.00  0.00    -0.461 OA
BRANCH   2   3
ATOM      3  C   UNL A   1      31.707  28.032  26.362  1.00  0.00     0.324 C 
ATOM      4  O   UNL A   1      31.139  27.532  27.328  1.00  0.00    -0.250 OA
BRANCH   3   5
ATOM      5  C   UNL A   1      32.485  27.203  25.312  1.00  0.00     0.179 C 
BRANCH   5   6
ATOM      6  C   UNL A   1      33.105  26.072  26.160  1.00  0.00     0.028 C 
ATOM      7  C   UNL A   1      32.624  24.674  25.837  1.00  0.00     0.006 C 
ENDBRANCH   5   6
BRANCH   5   8
ATOM      8  N   UNL A   1      31.695  26.648  24.154  1.00  0.00    -0.197 NA
ATOM      9  H   UNL A   1      30.755  26.464  24.504  1.00  0.00     0.142 HD
BRANCH   8  10
ATOM     10  S   UNL A   1      31.512  27.551  22.707  1.00  0.00     0.241 S 
ATOM     11  O   UNL A   1      32.596  28.482  22.587  1.00  0.00    -0.207 OA
ATOM     12  O   UNL A   1      31.305  26.527  21.693  1.00  0.00    -0.207 OA
BRANCH  10  13
ATOM     13  C   UNL A   1      29.940  28.447  22.866  1.00  0.00     0.085 A 
ATOM     14  C   UNL A   1      29.930  29.809  22.467  1.00  0.00     0.025 A 
ATOM     15  C   UNL A   1      28.737  27.856  23.305  1.00  0.00    -0.031 A 
ATOM     16  C   UNL A   1      28.723  30.523  22.334  1.00  0.00    -0.050 A 
ATOM     17  C   UNL A   1      27.537  28.595  23.164  1.00  0.00     0.005 A 
ATOM     18  C   UNL A   1      28.558  26.481  23.880  1.00  0.00     0.046 C 
ATOM     19  C   UNL A   1      28.682  31.935  21.821  1.00  0.00     0.044 C 
ATOM     20  C   UNL A   1      27.525  29.894  22.663  1.00  0.00     0.004 A 
ENDBRANCH  10  13
ENDBRANCH   8  10
ENDBRANCH   5   8
ENDBRANCH   3   5
ENDBRANCH   2   3
ENDBRANCH   1   2
BRANCH   1  21
ATOM     21  C   UNL A   1      33.963  30.123  26.890  1.00  0.00     0.275 C 
BRANCH  21  22
ATOM     22  O   UNL A   1      34.660  29.683  28.078  1.00  0.00    -0.458 OA
BRANCH  22  23
ATOM     23  C   UNL A   1      35.708  30.314  28.659  1.00  0.00     0.338 C 
ATOM     24  O   UNL A   1      35.597  31.340  29.314  1.00  0.00    -0.246 OA
BRANCH  23  25
ATOM     25  C   UNL A   1      36.960  29.556  28.666  1.00  0.00     0.060 A 
ATOM     26  C   UNL A   1      37.770  29.761  27.565  1.00  0.00     0.016 A 
ATOM     27  C   UNL A   1      37.434  28.873  29.775  1.00  0.00     0.016 A 
ATOM     28  C   UNL A   1      39.094  29.370  27.594  1.00  0.00     0.010 A 
ATOM     29  C   UNL A   1      38.770  28.480  29.796  1.00  0.00     0.010 A 
ATOM     30  C   UNL A   1      39.599  28.674  28.677  1.00  0.00    -0.014 A 
BRANCH  30  31
ATOM     31  C   UNL A   1      40.947  28.102  28.514  1.00  0.00     0.031 A 
ATOM     32  C   UNL A   1      41.122  26.747  27.884  1.00  0.00     0.074 A 
ATOM     33  C   UNL A   1      42.028  28.772  28.966  1.00  0.00     0.049 A 
ATOM     34  N   UNL A   1      41.846  25.767  28.336  1.00  0.00    -0.248 NA
ATOM     35  C   UNL A   1      40.398  26.413  26.647  1.00  0.00     0.031 C 
ATOM     36  C   UNL A   1      42.043  30.122  29.538  1.00  0.00     0.029 A 
ATOM     37  N   UNL A   1      43.357  28.455  28.888  1.00  0.00    -0.354 N 
ATOM     38  C   UNL A   1      41.804  24.758  27.374  1.00  0.00     0.074 A 
ATOM     39  C   UNL A   1      40.841  25.178  26.390  1.00  0.00     0.031 C 
ATOM     40  C   UNL A   1      43.281  30.629  29.437  1.00  0.00     0.029 A 
ATOM     41  C   UNL A   1      44.166  29.574  28.978  1.00  0.00     0.049 A 
ATOM     42  H   UNL A   1      43.697  27.537  28.781  1.00  0.00     0.167 HD
ATOM     43  C   UNL A   1      42.717  23.747  27.353  1.00  0.00     0.037 A 
ATOM     44  C   UNL A   1      45.467  29.696  28.652  1.00  0.00     0.037 A 
ATOM     45  C   UNL A   1      43.397  23.583  28.605  1.00  0.00     0.049 A 
ATOM     46  C   UNL A   1      46.137  28.394  28.832  1.00  0.00     0.074 A 
ATOM     47  C   UNL A   1      43.200  22.911  29.789  1.00  0.00     0.029 A 
ATOM     48  N   UNL A   1      44.467  24.411  28.778  1.00  0.00    -0.354 N 
ATOM     49  N   UNL A   1      46.302  27.824  29.995  1.00  0.00    -0.248 NA
ATOM     50  C   UNL A   1      46.401  27.540  27.679  1.00  0.00     0.031 C 
ATOM     51  C   UNL A   1      44.113  23.477  30.728  1.00  0.00     0.029 A 
ATOM     52  C   UNL A   1      44.841  24.481  30.093  1.00  0.00     0.049 A 
ATOM     53  H   UNL A   1      44.915  24.897  28.049  1.00  0.00     0.167 HD
ATOM     54  C   UNL A   1      46.240  26.475  29.720  1.00  0.00     0.074 A 
ATOM     55  C   UNL A   1      46.519  26.362  28.296  1.00  0.00     0.031 C 
ATOM     56  C   UNL A   1      45.617  25.607  30.570  1.00  0.00     0.037 A 
BRANCH  43  57
ATOM     57  C   UNL A   1      43.340  23.188  26.091  1.00  0.00     0.057 A 
ATOM     58  C   UNL A   1      43.446  21.792  25.917  1.00  0.00     0.134 A 
ATOM     59  C   UNL A   1      44.151  23.959  25.235  1.00  0.00     0.134 A 
ATOM     60  F   UNL A   1      42.743  20.946  26.686  1.00  0.00    -0.206 F 
ATOM     61  C   UNL A   1      44.340  21.212  25.006  1.00  0.00     0.040 A 
ATOM     62  C   UNL A   1      45.016  23.390  24.294  1.00  0.00     0.040 A 
ATOM     63  F   UNL A   1      44.225  25.292  25.345  1.00  0.00    -0.206 F 
ATOM     64  C   UNL A   1      45.135  22.013  24.196  1.00  0.00     0.006 A 
ENDBRANCH  43  57
BRANCH  44  65
ATOM     65  C   UNL A   1      46.082  30.892  28.046  1.00  0.00     0.057 A 
ATOM     66  C   UNL A   1      45.478  31.577  26.991  1.00  0.00     0.134 A 
ATOM     67  C   UNL A   1      47.207  31.510  28.631  1.00  0.00     0.134 A 
ATOM     68  F   UNL A   1      44.374  31.089  26.408  1.00  0.00    -0.206 F 
ATOM     69  C   UNL A   1      45.967  32.806  26.535  1.00  0.00     0.040 A 
ATOM     70  C   UNL A   1      47.716  32.727  28.175  1.00  0.00     0.040 A 
ATOM     71  F   UNL A   1      47.809  30.986  29.710  1.00  0.00    -0.206 F 
ATOM     72  C   UNL A   1      47.088  33.385  27.129  1.00  0.00     0.006 A 
ENDBRANCH  44  65
BRANCH  56  73
ATOM     73  C   UNL A   1      45.530  25.962  32.025  1.00  0.00     0.057 A 
ATOM     74  C   UNL A   1      46.559  25.768  32.957  1.00  0.00     0.134 A 
ATOM     75  C   UNL A   1      44.381  26.621  32.485  1.00  0.00     0.134 A 
ATOM     76  F   UNL A   1      47.731  25.229  32.598  1.00  0.00    -0.206 F 
ATOM     77  C   UNL A   1      46.434  26.179  34.287  1.00  0.00     0.040 A 
ATOM     78  C   UNL A   1      44.260  27.072  33.801  1.00  0.00     0.040 A 
ATOM     79  F   UNL A   1      43.363  26.877  31.646  1.00  0.00    -0.206 F 
ATOM     80  C   UNL A   1      45.285  26.840  34.711  1.00  0.00     0.006 A 
ENDBRANCH  56  73
ENDBRANCH  30  31
ENDBRANCH  23  25
ENDBRANCH  22  23
ENDBRANCH  21  22
ENDBRANCH   1  21
TORSDOF 15
ENDMDL
