MODEL 1
REMARK VINA RESULT:     -11.2      0.000      0.000
REMARK SMILES CC[C@@](C)(NC(=O)/C=C/c1cccc(F)c1)C(=O)OCCOC(=O)c1ccc(-c2c3nc(c(-c4c(F)cccc4F)c4ccc([nH]4)c(-c4c(F)cccc4F)c4nc(c(-c5c(F)cccc5F)c5ccc2[nH]5)C=C4)C=C3)cc1
REMARK SMILES IDX 20 1 19 2 17 3 18 4 3 5 4 6 2 7 1 8 5 9 6 10 7 12 8 13 9 14
REMARK SMILES IDX 10 15 11 16 16 17 12 18 14 19 13 20 15 21 21 22 22 23 23 24
REMARK SMILES IDX 24 25 25 26 26 27 78 28 27 29 77 30 28 31 29 32 30 33 71 34
REMARK SMILES IDX 31 35 76 36 70 37 72 38 32 39 75 40 69 41 68 42 33 44 59 45
REMARK SMILES IDX 42 46 58 47 43 48 46 49 57 50 73 51 44 52 45 53 56 55 74 56
REMARK SMILES IDX 47 57 34 58 35 59 40 60 36 61 37 62 39 63 41 64 38 65 60 66
REMARK SMILES IDX 61 67 66 68 62 69 63 70 65 71 67 72 64 73 48 74 49 75 54 76
REMARK SMILES IDX 50 77 51 78 53 79 55 80 52 81
REMARK H PARENT 5 11 72 43 46 54
REMARK Flexibility Score: inf
ROOT
ATOM      1  C   UNL A   1      34.380  22.312  25.815  1.00  0.00     0.274 C 
ENDROOT
BRANCH   1   2
ATOM      2  O   UNL A   1      34.423  23.463  24.871  1.00  0.00    -0.460 OA
BRANCH   2   3
ATOM      3  C   UNL A   1      34.357  23.350  23.469  1.00  0.00     0.331 C 
ATOM      4  O   UNL A   1      35.343  23.314  22.746  1.00  0.00    -0.249 OA
BRANCH   3   5
ATOM      5  C   UNL A   1      32.810  23.306  22.917  1.00  0.00     0.135 C 
ATOM      6  C   UNL A   1      32.456  21.828  22.707  1.00  0.00     0.047 C 
BRANCH   5   7
ATOM      7  C   UNL A   1      31.545  23.976  23.563  1.00  0.00     0.037 C 
ATOM      8  C   UNL A   1      31.029  23.564  24.915  1.00  0.00     0.007 C 
ENDBRANCH   5   7
BRANCH   5   9
ATOM      9  N   UNL A   1      32.876  24.017  21.658  1.00  0.00    -0.337 N 
ATOM     10  C   UNL A   1      32.903  25.392  21.600  1.00  0.00     0.244 C 
ATOM     11  H   UNL A   1      32.902  23.502  20.819  1.00  0.00     0.164 HD
ATOM     12  O   UNL A   1      33.078  25.879  20.518  1.00  0.00    -0.270 OA
BRANCH  10  13
ATOM     13  C   UNL A   1      33.151  26.138  22.933  1.00  0.00     0.072 C 
ATOM     14  C   UNL A   1      33.483  27.284  23.566  1.00  0.00     0.014 C 
BRANCH  14  15
ATOM     15  C   UNL A   1      33.091  27.510  25.008  1.00  0.00    -0.023 A 
ATOM     16  C   UNL A   1      31.821  27.226  25.527  1.00  0.00     0.008 A 
ATOM     17  C   UNL A   1      33.980  28.151  25.884  1.00  0.00     0.047 A 
ATOM     18  C   UNL A   1      31.405  27.649  26.803  1.00  0.00     0.004 A 
ATOM     19  C   UNL A   1      33.573  28.565  27.162  1.00  0.00     0.123 A 
ATOM     20  C   UNL A   1      32.285  28.338  27.622  1.00  0.00     0.039 A 
ATOM     21  F   UNL A   1      34.433  29.229  27.947  1.00  0.00    -0.207 F 
ENDBRANCH  14  15
ENDBRANCH  10  13
ENDBRANCH   5   9
ENDBRANCH   3   5
ENDBRANCH   2   3
ENDBRANCH   1   2
BRANCH   1  22
ATOM     22  C   UNL A   1      35.227  20.994  25.345  1.00  0.00     0.275 C 
BRANCH  22  23
ATOM     23  O   UNL A   1      36.589  21.220  24.743  1.00  0.00    -0.458 OA
BRANCH  23  24
ATOM     24  C   UNL A   1      37.740  20.733  25.344  1.00  0.00     0.338 C 
ATOM     25  O   UNL A   1      38.058  19.555  25.347  1.00  0.00    -0.246 OA
BRANCH  24  26
ATOM     26  C   UNL A   1      38.708  21.834  25.825  1.00  0.00     0.060 A 
ATOM     27  C   UNL A   1      38.362  23.172  25.602  1.00  0.00     0.016 A 
ATOM     28  C   UNL A   1      39.939  21.643  26.458  1.00  0.00     0.016 A 
ATOM     29  C   UNL A   1      39.024  24.267  26.197  1.00  0.00     0.010 A 
ATOM     30  C   UNL A   1      40.698  22.758  26.958  1.00  0.00     0.010 A 
ATOM     31  C   UNL A   1      40.229  24.087  26.872  1.00  0.00    -0.014 A 
BRANCH  31  32
ATOM     32  C   UNL A   1      41.054  25.311  27.196  1.00  0.00     0.031 A 
ATOM     33  C   UNL A   1      40.441  26.367  28.095  1.00  0.00     0.074 A 
ATOM     34  C   UNL A   1      42.360  25.477  26.876  1.00  0.00     0.049 A 
ATOM     35  N   UNL A   1      40.919  27.529  28.475  1.00  0.00    -0.248 NA
ATOM     36  C   UNL A   1      39.125  26.047  28.670  1.00  0.00     0.031 C 
ATOM     37  C   UNL A   1      43.207  24.510  26.187  1.00  0.00     0.029 A 
ATOM     38  N   UNL A   1      43.216  26.540  27.124  1.00  0.00    -0.354 N 
ATOM     39  C   UNL A   1      39.961  28.076  29.321  1.00  0.00     0.074 A 
ATOM     40  C   UNL A   1      38.883  27.115  29.414  1.00  0.00     0.031 C 
ATOM     41  C   UNL A   1      44.448  25.023  26.058  1.00  0.00     0.029 A 
ATOM     42  C   UNL A   1      44.486  26.381  26.611  1.00  0.00     0.049 A 
ATOM     43  H   UNL A   1      42.939  27.342  27.625  1.00  0.00     0.167 HD
ATOM     44  C   UNL A   1      39.955  29.270  29.959  1.00  0.00     0.037 A 
ATOM     45  C   UNL A   1      45.542  27.228  26.557  1.00  0.00     0.037 A 
ATOM     46  C   UNL A   1      40.998  30.257  29.905  1.00  0.00     0.049 A 
ATOM     47  C   UNL A   1      45.449  28.631  27.122  1.00  0.00     0.074 A 
ATOM     48  C   UNL A   1      41.017  31.514  30.491  1.00  0.00     0.029 A 
ATOM     49  N   UNL A   1      42.198  30.107  29.242  1.00  0.00    -0.354 N 
ATOM     50  N   UNL A   1      44.495  29.176  27.835  1.00  0.00    -0.248 NA
ATOM     51  C   UNL A   1      46.574  29.549  26.850  1.00  0.00     0.031 C 
ATOM     52  C   UNL A   1      42.215  32.142  30.143  1.00  0.00     0.029 A 
ATOM     53  C   UNL A   1      42.956  31.260  29.378  1.00  0.00     0.049 A 
ATOM     54  H   UNL A   1      42.477  29.303  28.747  1.00  0.00     0.167 HD
ATOM     55  C   UNL A   1      44.909  30.479  28.105  1.00  0.00     0.074 A 
ATOM     56  C   UNL A   1      46.208  30.648  27.498  1.00  0.00     0.031 C 
ATOM     57  C   UNL A   1      44.256  31.446  28.792  1.00  0.00     0.037 A 
BRANCH  44  58
ATOM     58  C   UNL A   1      38.730  29.620  30.745  1.00  0.00     0.057 A 
ATOM     59  C   UNL A   1      37.693  30.342  30.142  1.00  0.00     0.134 A 
ATOM     60  C   UNL A   1      38.613  29.315  32.105  1.00  0.00     0.134 A 
ATOM     61  F   UNL A   1      37.757  30.667  28.841  1.00  0.00    -0.206 F 
ATOM     62  C   UNL A   1      36.585  30.766  30.871  1.00  0.00     0.040 A 
ATOM     63  C   UNL A   1      37.497  29.718  32.840  1.00  0.00     0.040 A 
ATOM     64  F   UNL A   1      39.569  28.613  32.730  1.00  0.00    -0.206 F 
ATOM     65  C   UNL A   1      36.486  30.455  32.225  1.00  0.00     0.006 A 
ENDBRANCH  44  58
BRANCH  45  66
ATOM     66  C   UNL A   1      46.800  26.834  25.855  1.00  0.00     0.057 A 
ATOM     67  C   UNL A   1      47.022  27.189  24.519  1.00  0.00     0.134 A 
ATOM     68  C   UNL A   1      47.852  26.200  26.531  1.00  0.00     0.134 A 
ATOM     69  F   UNL A   1      46.072  27.830  23.823  1.00  0.00    -0.206 F 
ATOM     70  C   UNL A   1      48.232  26.916  23.876  1.00  0.00     0.040 A 
ATOM     71  C   UNL A   1      49.077  25.943  25.907  1.00  0.00     0.040 A 
ATOM     72  F   UNL A   1      47.729  25.882  27.828  1.00  0.00    -0.206 F 
ATOM     73  C   UNL A   1      49.267  26.298  24.573  1.00  0.00     0.006 A 
ENDBRANCH  45  66
BRANCH  57  74
ATOM     74  C   UNL A   1      44.910  32.789  28.955  1.00  0.00     0.057 A 
ATOM     75  C   UNL A   1      45.735  33.058  30.056  1.00  0.00     0.134 A 
ATOM     76  C   UNL A   1      44.632  33.851  28.085  1.00  0.00     0.134 A 
ATOM     77  F   UNL A   1      46.031  32.091  30.937  1.00  0.00    -0.206 F 
ATOM     78  C   UNL A   1      46.244  34.337  30.295  1.00  0.00     0.040 A 
ATOM     79  C   UNL A   1      45.152  35.130  28.303  1.00  0.00     0.040 A 
ATOM     80  F   UNL A   1      43.853  33.662  27.010  1.00  0.00    -0.206 F 
ATOM     81  C   UNL A   1      45.951  35.378  29.417  1.00  0.00     0.006 A 
ENDBRANCH  57  74
ENDBRANCH  31  32
ENDBRANCH  24  26
ENDBRANCH  23  24
ENDBRANCH  22  23
ENDBRANCH   1  22
TORSDOF 15
ENDMDL
MODEL 2
REMARK VINA RESULT:     -11.2      4.009      8.777
REMARK SMILES CC[C@@](C)(NC(=O)/C=C/c1cccc(F)c1)C(=O)OCCOC(=O)c1ccc(-c2c3nc(c(-c4c(F)cccc4F)c4ccc([nH]4)c(-c4c(F)cccc4F)c4nc(c(-c5c(F)cccc5F)c5ccc2[nH]5)C=C4)C=C3)cc1
REMARK SMILES IDX 20 1 19 2 17 3 18 4 3 5 4 6 2 7 1 8 5 9 6 10 7 12 8 13 9 14
REMARK SMILES IDX 10 15 11 16 16 17 12 18 14 19 13 20 15 21 21 22 22 23 23 24
REMARK SMILES IDX 24 25 25 26 26 27 78 28 27 29 77 30 28 31 29 32 30 33 71 34
REMARK SMILES IDX 31 35 76 36 70 37 72 38 32 39 75 40 69 41 68 42 33 44 59 45
REMARK SMILES IDX 42 46 58 47 43 48 46 49 57 50 73 51 44 52 45 53 56 55 74 56
REMARK SMILES IDX 47 57 34 58 35 59 40 60 36 61 37 62 39 63 41 64 38 65 60 66
REMARK SMILES IDX 61 67 66 68 62 69 63 70 65 71 67 72 64 73 48 74 49 75 54 76
REMARK SMILES IDX 50 77 51 78 53 79 55 80 52 81
REMARK H PARENT 5 11 72 43 46 54
REMARK Flexibility Score: inf
ROOT
ATOM      1  C   UNL A   1      33.334  28.120  25.366  1.00  0.00     0.274 C 
ENDROOT
BRANCH   1   2
ATOM      2  O   UNL A   1      32.545  26.869  25.195  1.00  0.00    -0.460 OA
BRANCH   2   3
ATOM      3  C   UNL A   1      31.346  26.580  25.873  1.00  0.00     0.331 C 
ATOM      4  O   UNL A   1      31.054  27.052  26.963  1.00  0.00    -0.249 OA
BRANCH   3   5
ATOM      5  C   UNL A   1      30.402  25.514  25.052  1.00  0.00     0.135 C 
ATOM      6  C   UNL A   1      29.314  26.335  24.349  1.00  0.00     0.047 C 
BRANCH   5   7
ATOM      7  C   UNL A   1      30.867  24.422  24.023  1.00  0.00     0.037 C 
ATOM      8  C   UNL A   1      31.511  24.788  22.712  1.00  0.00     0.007 C 
ENDBRANCH   5   7
BRANCH   5   9
ATOM      9  N   UNL A   1      29.844  24.678  26.094  1.00  0.00    -0.337 N 
ATOM     10  C   UNL A   1      30.576  23.679  26.694  1.00  0.00     0.244 C 
ATOM     11  H   UNL A   1      28.915  24.829  26.380  1.00  0.00     0.164 HD
ATOM     12  O   UNL A   1      30.062  23.124  27.626  1.00  0.00    -0.270 OA
BRANCH  10  13
ATOM     13  C   UNL A   1      32.099  23.673  26.419  1.00  0.00     0.072 C 
ATOM     14  C   UNL A   1      33.306  23.110  26.642  1.00  0.00     0.014 C 
BRANCH  14  15
ATOM     15  C   UNL A   1      34.439  23.300  25.660  1.00  0.00    -0.023 A 
ATOM     16  C   UNL A   1      34.354  22.982  24.298  1.00  0.00     0.008 A 
ATOM     17  C   UNL A   1      35.704  23.700  26.116  1.00  0.00     0.047 A 
ATOM     18  C   UNL A   1      35.476  22.950  23.449  1.00  0.00     0.004 A 
ATOM     19  C   UNL A   1      36.824  23.681  25.270  1.00  0.00     0.123 A 
ATOM     20  C   UNL A   1      36.725  23.289  23.944  1.00  0.00     0.039 A 
ATOM     21  F   UNL A   1      38.027  24.011  25.759  1.00  0.00    -0.207 F 
ENDBRANCH  14  15
ENDBRANCH  10  13
ENDBRANCH   5   9
ENDBRANCH   3   5
ENDBRANCH   2   3
ENDBRANCH   1   2
BRANCH   1  22
ATOM     22  C   UNL A   1      32.499  29.507  25.131  1.00  0.00     0.275 C 
BRANCH  22  23
ATOM     23  O   UNL A   1      31.903  30.173  26.343  1.00  0.00    -0.458 OA
BRANCH  23  24
ATOM     24  C   UNL A   1      32.385  31.383  26.819  1.00  0.00     0.338 C 
ATOM     25  O   UNL A   1      31.763  32.431  26.767  1.00  0.00    -0.246 OA
BRANCH  24  26
ATOM     26  C   UNL A   1      33.695  31.259  27.626  1.00  0.00     0.060 A 
ATOM     27  C   UNL A   1      34.090  29.991  28.069  1.00  0.00     0.016 A 
ATOM     28  C   UNL A   1      34.549  32.303  27.994  1.00  0.00     0.016 A 
ATOM     29  C   UNL A   1      35.367  29.703  28.596  1.00  0.00     0.010 A 
ATOM     30  C   UNL A   1      35.800  32.041  28.653  1.00  0.00     0.010 A 
ATOM     31  C   UNL A   1      36.248  30.731  28.926  1.00  0.00    -0.014 A 
BRANCH  31  32
ATOM     32  C   UNL A   1      37.447  30.393  29.781  1.00  0.00     0.031 A 
ATOM     33  C   UNL A   1      38.547  29.547  29.167  1.00  0.00     0.074 A 
ATOM     34  C   UNL A   1      37.700  30.912  31.007  1.00  0.00     0.049 A 
ATOM     35  N   UNL A   1      39.646  29.077  29.707  1.00  0.00    -0.248 NA
ATOM     36  C   UNL A   1      38.397  29.223  27.740  1.00  0.00     0.031 C 
ATOM     37  C   UNL A   1      36.883  31.895  31.711  1.00  0.00     0.029 A 
ATOM     38  N   UNL A   1      38.759  30.688  31.874  1.00  0.00    -0.354 N 
ATOM     39  C   UNL A   1      40.308  28.397  28.692  1.00  0.00     0.074 A 
ATOM     40  C   UNL A   1      39.499  28.530  27.499  1.00  0.00     0.031 C 
ATOM     41  C   UNL A   1      37.460  32.180  32.897  1.00  0.00     0.029 A 
ATOM     42  C   UNL A   1      38.669  31.366  33.071  1.00  0.00     0.049 A 
ATOM     43  H   UNL A   1      39.513  30.095  31.653  1.00  0.00     0.167 HD
ATOM     44  C   UNL A   1      41.474  27.710  28.731  1.00  0.00     0.037 A 
ATOM     45  C   UNL A   1      39.435  31.320  34.187  1.00  0.00     0.037 A 
ATOM     46  C   UNL A   1      42.317  27.550  29.883  1.00  0.00     0.049 A 
ATOM     47  C   UNL A   1      40.638  30.401  34.271  1.00  0.00     0.074 A 
ATOM     48  C   UNL A   1      43.486  26.813  29.992  1.00  0.00     0.029 A 
ATOM     49  N   UNL A   1      42.095  28.132  31.115  1.00  0.00    -0.354 N 
ATOM     50  N   UNL A   1      41.199  29.681  33.331  1.00  0.00    -0.248 NA
ATOM     51  C   UNL A   1      41.302  30.269  35.584  1.00  0.00     0.031 C 
ATOM     52  C   UNL A   1      43.949  26.914  31.306  1.00  0.00     0.029 A 
ATOM     53  C   UNL A   1      43.090  27.747  32.000  1.00  0.00     0.049 A 
ATOM     54  H   UNL A   1      41.345  28.731  31.333  1.00  0.00     0.167 HD
ATOM     55  C   UNL A   1      42.276  29.032  33.932  1.00  0.00     0.074 A 
ATOM     56  C   UNL A   1      42.309  29.450  35.313  1.00  0.00     0.031 C 
ATOM     57  C   UNL A   1      43.150  28.160  33.376  1.00  0.00     0.037 A 
BRANCH  44  58
ATOM     58  C   UNL A   1      41.895  27.005  27.479  1.00  0.00     0.057 A 
ATOM     59  C   UNL A   1      41.577  25.653  27.295  1.00  0.00     0.134 A 
ATOM     60  C   UNL A   1      42.675  27.633  26.504  1.00  0.00     0.134 A 
ATOM     61  F   UNL A   1      40.836  24.999  28.203  1.00  0.00    -0.206 F 
ATOM     62  C   UNL A   1      42.037  24.944  26.188  1.00  0.00     0.040 A 
ATOM     63  C   UNL A   1      43.125  26.938  25.381  1.00  0.00     0.040 A 
ATOM     64  F   UNL A   1      42.998  28.930  26.622  1.00  0.00    -0.206 F 
ATOM     65  C   UNL A   1      42.814  25.587  25.228  1.00  0.00     0.006 A 
ENDBRANCH  44  58
BRANCH  45  66
ATOM     66  C   UNL A   1      39.063  32.105  35.402  1.00  0.00     0.057 A 
ATOM     67  C   UNL A   1      39.439  33.447  35.536  1.00  0.00     0.134 A 
ATOM     68  C   UNL A   1      38.230  31.572  36.395  1.00  0.00     0.134 A 
ATOM     69  F   UNL A   1      40.205  34.032  34.604  1.00  0.00    -0.206 F 
ATOM     70  C   UNL A   1      39.018  34.225  36.618  1.00  0.00     0.040 A 
ATOM     71  C   UNL A   1      37.781  32.346  37.470  1.00  0.00     0.040 A 
ATOM     72  F   UNL A   1      37.786  30.310  36.301  1.00  0.00    -0.206 F 
ATOM     73  C   UNL A   1      38.179  33.676  37.585  1.00  0.00     0.006 A 
ENDBRANCH  45  66
BRANCH  57  74
ATOM     74  C   UNL A   1      44.243  27.582  34.232  1.00  0.00     0.057 A 
ATOM     75  C   UNL A   1      45.473  28.241  34.369  1.00  0.00     0.134 A 
ATOM     76  C   UNL A   1      44.119  26.320  34.827  1.00  0.00     0.134 A 
ATOM     77  F   UNL A   1      45.665  29.446  33.814  1.00  0.00    -0.206 F 
ATOM     78  C   UNL A   1      46.544  27.657  35.050  1.00  0.00     0.040 A 
ATOM     79  C   UNL A   1      45.178  25.735  35.527  1.00  0.00     0.040 A 
ATOM     80  F   UNL A   1      42.969  25.637  34.737  1.00  0.00    -0.206 F 
ATOM     81  C   UNL A   1      46.398  26.399  35.631  1.00  0.00     0.006 A 
ENDBRANCH  57  74
ENDBRANCH  31  32
ENDBRANCH  24  26
ENDBRANCH  23  24
ENDBRANCH  22  23
ENDBRANCH   1  22
TORSDOF 15
ENDMDL
MODEL 3
REMARK VINA RESULT:     -11.0      4.764     10.162
REMARK SMILES CC[C@@](C)(NC(=O)/C=C/c1cccc(F)c1)C(=O)OCCOC(=O)c1ccc(-c2c3nc(c(-c4c(F)cccc4F)c4ccc([nH]4)c(-c4c(F)cccc4F)c4nc(c(-c5c(F)cccc5F)c5ccc2[nH]5)C=C4)C=C3)cc1
REMARK SMILES IDX 20 1 19 2 17 3 18 4 3 5 4 6 2 7 1 8 5 9 6 10 7 12 8 13 9 14
REMARK SMILES IDX 10 15 11 16 16 17 12 18 14 19 13 20 15 21 21 22 22 23 23 24
REMARK SMILES IDX 24 25 25 26 26 27 78 28 27 29 77 30 28 31 29 32 30 33 71 34
REMARK SMILES IDX 31 35 76 36 70 37 72 38 32 39 75 40 69 41 68 42 33 44 59 45
REMARK SMILES IDX 42 46 58 47 43 48 46 49 57 50 73 51 44 52 45 53 56 55 74 56
REMARK SMILES IDX 47 57 34 58 35 59 40 60 36 61 37 62 39 63 41 64 38 65 60 66
REMARK SMILES IDX 61 67 66 68 62 69 63 70 65 71 67 72 64 73 48 74 49 75 54 76
REMARK SMILES IDX 50 77 51 78 53 79 55 80 52 81
REMARK H PARENT 5 11 72 43 46 54
REMARK Flexibility Score: inf
ROOT
ATOM      1  C   UNL A   1      46.403  22.579  24.425  1.00  0.00     0.274 C 
ENDROOT
BRANCH   1   2
ATOM      2  O   UNL A   1      46.547  23.587  25.512  1.00  0.00    -0.460 OA
BRANCH   2   3
ATOM      3  C   UNL A   1      46.832  24.950  25.306  1.00  0.00     0.331 C 
ATOM      4  O   UNL A   1      47.228  25.406  24.243  1.00  0.00    -0.249 OA
BRANCH   3   5
ATOM      5  C   UNL A   1      46.604  25.849  26.663  1.00  0.00     0.135 C 
ATOM      6  C   UNL A   1      46.150  27.240  26.202  1.00  0.00     0.047 C 
BRANCH   5   7
ATOM      7  C   UNL A   1      45.722  25.487  27.912  1.00  0.00     0.037 C 
ATOM      8  C   UNL A   1      45.534  24.065  28.368  1.00  0.00     0.007 C 
ENDBRANCH   5   7
BRANCH   5   9
ATOM      9  N   UNL A   1      47.918  25.895  27.267  1.00  0.00    -0.337 N 
ATOM     10  C   UNL A   1      48.265  26.868  28.177  1.00  0.00     0.244 C 
ATOM     11  H   UNL A   1      48.582  25.212  27.021  1.00  0.00     0.164 HD
ATOM     12  O   UNL A   1      49.335  26.749  28.707  1.00  0.00    -0.270 OA
BRANCH  10  13
ATOM     13  C   UNL A   1      47.114  27.733  28.743  1.00  0.00     0.072 C 
ATOM     14  C   UNL A   1      46.669  28.570  29.705  1.00  0.00     0.014 C 
BRANCH  14  15
ATOM     15  C   UNL A   1      45.505  29.498  29.442  1.00  0.00    -0.023 A 
ATOM     16  C   UNL A   1      45.012  30.418  30.377  1.00  0.00     0.008 A 
ATOM     17  C   UNL A   1      44.770  29.382  28.252  1.00  0.00     0.047 A 
ATOM     18  C   UNL A   1      43.798  31.108  30.203  1.00  0.00     0.004 A 
ATOM     19  C   UNL A   1      43.564  30.077  28.070  1.00  0.00     0.123 A 
ATOM     20  C   UNL A   1      43.060  30.924  29.044  1.00  0.00     0.039 A 
ATOM     21  F   UNL A   1      42.859  29.893  26.945  1.00  0.00    -0.207 F 
ENDBRANCH  14  15
ENDBRANCH  10  13
ENDBRANCH   5   9
ENDBRANCH   3   5
ENDBRANCH   2   3
ENDBRANCH   1   2
BRANCH   1  22
ATOM     22  C   UNL A   1      44.878  22.362  23.875  1.00  0.00     0.275 C 
BRANCH  22  23
ATOM     23  O   UNL A   1      43.846  23.389  24.262  1.00  0.00    -0.458 OA
BRANCH  23  24
ATOM     24  C   UNL A   1      42.845  23.105  25.179  1.00  0.00     0.338 C 
ATOM     25  O   UNL A   1      42.390  21.988  25.364  1.00  0.00    -0.246 OA
BRANCH  24  26
ATOM     26  C   UNL A   1      42.499  24.285  26.111  1.00  0.00     0.060 A 
ATOM     27  C   UNL A   1      41.862  24.012  27.327  1.00  0.00     0.016 A 
ATOM     28  C   UNL A   1      42.737  25.640  25.863  1.00  0.00     0.016 A 
ATOM     29  C   UNL A   1      41.712  24.955  28.367  1.00  0.00     0.010 A 
ATOM     30  C   UNL A   1      42.468  26.636  26.864  1.00  0.00     0.010 A 
ATOM     31  C   UNL A   1      41.990  26.302  28.150  1.00  0.00    -0.014 A 
BRANCH  31  32
ATOM     32  C   UNL A   1      41.503  27.303  29.173  1.00  0.00     0.031 A 
ATOM     33  C   UNL A   1      42.289  27.444  30.462  1.00  0.00     0.074 A 
ATOM     34  C   UNL A   1      40.510  28.201  28.971  1.00  0.00     0.049 A 
ATOM     35  N   UNL A   1      42.048  28.188  31.516  1.00  0.00    -0.248 NA
ATOM     36  C   UNL A   1      43.534  26.665  30.554  1.00  0.00     0.031 C 
ATOM     37  C   UNL A   1      39.748  28.381  27.740  1.00  0.00     0.029 A 
ATOM     38  N   UNL A   1      39.987  29.165  29.821  1.00  0.00    -0.354 N 
ATOM     39  C   UNL A   1      43.101  27.958  32.393  1.00  0.00     0.074 A 
ATOM     40  C   UNL A   1      43.993  27.020  31.744  1.00  0.00     0.031 C 
ATOM     41  C   UNL A   1      38.855  29.377  27.915  1.00  0.00     0.029 A 
ATOM     42  C   UNL A   1      38.939  29.886  29.289  1.00  0.00     0.049 A 
ATOM     43  H   UNL A   1      40.335  29.322  30.728  1.00  0.00     0.167 HD
ATOM     44  C   UNL A   1      43.318  28.459  33.632  1.00  0.00     0.037 A 
ATOM     45  C   UNL A   1      38.120  30.814  29.839  1.00  0.00     0.037 A 
ATOM     46  C   UNL A   1      42.471  29.393  34.321  1.00  0.00     0.049 A 
ATOM     47  C   UNL A   1      38.270  31.228  31.289  1.00  0.00     0.074 A 
ATOM     48  C   UNL A   1      42.616  29.893  35.606  1.00  0.00     0.029 A 
ATOM     49  N   UNL A   1      41.335  29.973  33.792  1.00  0.00    -0.354 N 
ATOM     50  N   UNL A   1      39.215  30.924  32.145  1.00  0.00    -0.248 NA
ATOM     51  C   UNL A   1      37.221  32.096  31.861  1.00  0.00     0.031 C 
ATOM     52  C   UNL A   1      41.540  30.743  35.871  1.00  0.00     0.029 A 
ATOM     53  C   UNL A   1      40.751  30.803  34.736  1.00  0.00     0.049 A 
ATOM     54  H   UNL A   1      40.991  29.820  32.883  1.00  0.00     0.167 HD
ATOM     55  C   UNL A   1      38.883  31.571  33.334  1.00  0.00     0.074 A 
ATOM     56  C   UNL A   1      37.660  32.299  33.096  1.00  0.00     0.031 C 
ATOM     57  C   UNL A   1      39.540  31.547  34.517  1.00  0.00     0.037 A 
BRANCH  44  58
ATOM     58  C   UNL A   1      44.515  27.954  34.375  1.00  0.00     0.057 A 
ATOM     59  C   UNL A   1      45.753  28.591  34.226  1.00  0.00     0.134 A 
ATOM     60  C   UNL A   1      44.461  26.802  35.167  1.00  0.00     0.134 A 
ATOM     61  F   UNL A   1      45.863  29.697  33.473  1.00  0.00    -0.206 F 
ATOM     62  C   UNL A   1      46.905  28.089  34.828  1.00  0.00     0.040 A 
ATOM     63  C   UNL A   1      45.605  26.302  35.790  1.00  0.00     0.040 A 
ATOM     64  F   UNL A   1      43.299  26.160  35.356  1.00  0.00    -0.206 F 
ATOM     65  C   UNL A   1      46.832  26.940  35.611  1.00  0.00     0.006 A 
ENDBRANCH  44  58
BRANCH  45  66
ATOM     66  C   UNL A   1      36.984  31.389  29.058  1.00  0.00     0.057 A 
ATOM     67  C   UNL A   1      35.820  30.646  28.824  1.00  0.00     0.134 A 
ATOM     68  C   UNL A   1      36.987  32.723  28.629  1.00  0.00     0.134 A 
ATOM     69  F   UNL A   1      35.735  29.374  29.240  1.00  0.00    -0.206 F 
ATOM     70  C   UNL A   1      34.710  31.199  28.181  1.00  0.00     0.040 A 
ATOM     71  C   UNL A   1      35.874  33.297  28.007  1.00  0.00     0.040 A 
ATOM     72  F   UNL A   1      38.047  33.509  28.870  1.00  0.00    -0.206 F 
ATOM     73  C   UNL A   1      34.732  32.532  27.778  1.00  0.00     0.006 A 
ENDBRANCH  45  66
BRANCH  57  74
ATOM     74  C   UNL A   1      38.984  32.332  35.673  1.00  0.00     0.057 A 
ATOM     75  C   UNL A   1      39.353  33.670  35.877  1.00  0.00     0.134 A 
ATOM     76  C   UNL A   1      38.176  31.732  36.646  1.00  0.00     0.134 A 
ATOM     77  F   UNL A   1      40.137  34.302  34.991  1.00  0.00    -0.206 F 
ATOM     78  C   UNL A   1      38.953  34.374  37.015  1.00  0.00     0.040 A 
ATOM     79  C   UNL A   1      37.753  32.433  37.779  1.00  0.00     0.040 A 
ATOM     80  F   UNL A   1      37.784  30.457  36.511  1.00  0.00    -0.206 F 
ATOM     81  C   UNL A   1      38.151  33.754  37.971  1.00  0.00     0.006 A 
ENDBRANCH  57  74
ENDBRANCH  31  32
ENDBRANCH  24  26
ENDBRANCH  23  24
ENDBRANCH  22  23
ENDBRANCH   1  22
TORSDOF 15
ENDMDL
