MODEL 1
REMARK VINA RESULT:     -11.7      0.000      0.000
REMARK SMILES COc1cccc(NC(=O)NC2(C(=O)OCCOC(=O)c3ccc(-c4c5nc(c(-c6c(F)cccc6F)c6ccc([nH]6)c(-c6c(F)cccc6F)c6nc(c(-c7c(F)cccc7F)c7ccc4[nH]7)C=C6)C=C5)cc3)CCCCC2)c1
REMARK SMILES IDX 16 1 15 2 13 3 14 4 12 5 75 6 79 7 76 8 78 9 77 10 11 11
REMARK SMILES IDX 8 12 9 13 10 15 7 17 3 18 4 19 80 20 5 21 6 22 2 23 1 24
REMARK SMILES IDX 17 25 18 26 19 27 20 28 21 29 22 30 74 31 23 32 73 33 24 34
REMARK SMILES IDX 25 35 26 36 67 37 27 38 72 39 66 40 68 41 28 42 71 43 65 44
REMARK SMILES IDX 64 45 29 47 55 48 38 49 54 50 39 51 42 52 53 53 69 54 40 55
REMARK SMILES IDX 41 56 52 58 70 59 43 60 30 61 31 62 36 63 32 64 33 65 35 66
REMARK SMILES IDX 37 67 34 68 56 69 57 70 62 71 58 72 59 73 61 74 63 75 60 76
REMARK SMILES IDX 44 77 45 78 50 79 46 80 47 81 49 82 51 83 48 84
REMARK H PARENT 8 14 11 16 68 46 42 57
REMARK Flexibility Score: inf
ROOT
ATOM      1  C   UNL A   1      34.983  20.505  24.999  1.00  0.00     0.274 C 
ENDROOT
BRANCH   1   2
ATOM      2  O   UNL A   1      34.015  21.393  25.587  1.00  0.00    -0.460 OA
BRANCH   2   3
ATOM      3  C   UNL A   1      32.912  21.728  24.869  1.00  0.00     0.332 C 
ATOM      4  O   UNL A   1      32.409  21.019  24.002  1.00  0.00    -0.249 OA
BRANCH   3   5
ATOM      5  C   UNL A   1      32.437  23.196  25.156  1.00  0.00     0.139 C 
ATOM      6  C   UNL A   1      32.238  23.792  23.749  1.00  0.00     0.040 C 
ATOM      7  C   UNL A   1      33.484  23.922  26.027  1.00  0.00     0.040 C 
ATOM      8  C   UNL A   1      33.537  24.194  23.062  1.00  0.00     0.003 C 
ATOM      9  C   UNL A   1      34.713  24.456  25.286  1.00  0.00     0.003 C 
ATOM     10  C   UNL A   1      34.381  25.098  23.946  1.00  0.00     0.000 C 
BRANCH   5  11
ATOM     11  N   UNL A   1      31.091  23.021  25.819  1.00  0.00    -0.322 N 
ATOM     12  N   UNL A   1      30.282  25.079  26.711  1.00  0.00    -0.308 N 
ATOM     13  C   UNL A   1      30.301  23.732  26.651  1.00  0.00     0.320 C 
ATOM     14  H   UNL A   1      30.170  25.451  27.615  1.00  0.00     0.171 HD
ATOM     15  O   UNL A   1      29.611  23.098  27.455  1.00  0.00    -0.248 OA
ATOM     16  H   UNL A   1      30.680  22.158  25.581  1.00  0.00     0.166 HD
BRANCH  12  17
ATOM     17  C   UNL A   1      30.395  26.038  25.691  1.00  0.00     0.046 A 
ATOM     18  C   UNL A   1      31.723  27.763  24.630  1.00  0.00     0.120 A 
ATOM     19  C   UNL A   1      30.889  27.696  23.514  1.00  0.00     0.046 A 
ATOM     20  C   UNL A   1      31.468  26.940  25.731  1.00  0.00     0.072 A 
ATOM     21  C   UNL A   1      29.755  26.888  23.526  1.00  0.00     0.006 A 
ATOM     22  C   UNL A   1      29.496  26.085  24.632  1.00  0.00     0.026 A 
BRANCH  18  23
ATOM     23  O   UNL A   1      32.775  28.626  24.498  1.00  0.00    -0.497 OA
ATOM     24  C   UNL A   1      33.825  28.503  25.449  1.00  0.00     0.278 C 
ENDBRANCH  18  23
ENDBRANCH  12  17
ENDBRANCH   5  11
ENDBRANCH   3   5
ENDBRANCH   2   3
ENDBRANCH   1   2
BRANCH   1  25
ATOM     25  C   UNL A   1      36.252  21.261  24.609  1.00  0.00     0.275 C 
BRANCH  25  26
ATOM     26  O   UNL A   1      36.962  21.684  25.783  1.00  0.00    -0.458 OA
BRANCH  26  27
ATOM     27  C   UNL A   1      38.254  21.286  25.850  1.00  0.00     0.338 C 
ATOM     28  O   UNL A   1      38.743  20.259  25.418  1.00  0.00    -0.246 OA
BRANCH  27  29
ATOM     29  C   UNL A   1      39.046  22.410  26.366  1.00  0.00     0.060 A 
ATOM     30  C   UNL A   1      38.610  23.696  26.051  1.00  0.00     0.016 A 
ATOM     31  C   UNL A   1      40.199  22.215  27.125  1.00  0.00     0.016 A 
ATOM     32  C   UNL A   1      39.302  24.807  26.513  1.00  0.00     0.010 A 
ATOM     33  C   UNL A   1      40.908  23.331  27.576  1.00  0.00     0.010 A 
ATOM     34  C   UNL A   1      40.461  24.632  27.273  1.00  0.00    -0.014 A 
BRANCH  34  35
ATOM     35  C   UNL A   1      41.256  25.813  27.669  1.00  0.00     0.031 A 
ATOM     36  C   UNL A   1      40.617  26.864  28.525  1.00  0.00     0.074 A 
ATOM     37  C   UNL A   1      42.540  25.927  27.291  1.00  0.00     0.049 A 
ATOM     38  N   UNL A   1      41.055  28.053  28.842  1.00  0.00    -0.248 NA
ATOM     39  C   UNL A   1      39.302  26.529  29.093  1.00  0.00     0.031 C 
ATOM     40  C   UNL A   1      43.294  24.926  26.536  1.00  0.00     0.029 A 
ATOM     41  N   UNL A   1      43.438  26.945  27.490  1.00  0.00    -0.354 N 
ATOM     42  C   UNL A   1      40.054  28.626  29.613  1.00  0.00     0.074 A 
ATOM     43  C   UNL A   1      38.986  27.654  29.717  1.00  0.00     0.031 C 
ATOM     44  C   UNL A   1      44.540  25.382  26.331  1.00  0.00     0.029 A 
ATOM     45  C   UNL A   1      44.653  26.726  26.888  1.00  0.00     0.049 A 
ATOM     46  H   UNL A   1      43.232  27.753  28.012  1.00  0.00     0.167 HD
ATOM     47  C   UNL A   1      40.031  29.857  30.176  1.00  0.00     0.037 A 
ATOM     48  C   UNL A   1      45.718  27.542  26.768  1.00  0.00     0.037 A 
ATOM     49  C   UNL A   1      41.115  30.799  30.093  1.00  0.00     0.049 A 
ATOM     50  C   UNL A   1      45.648  28.924  27.354  1.00  0.00     0.074 A 
ATOM     51  C   UNL A   1      41.194  32.076  30.617  1.00  0.00     0.029 A 
ATOM     52  N   UNL A   1      42.320  30.554  29.449  1.00  0.00    -0.354 N 
ATOM     53  N   UNL A   1      44.674  29.490  28.025  1.00  0.00    -0.248 NA
ATOM     54  C   UNL A   1      46.819  29.789  27.152  1.00  0.00     0.031 C 
ATOM     55  C   UNL A   1      42.434  32.618  30.264  1.00  0.00     0.029 A 
ATOM     56  C   UNL A   1      43.144  31.661  29.553  1.00  0.00     0.049 A 
ATOM     57  H   UNL A   1      42.554  29.718  28.987  1.00  0.00     0.167 HD
ATOM     58  C   UNL A   1      45.117  30.767  28.338  1.00  0.00     0.074 A 
ATOM     59  C   UNL A   1      46.455  30.889  27.796  1.00  0.00     0.031 C 
ATOM     60  C   UNL A   1      44.474  31.755  29.009  1.00  0.00     0.037 A 
BRANCH  47  61
ATOM     61  C   UNL A   1      38.776  30.263  30.888  1.00  0.00     0.057 A 
ATOM     62  C   UNL A   1      38.578  30.016  32.252  1.00  0.00     0.134 A 
ATOM     63  C   UNL A   1      37.754  30.923  30.194  1.00  0.00     0.134 A 
ATOM     64  F   UNL A   1      39.510  29.369  32.968  1.00  0.00    -0.206 F 
ATOM     65  C   UNL A   1      37.398  30.391  32.896  1.00  0.00     0.040 A 
ATOM     66  C   UNL A   1      36.579  31.323  30.832  1.00  0.00     0.040 A 
ATOM     67  F   UNL A   1      37.880  31.189  28.886  1.00  0.00    -0.206 F 
ATOM     68  C   UNL A   1      36.396  31.053  32.186  1.00  0.00     0.006 A 
ENDBRANCH  47  61
BRANCH  48  69
ATOM     69  C   UNL A   1      46.920  27.087  26.025  1.00  0.00     0.057 A 
ATOM     70  C   UNL A   1      47.057  27.326  24.653  1.00  0.00     0.134 A 
ATOM     71  C   UNL A   1      47.956  26.396  26.667  1.00  0.00     0.134 A 
ATOM     72  F   UNL A   1      46.086  27.958  23.977  1.00  0.00    -0.206 F 
ATOM     73  C   UNL A   1      48.177  26.888  23.944  1.00  0.00     0.040 A 
ATOM     74  C   UNL A   1      49.093  25.974  25.975  1.00  0.00     0.040 A 
ATOM     75  F   UNL A   1      47.884  26.133  27.979  1.00  0.00    -0.206 F 
ATOM     76  C   UNL A   1      49.202  26.216  24.607  1.00  0.00     0.006 A 
ENDBRANCH  48  69
BRANCH  60  77
ATOM     77  C   UNL A   1      45.224  33.035  29.217  1.00  0.00     0.057 A 
ATOM     78  C   UNL A   1      45.117  34.105  28.321  1.00  0.00     0.134 A 
ATOM     79  C   UNL A   1      46.033  33.212  30.347  1.00  0.00     0.134 A 
ATOM     80  F   UNL A   1      44.369  33.992  27.213  1.00  0.00    -0.206 F 
ATOM     81  C   UNL A   1      45.805  35.302  28.531  1.00  0.00     0.040 A 
ATOM     82  C   UNL A   1      46.707  34.410  30.580  1.00  0.00     0.040 A 
ATOM     83  F   UNL A   1      46.170  32.226  31.247  1.00  0.00    -0.206 F 
ATOM     84  C   UNL A   1      46.598  35.458  29.667  1.00  0.00     0.006 A 
ENDBRANCH  60  77
ENDBRANCH  34  35
ENDBRANCH  27  29
ENDBRANCH  26  27
ENDBRANCH  25  26
ENDBRANCH   1  25
TORSDOF 14
ENDMDL
MODEL 2
REMARK VINA RESULT:     -11.5      3.651      8.664
REMARK SMILES COc1cccc(NC(=O)NC2(C(=O)OCCOC(=O)c3ccc(-c4c5nc(c(-c6c(F)cccc6F)c6ccc([nH]6)c(-c6c(F)cccc6F)c6nc(c(-c7c(F)cccc7F)c7ccc4[nH]7)C=C6)C=C5)cc3)CCCCC2)c1
REMARK SMILES IDX 16 1 15 2 13 3 14 4 12 5 75 6 79 7 76 8 78 9 77 10 11 11
REMARK SMILES IDX 8 12 9 13 10 15 7 17 3 18 4 19 80 20 5 21 6 22 2 23 1 24
REMARK SMILES IDX 17 25 18 26 19 27 20 28 21 29 22 30 74 31 23 32 73 33 24 34
REMARK SMILES IDX 25 35 26 36 67 37 27 38 72 39 66 40 68 41 28 42 71 43 65 44
REMARK SMILES IDX 64 45 29 47 55 48 38 49 54 50 39 51 42 52 53 53 69 54 40 55
REMARK SMILES IDX 41 56 52 58 70 59 43 60 30 61 31 62 36 63 32 64 33 65 35 66
REMARK SMILES IDX 37 67 34 68 56 69 57 70 62 71 58 72 59 73 61 74 63 75 60 76
REMARK SMILES IDX 44 77 45 78 50 79 46 80 47 81 49 82 51 83 48 84
REMARK H PARENT 8 14 11 16 68 46 42 57
REMARK Flexibility Score: inf
ROOT
ATOM      1  C   UNL A   1      31.414  29.383  24.769  1.00  0.00     0.274 C 
ENDROOT
BRANCH   1   2
ATOM      2  O   UNL A   1      31.487  28.054  25.317  1.00  0.00    -0.460 OA
BRANCH   2   3
ATOM      3  C   UNL A   1      30.937  27.026  24.621  1.00  0.00     0.332 C 
ATOM      4  O   UNL A   1      29.777  27.005  24.218  1.00  0.00    -0.249 OA
BRANCH   3   5
ATOM      5  C   UNL A   1      31.900  25.791  24.521  1.00  0.00     0.139 C 
ATOM      6  C   UNL A   1      33.282  26.430  24.281  1.00  0.00     0.040 C 
ATOM      7  C   UNL A   1      31.419  24.845  23.401  1.00  0.00     0.040 C 
ATOM      8  C   UNL A   1      33.502  26.900  22.849  1.00  0.00     0.003 C 
ATOM      9  C   UNL A   1      31.788  25.258  21.974  1.00  0.00     0.003 C 
ATOM     10  C   UNL A   1      33.207  25.795  21.846  1.00  0.00     0.000 C 
BRANCH   5  11
ATOM     11  N   UNL A   1      31.863  25.186  25.905  1.00  0.00    -0.322 N 
ATOM     12  N   UNL A   1      32.950  23.064  25.960  1.00  0.00    -0.308 N 
ATOM     13  C   UNL A   1      32.091  23.977  26.459  1.00  0.00     0.320 C 
ATOM     14  H   UNL A   1      32.650  22.130  26.038  1.00  0.00     0.171 HD
ATOM     15  O   UNL A   1      31.412  23.669  27.443  1.00  0.00    -0.248 OA
ATOM     16  H   UNL A   1      31.602  25.851  26.583  1.00  0.00     0.166 HD
BRANCH  12  17
ATOM     17  C   UNL A   1      34.202  23.231  25.347  1.00  0.00     0.046 A 
ATOM     18  C   UNL A   1      36.572  23.660  25.598  1.00  0.00     0.120 A 
ATOM     19  C   UNL A   1      36.775  23.213  24.292  1.00  0.00     0.046 A 
ATOM     20  C   UNL A   1      35.277  23.684  26.125  1.00  0.00     0.072 A 
ATOM     21  C   UNL A   1      35.692  22.880  23.483  1.00  0.00     0.006 A 
ATOM     22  C   UNL A   1      34.404  22.923  24.007  1.00  0.00     0.026 A 
BRANCH  18  23
ATOM     23  O   UNL A   1      37.718  23.992  26.265  1.00  0.00    -0.497 OA
ATOM     24  C   UNL A   1      38.777  23.045  26.225  1.00  0.00     0.278 C 
ENDBRANCH  18  23
ENDBRANCH  12  17
ENDBRANCH   5  11
ENDBRANCH   3   5
ENDBRANCH   2   3
ENDBRANCH   1   2
BRANCH   1  25
ATOM     25  C   UNL A   1      31.565  30.437  25.864  1.00  0.00     0.275 C 
BRANCH  25  26
ATOM     26  O   UNL A   1      32.942  30.553  26.257  1.00  0.00    -0.458 OA
BRANCH  26  27
ATOM     27  C   UNL A   1      33.234  31.630  27.023  1.00  0.00     0.338 C 
ATOM     28  O   UNL A   1      32.531  32.597  27.250  1.00  0.00    -0.246 OA
BRANCH  27  29
ATOM     29  C   UNL A   1      34.493  31.356  27.727  1.00  0.00     0.060 A 
ATOM     30  C   UNL A   1      34.724  30.041  28.132  1.00  0.00     0.016 A 
ATOM     31  C   UNL A   1      35.419  32.360  28.004  1.00  0.00     0.016 A 
ATOM     32  C   UNL A   1      35.896  29.705  28.794  1.00  0.00     0.010 A 
ATOM     33  C   UNL A   1      36.593  32.027  28.685  1.00  0.00     0.010 A 
ATOM     34  C   UNL A   1      36.836  30.697  29.081  1.00  0.00    -0.014 A 
BRANCH  34  35
ATOM     35  C   UNL A   1      38.032  30.358  29.882  1.00  0.00     0.031 A 
ATOM     36  C   UNL A   1      39.087  29.485  29.274  1.00  0.00     0.074 A 
ATOM     37  C   UNL A   1      38.181  30.847  31.124  1.00  0.00     0.049 A 
ATOM     38  N   UNL A   1      40.119  28.917  29.840  1.00  0.00    -0.248 NA
ATOM     39  C   UNL A   1      38.956  29.211  27.834  1.00  0.00     0.031 C 
ATOM     40  C   UNL A   1      37.265  31.777  31.784  1.00  0.00     0.029 A 
ATOM     41  N   UNL A   1      39.162  30.623  32.055  1.00  0.00    -0.354 N 
ATOM     42  C   UNL A   1      40.739  28.185  28.836  1.00  0.00     0.074 A 
ATOM     43  C   UNL A   1      39.968  28.381  27.627  1.00  0.00     0.031 C 
ATOM     44  C   UNL A   1      37.726  32.041  33.018  1.00  0.00     0.029 A 
ATOM     45  C   UNL A   1      38.933  31.256  33.253  1.00  0.00     0.049 A 
ATOM     46  H   UNL A   1      39.954  30.063  31.883  1.00  0.00     0.167 HD
ATOM     47  C   UNL A   1      41.848  27.415  28.925  1.00  0.00     0.037 A 
ATOM     48  C   UNL A   1      39.605  31.173  34.417  1.00  0.00     0.037 A 
ATOM     49  C   UNL A   1      42.623  27.257  30.127  1.00  0.00     0.049 A 
ATOM     50  C   UNL A   1      40.802  30.268  34.506  1.00  0.00     0.074 A 
ATOM     51  C   UNL A   1      43.758  26.493  30.330  1.00  0.00     0.029 A 
ATOM     52  N   UNL A   1      42.344  27.890  31.330  1.00  0.00    -0.354 N 
ATOM     53  N   UNL A   1      41.347  29.523  33.575  1.00  0.00    -0.248 NA
ATOM     54  C   UNL A   1      41.467  30.177  35.814  1.00  0.00     0.031 C 
ATOM     55  C   UNL A   1      44.148  26.639  31.666  1.00  0.00     0.029 A 
ATOM     56  C   UNL A   1      43.279  27.526  32.283  1.00  0.00     0.049 A 
ATOM     57  H   UNL A   1      41.593  28.507  31.482  1.00  0.00     0.167 HD
ATOM     58  C   UNL A   1      42.425  28.889  34.176  1.00  0.00     0.074 A 
ATOM     59  C   UNL A   1      42.467  29.347  35.549  1.00  0.00     0.031 C 
ATOM     60  C   UNL A   1      43.301  28.001  33.642  1.00  0.00     0.037 A 
BRANCH  47  61
ATOM     61  C   UNL A   1      42.254  26.652  27.700  1.00  0.00     0.057 A 
ATOM     62  C   UNL A   1      41.820  25.344  27.457  1.00  0.00     0.134 A 
ATOM     63  C   UNL A   1      43.087  27.247  26.744  1.00  0.00     0.134 A 
ATOM     64  F   UNL A   1      41.038  24.711  28.344  1.00  0.00    -0.206 F 
ATOM     65  C   UNL A   1      42.217  24.645  26.316  1.00  0.00     0.040 A 
ATOM     66  C   UNL A   1      43.473  26.566  25.588  1.00  0.00     0.040 A 
ATOM     67  F   UNL A   1      43.538  28.498  26.916  1.00  0.00    -0.206 F 
ATOM     68  C   UNL A   1      43.042  25.259  25.374  1.00  0.00     0.006 A 
ENDBRANCH  47  61
BRANCH  48  69
ATOM     69  C   UNL A   1      39.132  31.933  35.601  1.00  0.00     0.057 A 
ATOM     70  C   UNL A   1      38.249  31.362  36.524  1.00  0.00     0.134 A 
ATOM     71  C   UNL A   1      39.545  33.251  35.834  1.00  0.00     0.134 A 
ATOM     72  F   UNL A   1      37.796  30.113  36.341  1.00  0.00    -0.206 F 
ATOM     73  C   UNL A   1      37.788  32.075  37.632  1.00  0.00     0.040 A 
ATOM     74  C   UNL A   1      39.111  33.968  36.950  1.00  0.00     0.040 A 
ATOM     75  F   UNL A   1      40.388  33.857  34.985  1.00  0.00    -0.206 F 
ATOM     76  C   UNL A   1      38.225  33.380  37.851  1.00  0.00     0.006 A 
ENDBRANCH  48  69
BRANCH  60  77
ATOM     77  C   UNL A   1      44.390  27.498  34.540  1.00  0.00     0.057 A 
ATOM     78  C   UNL A   1      44.248  26.317  35.278  1.00  0.00     0.134 A 
ATOM     79  C   UNL A   1      45.608  28.183  34.635  1.00  0.00     0.134 A 
ATOM     80  F   UNL A   1      43.100  25.623  35.239  1.00  0.00    -0.206 F 
ATOM     81  C   UNL A   1      45.274  25.844  36.098  1.00  0.00     0.040 A 
ATOM     82  C   UNL A   1      46.649  27.709  35.433  1.00  0.00     0.040 A 
ATOM     83  F   UNL A   1      45.808  29.316  33.945  1.00  0.00    -0.206 F 
ATOM     84  C   UNL A   1      46.481  26.538  36.172  1.00  0.00     0.006 A 
ENDBRANCH  60  77
ENDBRANCH  34  35
ENDBRANCH  27  29
ENDBRANCH  26  27
ENDBRANCH  25  26
ENDBRANCH   1  25
TORSDOF 14
ENDMDL
MODEL 3
REMARK VINA RESULT:     -11.5      1.238      1.901
REMARK SMILES COc1cccc(NC(=O)NC2(C(=O)OCCOC(=O)c3ccc(-c4c5nc(c(-c6c(F)cccc6F)c6ccc([nH]6)c(-c6c(F)cccc6F)c6nc(c(-c7c(F)cccc7F)c7ccc4[nH]7)C=C6)C=C5)cc3)CCCCC2)c1
REMARK SMILES IDX 16 1 15 2 13 3 14 4 12 5 75 6 79 7 76 8 78 9 77 10 11 11
REMARK SMILES IDX 8 12 9 13 10 15 7 17 3 18 4 19 80 20 5 21 6 22 2 23 1 24
REMARK SMILES IDX 17 25 18 26 19 27 20 28 21 29 22 30 74 31 23 32 73 33 24 34
REMARK SMILES IDX 25 35 26 36 67 37 27 38 72 39 66 40 68 41 28 42 71 43 65 44
REMARK SMILES IDX 64 45 29 47 55 48 38 49 54 50 39 51 42 52 53 53 69 54 40 55
REMARK SMILES IDX 41 56 52 58 70 59 43 60 30 61 31 62 36 63 32 64 33 65 35 66
REMARK SMILES IDX 37 67 34 68 56 69 57 70 62 71 58 72 59 73 61 74 63 75 60 76
REMARK SMILES IDX 44 77 45 78 50 79 46 80 47 81 49 82 51 83 48 84
REMARK H PARENT 8 14 11 16 68 46 42 57
REMARK Flexibility Score: inf
ROOT
ATOM      1  C   UNL A   1      35.012  20.943  24.618  1.00  0.00     0.274 C 
ENDROOT
BRANCH   1   2
ATOM      2  O   UNL A   1      34.646  22.200  24.021  1.00  0.00    -0.460 OA
BRANCH   2   3
ATOM      3  C   UNL A   1      33.338  22.439  23.744  1.00  0.00     0.332 C 
ATOM      4  O   UNL A   1      32.618  21.680  23.101  1.00  0.00    -0.249 OA
BRANCH   3   5
ATOM      5  C   UNL A   1      32.882  23.869  24.202  1.00  0.00     0.139 C 
ATOM      6  C   UNL A   1      33.547  24.034  25.583  1.00  0.00     0.040 C 
ATOM      7  C   UNL A   1      31.342  23.947  24.210  1.00  0.00     0.040 C 
ATOM      8  C   UNL A   1      32.832  23.290  26.703  1.00  0.00     0.003 C 
ATOM      9  C   UNL A   1      30.648  23.328  25.427  1.00  0.00     0.003 C 
ATOM     10  C   UNL A   1      31.351  23.631  26.743  1.00  0.00     0.000 C 
BRANCH   5  11
ATOM     11  N   UNL A   1      33.547  24.797  23.213  1.00  0.00    -0.322 N 
ATOM     12  N   UNL A   1      32.684  27.014  23.381  1.00  0.00    -0.308 N 
ATOM     13  C   UNL A   1      33.322  26.031  22.713  1.00  0.00     0.320 C 
ATOM     14  H   UNL A   1      32.100  27.578  22.825  1.00  0.00     0.171 HD
ATOM     15  O   UNL A   1      33.660  26.237  21.544  1.00  0.00    -0.248 OA
ATOM     16  H   UNL A   1      34.361  24.396  22.831  1.00  0.00     0.166 HD
BRANCH  12  17
ATOM     17  C   UNL A   1      32.720  27.364  24.741  1.00  0.00     0.046 A 
ATOM     18  C   UNL A   1      33.924  28.413  26.561  1.00  0.00     0.120 A 
ATOM     19  C   UNL A   1      32.746  28.429  27.309  1.00  0.00     0.046 A 
ATOM     20  C   UNL A   1      33.916  27.865  25.275  1.00  0.00     0.072 A 
ATOM     21  C   UNL A   1      31.591  27.822  26.823  1.00  0.00     0.006 A 
ATOM     22  C   UNL A   1      31.594  27.261  25.549  1.00  0.00     0.026 A 
BRANCH  18  23
ATOM     23  O   UNL A   1      34.991  29.007  27.176  1.00  0.00    -0.497 OA
ATOM     24  C   UNL A   1      34.798  30.335  27.645  1.00  0.00     0.278 C 
ENDBRANCH  18  23
ENDBRANCH  12  17
ENDBRANCH   5  11
ENDBRANCH   3   5
ENDBRANCH   2   3
ENDBRANCH   1   2
BRANCH   1  25
ATOM     25  C   UNL A   1      36.020  21.146  25.748  1.00  0.00     0.275 C 
BRANCH  25  26
ATOM     26  O   UNL A   1      37.205  21.788  25.250  1.00  0.00    -0.458 OA
BRANCH  26  27
ATOM     27  C   UNL A   1      38.372  21.289  25.720  1.00  0.00     0.338 C 
ATOM     28  O   UNL A   1      38.806  20.160  25.592  1.00  0.00    -0.246 OA
BRANCH  27  29
ATOM     29  C   UNL A   1      39.157  22.407  26.257  1.00  0.00     0.060 A 
ATOM     30  C   UNL A   1      38.705  23.696  25.979  1.00  0.00     0.016 A 
ATOM     31  C   UNL A   1      40.319  22.205  27.000  1.00  0.00     0.016 A 
ATOM     32  C   UNL A   1      39.391  24.802  26.462  1.00  0.00     0.010 A 
ATOM     33  C   UNL A   1      41.021  23.317  27.473  1.00  0.00     0.010 A 
ATOM     34  C   UNL A   1      40.558  24.620  27.206  1.00  0.00    -0.014 A 
BRANCH  34  35
ATOM     35  C   UNL A   1      41.346  25.799  27.626  1.00  0.00     0.031 A 
ATOM     36  C   UNL A   1      40.700  26.829  28.501  1.00  0.00     0.074 A 
ATOM     37  C   UNL A   1      42.629  25.929  27.249  1.00  0.00     0.049 A 
ATOM     38  N   UNL A   1      41.130  28.014  28.841  1.00  0.00    -0.248 NA
ATOM     39  C   UNL A   1      39.387  26.474  29.063  1.00  0.00     0.031 C 
ATOM     40  C   UNL A   1      43.389  24.948  26.475  1.00  0.00     0.029 A 
ATOM     41  N   UNL A   1      43.519  26.949  27.467  1.00  0.00    -0.354 N 
ATOM     42  C   UNL A   1      40.124  28.566  29.624  1.00  0.00     0.074 A 
ATOM     43  C   UNL A   1      39.063  27.585  29.709  1.00  0.00     0.031 C 
ATOM     44  C   UNL A   1      44.632  25.417  26.278  1.00  0.00     0.029 A 
ATOM     45  C   UNL A   1      44.736  26.751  26.861  1.00  0.00     0.049 A 
ATOM     46  H   UNL A   1      43.308  27.746  28.005  1.00  0.00     0.167 HD
ATOM     47  C   UNL A   1      40.094  29.785  30.210  1.00  0.00     0.037 A 
ATOM     48  C   UNL A   1      45.795  27.575  26.757  1.00  0.00     0.037 A 
ATOM     49  C   UNL A   1      41.171  30.736  30.145  1.00  0.00     0.049 A 
ATOM     50  C   UNL A   1      45.716  28.946  27.369  1.00  0.00     0.074 A 
ATOM     51  C   UNL A   1      41.241  32.004  30.693  1.00  0.00     0.029 A 
ATOM     52  N   UNL A   1      42.377  30.513  29.495  1.00  0.00    -0.354 N 
ATOM     53  N   UNL A   1      44.738  29.492  28.051  1.00  0.00    -0.248 NA
ATOM     54  C   UNL A   1      46.880  29.823  27.183  1.00  0.00     0.031 C 
ATOM     55  C   UNL A   1      42.477  32.560  30.350  1.00  0.00     0.029 A 
ATOM     56  C   UNL A   1      43.194  31.623  29.621  1.00  0.00     0.049 A 
ATOM     57  H   UNL A   1      42.617  29.687  29.018  1.00  0.00     0.167 HD
ATOM     58  C   UNL A   1      45.172  30.766  28.389  1.00  0.00     0.074 A 
ATOM     59  C   UNL A   1      46.509  30.908  27.849  1.00  0.00     0.031 C 
ATOM     60  C   UNL A   1      44.523  31.736  29.078  1.00  0.00     0.037 A 
BRANCH  47  61
ATOM     61  C   UNL A   1      38.836  30.169  30.930  1.00  0.00     0.057 A 
ATOM     62  C   UNL A   1      38.639  29.891  32.287  1.00  0.00     0.134 A 
ATOM     63  C   UNL A   1      37.811  30.838  30.249  1.00  0.00     0.134 A 
ATOM     64  F   UNL A   1      39.574  29.234  32.990  1.00  0.00    -0.206 F 
ATOM     65  C   UNL A   1      37.456  30.245  32.939  1.00  0.00     0.040 A 
ATOM     66  C   UNL A   1      36.633  31.218  30.895  1.00  0.00     0.040 A 
ATOM     67  F   UNL A   1      37.936  31.133  28.947  1.00  0.00    -0.206 F 
ATOM     68  C   UNL A   1      36.451  30.917  32.243  1.00  0.00     0.006 A 
ENDBRANCH  47  61
BRANCH  48  69
ATOM     69  C   UNL A   1      46.999  27.144  26.005  1.00  0.00     0.057 A 
ATOM     70  C   UNL A   1      47.124  27.387  24.632  1.00  0.00     0.134 A 
ATOM     71  C   UNL A   1      48.052  26.471  26.638  1.00  0.00     0.134 A 
ATOM     72  F   UNL A   1      46.137  28.002  23.963  1.00  0.00    -0.206 F 
ATOM     73  C   UNL A   1      48.246  26.970  23.915  1.00  0.00     0.040 A 
ATOM     74  C   UNL A   1      49.192  26.070  25.938  1.00  0.00     0.040 A 
ATOM     75  F   UNL A   1      47.994  26.204  27.951  1.00  0.00    -0.206 F 
ATOM     76  C   UNL A   1      49.288  26.315  24.570  1.00  0.00     0.006 A 
ENDBRANCH  48  69
BRANCH  60  77
ATOM     77  C   UNL A   1      45.264  33.017  29.311  1.00  0.00     0.057 A 
ATOM     78  C   UNL A   1      45.154  34.101  28.432  1.00  0.00     0.134 A 
ATOM     79  C   UNL A   1      46.067  33.180  30.447  1.00  0.00     0.134 A 
ATOM     80  F   UNL A   1      44.411  34.003  27.319  1.00  0.00    -0.206 F 
ATOM     81  C   UNL A   1      45.833  35.298  28.665  1.00  0.00     0.040 A 
ATOM     82  C   UNL A   1      46.733  34.379  30.702  1.00  0.00     0.040 A 
ATOM     83  F   UNL A   1      46.206  32.181  31.331  1.00  0.00    -0.206 F 
ATOM     84  C   UNL A   1      46.620  35.441  29.806  1.00  0.00     0.006 A 
ENDBRANCH  60  77
ENDBRANCH  34  35
ENDBRANCH  27  29
ENDBRANCH  26  27
ENDBRANCH  25  26
ENDBRANCH   1  25
TORSDOF 14
ENDMDL
