MODEL 1
REMARK VINA RESULT:     -12.4      0.000      0.000
REMARK SMILES O=C(CCN1C(=O)/C(=C/c2c3ccccc3cc3ccccc23)SC1=S)OCCOC(=O)c1ccc(-c2c3nc(c(-c4c(F)cccc4F)c4ccc([nH]4)c(-c4c(F)cccc4F)c4nc(c(-c5c(F)cccc5F)c5ccc2[nH]5)C=C4)C=C3)cc1
REMARK SMILES IDX 28 1 27 2 2 3 1 4 3 5 4 6 5 7 6 8 25 9 7 10 8 11 24 12 26 13
REMARK SMILES IDX 9 14 10 15 11 16 23 17 12 18 16 19 18 20 22 21 13 22 15 23
REMARK SMILES IDX 17 24 19 25 21 26 14 27 20 28 29 29 30 30 31 31 32 32 33 33
REMARK SMILES IDX 34 34 86 35 35 36 85 37 36 38 37 39 38 40 79 41 39 42 84 43
REMARK SMILES IDX 78 44 80 45 40 46 83 47 77 48 76 49 41 51 67 52 50 53 66 54
REMARK SMILES IDX 51 55 54 56 65 57 81 58 52 59 53 60 64 62 82 63 55 64 42 65
REMARK SMILES IDX 43 66 48 67 44 68 45 69 47 70 49 71 46 72 68 73 69 74 74 75
REMARK SMILES IDX 70 76 71 77 73 78 75 79 72 80 56 81 57 82 62 83 58 84 59 85
REMARK SMILES IDX 61 86 63 87 60 88
REMARK H PARENT 80 50 54 61
REMARK Flexibility Score: inf
ROOT
ATOM      1  C   UNL A   1      31.837  30.321  26.875  1.00  0.00     0.274 C 
ENDROOT
BRANCH   1   2
ATOM      2  O   UNL A   1      31.409  30.125  25.509  1.00  0.00    -0.462 OA
BRANCH   2   3
ATOM      3  C   UNL A   1      31.346  28.948  24.847  1.00  0.00     0.307 C 
ATOM      4  O   UNL A   1      31.105  28.924  23.641  1.00  0.00    -0.252 OA
BRANCH   3   5
ATOM      5  C   UNL A   1      31.613  27.663  25.582  1.00  0.00     0.144 C 
BRANCH   5   6
ATOM      6  C   UNL A   1      30.759  26.520  25.039  1.00  0.00     0.139 C 
BRANCH   6   7
ATOM      7  N   UNL A   1      31.562  25.349  24.677  1.00  0.00    -0.292 N 
ATOM      8  C   UNL A   1      31.877  24.437  25.673  1.00  0.00     0.266 C 
ATOM      9  C   UNL A   1      32.080  25.101  23.422  1.00  0.00     0.148 C 
ATOM     10  O   UNL A   1      31.515  24.494  26.840  1.00  0.00    -0.268 OA
ATOM     11  C   UNL A   1      32.824  23.422  25.154  1.00  0.00     0.081 C 
ATOM     12  S   UNL A   1      33.131  23.696  23.487  1.00  0.00    -0.054 SA
ATOM     13  S   UNL A   1      31.829  25.946  22.009  1.00  0.00    -0.052 S 
ATOM     14  C   UNL A   1      33.390  22.506  25.951  1.00  0.00     0.030 C 
BRANCH  14  15
ATOM     15  C   UNL A   1      34.464  21.596  25.494  1.00  0.00    -0.009 A 
ATOM     16  C   UNL A   1      34.101  20.285  25.054  1.00  0.00    -0.010 A 
ATOM     17  C   UNL A   1      35.827  21.998  25.598  1.00  0.00    -0.010 A 
ATOM     18  C   UNL A   1      32.762  19.834  24.906  1.00  0.00     0.009 A 
ATOM     19  C   UNL A   1      35.131  19.366  24.758  1.00  0.00    -0.017 A 
ATOM     20  C   UNL A   1      36.831  21.053  25.293  1.00  0.00    -0.017 A 
ATOM     21  C   UNL A   1      36.246  23.289  26.005  1.00  0.00     0.009 A 
ATOM     22  C   UNL A   1      32.460  18.533  24.500  1.00  0.00     0.001 A 
ATOM     23  C   UNL A   1      34.813  18.058  24.354  1.00  0.00     0.009 A 
ATOM     24  C   UNL A   1      36.470  19.760  24.883  1.00  0.00     0.017 A 
ATOM     25  C   UNL A   1      38.186  21.401  25.417  1.00  0.00     0.009 A 
ATOM     26  C   UNL A   1      37.596  23.623  26.126  1.00  0.00     0.001 A 
ATOM     27  C   UNL A   1      33.488  17.642  24.229  1.00  0.00     0.001 A 
ATOM     28  C   UNL A   1      38.568  22.676  25.835  1.00  0.00     0.001 A 
ENDBRANCH  14  15
ENDBRANCH   6   7
ENDBRANCH   5   6
ENDBRANCH   3   5
ENDBRANCH   2   3
ENDBRANCH   1   2
BRANCH   1  29
ATOM     29  C   UNL A   1      33.243  30.913  26.954  1.00  0.00     0.275 C 
BRANCH  29  30
ATOM     30  O   UNL A   1      34.020  30.196  27.926  1.00  0.00    -0.458 OA
BRANCH  30  31
ATOM     31  C   UNL A   1      34.864  30.964  28.663  1.00  0.00     0.338 C 
ATOM     32  O   UNL A   1      34.578  31.950  29.312  1.00  0.00    -0.246 OA
BRANCH  31  33
ATOM     33  C   UNL A   1      36.188  30.311  28.704  1.00  0.00     0.060 A 
ATOM     34  C   UNL A   1      36.589  29.715  29.906  1.00  0.00     0.016 A 
ATOM     35  C   UNL A   1      37.027  30.283  27.586  1.00  0.00     0.016 A 
ATOM     36  C   UNL A   1      37.846  29.120  30.003  1.00  0.00     0.010 A 
ATOM     37  C   UNL A   1      38.287  29.690  27.686  1.00  0.00     0.010 A 
ATOM     38  C   UNL A   1      38.713  29.131  28.902  1.00  0.00    -0.014 A 
BRANCH  38  39
ATOM     39  C   UNL A   1      40.116  28.685  29.057  1.00  0.00     0.031 A 
ATOM     40  C   UNL A   1      41.121  29.646  29.628  1.00  0.00     0.074 A 
ATOM     41  C   UNL A   1      40.492  27.449  28.689  1.00  0.00     0.049 A 
ATOM     42  N   UNL A   1      42.405  29.489  29.817  1.00  0.00    -0.248 NA
ATOM     43  C   UNL A   1      40.609  30.965  30.036  1.00  0.00     0.031 C 
ATOM     44  C   UNL A   1      39.608  26.423  28.139  1.00  0.00     0.029 A 
ATOM     45  N   UNL A   1      41.728  26.852  28.711  1.00  0.00    -0.354 N 
ATOM     46  C   UNL A   1      42.854  30.682  30.367  1.00  0.00     0.074 A 
ATOM     47  C   UNL A   1      41.712  31.568  30.449  1.00  0.00     0.031 C 
ATOM     48  C   UNL A   1      40.334  25.325  27.862  1.00  0.00     0.029 A 
ATOM     49  C   UNL A   1      41.735  25.581  28.194  1.00  0.00     0.049 A 
ATOM     50  H   UNL A   1      42.533  27.294  29.066  1.00  0.00     0.167 HD
ATOM     51  C   UNL A   1      44.101  31.007  30.778  1.00  0.00     0.037 A 
ATOM     52  C   UNL A   1      42.760  24.730  27.995  1.00  0.00     0.037 A 
ATOM     53  C   UNL A   1      45.237  30.128  30.693  1.00  0.00     0.049 A 
ATOM     54  C   UNL A   1      44.152  25.141  28.401  1.00  0.00     0.074 A 
ATOM     55  C   UNL A   1      46.538  30.357  31.107  1.00  0.00     0.029 A 
ATOM     56  N   UNL A   1      45.207  28.853  30.148  1.00  0.00    -0.354 N 
ATOM     57  N   UNL A   1      44.556  26.254  28.965  1.00  0.00    -0.248 NA
ATOM     58  C   UNL A   1      45.230  24.173  28.147  1.00  0.00     0.031 C 
ATOM     59  C   UNL A   1      47.306  29.238  30.770  1.00  0.00     0.029 A 
ATOM     60  C   UNL A   1      46.473  28.294  30.191  1.00  0.00     0.049 A 
ATOM     61  H   UNL A   1      44.406  28.412  29.785  1.00  0.00     0.167 HD
ATOM     62  C   UNL A   1      45.925  26.107  29.162  1.00  0.00     0.074 A 
ATOM     63  C   UNL A   1      46.279  24.794  28.667  1.00  0.00     0.031 C 
ATOM     64  C   UNL A   1      46.807  26.980  29.705  1.00  0.00     0.037 A 
BRANCH  51  65
ATOM     65  C   UNL A   1      44.308  32.379  31.346  1.00  0.00     0.057 A 
ATOM     66  C   UNL A   1      44.178  32.637  32.717  1.00  0.00     0.134 A 
ATOM     67  C   UNL A   1      44.681  33.446  30.519  1.00  0.00     0.134 A 
ATOM     68  F   UNL A   1      43.808  31.661  33.560  1.00  0.00    -0.206 F 
ATOM     69  C   UNL A   1      44.396  33.911  33.242  1.00  0.00     0.040 A 
ATOM     70  C   UNL A   1      44.924  34.719  31.036  1.00  0.00     0.040 A 
ATOM     71  F   UNL A   1      44.824  33.265  29.197  1.00  0.00    -0.206 F 
ATOM     72  C   UNL A   1      44.778  34.955  32.401  1.00  0.00     0.006 A 
ENDBRANCH  51  65
BRANCH  52  73
ATOM     73  C   UNL A   1      42.523  23.403  27.371  1.00  0.00     0.057 A 
ATOM     74  C   UNL A   1      42.228  22.278  28.149  1.00  0.00     0.134 A 
ATOM     75  C   UNL A   1      42.631  23.220  25.987  1.00  0.00     0.134 A 
ATOM     76  F   UNL A   1      42.137  22.385  29.483  1.00  0.00    -0.206 F 
ATOM     77  C   UNL A   1      42.072  21.015  27.578  1.00  0.00     0.040 A 
ATOM     78  C   UNL A   1      42.453  21.967  25.400  1.00  0.00     0.040 A 
ATOM     79  F   UNL A   1      42.911  24.258  25.186  1.00  0.00    -0.206 F 
ATOM     80  C   UNL A   1      42.182  20.857  26.197  1.00  0.00     0.006 A 
ENDBRANCH  52  73
BRANCH  64  81
ATOM     81  C   UNL A   1      48.234  26.531  29.829  1.00  0.00     0.057 A 
ATOM     82  C   UNL A   1      49.190  26.824  28.848  1.00  0.00     0.134 A 
ATOM     83  C   UNL A   1      48.666  25.838  30.968  1.00  0.00     0.134 A 
ATOM     84  F   UNL A   1      48.839  27.474  27.729  1.00  0.00    -0.206 F 
ATOM     85  C   UNL A   1      50.520  26.423  28.986  1.00  0.00     0.040 A 
ATOM     86  C   UNL A   1      49.998  25.457  31.129  1.00  0.00     0.040 A 
ATOM     87  F   UNL A   1      47.802  25.536  31.949  1.00  0.00    -0.206 F 
ATOM     88  C   UNL A   1      50.929  25.745  30.133  1.00  0.00     0.006 A 
ENDBRANCH  64  81
ENDBRANCH  38  39
ENDBRANCH  31  33
ENDBRANCH  30  31
ENDBRANCH  29  30
ENDBRANCH   1  29
TORSDOF 14
ENDMDL
MODEL 2
REMARK VINA RESULT:     -12.3      4.352      9.420
REMARK SMILES O=C(CCN1C(=O)/C(=C/c2c3ccccc3cc3ccccc23)SC1=S)OCCOC(=O)c1ccc(-c2c3nc(c(-c4c(F)cccc4F)c4ccc([nH]4)c(-c4c(F)cccc4F)c4nc(c(-c5c(F)cccc5F)c5ccc2[nH]5)C=C4)C=C3)cc1
REMARK SMILES IDX 28 1 27 2 2 3 1 4 3 5 4 6 5 7 6 8 25 9 7 10 8 11 24 12 26 13
REMARK SMILES IDX 9 14 10 15 11 16 23 17 12 18 16 19 18 20 22 21 13 22 15 23
REMARK SMILES IDX 17 24 19 25 21 26 14 27 20 28 29 29 30 30 31 31 32 32 33 33
REMARK SMILES IDX 34 34 86 35 35 36 85 37 36 38 37 39 38 40 79 41 39 42 84 43
REMARK SMILES IDX 78 44 80 45 40 46 83 47 77 48 76 49 41 51 67 52 50 53 66 54
REMARK SMILES IDX 51 55 54 56 65 57 81 58 52 59 53 60 64 62 82 63 55 64 42 65
REMARK SMILES IDX 43 66 48 67 44 68 45 69 47 70 49 71 46 72 68 73 69 74 74 75
REMARK SMILES IDX 70 76 71 77 73 78 75 79 72 80 56 81 57 82 62 83 58 84 59 85
REMARK SMILES IDX 61 86 63 87 60 88
REMARK H PARENT 80 50 54 61
REMARK Flexibility Score: inf
ROOT
ATOM      1  C   UNL A   1      38.152  21.779  25.370  1.00  0.00     0.274 C 
ENDROOT
BRANCH   1   2
ATOM      2  O   UNL A   1      37.292  22.849  24.918  1.00  0.00    -0.462 OA
BRANCH   2   3
ATOM      3  C   UNL A   1      36.284  22.746  24.023  1.00  0.00     0.307 C 
ATOM      4  O   UNL A   1      36.486  22.965  22.830  1.00  0.00    -0.252 OA
BRANCH   3   5
ATOM      5  C   UNL A   1      34.917  22.323  24.485  1.00  0.00     0.144 C 
BRANCH   5   6
ATOM      6  C   UNL A   1      33.840  22.703  23.471  1.00  0.00     0.139 C 
BRANCH   6   7
ATOM      7  N   UNL A   1      33.080  23.885  23.882  1.00  0.00    -0.292 N 
ATOM      8  C   UNL A   1      33.342  25.088  23.245  1.00  0.00     0.266 C 
ATOM      9  C   UNL A   1      32.148  23.913  24.901  1.00  0.00     0.148 C 
ATOM     10  O   UNL A   1      34.135  25.257  22.329  1.00  0.00    -0.268 OA
ATOM     11  C   UNL A   1      32.602  26.188  23.907  1.00  0.00     0.081 C 
ATOM     12  S   UNL A   1      31.627  25.567  25.176  1.00  0.00    -0.054 SA
ATOM     13  S   UNL A   1      31.555  22.643  25.800  1.00  0.00    -0.052 S 
ATOM     14  C   UNL A   1      32.785  27.472  23.568  1.00  0.00     0.030 C 
BRANCH  14  15
ATOM     15  C   UNL A   1      32.191  28.596  24.326  1.00  0.00    -0.009 A 
ATOM     16  C   UNL A   1      30.989  29.189  23.828  1.00  0.00    -0.010 A 
ATOM     17  C   UNL A   1      32.872  29.126  25.460  1.00  0.00    -0.010 A 
ATOM     18  C   UNL A   1      30.252  28.691  22.721  1.00  0.00     0.009 A 
ATOM     19  C   UNL A   1      30.501  30.351  24.463  1.00  0.00    -0.017 A 
ATOM     20  C   UNL A   1      32.355  30.290  26.069  1.00  0.00    -0.017 A 
ATOM     21  C   UNL A   1      34.053  28.568  26.010  1.00  0.00     0.009 A 
ATOM     22  C   UNL A   1      29.098  29.324  22.256  1.00  0.00     0.001 A 
ATOM     23  C   UNL A   1      29.340  30.981  23.982  1.00  0.00     0.009 A 
ATOM     24  C   UNL A   1      31.187  30.882  25.564  1.00  0.00     0.017 A 
ATOM     25  C   UNL A   1      33.018  30.863  27.167  1.00  0.00     0.009 A 
ATOM     26  C   UNL A   1      34.703  29.148  27.101  1.00  0.00     0.001 A 
ATOM     27  C   UNL A   1      28.645  30.475  22.885  1.00  0.00     0.001 A 
ATOM     28  C   UNL A   1      34.187  30.300  27.678  1.00  0.00     0.001 A 
ENDBRANCH  14  15
ENDBRANCH   6   7
ENDBRANCH   5   6
ENDBRANCH   3   5
ENDBRANCH   2   3
ENDBRANCH   1   2
BRANCH   1  29
ATOM     29  C   UNL A   1      39.244  22.283  26.313  1.00  0.00     0.275 C 
BRANCH  29  30
ATOM     30  O   UNL A   1      39.348  23.712  26.218  1.00  0.00    -0.458 OA
BRANCH  30  31
ATOM     31  C   UNL A   1      40.555  24.222  26.578  1.00  0.00     0.338 C 
ATOM     32  O   UNL A   1      41.639  23.935  26.113  1.00  0.00    -0.246 OA
BRANCH  31  33
ATOM     33  C   UNL A   1      40.337  25.335  27.525  1.00  0.00     0.060 A 
ATOM     34  C   UNL A   1      41.274  26.375  27.541  1.00  0.00     0.016 A 
ATOM     35  C   UNL A   1      39.235  25.361  28.386  1.00  0.00     0.016 A 
ATOM     36  C   UNL A   1      41.131  27.428  28.444  1.00  0.00     0.010 A 
ATOM     37  C   UNL A   1      39.096  26.414  29.292  1.00  0.00     0.010 A 
ATOM     38  C   UNL A   1      40.057  27.436  29.344  1.00  0.00    -0.014 A 
BRANCH  38  39
ATOM     39  C   UNL A   1      40.010  28.437  30.435  1.00  0.00     0.031 A 
ATOM     40  C   UNL A   1      39.050  29.588  30.320  1.00  0.00     0.074 A 
ATOM     41  C   UNL A   1      40.815  28.329  31.505  1.00  0.00     0.049 A 
ATOM     42  N   UNL A   1      38.866  30.599  31.128  1.00  0.00    -0.248 NA
ATOM     43  C   UNL A   1      38.185  29.602  29.129  1.00  0.00     0.031 C 
ATOM     44  C   UNL A   1      41.774  27.251  31.738  1.00  0.00     0.029 A 
ATOM     45  N   UNL A   1      40.960  29.150  32.595  1.00  0.00    -0.354 N 
ATOM     46  C   UNL A   1      37.864  31.366  30.549  1.00  0.00     0.074 A 
ATOM     47  C   UNL A   1      37.504  30.725  29.302  1.00  0.00     0.031 C 
ATOM     48  C   UNL A   1      42.421  27.486  32.895  1.00  0.00     0.029 A 
ATOM     49  C   UNL A   1      41.936  28.739  33.469  1.00  0.00     0.049 A 
ATOM     50  H   UNL A   1      40.413  29.957  32.738  1.00  0.00     0.167 HD
ATOM     51  C   UNL A   1      37.287  32.496  31.019  1.00  0.00     0.037 A 
ATOM     52  C   UNL A   1      42.395  29.322  34.593  1.00  0.00     0.037 A 
ATOM     53  C   UNL A   1      37.648  33.136  32.256  1.00  0.00     0.049 A 
ATOM     54  C   UNL A   1      41.781  30.616  35.060  1.00  0.00     0.074 A 
ATOM     55  C   UNL A   1      37.104  34.272  32.830  1.00  0.00     0.029 A 
ATOM     56  N   UNL A   1      38.653  32.699  33.105  1.00  0.00    -0.354 N 
ATOM     57  N   UNL A   1      40.801  31.308  34.529  1.00  0.00    -0.248 NA
ATOM     58  C   UNL A   1      42.334  31.208  36.288  1.00  0.00     0.031 C 
ATOM     59  C   UNL A   1      37.810  34.549  34.004  1.00  0.00     0.029 A 
ATOM     60  C   UNL A   1      38.762  33.558  34.186  1.00  0.00     0.049 A 
ATOM     61  H   UNL A   1      39.206  31.897  32.961  1.00  0.00     0.167 HD
ATOM     62  C   UNL A   1      40.600  32.394  35.373  1.00  0.00     0.074 A 
ATOM     63  C   UNL A   1      41.552  32.265  36.455  1.00  0.00     0.031 C 
ATOM     64  C   UNL A   1      39.707  33.408  35.261  1.00  0.00     0.037 A 
BRANCH  51  65
ATOM     65  C   UNL A   1      36.214  33.124  30.182  1.00  0.00     0.057 A 
ATOM     66  C   UNL A   1      36.517  33.926  29.074  1.00  0.00     0.134 A 
ATOM     67  C   UNL A   1      34.861  32.892  30.463  1.00  0.00     0.134 A 
ATOM     68  F   UNL A   1      37.793  34.199  28.761  1.00  0.00    -0.206 F 
ATOM     69  C   UNL A   1      35.513  34.487  28.284  1.00  0.00     0.040 A 
ATOM     70  C   UNL A   1      33.849  33.429  29.667  1.00  0.00     0.040 A 
ATOM     71  F   UNL A   1      34.504  32.132  31.509  1.00  0.00    -0.206 F 
ATOM     72  C   UNL A   1      34.174  34.233  28.576  1.00  0.00     0.006 A 
ENDBRANCH  51  65
BRANCH  52  73
ATOM     73  C   UNL A   1      43.505  28.700  35.360  1.00  0.00     0.057 A 
ATOM     74  C   UNL A   1      44.842  28.993  35.070  1.00  0.00     0.134 A 
ATOM     75  C   UNL A   1      43.254  27.762  36.369  1.00  0.00     0.134 A 
ATOM     76  F   UNL A   1      45.145  29.864  34.096  1.00  0.00    -0.206 F 
ATOM     77  C   UNL A   1      45.891  28.361  35.739  1.00  0.00     0.040 A 
ATOM     78  C   UNL A   1      44.294  27.141  37.064  1.00  0.00     0.040 A 
ATOM     79  F   UNL A   1      41.995  27.436  36.696  1.00  0.00    -0.206 F 
ATOM     80  C   UNL A   1      45.617  27.433  36.742  1.00  0.00     0.006 A 
ENDBRANCH  52  73
BRANCH  64  81
ATOM     81  C   UNL A   1      39.689  34.435  36.356  1.00  0.00     0.057 A 
ATOM     82  C   UNL A   1      38.992  34.229  37.553  1.00  0.00     0.134 A 
ATOM     83  C   UNL A   1      40.420  35.624  36.228  1.00  0.00     0.134 A 
ATOM     84  F   UNL A   1      38.264  33.116  37.733  1.00  0.00    -0.206 F 
ATOM     85  C   UNL A   1      39.003  35.179  38.575  1.00  0.00     0.040 A 
ATOM     86  C   UNL A   1      40.459  36.569  37.253  1.00  0.00     0.040 A 
ATOM     87  F   UNL A   1      41.118  35.878  35.111  1.00  0.00    -0.206 F 
ATOM     88  C   UNL A   1      39.746  36.350  38.429  1.00  0.00     0.006 A 
ENDBRANCH  64  81
ENDBRANCH  38  39
ENDBRANCH  31  33
ENDBRANCH  30  31
ENDBRANCH  29  30
ENDBRANCH   1  29
TORSDOF 14
ENDMDL
MODEL 3
REMARK VINA RESULT:     -12.2      0.211      2.187
REMARK SMILES O=C(CCN1C(=O)/C(=C/c2c3ccccc3cc3ccccc23)SC1=S)OCCOC(=O)c1ccc(-c2c3nc(c(-c4c(F)cccc4F)c4ccc([nH]4)c(-c4c(F)cccc4F)c4nc(c(-c5c(F)cccc5F)c5ccc2[nH]5)C=C4)C=C3)cc1
REMARK SMILES IDX 28 1 27 2 2 3 1 4 3 5 4 6 5 7 6 8 25 9 7 10 8 11 24 12 26 13
REMARK SMILES IDX 9 14 10 15 11 16 23 17 12 18 16 19 18 20 22 21 13 22 15 23
REMARK SMILES IDX 17 24 19 25 21 26 14 27 20 28 29 29 30 30 31 31 32 32 33 33
REMARK SMILES IDX 34 34 86 35 35 36 85 37 36 38 37 39 38 40 79 41 39 42 84 43
REMARK SMILES IDX 78 44 80 45 40 46 83 47 77 48 76 49 41 51 67 52 50 53 66 54
REMARK SMILES IDX 51 55 54 56 65 57 81 58 52 59 53 60 64 62 82 63 55 64 42 65
REMARK SMILES IDX 43 66 48 67 44 68 45 69 47 70 49 71 46 72 68 73 69 74 74 75
REMARK SMILES IDX 70 76 71 77 73 78 75 79 72 80 56 81 57 82 62 83 58 84 59 85
REMARK SMILES IDX 61 86 63 87 60 88
REMARK H PARENT 80 50 54 61
REMARK Flexibility Score: inf
ROOT
ATOM      1  C   UNL A   1      31.781  30.202  26.735  1.00  0.00     0.274 C 
ENDROOT
BRANCH   1   2
ATOM      2  O   UNL A   1      31.424  30.090  25.339  1.00  0.00    -0.462 OA
BRANCH   2   3
ATOM      3  C   UNL A   1      31.521  28.982  24.571  1.00  0.00     0.307 C 
ATOM      4  O   UNL A   1      31.503  29.071  23.344  1.00  0.00    -0.252 OA
BRANCH   3   5
ATOM      5  C   UNL A   1      31.692  27.636  25.221  1.00  0.00     0.144 C 
BRANCH   5   6
ATOM      6  C   UNL A   1      30.931  26.549  24.466  1.00  0.00     0.139 C 
BRANCH   6   7
ATOM      7  N   UNL A   1      31.740  25.346  24.256  1.00  0.00    -0.292 N 
ATOM      8  C   UNL A   1      31.843  24.436  25.298  1.00  0.00     0.266 C 
ATOM      9  C   UNL A   1      32.459  25.064  23.113  1.00  0.00     0.148 C 
ATOM     10  O   UNL A   1      31.286  24.521  26.383  1.00  0.00    -0.268 OA
ATOM     11  C   UNL A   1      32.828  23.381  24.958  1.00  0.00     0.081 C 
ATOM     12  S   UNL A   1      33.429  23.622  23.369  1.00  0.00    -0.054 SA
ATOM     13  S   UNL A   1      32.489  25.898  21.672  1.00  0.00    -0.052 S 
ATOM     14  C   UNL A   1      33.212  22.455  25.848  1.00  0.00     0.030 C 
BRANCH  14  15
ATOM     15  C   UNL A   1      34.314  21.502  25.590  1.00  0.00    -0.009 A 
ATOM     16  C   UNL A   1      35.659  21.975  25.693  1.00  0.00    -0.010 A 
ATOM     17  C   UNL A   1      34.019  20.179  25.149  1.00  0.00    -0.010 A 
ATOM     18  C   UNL A   1      36.016  23.271  26.150  1.00  0.00     0.009 A 
ATOM     19  C   UNL A   1      36.706  21.112  25.306  1.00  0.00    -0.017 A 
ATOM     20  C   UNL A   1      35.092  19.343  24.770  1.00  0.00    -0.017 A 
ATOM     21  C   UNL A   1      32.708  19.648  25.049  1.00  0.00     0.009 A 
ATOM     22  C   UNL A   1      37.345  23.696  26.204  1.00  0.00     0.001 A 
ATOM     23  C   UNL A   1      38.039  21.553  25.362  1.00  0.00     0.009 A 
ATOM     24  C   UNL A   1      36.409  19.820  24.852  1.00  0.00     0.017 A 
ATOM     25  C   UNL A   1      34.839  18.044  24.297  1.00  0.00     0.009 A 
ATOM     26  C   UNL A   1      32.470  18.357  24.576  1.00  0.00     0.001 A 
ATOM     27  C   UNL A   1      38.357  22.837  25.804  1.00  0.00     0.001 A 
ATOM     28  C   UNL A   1      33.537  17.555  24.196  1.00  0.00     0.001 A 
ENDBRANCH  14  15
ENDBRANCH   6   7
ENDBRANCH   5   6
ENDBRANCH   3   5
ENDBRANCH   2   3
ENDBRANCH   1   2
BRANCH   1  29
ATOM     29  C   UNL A   1      33.104  30.940  26.929  1.00  0.00     0.275 C 
BRANCH  29  30
ATOM     30  O   UNL A   1      33.957  30.188  27.807  1.00  0.00    -0.458 OA
BRANCH  30  31
ATOM     31  C   UNL A   1      34.784  30.939  28.581  1.00  0.00     0.338 C 
ATOM     32  O   UNL A   1      34.483  31.906  29.249  1.00  0.00    -0.246 OA
BRANCH  31  33
ATOM     33  C   UNL A   1      36.109  30.287  28.631  1.00  0.00     0.060 A 
ATOM     34  C   UNL A   1      36.497  29.683  29.833  1.00  0.00     0.016 A 
ATOM     35  C   UNL A   1      36.960  30.268  27.522  1.00  0.00     0.016 A 
ATOM     36  C   UNL A   1      37.753  29.088  29.940  1.00  0.00     0.010 A 
ATOM     37  C   UNL A   1      38.219  29.675  27.632  1.00  0.00     0.010 A 
ATOM     38  C   UNL A   1      38.632  29.108  28.849  1.00  0.00    -0.014 A 
BRANCH  38  39
ATOM     39  C   UNL A   1      40.035  28.663  29.017  1.00  0.00     0.031 A 
ATOM     40  C   UNL A   1      41.034  29.624  29.596  1.00  0.00     0.074 A 
ATOM     41  C   UNL A   1      40.414  27.427  28.651  1.00  0.00     0.049 A 
ATOM     42  N   UNL A   1      42.317  29.468  29.796  1.00  0.00    -0.248 NA
ATOM     43  C   UNL A   1      40.518  30.943  29.999  1.00  0.00     0.031 C 
ATOM     44  C   UNL A   1      39.535  26.401  28.094  1.00  0.00     0.029 A 
ATOM     45  N   UNL A   1      41.650  26.830  28.684  1.00  0.00    -0.354 N 
ATOM     46  C   UNL A   1      42.760  30.661  30.350  1.00  0.00     0.074 A 
ATOM     47  C   UNL A   1      41.618  31.547  30.422  1.00  0.00     0.031 C 
ATOM     48  C   UNL A   1      40.264  25.303  27.824  1.00  0.00     0.029 A 
ATOM     49  C   UNL A   1      41.662  25.559  28.167  1.00  0.00     0.049 A 
ATOM     50  H   UNL A   1      42.452  27.273  29.047  1.00  0.00     0.167 HD
ATOM     51  C   UNL A   1      44.004  30.986  30.772  1.00  0.00     0.037 A 
ATOM     52  C   UNL A   1      42.689  24.709  27.978  1.00  0.00     0.037 A 
ATOM     53  C   UNL A   1      45.141  30.107  30.696  1.00  0.00     0.049 A 
ATOM     54  C   UNL A   1      44.077  25.120  28.396  1.00  0.00     0.074 A 
ATOM     55  C   UNL A   1      46.438  30.337  31.121  1.00  0.00     0.029 A 
ATOM     56  N   UNL A   1      45.116  28.833  30.151  1.00  0.00    -0.354 N 
ATOM     57  N   UNL A   1      44.476  26.233  28.963  1.00  0.00    -0.248 NA
ATOM     58  C   UNL A   1      45.158  24.152  28.152  1.00  0.00     0.031 C 
ATOM     59  C   UNL A   1      47.209  29.219  30.792  1.00  0.00     0.029 A 
ATOM     60  C   UNL A   1      46.382  28.274  30.205  1.00  0.00     0.049 A 
ATOM     61  H   UNL A   1      44.318  28.391  29.781  1.00  0.00     0.167 HD
ATOM     62  C   UNL A   1      45.843  26.086  29.172  1.00  0.00     0.074 A 
ATOM     63  C   UNL A   1      46.202  24.774  28.680  1.00  0.00     0.031 C 
ATOM     64  C   UNL A   1      46.720  26.960  29.722  1.00  0.00     0.037 A 
BRANCH  51  65
ATOM     65  C   UNL A   1      44.205  32.358  31.341  1.00  0.00     0.057 A 
ATOM     66  C   UNL A   1      44.579  33.442  30.536  1.00  0.00     0.134 A 
ATOM     67  C   UNL A   1      43.983  32.608  32.701  1.00  0.00     0.134 A 
ATOM     68  F   UNL A   1      44.821  33.266  29.228  1.00  0.00    -0.206 F 
ATOM     69  C   UNL A   1      44.740  34.723  31.066  1.00  0.00     0.040 A 
ATOM     70  C   UNL A   1      44.119  33.889  33.239  1.00  0.00     0.040 A 
ATOM     71  F   UNL A   1      43.621  31.613  33.525  1.00  0.00    -0.206 F 
ATOM     72  C   UNL A   1      44.502  34.950  32.421  1.00  0.00     0.006 A 
ENDBRANCH  51  65
BRANCH  52  73
ATOM     73  C   UNL A   1      42.458  23.381  27.352  1.00  0.00     0.057 A 
ATOM     74  C   UNL A   1      42.113  22.266  28.123  1.00  0.00     0.134 A 
ATOM     75  C   UNL A   1      42.621  23.188  25.975  1.00  0.00     0.134 A 
ATOM     76  F   UNL A   1      41.968  22.382  29.452  1.00  0.00    -0.206 F 
ATOM     77  C   UNL A   1      41.962  21.001  27.553  1.00  0.00     0.040 A 
ATOM     78  C   UNL A   1      42.448  21.934  25.387  1.00  0.00     0.040 A 
ATOM     79  F   UNL A   1      42.950  24.217  25.180  1.00  0.00    -0.206 F 
ATOM     80  C   UNL A   1      42.127  20.834  26.179  1.00  0.00     0.006 A 
ENDBRANCH  52  73
BRANCH  64  81
ATOM     81  C   UNL A   1      48.146  26.512  29.859  1.00  0.00     0.057 A 
ATOM     82  C   UNL A   1      49.104  26.776  28.871  1.00  0.00     0.134 A 
ATOM     83  C   UNL A   1      48.576  25.849  31.017  1.00  0.00     0.134 A 
ATOM     84  F   UNL A   1      48.754  27.397  27.735  1.00  0.00    -0.206 F 
ATOM     85  C   UNL A   1      50.433  26.377  29.020  1.00  0.00     0.040 A 
ATOM     86  C   UNL A   1      49.907  25.469  31.187  1.00  0.00     0.040 A 
ATOM     87  F   UNL A   1      47.712  25.574  32.005  1.00  0.00    -0.206 F 
ATOM     88  C   UNL A   1      50.839  25.728  30.185  1.00  0.00     0.006 A 
ENDBRANCH  64  81
ENDBRANCH  38  39
ENDBRANCH  31  33
ENDBRANCH  30  31
ENDBRANCH  29  30
ENDBRANCH   1  29
TORSDOF 14
ENDMDL
