MODEL 1
REMARK VINA RESULT:     -12.3      0.000      0.000
REMARK SMILES O=C(Nc1c(F)cc(F)cc1F)N[C@H]1C=C[C@H](C(=O)OCCOC(=O)c2ccc(-c3c4nc(c(-c5c(F)cccc5F)c5ccc([nH]5)c(-c5c(F)cccc5F)c5nc(c(-c6c(F)cccc6F)c6ccc3[nH]6)C=C5)C=C4)cc2)C1
REMARK SMILES IDX 21 1 20 2 18 3 19 4 17 5 14 6 15 7 80 8 16 9 13 10 1 11 2 12
REMARK SMILES IDX 3 13 4 16 5 17 11 18 6 19 7 20 10 21 12 22 8 23 9 24 22 25
REMARK SMILES IDX 23 26 24 27 25 28 26 29 27 30 79 31 28 32 78 33 29 34 30 35
REMARK SMILES IDX 31 36 72 37 32 38 77 39 71 40 73 41 33 42 76 43 70 44 69 45
REMARK SMILES IDX 34 47 60 48 43 49 59 50 44 51 47 52 58 53 74 54 45 55 46 56
REMARK SMILES IDX 57 58 75 59 48 60 35 61 36 62 41 63 37 64 38 65 40 66 42 67
REMARK SMILES IDX 39 68 61 69 62 70 67 71 63 72 64 73 66 74 68 75 65 76 49 77
REMARK SMILES IDX 50 78 55 79 51 80 52 81 54 82 56 83 53 84
REMARK H PARENT 3 14 13 15 73 46 47 57
REMARK Flexibility Score: inf
ROOT
ATOM      1  C   UNL A   1      44.484  21.318  25.272  1.00  0.00     0.274 C 
ENDROOT
BRANCH   1   2
ATOM      2  O   UNL A   1      43.327  21.120  26.106  1.00  0.00    -0.462 OA
BRANCH   2   3
ATOM      3  C   UNL A   1      42.561  20.031  25.813  1.00  0.00     0.312 C 
ATOM      4  O   UNL A   1      42.866  19.161  25.007  1.00  0.00    -0.252 OA
BRANCH   3   5
ATOM      5  C   UNL A   1      41.322  19.991  26.701  1.00  0.00     0.124 C 
ATOM      6  C   UNL A   1      39.752  21.789  26.164  1.00  0.00     0.107 C 
ATOM      7  C   UNL A   1      40.436  22.028  27.470  1.00  0.00    -0.006 C 
ATOM      8  C   UNL A   1      40.042  20.305  25.911  1.00  0.00     0.048 C 
ATOM      9  C   UNL A   1      41.309  21.056  27.756  1.00  0.00    -0.014 C 
BRANCH   6  10
ATOM     10  N   UNL A   1      38.338  22.014  26.314  1.00  0.00    -0.332 N 
ATOM     11  O   UNL A   1      38.425  24.276  26.183  1.00  0.00    -0.248 OA
ATOM     12  C   UNL A   1      37.770  23.236  26.231  1.00  0.00     0.319 C 
ATOM     13  N   UNL A   1      36.423  23.319  26.071  1.00  0.00    -0.303 N 
ATOM     14  H   UNL A   1      36.108  24.245  25.957  1.00  0.00     0.172 HD
ATOM     15  H   UNL A   1      37.758  21.238  26.485  1.00  0.00     0.165 HD
BRANCH  13  16
ATOM     16  C   UNL A   1      35.374  22.377  26.033  1.00  0.00     0.115 A 
ATOM     17  C   UNL A   1      34.430  22.136  27.036  1.00  0.00     0.152 A 
ATOM     18  C   UNL A   1      35.269  21.615  24.860  1.00  0.00     0.152 A 
ATOM     19  F   UNL A   1      34.396  22.875  28.153  1.00  0.00    -0.204 F 
ATOM     20  C   UNL A   1      33.456  21.149  26.899  1.00  0.00     0.081 A 
ATOM     21  C   UNL A   1      34.313  20.616  24.707  1.00  0.00     0.081 A 
ATOM     22  F   UNL A   1      36.138  21.826  23.858  1.00  0.00    -0.204 F 
ATOM     23  C   UNL A   1      33.416  20.390  25.739  1.00  0.00     0.129 A 
ATOM     24  F   UNL A   1      32.490  19.431  25.612  1.00  0.00    -0.207 F 
ENDBRANCH  13  16
ENDBRANCH   6  10
ENDBRANCH   3   5
ENDBRANCH   2   3
ENDBRANCH   1   2
BRANCH   1  25
ATOM     25  C   UNL A   1      44.216  22.381  24.200  1.00  0.00     0.275 C 
BRANCH  25  26
ATOM     26  O   UNL A   1      43.491  23.511  24.726  1.00  0.00    -0.458 OA
BRANCH  26  27
ATOM     27  C   UNL A   1      44.259  24.558  25.114  1.00  0.00     0.338 C 
ATOM     28  O   UNL A   1      45.318  24.913  24.622  1.00  0.00    -0.246 OA
BRANCH  27  29
ATOM     29  C   UNL A   1      43.574  25.340  26.160  1.00  0.00     0.060 A 
ATOM     30  C   UNL A   1      44.029  26.641  26.397  1.00  0.00     0.016 A 
ATOM     31  C   UNL A   1      42.549  24.800  26.942  1.00  0.00     0.016 A 
ATOM     32  C   UNL A   1      43.460  27.412  27.407  1.00  0.00     0.010 A 
ATOM     33  C   UNL A   1      41.990  25.568  27.970  1.00  0.00     0.010 A 
ATOM     34  C   UNL A   1      42.449  26.875  28.212  1.00  0.00    -0.014 A 
BRANCH  34  35
ATOM     35  C   UNL A   1      41.930  27.672  29.346  1.00  0.00     0.031 A 
ATOM     36  C   UNL A   1      42.622  27.611  30.676  1.00  0.00     0.074 A 
ATOM     37  C   UNL A   1      40.876  28.487  29.168  1.00  0.00     0.049 A 
ATOM     38  N   UNL A   1      42.326  28.228  31.791  1.00  0.00    -0.248 NA
ATOM     39  C   UNL A   1      43.809  26.747  30.758  1.00  0.00     0.031 C 
ATOM     40  C   UNL A   1      40.152  28.668  27.909  1.00  0.00     0.029 A 
ATOM     41  N   UNL A   1      40.233  29.318  30.049  1.00  0.00    -0.354 N 
ATOM     42  C   UNL A   1      43.290  27.831  32.708  1.00  0.00     0.074 A 
ATOM     43  C   UNL A   1      44.166  26.901  32.026  1.00  0.00     0.031 C 
ATOM     44  C   UNL A   1      39.158  29.550  28.103  1.00  0.00     0.029 A 
ATOM     45  C   UNL A   1      39.158  29.973  29.501  1.00  0.00     0.049 A 
ATOM     46  H   UNL A   1      40.516  29.434  30.985  1.00  0.00     0.167 HD
ATOM     47  C   UNL A   1      43.433  28.209  34.000  1.00  0.00     0.037 A 
ATOM     48  C   UNL A   1      38.264  30.803  30.071  1.00  0.00     0.037 A 
ATOM     49  C   UNL A   1      42.555  29.125  34.682  1.00  0.00     0.049 A 
ATOM     50  C   UNL A   1      38.401  31.150  31.528  1.00  0.00     0.074 A 
ATOM     51  C   UNL A   1      42.616  29.564  35.993  1.00  0.00     0.029 A 
ATOM     52  N   UNL A   1      41.453  29.736  34.106  1.00  0.00    -0.354 N 
ATOM     53  N   UNL A   1      39.319  30.773  32.385  1.00  0.00    -0.248 NA
ATOM     54  C   UNL A   1      37.376  32.037  32.097  1.00  0.00     0.031 C 
ATOM     55  C   UNL A   1      41.528  30.413  36.220  1.00  0.00     0.029 A 
ATOM     56  C   UNL A   1      40.812  30.533  35.040  1.00  0.00     0.049 A 
ATOM     57  H   UNL A   1      41.166  29.620  33.171  1.00  0.00     0.167 HD
ATOM     58  C   UNL A   1      38.996  31.392  33.586  1.00  0.00     0.074 A 
ATOM     59  C   UNL A   1      37.804  32.178  33.345  1.00  0.00     0.031 C 
ATOM     60  C   UNL A   1      39.629  31.313  34.782  1.00  0.00     0.037 A 
BRANCH  47  61
ATOM     61  C   UNL A   1      44.572  27.610  34.767  1.00  0.00     0.057 A 
ATOM     62  C   UNL A   1      44.472  26.349  35.369  1.00  0.00     0.134 A 
ATOM     63  C   UNL A   1      45.789  28.292  34.887  1.00  0.00     0.134 A 
ATOM     64  F   UNL A   1      43.327  25.653  35.304  1.00  0.00    -0.206 F 
ATOM     65  C   UNL A   1      45.539  25.796  36.080  1.00  0.00     0.040 A 
ATOM     66  C   UNL A   1      46.868  27.740  35.577  1.00  0.00     0.040 A 
ATOM     67  F   UNL A   1      45.949  29.502  34.331  1.00  0.00    -0.206 F 
ATOM     68  C   UNL A   1      46.743  26.489  36.181  1.00  0.00     0.006 A 
ENDBRANCH  47  61
BRANCH  48  69
ATOM     69  C   UNL A   1      37.145  31.349  29.266  1.00  0.00     0.057 A 
ATOM     70  C   UNL A   1      37.183  32.653  28.758  1.00  0.00     0.134 A 
ATOM     71  C   UNL A   1      36.005  30.582  28.999  1.00  0.00     0.134 A 
ATOM     72  F   UNL A   1      38.238  33.442  29.003  1.00  0.00    -0.206 F 
ATOM     73  C   UNL A   1      36.120  33.179  28.023  1.00  0.00     0.040 A 
ATOM     74  C   UNL A   1      34.945  31.088  28.246  1.00  0.00     0.040 A 
ATOM     75  F   UNL A   1      35.909  29.328  29.461  1.00  0.00    -0.206 F 
ATOM     76  C   UNL A   1      34.999  32.393  27.760  1.00  0.00     0.006 A 
ENDBRANCH  48  69
BRANCH  60  77
ATOM     77  C   UNL A   1      39.061  32.120  35.912  1.00  0.00     0.057 A 
ATOM     78  C   UNL A   1      38.194  31.556  36.856  1.00  0.00     0.134 A 
ATOM     79  C   UNL A   1      39.413  33.465  36.075  1.00  0.00     0.134 A 
ATOM     80  F   UNL A   1      37.808  30.276  36.747  1.00  0.00    -0.206 F 
ATOM     81  C   UNL A   1      37.684  32.308  37.916  1.00  0.00     0.040 A 
ATOM     82  C   UNL A   1      38.927  34.221  37.143  1.00  0.00     0.040 A 
ATOM     83  F   UNL A   1      40.245  34.062  35.209  1.00  0.00    -0.206 F 
ATOM     84  C   UNL A   1      38.055  33.644  38.063  1.00  0.00     0.006 A 
ENDBRANCH  60  77
ENDBRANCH  34  35
ENDBRANCH  27  29
ENDBRANCH  26  27
ENDBRANCH  25  26
ENDBRANCH   1  25
TORSDOF 13
ENDMDL
MODEL 2
REMARK VINA RESULT:     -11.7      5.339     10.908
REMARK SMILES O=C(Nc1c(F)cc(F)cc1F)N[C@H]1C=C[C@H](C(=O)OCCOC(=O)c2ccc(-c3c4nc(c(-c5c(F)cccc5F)c5ccc([nH]5)c(-c5c(F)cccc5F)c5nc(c(-c6c(F)cccc6F)c6ccc3[nH]6)C=C5)C=C4)cc2)C1
REMARK SMILES IDX 21 1 20 2 18 3 19 4 17 5 14 6 15 7 80 8 16 9 13 10 1 11 2 12
REMARK SMILES IDX 3 13 4 16 5 17 11 18 6 19 7 20 10 21 12 22 8 23 9 24 22 25
REMARK SMILES IDX 23 26 24 27 25 28 26 29 27 30 79 31 28 32 78 33 29 34 30 35
REMARK SMILES IDX 31 36 72 37 32 38 77 39 71 40 73 41 33 42 76 43 70 44 69 45
REMARK SMILES IDX 34 47 60 48 43 49 59 50 44 51 47 52 58 53 74 54 45 55 46 56
REMARK SMILES IDX 57 58 75 59 48 60 35 61 36 62 41 63 37 64 38 65 40 66 42 67
REMARK SMILES IDX 39 68 61 69 62 70 67 71 63 72 64 73 66 74 68 75 65 76 49 77
REMARK SMILES IDX 50 78 55 79 51 80 52 81 54 82 56 83 53 84
REMARK H PARENT 3 14 13 15 73 46 47 57
REMARK Flexibility Score: inf
ROOT
ATOM      1  C   UNL A   1      34.411  34.551  31.875  1.00  0.00     0.274 C 
ENDROOT
BRANCH   1   2
ATOM      2  O   UNL A   1      34.740  34.528  30.474  1.00  0.00    -0.462 OA
BRANCH   2   3
ATOM      3  C   UNL A   1      33.684  34.583  29.613  1.00  0.00     0.312 C 
ATOM      4  O   UNL A   1      32.572  35.008  29.900  1.00  0.00    -0.252 OA
BRANCH   3   5
ATOM      5  C   UNL A   1      34.105  34.139  28.217  1.00  0.00     0.124 C 
ATOM      6  C   UNL A   1      34.083  31.702  27.985  1.00  0.00     0.107 C 
ATOM      7  C   UNL A   1      35.476  32.239  28.017  1.00  0.00    -0.006 C 
ATOM      8  C   UNL A   1      33.254  32.963  27.710  1.00  0.00     0.048 C 
ATOM      9  C   UNL A   1      35.491  33.569  28.164  1.00  0.00    -0.014 C 
BRANCH   6  10
ATOM     10  N   UNL A   1      33.955  30.762  26.903  1.00  0.00    -0.332 N 
ATOM     11  O   UNL A   1      35.191  29.114  27.851  1.00  0.00    -0.248 OA
ATOM     12  C   UNL A   1      34.451  29.507  26.951  1.00  0.00     0.319 C 
ATOM     13  N   UNL A   1      34.020  28.601  26.034  1.00  0.00    -0.303 N 
ATOM     14  H   UNL A   1      34.386  27.700  26.187  1.00  0.00     0.172 HD
ATOM     15  H   UNL A   1      33.483  31.049  26.089  1.00  0.00     0.165 HD
BRANCH  13  16
ATOM     16  C   UNL A   1      33.166  28.661  24.913  1.00  0.00     0.115 A 
ATOM     17  C   UNL A   1      33.553  28.744  23.572  1.00  0.00     0.152 A 
ATOM     18  C   UNL A   1      31.789  28.625  25.180  1.00  0.00     0.152 A 
ATOM     19  F   UNL A   1      34.843  28.694  23.213  1.00  0.00    -0.204 F 
ATOM     20  C   UNL A   1      32.614  28.834  22.546  1.00  0.00     0.081 A 
ATOM     21  C   UNL A   1      30.835  28.727  24.173  1.00  0.00     0.081 A 
ATOM     22  F   UNL A   1      31.369  28.523  26.451  1.00  0.00    -0.204 F 
ATOM     23  C   UNL A   1      31.263  28.838  22.859  1.00  0.00     0.129 A 
ATOM     24  F   UNL A   1      30.359  28.939  21.877  1.00  0.00    -0.207 F 
ENDBRANCH  13  16
ENDBRANCH   6  10
ENDBRANCH   3   5
ENDBRANCH   2   3
ENDBRANCH   1   2
BRANCH   1  25
ATOM     25  C   UNL A   1      34.297  33.129  32.438  1.00  0.00     0.275 C 
BRANCH  25  26
ATOM     26  O   UNL A   1      35.375  32.281  31.994  1.00  0.00    -0.458 OA
BRANCH  26  27
ATOM     27  C   UNL A   1      36.381  32.115  32.886  1.00  0.00     0.338 C 
ATOM     28  O   UNL A   1      36.300  32.167  34.102  1.00  0.00    -0.246 OA
BRANCH  27  29
ATOM     29  C   UNL A   1      37.620  31.709  32.195  1.00  0.00     0.060 A 
ATOM     30  C   UNL A   1      37.661  31.849  30.804  1.00  0.00     0.016 A 
ATOM     31  C   UNL A   1      38.700  31.142  32.877  1.00  0.00     0.016 A 
ATOM     32  C   UNL A   1      38.780  31.435  30.088  1.00  0.00     0.010 A 
ATOM     33  C   UNL A   1      39.818  30.708  32.156  1.00  0.00     0.010 A 
ATOM     34  C   UNL A   1      39.859  30.845  30.756  1.00  0.00    -0.014 A 
BRANCH  34  35
ATOM     35  C   UNL A   1      40.994  30.317  29.968  1.00  0.00     0.031 A 
ATOM     36  C   UNL A   1      42.174  31.198  29.678  1.00  0.00     0.074 A 
ATOM     37  C   UNL A   1      40.991  29.035  29.560  1.00  0.00     0.049 A 
ATOM     38  N   UNL A   1      43.263  30.928  29.006  1.00  0.00    -0.248 NA
ATOM     39  C   UNL A   1      42.121  32.563  30.224  1.00  0.00     0.031 C 
ATOM     40  C   UNL A   1      39.925  28.069  29.823  1.00  0.00     0.029 A 
ATOM     41  N   UNL A   1      41.918  28.327  28.839  1.00  0.00    -0.354 N 
ATOM     42  C   UNL A   1      44.030  32.085  29.050  1.00  0.00     0.074 A 
ATOM     43  C   UNL A   1      43.270  33.068  29.794  1.00  0.00     0.031 C 
ATOM     44  C   UNL A   1      40.255  26.894  29.264  1.00  0.00     0.029 A 
ATOM     45  C   UNL A   1      41.540  27.033  28.581  1.00  0.00     0.049 A 
ATOM     46  H   UNL A   1      42.773  28.710  28.536  1.00  0.00     0.167 HD
ATOM     47  C   UNL A   1      45.256  32.306  28.521  1.00  0.00     0.037 A 
ATOM     48  C   UNL A   1      42.152  26.077  27.857  1.00  0.00     0.037 A 
ATOM     49  C   UNL A   1      46.007  31.333  27.772  1.00  0.00     0.049 A 
ATOM     50  C   UNL A   1      43.480  26.371  27.216  1.00  0.00     0.074 A 
ATOM     51  C   UNL A   1      47.255  31.467  27.190  1.00  0.00     0.029 A 
ATOM     52  N   UNL A   1      45.573  30.046  27.495  1.00  0.00    -0.354 N 
ATOM     53  N   UNL A   1      44.198  27.467  27.268  1.00  0.00    -0.248 NA
ATOM     54  C   UNL A   1      44.083  25.296  26.415  1.00  0.00     0.031 C 
ATOM     55  C   UNL A   1      47.561  30.272  26.530  1.00  0.00     0.029 A 
ATOM     56  C   UNL A   1      46.520  29.381  26.734  1.00  0.00     0.049 A 
ATOM     57  H   UNL A   1      44.717  29.661  27.794  1.00  0.00     0.167 HD
ATOM     58  C   UNL A   1      45.344  27.208  26.527  1.00  0.00     0.074 A 
ATOM     59  C   UNL A   1      45.231  25.846  26.044  1.00  0.00     0.031 C 
ATOM     60  C   UNL A   1      46.394  28.024  26.266  1.00  0.00     0.037 A 
BRANCH  47  61
ATOM     61  C   UNL A   1      45.850  33.668  28.716  1.00  0.00     0.057 A 
ATOM     62  C   UNL A   1      45.569  34.727  27.844  1.00  0.00     0.134 A 
ATOM     63  C   UNL A   1      46.697  33.928  29.801  1.00  0.00     0.134 A 
ATOM     64  F   UNL A   1      44.778  34.537  26.777  1.00  0.00    -0.206 F 
ATOM     65  C   UNL A   1      46.125  35.994  28.033  1.00  0.00     0.040 A 
ATOM     66  C   UNL A   1      47.241  35.195  30.012  1.00  0.00     0.040 A 
ATOM     67  F   UNL A   1      47.003  32.957  30.673  1.00  0.00    -0.206 F 
ATOM     68  C   UNL A   1      46.959  36.232  29.123  1.00  0.00     0.006 A 
ENDBRANCH  47  61
BRANCH  48  69
ATOM     69  C   UNL A   1      41.505  24.755  27.682  1.00  0.00     0.057 A 
ATOM     70  C   UNL A   1      40.471  24.567  26.758  1.00  0.00     0.134 A 
ATOM     71  C   UNL A   1      41.897  23.650  28.448  1.00  0.00     0.134 A 
ATOM     72  F   UNL A   1      40.036  25.594  26.013  1.00  0.00    -0.206 F 
ATOM     73  C   UNL A   1      39.842  23.330  26.609  1.00  0.00     0.040 A 
ATOM     74  C   UNL A   1      41.292  22.402  28.294  1.00  0.00     0.040 A 
ATOM     75  F   UNL A   1      42.879  23.768  29.352  1.00  0.00    -0.206 F 
ATOM     76  C   UNL A   1      40.256  22.242  27.375  1.00  0.00     0.006 A 
ENDBRANCH  48  69
BRANCH  60  77
ATOM     77  C   UNL A   1      47.515  27.458  25.447  1.00  0.00     0.057 A 
ATOM     78  C   UNL A   1      47.543  27.579  24.052  1.00  0.00     0.134 A 
ATOM     79  C   UNL A   1      48.596  26.816  26.064  1.00  0.00     0.134 A 
ATOM     80  F   UNL A   1      46.530  28.172  23.401  1.00  0.00    -0.206 F 
ATOM     81  C   UNL A   1      48.599  27.066  23.297  1.00  0.00     0.040 A 
ATOM     82  C   UNL A   1      49.668  26.318  25.322  1.00  0.00     0.040 A 
ATOM     83  F   UNL A   1      48.633  26.674  27.397  1.00  0.00    -0.206 F 
ATOM     84  C   UNL A   1      49.668  26.438  23.934  1.00  0.00     0.006 A 
ENDBRANCH  60  77
ENDBRANCH  34  35
ENDBRANCH  27  29
ENDBRANCH  26  27
ENDBRANCH  25  26
ENDBRANCH   1  25
TORSDOF 13
ENDMDL
MODEL 3
REMARK VINA RESULT:     -11.6      0.464      6.140
REMARK SMILES O=C(Nc1c(F)cc(F)cc1F)N[C@H]1C=C[C@H](C(=O)OCCOC(=O)c2ccc(-c3c4nc(c(-c5c(F)cccc5F)c5ccc([nH]5)c(-c5c(F)cccc5F)c5nc(c(-c6c(F)cccc6F)c6ccc3[nH]6)C=C5)C=C4)cc2)C1
REMARK SMILES IDX 21 1 20 2 18 3 19 4 17 5 14 6 15 7 80 8 16 9 13 10 1 11 2 12
REMARK SMILES IDX 3 13 4 16 5 17 11 18 6 19 7 20 10 21 12 22 8 23 9 24 22 25
REMARK SMILES IDX 23 26 24 27 25 28 26 29 27 30 79 31 28 32 78 33 29 34 30 35
REMARK SMILES IDX 31 36 72 37 32 38 77 39 71 40 73 41 33 42 76 43 70 44 69 45
REMARK SMILES IDX 34 47 60 48 43 49 59 50 44 51 47 52 58 53 74 54 45 55 46 56
REMARK SMILES IDX 57 58 75 59 48 60 35 61 36 62 41 63 37 64 38 65 40 66 42 67
REMARK SMILES IDX 39 68 61 69 62 70 67 71 63 72 64 73 66 74 68 75 65 76 49 77
REMARK SMILES IDX 50 78 55 79 51 80 52 81 54 82 56 83 53 84
REMARK H PARENT 3 14 13 15 73 46 47 57
REMARK Flexibility Score: inf
ROOT
ATOM      1  C   UNL A   1      44.273  21.122  25.073  1.00  0.00     0.274 C 
ENDROOT
BRANCH   1   2
ATOM      2  O   UNL A   1      43.273  20.909  26.086  1.00  0.00    -0.462 OA
BRANCH   2   3
ATOM      3  C   UNL A   1      42.422  19.865  25.874  1.00  0.00     0.312 C 
ATOM      4  O   UNL A   1      42.644  18.928  25.118  1.00  0.00    -0.252 OA
BRANCH   3   5
ATOM      5  C   UNL A   1      41.202  19.972  26.783  1.00  0.00     0.124 C 
ATOM      6  C   UNL A   1      39.685  21.756  26.072  1.00  0.00     0.107 C 
ATOM      7  C   UNL A   1      40.406  22.115  27.331  1.00  0.00    -0.006 C 
ATOM      8  C   UNL A   1      39.917  20.243  25.985  1.00  0.00     0.048 C 
ATOM      9  C   UNL A   1      41.250  21.149  27.710  1.00  0.00    -0.014 C 
BRANCH   6  10
ATOM     10  N   UNL A   1      38.284  22.049  26.221  1.00  0.00    -0.332 N 
ATOM     11  O   UNL A   1      38.489  24.307  26.154  1.00  0.00    -0.248 OA
ATOM     12  C   UNL A   1      37.780  23.301  26.169  1.00  0.00     0.319 C 
ATOM     13  N   UNL A   1      36.441  23.458  26.004  1.00  0.00    -0.303 N 
ATOM     14  H   UNL A   1      36.175  24.402  25.914  1.00  0.00     0.172 HD
ATOM     15  H   UNL A   1      37.663  21.300  26.367  1.00  0.00     0.165 HD
BRANCH  13  16
ATOM     16  C   UNL A   1      35.344  22.573  25.933  1.00  0.00     0.115 A 
ATOM     17  C   UNL A   1      34.423  22.302  26.949  1.00  0.00     0.152 A 
ATOM     18  C   UNL A   1      35.163  21.908  24.711  1.00  0.00     0.152 A 
ATOM     19  F   UNL A   1      34.462  22.954  28.119  1.00  0.00    -0.204 F 
ATOM     20  C   UNL A   1      33.397  21.375  26.774  1.00  0.00     0.081 A 
ATOM     21  C   UNL A   1      34.153  20.971  24.520  1.00  0.00     0.081 A 
ATOM     22  F   UNL A   1      36.009  22.153  23.697  1.00  0.00    -0.204 F 
ATOM     23  C   UNL A   1      33.280  20.710  25.564  1.00  0.00     0.129 A 
ATOM     24  F   UNL A   1      32.303  19.809  25.398  1.00  0.00    -0.207 F 
ENDBRANCH  13  16
ENDBRANCH   6  10
ENDBRANCH   3   5
ENDBRANCH   2   3
ENDBRANCH   1   2
BRANCH   1  25
ATOM     25  C   UNL A   1      44.845  22.541  25.152  1.00  0.00     0.275 C 
BRANCH  25  26
ATOM     26  O   UNL A   1      43.829  23.522  25.440  1.00  0.00    -0.458 OA
BRANCH  26  27
ATOM     27  C   UNL A   1      44.253  24.809  25.438  1.00  0.00     0.338 C 
ATOM     28  O   UNL A   1      44.984  25.339  24.618  1.00  0.00    -0.246 OA
BRANCH  27  29
ATOM     29  C   UNL A   1      43.591  25.571  26.514  1.00  0.00     0.060 A 
ATOM     30  C   UNL A   1      44.012  26.888  26.727  1.00  0.00     0.016 A 
ATOM     31  C   UNL A   1      42.624  24.999  27.345  1.00  0.00     0.016 A 
ATOM     32  C   UNL A   1      43.466  27.643  27.761  1.00  0.00     0.010 A 
ATOM     33  C   UNL A   1      42.088  25.751  28.397  1.00  0.00     0.010 A 
ATOM     34  C   UNL A   1      42.513  27.074  28.614  1.00  0.00    -0.014 A 
BRANCH  34  35
ATOM     35  C   UNL A   1      42.021  27.856  29.770  1.00  0.00     0.031 A 
ATOM     36  C   UNL A   1      40.797  28.713  29.622  1.00  0.00     0.074 A 
ATOM     37  C   UNL A   1      42.637  27.757  30.961  1.00  0.00     0.049 A 
ATOM     38  N   UNL A   1      40.208  29.473  30.508  1.00  0.00    -0.248 NA
ATOM     39  C   UNL A   1      40.148  28.705  28.303  1.00  0.00     0.031 C 
ATOM     40  C   UNL A   1      43.804  26.920  31.239  1.00  0.00     0.029 A 
ATOM     41  N   UNL A   1      42.364  28.364  32.159  1.00  0.00    -0.354 N 
ATOM     42  C   UNL A   1      39.116  30.033  29.858  1.00  0.00     0.074 A 
ATOM     43  C   UNL A   1      39.139  29.543  28.496  1.00  0.00     0.031 C 
ATOM     44  C   UNL A   1      44.152  27.073  32.527  1.00  0.00     0.029 A 
ATOM     45  C   UNL A   1      43.251  28.038  33.155  1.00  0.00     0.049 A 
ATOM     46  H   UNL A   1      41.604  28.976  32.293  1.00  0.00     0.167 HD
ATOM     47  C   UNL A   1      38.179  30.875  30.353  1.00  0.00     0.037 A 
ATOM     48  C   UNL A   1      43.338  28.485  34.421  1.00  0.00     0.037 A 
ATOM     49  C   UNL A   1      38.163  31.371  31.705  1.00  0.00     0.049 A 
ATOM     50  C   UNL A   1      42.329  29.479  34.926  1.00  0.00     0.074 A 
ATOM     51  C   UNL A   1      37.258  32.234  32.297  1.00  0.00     0.029 A 
ATOM     52  N   UNL A   1      39.103  31.051  32.672  1.00  0.00    -0.354 N 
ATOM     53  N   UNL A   1      41.297  29.998  34.304  1.00  0.00    -0.248 NA
ATOM     54  C   UNL A   1      42.496  29.950  36.308  1.00  0.00     0.031 C 
ATOM     55  C   UNL A   1      37.671  32.465  33.613  1.00  0.00     0.029 A 
ATOM     56  C   UNL A   1      38.811  31.716  33.852  1.00  0.00     0.049 A 
ATOM     57  H   UNL A   1      39.866  30.443  32.541  1.00  0.00     0.167 HD
ATOM     58  C   UNL A   1      40.682  30.838  35.223  1.00  0.00     0.074 A 
ATOM     59  C   UNL A   1      41.448  30.751  36.450  1.00  0.00     0.031 C 
ATOM     60  C   UNL A   1      39.582  31.614  35.065  1.00  0.00     0.037 A 
BRANCH  47  61
ATOM     61  C   UNL A   1      37.105  31.333  29.413  1.00  0.00     0.057 A 
ATOM     62  C   UNL A   1      36.014  30.517  29.088  1.00  0.00     0.134 A 
ATOM     63  C   UNL A   1      37.152  32.612  28.845  1.00  0.00     0.134 A 
ATOM     64  F   UNL A   1      35.921  29.275  29.587  1.00  0.00    -0.206 F 
ATOM     65  C   UNL A   1      35.016  30.952  28.214  1.00  0.00     0.040 A 
ATOM     66  C   UNL A   1      36.149  33.064  27.987  1.00  0.00     0.040 A 
ATOM     67  F   UNL A   1      38.169  33.441  29.119  1.00  0.00    -0.206 F 
ATOM     68  C   UNL A   1      35.079  32.231  27.665  1.00  0.00     0.006 A 
ENDBRANCH  47  61
BRANCH  48  69
ATOM     69  C   UNL A   1      44.436  28.012  35.298  1.00  0.00     0.057 A 
ATOM     70  C   UNL A   1      45.647  28.707  35.388  1.00  0.00     0.134 A 
ATOM     71  C   UNL A   1      44.303  26.842  36.057  1.00  0.00     0.134 A 
ATOM     72  F   UNL A   1      45.842  29.820  34.666  1.00  0.00    -0.206 F 
ATOM     73  C   UNL A   1      46.692  28.249  36.192  1.00  0.00     0.040 A 
ATOM     74  C   UNL A   1      45.331  26.386  36.882  1.00  0.00     0.040 A 
ATOM     75  F   UNL A   1      43.167  26.131  36.010  1.00  0.00    -0.206 F 
ATOM     76  C   UNL A   1      46.533  27.088  36.946  1.00  0.00     0.006 A 
ENDBRANCH  48  69
BRANCH  60  77
ATOM     77  C   UNL A   1      39.127  32.408  36.254  1.00  0.00     0.057 A 
ATOM     78  C   UNL A   1      38.234  31.879  37.194  1.00  0.00     0.134 A 
ATOM     79  C   UNL A   1      39.615  33.701  36.478  1.00  0.00     0.134 A 
ATOM     80  F   UNL A   1      37.720  30.651  37.028  1.00  0.00    -0.206 F 
ATOM     81  C   UNL A   1      37.829  32.616  38.308  1.00  0.00     0.040 A 
ATOM     82  C   UNL A   1      39.235  34.439  37.600  1.00  0.00     0.040 A 
ATOM     83  F   UNL A   1      40.479  34.261  35.619  1.00  0.00    -0.206 F 
ATOM     84  C   UNL A   1      38.335  33.898  38.515  1.00  0.00     0.006 A 
ENDBRANCH  60  77
ENDBRANCH  34  35
ENDBRANCH  27  29
ENDBRANCH  26  27
ENDBRANCH  25  26
ENDBRANCH   1  25
TORSDOF 13
ENDMDL
