MODEL 1
REMARK VINA RESULT:     -10.8      0.000      0.000
REMARK SMILES CCC[C@@]1(C(=O)OCCOC(=O)c2ccc(-c3c4nc(c(-c5c(F)cccc5F)c5ccc([nH]5)c(-c5c(F)cccc5F)c5nc(c(-c6c(F)cccc6F)c6ccc3[nH]6)C=C5)C=C4)cc2)CCCN(C(=O)CCn2cncn2)C1
REMARK SMILES IDX 8 1 7 2 5 3 6 4 4 5 67 6 80 7 68 8 70 9 69 10 3 11 2 12 1 13
REMARK SMILES IDX 71 14 72 15 73 16 74 17 75 18 76 19 79 20 77 21 78 22 9 23
REMARK SMILES IDX 10 24 11 25 12 26 13 27 14 28 66 29 15 30 65 31 16 32 17 33
REMARK SMILES IDX 18 34 59 35 19 36 64 37 58 38 60 39 20 40 63 41 57 42 56 43
REMARK SMILES IDX 21 45 47 46 30 47 46 48 31 49 34 50 45 51 61 52 32 53 33 54
REMARK SMILES IDX 44 56 62 57 35 58 22 59 23 60 28 61 24 62 25 63 27 64 29 65
REMARK SMILES IDX 26 66 48 67 49 68 54 69 50 70 51 71 53 72 55 73 52 74 36 75
REMARK SMILES IDX 37 76 42 77 38 78 39 79 41 80 43 81 40 82
REMARK H PARENT 60 44 34 55
REMARK Flexibility Score: inf
ROOT
ATOM      1  C   UNL A   1      33.186  29.083  24.588  1.00  0.00     0.274 C 
ENDROOT
BRANCH   1   2
ATOM      2  O   UNL A   1      33.507  27.747  25.034  1.00  0.00    -0.462 OA
BRANCH   2   3
ATOM      3  C   UNL A   1      33.602  26.836  24.030  1.00  0.00     0.314 C 
ATOM      4  O   UNL A   1      33.706  27.148  22.847  1.00  0.00    -0.252 OA
BRANCH   3   5
ATOM      5  C   UNL A   1      33.545  25.376  24.494  1.00  0.00     0.086 C 
ATOM      6  C   UNL A   1      33.535  24.340  23.346  1.00  0.00     0.022 C 
ATOM      7  C   UNL A   1      32.303  25.227  25.412  1.00  0.00     0.138 C 
ATOM      8  C   UNL A   1      32.165  24.076  22.726  1.00  0.00     0.023 C 
ATOM      9  N   UNL A   1      31.048  24.963  24.699  1.00  0.00    -0.341 N 
ATOM     10  C   UNL A   1      31.107  23.830  23.787  1.00  0.00     0.119 C 
BRANCH   5  11
ATOM     11  C   UNL A   1      34.827  25.137  25.373  1.00  0.00     0.020 C 
BRANCH  11  12
ATOM     12  C   UNL A   1      35.829  24.061  24.910  1.00  0.00    -0.002 C 
ATOM     13  C   UNL A   1      36.942  23.705  25.885  1.00  0.00     0.004 C 
ENDBRANCH  11  12
ENDBRANCH   5  11
BRANCH   9  14
ATOM     14  C   UNL A   1      29.892  25.617  25.092  1.00  0.00     0.224 C 
ATOM     15  O   UNL A   1      29.509  25.600  26.266  1.00  0.00    -0.275 OA
BRANCH  14  16
ATOM     16  C   UNL A   1      29.068  26.397  24.086  1.00  0.00     0.124 C 
BRANCH  16  17
ATOM     17  C   UNL A   1      29.892  27.470  23.382  1.00  0.00     0.156 C 
BRANCH  17  18
ATOM     18  N   UNL A   1      29.115  28.556  22.823  1.00  0.00    -0.252 N 
ATOM     19  C   UNL A   1      27.840  28.913  23.126  1.00  0.00     0.219 A 
ATOM     20  N   UNL A   1      29.611  29.331  21.838  1.00  0.00    -0.160 NA
ATOM     21  N   UNL A   1      27.491  29.954  22.403  1.00  0.00    -0.224 NA
ATOM     22  C   UNL A   1      28.593  30.170  21.627  1.00  0.00     0.246 A 
ENDBRANCH  17  18
ENDBRANCH  16  17
ENDBRANCH  14  16
ENDBRANCH   9  14
ENDBRANCH   3   5
ENDBRANCH   2   3
ENDBRANCH   1   2
BRANCH   1  23
ATOM     23  C   UNL A   1      32.016  29.698  25.355  1.00  0.00     0.275 C 
BRANCH  23  24
ATOM     24  O   UNL A   1      32.338  29.852  26.747  1.00  0.00    -0.458 OA
BRANCH  24  25
ATOM     25  C   UNL A   1      32.939  31.011  27.090  1.00  0.00     0.338 C 
ATOM     26  O   UNL A   1      32.455  32.135  26.976  1.00  0.00    -0.246 OA
BRANCH  25  27
ATOM     27  C   UNL A   1      34.298  30.773  27.628  1.00  0.00     0.060 A 
ATOM     28  C   UNL A   1      34.747  29.495  27.970  1.00  0.00     0.016 A 
ATOM     29  C   UNL A   1      35.100  31.880  27.909  1.00  0.00     0.016 A 
ATOM     30  C   UNL A   1      35.939  29.330  28.678  1.00  0.00     0.010 A 
ATOM     31  C   UNL A   1      36.337  31.706  28.530  1.00  0.00     0.010 A 
ATOM     32  C   UNL A   1      36.759  30.431  28.945  1.00  0.00    -0.014 A 
BRANCH  32  33
ATOM     33  C   UNL A   1      38.066  30.296  29.637  1.00  0.00     0.031 A 
ATOM     34  C   UNL A   1      39.143  29.435  29.039  1.00  0.00     0.074 A 
ATOM     35  C   UNL A   1      38.257  30.859  30.844  1.00  0.00     0.049 A 
ATOM     36  N   UNL A   1      40.172  28.874  29.619  1.00  0.00    -0.248 NA
ATOM     37  C   UNL A   1      39.035  29.158  27.597  1.00  0.00     0.031 C 
ATOM     38  C   UNL A   1      37.329  31.773  31.515  1.00  0.00     0.029 A 
ATOM     39  N   UNL A   1      39.285  30.710  31.745  1.00  0.00    -0.354 N 
ATOM     40  C   UNL A   1      40.798  28.123  28.632  1.00  0.00     0.074 A 
ATOM     41  C   UNL A   1      40.047  28.320  27.408  1.00  0.00     0.031 C 
ATOM     42  C   UNL A   1      37.819  32.090  32.722  1.00  0.00     0.029 A 
ATOM     43  C   UNL A   1      39.040  31.327  32.947  1.00  0.00     0.049 A 
ATOM     44  H   UNL A   1      40.110  30.212  31.547  1.00  0.00     0.167 HD
ATOM     45  C   UNL A   1      41.890  27.332  28.750  1.00  0.00     0.037 A 
ATOM     46  C   UNL A   1      39.676  31.229  34.129  1.00  0.00     0.037 A 
ATOM     47  C   UNL A   1      42.649  27.179  29.965  1.00  0.00     0.049 A 
ATOM     48  C   UNL A   1      40.851  30.306  34.257  1.00  0.00     0.074 A 
ATOM     49  C   UNL A   1      43.772  26.403  30.192  1.00  0.00     0.029 A 
ATOM     50  N   UNL A   1      42.366  27.832  31.155  1.00  0.00    -0.354 N 
ATOM     51  N   UNL A   1      41.390  29.531  33.348  1.00  0.00    -0.248 NA
ATOM     52  C   UNL A   1      41.489  30.225  35.577  1.00  0.00     0.031 C 
ATOM     53  C   UNL A   1      44.156  26.569  31.528  1.00  0.00     0.029 A 
ATOM     54  C   UNL A   1      43.291  27.472  32.122  1.00  0.00     0.049 A 
ATOM     55  H   UNL A   1      41.618  28.457  31.293  1.00  0.00     0.167 HD
ATOM     56  C   UNL A   1      42.438  28.880  33.981  1.00  0.00     0.074 A 
ATOM     57  C   UNL A   1      42.464  29.355  35.349  1.00  0.00     0.031 C 
ATOM     58  C   UNL A   1      43.302  27.968  33.473  1.00  0.00     0.037 A 
BRANCH  45  59
ATOM     59  C   UNL A   1      42.311  26.536  27.550  1.00  0.00     0.057 A 
ATOM     60  C   UNL A   1      41.845  25.237  27.317  1.00  0.00     0.134 A 
ATOM     61  C   UNL A   1      43.153  27.104  26.584  1.00  0.00     0.134 A 
ATOM     62  F   UNL A   1      41.045  24.632  28.208  1.00  0.00    -0.206 F 
ATOM     63  C   UNL A   1      42.212  24.527  26.172  1.00  0.00     0.040 A 
ATOM     64  C   UNL A   1      43.509  26.412  25.427  1.00  0.00     0.040 A 
ATOM     65  F   UNL A   1      43.629  28.349  26.744  1.00  0.00    -0.206 F 
ATOM     66  C   UNL A   1      43.040  25.117  25.219  1.00  0.00     0.006 A 
ENDBRANCH  45  59
BRANCH  46  67
ATOM     67  C   UNL A   1      39.158  31.982  35.296  1.00  0.00     0.057 A 
ATOM     68  C   UNL A   1      39.452  33.337  35.468  1.00  0.00     0.134 A 
ATOM     69  C   UNL A   1      38.318  31.375  36.239  1.00  0.00     0.134 A 
ATOM     70  F   UNL A   1      40.268  33.965  34.609  1.00  0.00    -0.206 F 
ATOM     71  C   UNL A   1      38.923  34.068  36.534  1.00  0.00     0.040 A 
ATOM     72  C   UNL A   1      37.763  32.099  37.295  1.00  0.00     0.040 A 
ATOM     73  F   UNL A   1      37.995  30.079  36.125  1.00  0.00    -0.206 F 
ATOM     74  C   UNL A   1      38.067  33.450  37.444  1.00  0.00     0.006 A 
ENDBRANCH  46  67
BRANCH  58  75
ATOM     75  C   UNL A   1      44.374  27.465  34.390  1.00  0.00     0.057 A 
ATOM     76  C   UNL A   1      45.590  28.140  34.538  1.00  0.00     0.134 A 
ATOM     77  C   UNL A   1      44.166  26.314  35.158  1.00  0.00     0.134 A 
ATOM     78  F   UNL A   1      45.850  29.241  33.818  1.00  0.00    -0.206 F 
ATOM     79  C   UNL A   1      46.571  27.679  35.417  1.00  0.00     0.040 A 
ATOM     80  C   UNL A   1      45.133  25.852  36.051  1.00  0.00     0.040 A 
ATOM     81  F   UNL A   1      43.018  25.627  35.060  1.00  0.00    -0.206 F 
ATOM     82  C   UNL A   1      46.341  26.534  36.179  1.00  0.00     0.006 A 
ENDBRANCH  58  75
ENDBRANCH  32  33
ENDBRANCH  25  27
ENDBRANCH  24  25
ENDBRANCH  23  24
ENDBRANCH   1  23
TORSDOF 17
ENDMDL
MODEL 2
REMARK VINA RESULT:     -10.8      1.056      2.097
REMARK SMILES CCC[C@@]1(C(=O)OCCOC(=O)c2ccc(-c3c4nc(c(-c5c(F)cccc5F)c5ccc([nH]5)c(-c5c(F)cccc5F)c5nc(c(-c6c(F)cccc6F)c6ccc3[nH]6)C=C5)C=C4)cc2)CCCN(C(=O)CCn2cncn2)C1
REMARK SMILES IDX 8 1 7 2 5 3 6 4 4 5 67 6 80 7 68 8 70 9 69 10 3 11 2 12 1 13
REMARK SMILES IDX 71 14 72 15 73 16 74 17 75 18 76 19 79 20 77 21 78 22 9 23
REMARK SMILES IDX 10 24 11 25 12 26 13 27 14 28 66 29 15 30 65 31 16 32 17 33
REMARK SMILES IDX 18 34 59 35 19 36 64 37 58 38 60 39 20 40 63 41 57 42 56 43
REMARK SMILES IDX 21 45 47 46 30 47 46 48 31 49 34 50 45 51 61 52 32 53 33 54
REMARK SMILES IDX 44 56 62 57 35 58 22 59 23 60 28 61 24 62 25 63 27 64 29 65
REMARK SMILES IDX 26 66 48 67 49 68 54 69 50 70 51 71 53 72 55 73 52 74 36 75
REMARK SMILES IDX 37 76 42 77 38 78 39 79 41 80 43 81 40 82
REMARK H PARENT 60 44 34 55
REMARK Flexibility Score: inf
ROOT
ATOM      1  C   UNL A   1      31.792  27.762  26.855  1.00  0.00     0.274 C 
ENDROOT
BRANCH   1   2
ATOM      2  O   UNL A   1      32.589  26.685  26.317  1.00  0.00    -0.462 OA
BRANCH   2   3
ATOM      3  C   UNL A   1      31.882  25.559  26.033  1.00  0.00     0.314 C 
ATOM      4  O   UNL A   1      31.143  25.008  26.843  1.00  0.00    -0.252 OA
BRANCH   3   5
ATOM      5  C   UNL A   1      32.103  25.015  24.617  1.00  0.00     0.086 C 
ATOM      6  C   UNL A   1      33.386  25.534  23.926  1.00  0.00     0.022 C 
ATOM      7  C   UNL A   1      30.833  25.342  23.789  1.00  0.00     0.138 C 
ATOM      8  C   UNL A   1      33.250  26.900  23.256  1.00  0.00     0.023 C 
ATOM      9  N   UNL A   1      30.827  26.679  23.185  1.00  0.00    -0.341 N 
ATOM     10  C   UNL A   1      32.007  26.977  22.388  1.00  0.00     0.119 C 
BRANCH   5  11
ATOM     11  C   UNL A   1      32.204  23.451  24.751  1.00  0.00     0.020 C 
BRANCH  11  12
ATOM     12  C   UNL A   1      33.172  22.707  23.809  1.00  0.00    -0.002 C 
ATOM     13  C   UNL A   1      34.311  21.944  24.469  1.00  0.00     0.004 C 
ENDBRANCH  11  12
ENDBRANCH   5  11
BRANCH   9  14
ATOM     14  C   UNL A   1      29.665  27.433  23.212  1.00  0.00     0.224 C 
ATOM     15  O   UNL A   1      28.626  26.997  23.717  1.00  0.00    -0.275 OA
BRANCH  14  16
ATOM     16  C   UNL A   1      29.643  28.835  22.637  1.00  0.00     0.124 C 
BRANCH  16  17
ATOM     17  C   UNL A   1      28.265  29.478  22.751  1.00  0.00     0.156 C 
BRANCH  17  18
ATOM     18  N   UNL A   1      28.174  30.809  22.191  1.00  0.00    -0.252 N 
ATOM     19  C   UNL A   1      28.098  31.992  22.857  1.00  0.00     0.219 A 
ATOM     20  N   UNL A   1      28.093  31.002  20.859  1.00  0.00    -0.160 NA
ATOM     21  N   UNL A   1      28.029  32.980  21.993  1.00  0.00    -0.224 NA
ATOM     22  C   UNL A   1      28.020  32.334  20.790  1.00  0.00     0.246 A 
ENDBRANCH  17  18
ENDBRANCH  16  17
ENDBRANCH  14  16
ENDBRANCH   9  14
ENDBRANCH   3   5
ENDBRANCH   2   3
ENDBRANCH   1   2
BRANCH   1  23
ATOM     23  C   UNL A   1      31.693  28.956  25.907  1.00  0.00     0.275 C 
BRANCH  23  24
ATOM     24  O   UNL A   1      32.909  29.723  25.918  1.00  0.00    -0.458 OA
BRANCH  24  25
ATOM     25  C   UNL A   1      32.942  30.767  26.772  1.00  0.00     0.338 C 
ATOM     26  O   UNL A   1      32.084  31.642  26.873  1.00  0.00    -0.246 OA
BRANCH  25  27
ATOM     27  C   UNL A   1      34.170  30.748  27.599  1.00  0.00     0.060 A 
ATOM     28  C   UNL A   1      34.866  31.917  27.918  1.00  0.00     0.016 A 
ATOM     29  C   UNL A   1      34.703  29.511  27.962  1.00  0.00     0.016 A 
ATOM     30  C   UNL A   1      36.132  31.850  28.504  1.00  0.00     0.010 A 
ATOM     31  C   UNL A   1      35.924  29.448  28.635  1.00  0.00     0.010 A 
ATOM     32  C   UNL A   1      36.664  30.615  28.890  1.00  0.00    -0.014 A 
BRANCH  32  33
ATOM     33  C   UNL A   1      37.977  30.499  29.576  1.00  0.00     0.031 A 
ATOM     34  C   UNL A   1      39.054  29.633  28.988  1.00  0.00     0.074 A 
ATOM     35  C   UNL A   1      38.171  31.087  30.772  1.00  0.00     0.049 A 
ATOM     36  N   UNL A   1      40.089  29.088  29.573  1.00  0.00    -0.248 NA
ATOM     37  C   UNL A   1      38.940  29.329  27.553  1.00  0.00     0.031 C 
ATOM     38  C   UNL A   1      37.243  32.008  31.430  1.00  0.00     0.029 A 
ATOM     39  N   UNL A   1      39.205  30.959  31.669  1.00  0.00    -0.354 N 
ATOM     40  C   UNL A   1      40.714  28.322  28.596  1.00  0.00     0.074 A 
ATOM     41  C   UNL A   1      39.955  28.492  27.374  1.00  0.00     0.031 C 
ATOM     42  C   UNL A   1      37.738  32.350  32.628  1.00  0.00     0.029 A 
ATOM     43  C   UNL A   1      38.964  31.598  32.860  1.00  0.00     0.049 A 
ATOM     44  H   UNL A   1      40.031  30.462  31.476  1.00  0.00     0.167 HD
ATOM     45  C   UNL A   1      41.810  27.538  28.723  1.00  0.00     0.037 A 
ATOM     46  C   UNL A   1      39.607  31.525  34.041  1.00  0.00     0.037 A 
ATOM     47  C   UNL A   1      42.577  27.412  29.936  1.00  0.00     0.049 A 
ATOM     48  C   UNL A   1      40.787  30.611  34.179  1.00  0.00     0.074 A 
ATOM     49  C   UNL A   1      43.705  26.646  30.172  1.00  0.00     0.029 A 
ATOM     50  N   UNL A   1      42.298  28.086  31.116  1.00  0.00    -0.354 N 
ATOM     51  N   UNL A   1      41.325  29.821  33.282  1.00  0.00    -0.248 NA
ATOM     52  C   UNL A   1      41.433  30.558  35.497  1.00  0.00     0.031 C 
ATOM     53  C   UNL A   1      44.096  26.839  31.502  1.00  0.00     0.029 A 
ATOM     54  C   UNL A   1      43.229  27.749  32.084  1.00  0.00     0.049 A 
ATOM     55  H   UNL A   1      41.547  28.710  31.246  1.00  0.00     0.167 HD
ATOM     56  C   UNL A   1      42.380  29.187  33.921  1.00  0.00     0.074 A 
ATOM     57  C   UNL A   1      42.411  29.688  35.280  1.00  0.00     0.031 C 
ATOM     58  C   UNL A   1      43.246  28.271  33.425  1.00  0.00     0.037 A 
BRANCH  45  59
ATOM     59  C   UNL A   1      42.229  26.722  27.536  1.00  0.00     0.057 A 
ATOM     60  C   UNL A   1      43.046  27.241  26.526  1.00  0.00     0.134 A 
ATOM     61  C   UNL A   1      41.851  25.376  27.435  1.00  0.00     0.134 A 
ATOM     62  F   UNL A   1      43.434  28.525  26.559  1.00  0.00    -0.206 F 
ATOM     63  C   UNL A   1      43.463  26.454  25.451  1.00  0.00     0.040 A 
ATOM     64  C   UNL A   1      42.278  24.575  26.376  1.00  0.00     0.040 A 
ATOM     65  F   UNL A   1      41.073  24.815  28.374  1.00  0.00    -0.206 F 
ATOM     66  C   UNL A   1      43.085  25.114  25.378  1.00  0.00     0.006 A 
ENDBRANCH  45  59
BRANCH  46  67
ATOM     67  C   UNL A   1      39.092  32.297  35.197  1.00  0.00     0.057 A 
ATOM     68  C   UNL A   1      38.245  31.707  36.138  1.00  0.00     0.134 A 
ATOM     69  C   UNL A   1      39.475  33.628  35.412  1.00  0.00     0.134 A 
ATOM     70  F   UNL A   1      37.828  30.443  35.973  1.00  0.00    -0.206 F 
ATOM     71  C   UNL A   1      37.800  32.409  37.260  1.00  0.00     0.040 A 
ATOM     72  C   UNL A   1      39.058  34.334  36.541  1.00  0.00     0.040 A 
ATOM     73  F   UNL A   1      40.290  34.247  34.546  1.00  0.00    -0.206 F 
ATOM     74  C   UNL A   1      38.217  33.723  37.468  1.00  0.00     0.006 A 
ENDBRANCH  46  67
BRANCH  58  75
ATOM     75  C   UNL A   1      44.325  27.790  34.345  1.00  0.00     0.057 A 
ATOM     76  C   UNL A   1      45.542  28.468  34.466  1.00  0.00     0.134 A 
ATOM     77  C   UNL A   1      44.124  26.659  35.143  1.00  0.00     0.134 A 
ATOM     78  F   UNL A   1      45.796  29.551  33.717  1.00  0.00    -0.206 F 
ATOM     79  C   UNL A   1      46.531  28.029  35.348  1.00  0.00     0.040 A 
ATOM     80  C   UNL A   1      45.098  26.219  36.039  1.00  0.00     0.040 A 
ATOM     81  F   UNL A   1      42.975  25.969  35.072  1.00  0.00    -0.206 F 
ATOM     82  C   UNL A   1      46.307  26.903  36.140  1.00  0.00     0.006 A 
ENDBRANCH  58  75
ENDBRANCH  32  33
ENDBRANCH  25  27
ENDBRANCH  24  25
ENDBRANCH  23  24
ENDBRANCH   1  23
TORSDOF 17
ENDMDL
MODEL 3
REMARK VINA RESULT:     -10.7      3.719      8.160
REMARK SMILES CCC[C@@]1(C(=O)OCCOC(=O)c2ccc(-c3c4nc(c(-c5c(F)cccc5F)c5ccc([nH]5)c(-c5c(F)cccc5F)c5nc(c(-c6c(F)cccc6F)c6ccc3[nH]6)C=C5)C=C4)cc2)CCCN(C(=O)CCn2cncn2)C1
REMARK SMILES IDX 8 1 7 2 5 3 6 4 4 5 67 6 80 7 68 8 70 9 69 10 3 11 2 12 1 13
REMARK SMILES IDX 71 14 72 15 73 16 74 17 75 18 76 19 79 20 77 21 78 22 9 23
REMARK SMILES IDX 10 24 11 25 12 26 13 27 14 28 66 29 15 30 65 31 16 32 17 33
REMARK SMILES IDX 18 34 59 35 19 36 64 37 58 38 60 39 20 40 63 41 57 42 56 43
REMARK SMILES IDX 21 45 47 46 30 47 46 48 31 49 34 50 45 51 61 52 32 53 33 54
REMARK SMILES IDX 44 56 62 57 35 58 22 59 23 60 28 61 24 62 25 63 27 64 29 65
REMARK SMILES IDX 26 66 48 67 49 68 54 69 50 70 51 71 53 72 55 73 52 74 36 75
REMARK SMILES IDX 37 76 42 77 38 78 39 79 41 80 43 81 40 82
REMARK H PARENT 60 44 34 55
REMARK Flexibility Score: inf
ROOT
ATOM      1  C   UNL A   1      35.727  22.908  23.596  1.00  0.00     0.274 C 
ENDROOT
BRANCH   1   2
ATOM      2  O   UNL A   1      35.255  24.111  24.241  1.00  0.00    -0.462 OA
BRANCH   2   3
ATOM      3  C   UNL A   1      34.098  24.600  23.723  1.00  0.00     0.314 C 
ATOM      4  O   UNL A   1      34.003  25.027  22.576  1.00  0.00    -0.252 OA
BRANCH   3   5
ATOM      5  C   UNL A   1      32.918  24.600  24.701  1.00  0.00     0.086 C 
ATOM      6  C   UNL A   1      31.808  23.578  24.363  1.00  0.00     0.022 C 
ATOM      7  C   UNL A   1      32.364  26.048  24.763  1.00  0.00     0.138 C 
ATOM      8  C   UNL A   1      30.795  24.046  23.321  1.00  0.00     0.023 C 
ATOM      9  N   UNL A   1      31.389  26.373  23.716  1.00  0.00    -0.341 N 
ATOM     10  C   UNL A   1      30.276  25.439  23.628  1.00  0.00     0.119 C 
BRANCH   5  11
ATOM     11  C   UNL A   1      33.510  24.248  26.115  1.00  0.00     0.020 C 
BRANCH  11  12
ATOM     12  C   UNL A   1      33.046  22.940  26.786  1.00  0.00    -0.002 C 
ATOM     13  C   UNL A   1      33.882  22.443  27.956  1.00  0.00     0.004 C 
ENDBRANCH  11  12
ENDBRANCH   5  11
BRANCH   9  14
ATOM     14  C   UNL A   1      31.459  27.601  23.079  1.00  0.00     0.224 C 
ATOM     15  O   UNL A   1      32.539  28.165  22.884  1.00  0.00    -0.275 OA
BRANCH  14  16
ATOM     16  C   UNL A   1      30.200  28.282  22.579  1.00  0.00     0.124 C 
BRANCH  16  17
ATOM     17  C   UNL A   1      29.911  29.575  23.333  1.00  0.00     0.156 C 
BRANCH  17  18
ATOM     18  N   UNL A   1      29.151  30.552  22.585  1.00  0.00    -0.252 N 
ATOM     19  C   UNL A   1      28.675  31.749  23.018  1.00  0.00     0.219 A 
ATOM     20  N   UNL A   1      28.773  30.316  21.313  1.00  0.00    -0.160 NA
ATOM     21  N   UNL A   1      28.035  32.348  22.038  1.00  0.00    -0.224 NA
ATOM     22  C   UNL A   1      28.110  31.439  21.023  1.00  0.00     0.246 A 
ENDBRANCH  17  18
ENDBRANCH  16  17
ENDBRANCH  14  16
ENDBRANCH   9  14
ENDBRANCH   3   5
ENDBRANCH   2   3
ENDBRANCH   1   2
BRANCH   1  23
ATOM     23  C   UNL A   1      35.790  21.713  24.546  1.00  0.00     0.275 C 
BRANCH  23  24
ATOM     24  O   UNL A   1      36.591  22.015  25.700  1.00  0.00    -0.458 OA
BRANCH  24  25
ATOM     25  C   UNL A   1      37.862  21.561  25.673  1.00  0.00     0.338 C 
ATOM     26  O   UNL A   1      38.218  20.439  25.317  1.00  0.00    -0.246 OA
BRANCH  25  27
ATOM     27  C   UNL A   1      38.813  22.593  26.142  1.00  0.00     0.060 A 
ATOM     28  C   UNL A   1      39.945  22.270  26.895  1.00  0.00     0.016 A 
ATOM     29  C   UNL A   1      38.495  23.934  25.923  1.00  0.00     0.016 A 
ATOM     30  C   UNL A   1      40.697  23.274  27.509  1.00  0.00     0.010 A 
ATOM     31  C   UNL A   1      39.302  24.939  26.456  1.00  0.00     0.010 A 
ATOM     32  C   UNL A   1      40.397  24.620  27.278  1.00  0.00    -0.014 A 
BRANCH  32  33
ATOM     33  C   UNL A   1      41.208  25.722  27.856  1.00  0.00     0.031 A 
ATOM     34  C   UNL A   1      40.544  26.784  28.685  1.00  0.00     0.074 A 
ATOM     35  C   UNL A   1      42.517  25.829  27.558  1.00  0.00     0.049 A 
ATOM     36  N   UNL A   1      40.949  27.998  28.955  1.00  0.00    -0.248 NA
ATOM     37  C   UNL A   1      39.241  26.436  29.275  1.00  0.00     0.031 C 
ATOM     38  C   UNL A   1      43.308  24.841  26.823  1.00  0.00     0.029 A 
ATOM     39  N   UNL A   1      43.406  26.848  27.805  1.00  0.00    -0.354 N 
ATOM     40  C   UNL A   1      39.925  28.583  29.690  1.00  0.00     0.074 A 
ATOM     41  C   UNL A   1      38.888  27.582  29.844  1.00  0.00     0.031 C 
ATOM     42  C   UNL A   1      44.555  25.305  26.665  1.00  0.00     0.029 A 
ATOM     43  C   UNL A   1      44.623  26.659  27.199  1.00  0.00     0.049 A 
ATOM     44  H   UNL A   1      43.191  27.632  28.360  1.00  0.00     0.167 HD
ATOM     45  C   UNL A   1      39.858  29.846  30.172  1.00  0.00     0.037 A 
ATOM     46  C   UNL A   1      45.653  27.505  27.014  1.00  0.00     0.037 A 
ATOM     47  C   UNL A   1      40.915  30.816  30.044  1.00  0.00     0.049 A 
ATOM     48  C   UNL A   1      45.541  28.917  27.507  1.00  0.00     0.074 A 
ATOM     49  C   UNL A   1      40.951  32.123  30.498  1.00  0.00     0.029 A 
ATOM     50  N   UNL A   1      42.134  30.574  29.428  1.00  0.00    -0.354 N 
ATOM     51  N   UNL A   1      44.540  29.495  28.124  1.00  0.00    -0.248 NA
ATOM     52  C   UNL A   1      46.688  29.799  27.257  1.00  0.00     0.031 C 
ATOM     53  C   UNL A   1      42.183  32.679  30.135  1.00  0.00     0.029 A 
ATOM     54  C   UNL A   1      42.926  31.709  29.485  1.00  0.00     0.049 A 
ATOM     55  H   UNL A   1      42.396  29.722  29.010  1.00  0.00     0.167 HD
ATOM     56  C   UNL A   1      44.939  30.804  28.349  1.00  0.00     0.074 A 
ATOM     57  C   UNL A   1      46.277  30.934  27.807  1.00  0.00     0.031 C 
ATOM     58  C   UNL A   1      44.258  31.809  28.949  1.00  0.00     0.037 A 
BRANCH  45  59
ATOM     59  C   UNL A   1      38.588  30.272  30.847  1.00  0.00     0.057 A 
ATOM     60  C   UNL A   1      38.386  30.109  32.222  1.00  0.00     0.134 A 
ATOM     61  C   UNL A   1      37.576  30.906  30.114  1.00  0.00     0.134 A 
ATOM     62  F   UNL A   1      39.312  29.501  32.978  1.00  0.00    -0.206 F 
ATOM     63  C   UNL A   1      37.216  30.552  32.843  1.00  0.00     0.040 A 
ATOM     64  C   UNL A   1      36.412  31.370  30.727  1.00  0.00     0.040 A 
ATOM     65  F   UNL A   1      37.710  31.098  28.793  1.00  0.00    -0.206 F 
ATOM     66  C   UNL A   1      36.228  31.192  32.096  1.00  0.00     0.006 A 
ENDBRANCH  45  59
BRANCH  46  67
ATOM     67  C   UNL A   1      46.847  27.044  26.267  1.00  0.00     0.057 A 
ATOM     68  C   UNL A   1      47.883  26.363  26.913  1.00  0.00     0.134 A 
ATOM     69  C   UNL A   1      46.956  27.229  24.883  1.00  0.00     0.134 A 
ATOM     70  F   UNL A   1      47.843  26.175  28.240  1.00  0.00    -0.206 F 
ATOM     71  C   UNL A   1      48.985  25.875  26.208  1.00  0.00     0.040 A 
ATOM     72  C   UNL A   1      48.040  26.726  24.162  1.00  0.00     0.040 A 
ATOM     73  F   UNL A   1      45.992  27.870  24.207  1.00  0.00    -0.206 F 
ATOM     74  C   UNL A   1      49.058  26.047  24.826  1.00  0.00     0.006 A 
ENDBRANCH  46  67
BRANCH  58  75
ATOM     75  C   UNL A   1      44.969  33.119  29.092  1.00  0.00     0.057 A 
ATOM     76  C   UNL A   1      45.771  33.402  30.203  1.00  0.00     0.134 A 
ATOM     77  C   UNL A   1      44.876  34.089  28.088  1.00  0.00     0.134 A 
ATOM     78  F   UNL A   1      45.886  32.515  31.203  1.00  0.00    -0.206 F 
ATOM     79  C   UNL A   1      46.452  34.614  30.314  1.00  0.00     0.040 A 
ATOM     80  C   UNL A   1      45.565  35.298  28.180  1.00  0.00     0.040 A 
ATOM     81  F   UNL A   1      44.124  33.872  26.998  1.00  0.00    -0.206 F 
ATOM     82  C   UNL A   1      46.353  35.565  29.298  1.00  0.00     0.006 A 
ENDBRANCH  58  75
ENDBRANCH  32  33
ENDBRANCH  25  27
ENDBRANCH  24  25
ENDBRANCH  23  24
ENDBRANCH   1  23
TORSDOF 17
ENDMDL
