MODEL 1
REMARK VINA RESULT:     -11.5      0.000      0.000
REMARK SMILES Cc1cc(=O)cc(C)n1C[C@H]1CCCC[C@@H]1C(=O)OCCOC(=O)c1ccc(-c2c3nc(c(-c4c(F)cccc4F)c4ccc([nH]4)c(-c4c(F)cccc4F)c4nc(c(-c5c(F)cccc5F)c5ccc2[nH]5)C=C4)C=C3)cc1
REMARK SMILES IDX 20 1 19 2 17 3 18 4 16 5 11 6 12 7 13 8 15 9 14 10 10 11
REMARK SMILES IDX 9 12 1 13 2 14 3 15 4 16 7 17 5 18 6 19 8 20 21 21 22 22
REMARK SMILES IDX 23 23 24 24 25 25 26 26 78 27 27 28 77 29 28 30 29 31 30 32
REMARK SMILES IDX 71 33 31 34 76 35 70 36 72 37 32 38 75 39 69 40 68 41 33 43
REMARK SMILES IDX 59 44 42 45 58 46 43 47 46 48 57 49 73 50 44 51 45 52 56 54
REMARK SMILES IDX 74 55 47 56 34 57 35 58 40 59 36 60 37 61 39 62 41 63 38 64
REMARK SMILES IDX 60 65 61 66 66 67 62 68 63 69 65 70 67 71 64 72 48 73 49 74
REMARK SMILES IDX 54 75 50 76 51 77 53 78 55 79 52 80
REMARK H PARENT 72 42 46 53
REMARK Flexibility Score: inf
ROOT
ATOM      1  C   UNL A   1      32.117  29.206  24.122  1.00  0.00     0.274 C 
ENDROOT
BRANCH   1   2
ATOM      2  O   UNL A   1      33.173  28.441  24.752  1.00  0.00    -0.462 OA
BRANCH   2   3
ATOM      3  C   UNL A   1      33.343  27.188  24.245  1.00  0.00     0.309 C 
ATOM      4  O   UNL A   1      33.408  26.946  23.046  1.00  0.00    -0.252 OA
BRANCH   3   5
ATOM      5  C   UNL A   1      33.402  26.114  25.345  1.00  0.00     0.104 C 
ATOM      6  C   UNL A   1      33.085  24.687  24.809  1.00  0.00     0.023 C 
ATOM      7  C   UNL A   1      31.628  24.691  24.336  1.00  0.00     0.006 C 
ATOM      8  C   UNL A   1      30.617  25.046  25.419  1.00  0.00     0.000 C 
ATOM      9  C   UNL A   1      32.438  26.507  26.483  1.00  0.00     0.016 C 
ATOM     10  C   UNL A   1      30.953  26.355  26.127  1.00  0.00     0.001 C 
BRANCH   6  11
ATOM     11  C   UNL A   1      33.336  23.581  25.882  1.00  0.00     0.126 C 
BRANCH  11  12
ATOM     12  N   UNL A   1      34.292  22.510  25.450  1.00  0.00    -0.349 N 
ATOM     13  C   UNL A   1      32.370  21.193  24.423  1.00  0.00     0.064 C 
ATOM     14  C   UNL A   1      33.803  21.298  24.887  1.00  0.00     0.018 A 
ATOM     15  C   UNL A   1      34.592  20.230  24.666  1.00  0.00     0.073 A 
ATOM     16  C   UNL A   1      36.021  20.300  25.001  1.00  0.00     0.182 A 
ATOM     17  C   UNL A   1      35.708  22.664  25.517  1.00  0.00     0.018 A 
ATOM     18  O   UNL A   1      36.737  19.307  24.950  1.00  0.00    -0.290 OA
ATOM     19  C   UNL A   1      36.554  21.630  25.332  1.00  0.00     0.073 A 
ATOM     20  C   UNL A   1      36.366  24.014  25.672  1.00  0.00     0.064 C 
ENDBRANCH  11  12
ENDBRANCH   6  11
ENDBRANCH   3   5
ENDBRANCH   2   3
ENDBRANCH   1   2
BRANCH   1  21
ATOM     21  C   UNL A   1      31.343  30.048  25.138  1.00  0.00     0.275 C 
BRANCH  21  22
ATOM     22  O   UNL A   1      31.965  29.967  26.432  1.00  0.00    -0.458 OA
BRANCH  22  23
ATOM     23  C   UNL A   1      32.560  31.101  26.880  1.00  0.00     0.338 C 
ATOM     24  O   UNL A   1      32.029  32.193  26.993  1.00  0.00    -0.246 OA
BRANCH  23  25
ATOM     25  C   UNL A   1      33.964  30.836  27.307  1.00  0.00     0.060 A 
ATOM     26  C   UNL A   1      34.437  29.544  27.497  1.00  0.00     0.016 A 
ATOM     27  C   UNL A   1      34.798  31.906  27.642  1.00  0.00     0.016 A 
ATOM     28  C   UNL A   1      35.641  29.328  28.185  1.00  0.00     0.010 A 
ATOM     29  C   UNL A   1      36.061  31.676  28.216  1.00  0.00     0.010 A 
ATOM     30  C   UNL A   1      36.481  30.382  28.574  1.00  0.00    -0.014 A 
BRANCH  30  31
ATOM     31  C   UNL A   1      37.716  30.161  29.414  1.00  0.00     0.031 A 
ATOM     32  C   UNL A   1      38.917  29.429  28.838  1.00  0.00     0.074 A 
ATOM     33  C   UNL A   1      37.853  30.636  30.674  1.00  0.00     0.049 A 
ATOM     34  N   UNL A   1      39.922  28.863  29.463  1.00  0.00    -0.248 NA
ATOM     35  C   UNL A   1      38.995  29.315  27.374  1.00  0.00     0.031 C 
ATOM     36  C   UNL A   1      36.876  31.440  31.407  1.00  0.00     0.029 A 
ATOM     37  N   UNL A   1      38.903  30.527  31.563  1.00  0.00    -0.354 N 
ATOM     38  C   UNL A   1      40.684  28.238  28.480  1.00  0.00     0.074 A 
ATOM     39  C   UNL A   1      40.051  28.529  27.212  1.00  0.00     0.031 C 
ATOM     40  C   UNL A   1      37.407  31.838  32.572  1.00  0.00     0.029 A 
ATOM     41  C   UNL A   1      38.702  31.191  32.751  1.00  0.00     0.049 A 
ATOM     42  H   UNL A   1      39.724  30.020  31.365  1.00  0.00     0.167 HD
ATOM     43  C   UNL A   1      41.803  27.485  28.617  1.00  0.00     0.037 A 
ATOM     44  C   UNL A   1      39.423  31.233  33.889  1.00  0.00     0.037 A 
ATOM     45  C   UNL A   1      42.518  27.286  29.849  1.00  0.00     0.049 A 
ATOM     46  C   UNL A   1      40.647  30.377  34.038  1.00  0.00     0.074 A 
ATOM     47  C   UNL A   1      43.638  26.503  30.080  1.00  0.00     0.029 A 
ATOM     48  N   UNL A   1      42.224  27.923  31.040  1.00  0.00    -0.354 N 
ATOM     49  N   UNL A   1      41.233  29.611  33.152  1.00  0.00    -0.248 NA
ATOM     50  C   UNL A   1      41.276  30.342  35.370  1.00  0.00     0.031 C 
ATOM     51  C   UNL A   1      44.022  26.668  31.415  1.00  0.00     0.029 A 
ATOM     52  C   UNL A   1      43.152  27.567  32.005  1.00  0.00     0.049 A 
ATOM     53  H   UNL A   1      41.468  28.536  31.183  1.00  0.00     0.167 HD
ATOM     54  C   UNL A   1      42.284  28.995  33.819  1.00  0.00     0.074 A 
ATOM     55  C   UNL A   1      42.282  29.499  35.175  1.00  0.00     0.031 C 
ATOM     56  C   UNL A   1      43.156  28.072  33.350  1.00  0.00     0.037 A 
BRANCH  43  57
ATOM     57  C   UNL A   1      42.329  26.781  27.403  1.00  0.00     0.057 A 
ATOM     58  C   UNL A   1      43.281  27.364  26.562  1.00  0.00     0.134 A 
ATOM     59  C   UNL A   1      41.950  25.457  27.141  1.00  0.00     0.134 A 
ATOM     60  F   UNL A   1      43.696  28.622  26.775  1.00  0.00    -0.206 F 
ATOM     61  C   UNL A   1      43.831  26.657  25.491  1.00  0.00     0.040 A 
ATOM     62  C   UNL A   1      42.511  24.732  26.090  1.00  0.00     0.040 A 
ATOM     63  F   UNL A   1      41.057  24.837  27.927  1.00  0.00    -0.206 F 
ATOM     64  C   UNL A   1      43.454  25.334  25.259  1.00  0.00     0.006 A 
ENDBRANCH  43  57
BRANCH  44  65
ATOM     65  C   UNL A   1      38.958  32.063  35.032  1.00  0.00     0.057 A 
ATOM     66  C   UNL A   1      38.217  31.496  36.076  1.00  0.00     0.134 A 
ATOM     67  C   UNL A   1      39.235  33.433  35.107  1.00  0.00     0.134 A 
ATOM     68  F   UNL A   1      37.888  30.196  36.043  1.00  0.00    -0.206 F 
ATOM     69  C   UNL A   1      37.776  32.261  37.156  1.00  0.00     0.040 A 
ATOM     70  C   UNL A   1      38.827  34.203  36.195  1.00  0.00     0.040 A 
ATOM     71  F   UNL A   1      39.930  34.037  34.132  1.00  0.00    -0.206 F 
ATOM     72  C   UNL A   1      38.091  33.617  37.223  1.00  0.00     0.006 A 
ENDBRANCH  44  65
BRANCH  56  73
ATOM     73  C   UNL A   1      44.191  27.550  34.297  1.00  0.00     0.057 A 
ATOM     74  C   UNL A   1      43.978  26.380  35.037  1.00  0.00     0.134 A 
ATOM     75  C   UNL A   1      45.428  28.190  34.434  1.00  0.00     0.134 A 
ATOM     76  F   UNL A   1      42.809  25.729  34.956  1.00  0.00    -0.206 F 
ATOM     77  C   UNL A   1      44.958  25.870  35.889  1.00  0.00     0.040 A 
ATOM     78  C   UNL A   1      46.423  27.681  35.271  1.00  0.00     0.040 A 
ATOM     79  F   UNL A   1      45.695  29.311  33.747  1.00  0.00    -0.206 F 
ATOM     80  C   UNL A   1      46.188  26.518  36.003  1.00  0.00     0.006 A 
ENDBRANCH  56  73
ENDBRANCH  30  31
ENDBRANCH  23  25
ENDBRANCH  22  23
ENDBRANCH  21  22
ENDBRANCH   1  21
TORSDOF 13
ENDMDL
MODEL 2
REMARK VINA RESULT:     -11.4      3.620      8.991
REMARK SMILES Cc1cc(=O)cc(C)n1C[C@H]1CCCC[C@@H]1C(=O)OCCOC(=O)c1ccc(-c2c3nc(c(-c4c(F)cccc4F)c4ccc([nH]4)c(-c4c(F)cccc4F)c4nc(c(-c5c(F)cccc5F)c5ccc2[nH]5)C=C4)C=C3)cc1
REMARK SMILES IDX 20 1 19 2 17 3 18 4 16 5 11 6 12 7 13 8 15 9 14 10 10 11
REMARK SMILES IDX 9 12 1 13 2 14 3 15 4 16 7 17 5 18 6 19 8 20 21 21 22 22
REMARK SMILES IDX 23 23 24 24 25 25 26 26 78 27 27 28 77 29 28 30 29 31 30 32
REMARK SMILES IDX 71 33 31 34 76 35 70 36 72 37 32 38 75 39 69 40 68 41 33 43
REMARK SMILES IDX 59 44 42 45 58 46 43 47 46 48 57 49 73 50 44 51 45 52 56 54
REMARK SMILES IDX 74 55 47 56 34 57 35 58 40 59 36 60 37 61 39 62 41 63 38 64
REMARK SMILES IDX 60 65 61 66 66 67 62 68 63 69 65 70 67 71 64 72 48 73 49 74
REMARK SMILES IDX 54 75 50 76 51 77 53 78 55 79 52 80
REMARK H PARENT 72 42 46 53
REMARK Flexibility Score: inf
ROOT
ATOM      1  C   UNL A   1      34.771  20.985  25.581  1.00  0.00     0.274 C 
ENDROOT
BRANCH   1   2
ATOM      2  O   UNL A   1      35.073  22.191  26.324  1.00  0.00    -0.462 OA
BRANCH   2   3
ATOM      3  C   UNL A   1      34.105  23.147  26.268  1.00  0.00     0.309 C 
ATOM      4  O   UNL A   1      32.956  22.971  26.653  1.00  0.00    -0.252 OA
BRANCH   3   5
ATOM      5  C   UNL A   1      34.608  24.454  25.630  1.00  0.00     0.104 C 
ATOM      6  C   UNL A   1      33.483  25.517  25.471  1.00  0.00     0.023 C 
ATOM      7  C   UNL A   1      32.462  24.957  24.476  1.00  0.00     0.006 C 
ATOM      8  C   UNL A   1      33.036  24.639  23.101  1.00  0.00     0.000 C 
ATOM      9  C   UNL A   1      35.262  24.130  24.270  1.00  0.00     0.016 C 
ATOM     10  C   UNL A   1      34.264  23.736  23.173  1.00  0.00     0.001 C 
BRANCH   6  11
ATOM     11  C   UNL A   1      34.036  26.901  25.007  1.00  0.00     0.126 C 
BRANCH  11  12
ATOM     12  N   UNL A   1      32.981  27.865  24.550  1.00  0.00    -0.349 N 
ATOM     13  C   UNL A   1      32.430  28.428  26.971  1.00  0.00     0.064 C 
ATOM     14  C   UNL A   1      32.113  28.478  25.496  1.00  0.00     0.018 A 
ATOM     15  C   UNL A   1      31.030  29.190  25.132  1.00  0.00     0.073 A 
ATOM     16  C   UNL A   1      30.720  29.364  23.706  1.00  0.00     0.182 A 
ATOM     17  C   UNL A   1      32.832  28.259  23.188  1.00  0.00     0.018 A 
ATOM     18  O   UNL A   1      29.670  29.879  23.341  1.00  0.00    -0.290 OA
ATOM     19  C   UNL A   1      31.761  28.951  22.752  1.00  0.00     0.073 A 
ATOM     20  C   UNL A   1      33.920  28.045  22.162  1.00  0.00     0.064 C 
ENDBRANCH  11  12
ENDBRANCH   6  11
ENDBRANCH   3   5
ENDBRANCH   2   3
ENDBRANCH   1   2
BRANCH   1  21
ATOM     21  C   UNL A   1      36.034  20.340  25.008  1.00  0.00     0.275 C 
BRANCH  21  22
ATOM     22  O   UNL A   1      37.078  21.319  24.872  1.00  0.00    -0.458 OA
BRANCH  22  23
ATOM     23  C   UNL A   1      38.274  20.997  25.427  1.00  0.00     0.338 C 
ATOM     24  O   UNL A   1      38.854  19.931  25.311  1.00  0.00    -0.246 OA
BRANCH  23  25
ATOM     25  C   UNL A   1      38.856  22.160  26.156  1.00  0.00     0.060 A 
ATOM     26  C   UNL A   1      38.314  23.434  26.048  1.00  0.00     0.016 A 
ATOM     27  C   UNL A   1      40.045  22.002  26.872  1.00  0.00     0.016 A 
ATOM     28  C   UNL A   1      39.044  24.551  26.482  1.00  0.00     0.010 A 
ATOM     29  C   UNL A   1      40.707  23.118  27.416  1.00  0.00     0.010 A 
ATOM     30  C   UNL A   1      40.263  24.429  27.166  1.00  0.00    -0.014 A 
BRANCH  30  31
ATOM     31  C   UNL A   1      41.107  25.627  27.531  1.00  0.00     0.031 A 
ATOM     32  C   UNL A   1      40.574  26.678  28.493  1.00  0.00     0.074 A 
ATOM     33  C   UNL A   1      42.372  25.808  27.088  1.00  0.00     0.049 A 
ATOM     34  N   UNL A   1      40.984  27.909  28.686  1.00  0.00    -0.248 NA
ATOM     35  C   UNL A   1      39.434  26.297  29.339  1.00  0.00     0.031 C 
ATOM     36  C   UNL A   1      43.128  24.896  26.231  1.00  0.00     0.029 A 
ATOM     37  N   UNL A   1      43.268  26.831  27.328  1.00  0.00    -0.354 N 
ATOM     38  C   UNL A   1      40.089  28.475  29.589  1.00  0.00     0.074 A 
ATOM     39  C   UNL A   1      39.138  27.443  29.938  1.00  0.00     0.031 C 
ATOM     40  C   UNL A   1      44.388  25.338  26.107  1.00  0.00     0.029 A 
ATOM     41  C   UNL A   1      44.498  26.647  26.741  1.00  0.00     0.049 A 
ATOM     42  H   UNL A   1      43.045  27.623  27.872  1.00  0.00     0.167 HD
ATOM     43  C   UNL A   1      40.054  29.739  30.077  1.00  0.00     0.037 A 
ATOM     44  C   UNL A   1      45.577  27.450  26.648  1.00  0.00     0.037 A 
ATOM     45  C   UNL A   1      41.057  30.743  29.841  1.00  0.00     0.049 A 
ATOM     46  C   UNL A   1      45.518  28.856  27.171  1.00  0.00     0.074 A 
ATOM     47  C   UNL A   1      41.075  32.063  30.267  1.00  0.00     0.029 A 
ATOM     48  N   UNL A   1      42.247  30.524  29.173  1.00  0.00    -0.354 N 
ATOM     49  N   UNL A   1      44.561  29.450  27.838  1.00  0.00    -0.248 NA
ATOM     50  C   UNL A   1      46.670  29.725  26.873  1.00  0.00     0.031 C 
ATOM     51  C   UNL A   1      42.279  32.641  29.856  1.00  0.00     0.029 A 
ATOM     52  C   UNL A   1      43.016  31.676  29.192  1.00  0.00     0.049 A 
ATOM     53  H   UNL A   1      42.509  29.677  28.747  1.00  0.00     0.167 HD
ATOM     54  C   UNL A   1      44.985  30.759  28.024  1.00  0.00     0.074 A 
ATOM     55  C   UNL A   1      46.302  30.869  27.434  1.00  0.00     0.031 C 
ATOM     56  C   UNL A   1      44.326  31.785  28.612  1.00  0.00     0.037 A 
BRANCH  43  57
ATOM     57  C   UNL A   1      38.872  30.139  30.907  1.00  0.00     0.057 A 
ATOM     58  C   UNL A   1      37.699  30.639  30.334  1.00  0.00     0.134 A 
ATOM     59  C   UNL A   1      38.879  29.917  32.291  1.00  0.00     0.134 A 
ATOM     60  F   UNL A   1      37.627  30.855  29.012  1.00  0.00    -0.206 F 
ATOM     61  C   UNL A   1      36.574  30.917  31.113  1.00  0.00     0.040 A 
ATOM     62  C   UNL A   1      37.753  30.166  33.076  1.00  0.00     0.040 A 
ATOM     63  F   UNL A   1      39.968  29.417  32.894  1.00  0.00    -0.206 F 
ATOM     64  C   UNL A   1      36.595  30.670  32.486  1.00  0.00     0.006 A 
ENDBRANCH  43  57
BRANCH  44  65
ATOM     65  C   UNL A   1      46.799  26.972  25.948  1.00  0.00     0.057 A 
ATOM     66  C   UNL A   1      46.989  27.222  24.584  1.00  0.00     0.134 A 
ATOM     67  C   UNL A   1      47.796  26.254  26.618  1.00  0.00     0.134 A 
ATOM     68  F   UNL A   1      46.052  27.873  23.879  1.00  0.00    -0.206 F 
ATOM     69  C   UNL A   1      48.132  26.782  23.914  1.00  0.00     0.040 A 
ATOM     70  C   UNL A   1      48.957  25.835  25.969  1.00  0.00     0.040 A 
ATOM     71  F   UNL A   1      47.667  25.971  27.922  1.00  0.00    -0.206 F 
ATOM     72  C   UNL A   1      49.126  26.096  24.611  1.00  0.00     0.006 A 
ENDBRANCH  44  65
BRANCH  56  73
ATOM     73  C   UNL A   1      45.011  33.115  28.661  1.00  0.00     0.057 A 
ATOM     74  C   UNL A   1      44.799  34.081  27.671  1.00  0.00     0.134 A 
ATOM     75  C   UNL A   1      45.850  33.452  29.731  1.00  0.00     0.134 A 
ATOM     76  F   UNL A   1      44.015  33.812  26.616  1.00  0.00    -0.206 F 
ATOM     77  C   UNL A   1      45.406  35.336  27.737  1.00  0.00     0.040 A 
ATOM     78  C   UNL A   1      46.449  34.710  29.817  1.00  0.00     0.040 A 
ATOM     79  F   UNL A   1      46.087  32.571  30.714  1.00  0.00    -0.206 F 
ATOM     80  C   UNL A   1      46.229  35.655  28.816  1.00  0.00     0.006 A 
ENDBRANCH  56  73
ENDBRANCH  30  31
ENDBRANCH  23  25
ENDBRANCH  22  23
ENDBRANCH  21  22
ENDBRANCH   1  21
TORSDOF 13
ENDMDL
MODEL 3
REMARK VINA RESULT:     -11.3      3.578      8.843
REMARK SMILES Cc1cc(=O)cc(C)n1C[C@H]1CCCC[C@@H]1C(=O)OCCOC(=O)c1ccc(-c2c3nc(c(-c4c(F)cccc4F)c4ccc([nH]4)c(-c4c(F)cccc4F)c4nc(c(-c5c(F)cccc5F)c5ccc2[nH]5)C=C4)C=C3)cc1
REMARK SMILES IDX 20 1 19 2 17 3 18 4 16 5 11 6 12 7 13 8 15 9 14 10 10 11
REMARK SMILES IDX 9 12 1 13 2 14 3 15 4 16 7 17 5 18 6 19 8 20 21 21 22 22
REMARK SMILES IDX 23 23 24 24 25 25 26 26 78 27 27 28 77 29 28 30 29 31 30 32
REMARK SMILES IDX 71 33 31 34 76 35 70 36 72 37 32 38 75 39 69 40 68 41 33 43
REMARK SMILES IDX 59 44 42 45 58 46 43 47 46 48 57 49 73 50 44 51 45 52 56 54
REMARK SMILES IDX 74 55 47 56 34 57 35 58 40 59 36 60 37 61 39 62 41 63 38 64
REMARK SMILES IDX 60 65 61 66 66 67 62 68 63 69 65 70 67 71 64 72 48 73 49 74
REMARK SMILES IDX 54 75 50 76 51 77 53 78 55 79 52 80
REMARK H PARENT 72 42 46 53
REMARK Flexibility Score: inf
ROOT
ATOM      1  C   UNL A   1      34.910  21.359  26.078  1.00  0.00     0.274 C 
ENDROOT
BRANCH   1   2
ATOM      2  O   UNL A   1      34.798  22.785  25.851  1.00  0.00    -0.462 OA
BRANCH   2   3
ATOM      3  C   UNL A   1      33.519  23.242  25.746  1.00  0.00     0.309 C 
ATOM      4  O   UNL A   1      32.577  22.767  26.369  1.00  0.00    -0.252 OA
BRANCH   3   5
ATOM      5  C   UNL A   1      33.389  24.390  24.729  1.00  0.00     0.104 C 
ATOM      6  C   UNL A   1      32.069  24.317  23.907  1.00  0.00     0.023 C 
ATOM      7  C   UNL A   1      32.128  23.042  23.061  1.00  0.00     0.006 C 
ATOM      8  C   UNL A   1      33.310  22.979  22.101  1.00  0.00     0.000 C 
ATOM      9  C   UNL A   1      34.622  24.381  23.802  1.00  0.00     0.016 C 
ATOM     10  C   UNL A   1      34.645  23.220  22.800  1.00  0.00     0.001 C 
BRANCH   6  11
ATOM     11  C   UNL A   1      31.852  25.583  23.021  1.00  0.00     0.126 C 
BRANCH  11  12
ATOM     12  N   UNL A   1      32.029  26.882  23.748  1.00  0.00    -0.349 N 
ATOM     13  C   UNL A   1      33.754  27.623  22.028  1.00  0.00     0.064 C 
ATOM     14  C   UNL A   1      33.052  27.790  23.354  1.00  0.00     0.018 A 
ATOM     15  C   UNL A   1      33.385  28.869  24.086  1.00  0.00     0.073 A 
ATOM     16  C   UNL A   1      32.670  29.148  25.339  1.00  0.00     0.182 A 
ATOM     17  C   UNL A   1      31.169  27.300  24.806  1.00  0.00     0.018 A 
ATOM     18  O   UNL A   1      33.040  30.034  26.100  1.00  0.00    -0.290 OA
ATOM     19  C   UNL A   1      31.456  28.357  25.592  1.00  0.00     0.073 A 
ATOM     20  C   UNL A   1      29.816  26.673  25.040  1.00  0.00     0.064 C 
ENDBRANCH  11  12
ENDBRANCH   6  11
ENDBRANCH   3   5
ENDBRANCH   2   3
ENDBRANCH   1   2
BRANCH   1  21
ATOM     21  C   UNL A   1      35.785  20.683  25.021  1.00  0.00     0.275 C 
BRANCH  21  22
ATOM     22  O   UNL A   1      36.943  21.489  24.741  1.00  0.00    -0.458 OA
BRANCH  22  23
ATOM     23  C   UNL A   1      38.094  21.111  25.352  1.00  0.00     0.338 C 
ATOM     24  O   UNL A   1      38.628  20.018  25.263  1.00  0.00    -0.246 OA
BRANCH  23  25
ATOM     25  C   UNL A   1      38.695  22.246  26.110  1.00  0.00     0.060 A 
ATOM     26  C   UNL A   1      38.166  23.529  26.043  1.00  0.00     0.016 A 
ATOM     27  C   UNL A   1      39.887  22.054  26.812  1.00  0.00     0.016 A 
ATOM     28  C   UNL A   1      38.912  24.624  26.504  1.00  0.00     0.010 A 
ATOM     29  C   UNL A   1      40.566  23.146  27.383  1.00  0.00     0.010 A 
ATOM     30  C   UNL A   1      40.134  24.469  27.175  1.00  0.00    -0.014 A 
BRANCH  30  31
ATOM     31  C   UNL A   1      40.994  25.647  27.568  1.00  0.00     0.031 A 
ATOM     32  C   UNL A   1      40.463  26.699  28.529  1.00  0.00     0.074 A 
ATOM     33  C   UNL A   1      42.271  25.806  27.151  1.00  0.00     0.049 A 
ATOM     34  N   UNL A   1      40.894  27.920  28.742  1.00  0.00    -0.248 NA
ATOM     35  C   UNL A   1      39.299  26.333  29.348  1.00  0.00     0.031 C 
ATOM     36  C   UNL A   1      43.025  24.888  26.300  1.00  0.00     0.029 A 
ATOM     37  N   UNL A   1      43.182  26.809  27.419  1.00  0.00    -0.354 N 
ATOM     38  C   UNL A   1      39.992  28.495  29.632  1.00  0.00     0.074 A 
ATOM     39  C   UNL A   1      39.014  27.479  29.953  1.00  0.00     0.031 C 
ATOM     40  C   UNL A   1      44.296  25.306  26.206  1.00  0.00     0.029 A 
ATOM     41  C   UNL A   1      44.419  26.606  26.854  1.00  0.00     0.049 A 
ATOM     42  H   UNL A   1      42.964  27.600  27.965  1.00  0.00     0.167 HD
ATOM     43  C   UNL A   1      39.972  29.755  30.132  1.00  0.00     0.037 A 
ATOM     44  C   UNL A   1      45.516  27.388  26.790  1.00  0.00     0.037 A 
ATOM     45  C   UNL A   1      40.999  30.741  29.925  1.00  0.00     0.049 A 
ATOM     46  C   UNL A   1      45.475  28.790  27.326  1.00  0.00     0.074 A 
ATOM     47  C   UNL A   1      41.035  32.056  30.364  1.00  0.00     0.029 A 
ATOM     48  N   UNL A   1      42.198  30.504  29.279  1.00  0.00    -0.354 N 
ATOM     49  N   UNL A   1      44.516  29.397  27.979  1.00  0.00    -0.248 NA
ATOM     50  C   UNL A   1      46.649  29.639  27.058  1.00  0.00     0.031 C 
ATOM     51  C   UNL A   1      42.258  32.614  29.982  1.00  0.00     0.029 A 
ATOM     52  C   UNL A   1      42.988  31.641  29.324  1.00  0.00     0.049 A 
ATOM     53  H   UNL A   1      42.452  29.656  28.850  1.00  0.00     0.167 HD
ATOM     54  C   UNL A   1      44.963  30.696  28.186  1.00  0.00     0.074 A 
ATOM     55  C   UNL A   1      46.292  30.785  27.623  1.00  0.00     0.031 C 
ATOM     56  C   UNL A   1      44.312  31.729  28.771  1.00  0.00     0.037 A 
BRANCH  43  57
ATOM     57  C   UNL A   1      38.782  30.171  30.942  1.00  0.00     0.057 A 
ATOM     58  C   UNL A   1      37.634  30.706  30.352  1.00  0.00     0.134 A 
ATOM     59  C   UNL A   1      38.754  29.929  32.323  1.00  0.00     0.134 A 
ATOM     60  F   UNL A   1      37.595  30.941  29.032  1.00  0.00    -0.206 F 
ATOM     61  C   UNL A   1      36.498  30.998  31.111  1.00  0.00     0.040 A 
ATOM     62  C   UNL A   1      37.617  30.194  33.087  1.00  0.00     0.040 A 
ATOM     63  F   UNL A   1      39.819  29.396  32.942  1.00  0.00    -0.206 F 
ATOM     64  C   UNL A   1      36.485  30.732  32.480  1.00  0.00     0.006 A 
ENDBRANCH  43  57
BRANCH  44  65
ATOM     65  C   UNL A   1      46.742  26.892  26.110  1.00  0.00     0.057 A 
ATOM     66  C   UNL A   1      46.968  27.159  24.755  1.00  0.00     0.134 A 
ATOM     67  C   UNL A   1      47.707  26.141  26.790  1.00  0.00     0.134 A 
ATOM     68  F   UNL A   1      46.062  27.842  24.039  1.00  0.00    -0.206 F 
ATOM     69  C   UNL A   1      48.115  26.703  24.103  1.00  0.00     0.040 A 
ATOM     70  C   UNL A   1      48.873  25.705  26.160  1.00  0.00     0.040 A 
ATOM     71  F   UNL A   1      47.542  25.841  28.087  1.00  0.00    -0.206 F 
ATOM     72  C   UNL A   1      49.077  25.983  24.810  1.00  0.00     0.006 A 
ENDBRANCH  44  65
BRANCH  56  73
ATOM     73  C   UNL A   1      45.022  33.044  28.847  1.00  0.00     0.057 A 
ATOM     74  C   UNL A   1      45.884  33.347  29.908  1.00  0.00     0.134 A 
ATOM     75  C   UNL A   1      44.885  33.995  27.828  1.00  0.00     0.134 A 
ATOM     76  F   UNL A   1      46.047  32.480  30.918  1.00  0.00    -0.206 F 
ATOM     77  C   UNL A   1      46.578  34.556  29.959  1.00  0.00     0.040 A 
ATOM     78  C   UNL A   1      45.587  35.201  27.860  1.00  0.00     0.040 A 
ATOM     79  F   UNL A   1      44.079  33.761  26.782  1.00  0.00    -0.206 F 
ATOM     80  C   UNL A   1      46.435  35.485  28.929  1.00  0.00     0.006 A 
ENDBRANCH  56  73
ENDBRANCH  30  31
ENDBRANCH  23  25
ENDBRANCH  22  23
ENDBRANCH  21  22
ENDBRANCH   1  21
TORSDOF 13
ENDMDL
