MODEL 1
REMARK VINA RESULT:     -11.8      0.000      0.000
REMARK SMILES O=C(OCCOC(=O)c1cc(-c2cccc(Cl)c2)ccc1Cl)c1ccc(-c2c3nc(c(-c4c(F)cccc4F)c4ccc([nH]4)c(-c4c(F)cccc4F)c4nc(c(-c5c(F)cccc5F)c5ccc2[nH]5)C=C4)C=C3)cc1
REMARK SMILES IDX 4 1 3 2 2 3 1 4 23 5 24 6 76 7 25 8 75 9 26 10 27 11 28 12
REMARK SMILES IDX 69 13 29 14 74 15 68 16 70 17 30 18 73 19 67 20 66 21 31 23
REMARK SMILES IDX 57 24 40 25 56 26 41 27 44 28 55 29 71 30 42 31 43 32 54 34
REMARK SMILES IDX 72 35 45 36 32 37 33 38 38 39 34 40 35 41 37 42 39 43 36 44
REMARK SMILES IDX 58 45 59 46 64 47 60 48 61 49 63 50 65 51 62 52 46 53 47 54
REMARK SMILES IDX 52 55 48 56 49 57 51 58 53 59 50 60 5 61 6 62 7 63 8 64 9 65
REMARK SMILES IDX 10 66 21 67 11 68 20 69 22 70 19 71 12 72 13 73 18 74 14 75
REMARK SMILES IDX 16 76 15 77 17 78
REMARK H PARENT 70 22 44 33
REMARK Flexibility Score: inf
ROOT
ATOM      1  C   UNL A   1      31.410  32.226  26.880  1.00  0.00     0.275 C 
ENDROOT
BRANCH   1   2
ATOM      2  O   UNL A   1      32.240  33.396  26.968  1.00  0.00    -0.458 OA
BRANCH   2   3
ATOM      3  C   UNL A   1      32.947  33.898  28.005  1.00  0.00     0.338 C 
ATOM      4  O   UNL A   1      32.546  34.934  28.534  1.00  0.00    -0.246 OA
BRANCH   3   5
ATOM      5  C   UNL A   1      34.249  33.337  28.500  1.00  0.00     0.060 A 
ATOM      6  C   UNL A   1      35.525  33.821  28.220  1.00  0.00     0.016 A 
ATOM      7  C   UNL A   1      34.155  32.223  29.357  1.00  0.00     0.016 A 
ATOM      8  C   UNL A   1      36.655  33.276  28.830  1.00  0.00     0.010 A 
ATOM      9  C   UNL A   1      35.278  31.686  29.995  1.00  0.00     0.010 A 
ATOM     10  C   UNL A   1      36.539  32.220  29.733  1.00  0.00    -0.014 A 
BRANCH  10  11
ATOM     11  C   UNL A   1      37.778  31.635  30.285  1.00  0.00     0.031 A 
ATOM     12  C   UNL A   1      38.166  31.974  31.689  1.00  0.00     0.074 A 
ATOM     13  C   UNL A   1      38.455  30.707  29.584  1.00  0.00     0.049 A 
ATOM     14  N   UNL A   1      39.114  31.461  32.425  1.00  0.00    -0.248 NA
ATOM     15  C   UNL A   1      37.351  32.994  32.371  1.00  0.00     0.031 C 
ATOM     16  C   UNL A   1      38.088  30.243  28.249  1.00  0.00     0.029 A 
ATOM     17  N   UNL A   1      39.568  29.968  29.889  1.00  0.00    -0.354 N 
ATOM     18  C   UNL A   1      38.974  32.053  33.670  1.00  0.00     0.074 A 
ATOM     19  C   UNL A   1      37.903  33.019  33.573  1.00  0.00     0.031 C 
ATOM     20  C   UNL A   1      38.974  29.328  27.828  1.00  0.00     0.029 A 
ATOM     21  C   UNL A   1      39.968  29.130  28.875  1.00  0.00     0.049 A 
ATOM     22  H   UNL A   1      40.036  30.032  30.753  1.00  0.00     0.167 HD
ATOM     23  C   UNL A   1      39.657  31.780  34.804  1.00  0.00     0.037 A 
ATOM     24  C   UNL A   1      41.016  28.289  28.807  1.00  0.00     0.037 A 
ATOM     25  C   UNL A   1      40.746  30.844  34.869  1.00  0.00     0.049 A 
ATOM     26  C   UNL A   1      41.853  28.115  30.044  1.00  0.00     0.074 A 
ATOM     27  C   UNL A   1      41.555  30.534  35.945  1.00  0.00     0.029 A 
ATOM     28  N   UNL A   1      41.185  30.075  33.798  1.00  0.00    -0.354 N 
ATOM     29  N   UNL A   1      41.704  28.670  31.224  1.00  0.00    -0.248 NA
ATOM     30  C   UNL A   1      42.978  27.177  29.957  1.00  0.00     0.031 C 
ATOM     31  C   UNL A   1      42.517  29.613  35.511  1.00  0.00     0.029 A 
ATOM     32  C   UNL A   1      42.271  29.307  34.181  1.00  0.00     0.049 A 
ATOM     33  H   UNL A   1      40.782  30.076  32.900  1.00  0.00     0.167 HD
ATOM     34  C   UNL A   1      42.693  28.126  32.030  1.00  0.00     0.074 A 
ATOM     35  C   UNL A   1      43.419  27.179  31.207  1.00  0.00     0.031 C 
ATOM     36  C   UNL A   1      42.976  28.381  33.331  1.00  0.00     0.037 A 
BRANCH  23  37
ATOM     37  C   UNL A   1      39.247  32.529  36.036  1.00  0.00     0.057 A 
ATOM     38  C   UNL A   1      39.786  33.785  36.347  1.00  0.00     0.134 A 
ATOM     39  C   UNL A   1      38.327  31.979  36.935  1.00  0.00     0.134 A 
ATOM     40  F   UNL A   1      40.696  34.354  35.540  1.00  0.00    -0.206 F 
ATOM     41  C   UNL A   1      39.442  34.458  37.521  1.00  0.00     0.040 A 
ATOM     42  C   UNL A   1      37.957  32.652  38.101  1.00  0.00     0.040 A 
ATOM     43  F   UNL A   1      37.783  30.776  36.702  1.00  0.00    -0.206 F 
ATOM     44  C   UNL A   1      38.520  33.891  38.400  1.00  0.00     0.006 A 
ENDBRANCH  23  37
BRANCH  24  45
ATOM     45  C   UNL A   1      41.331  27.564  27.548  1.00  0.00     0.057 A 
ATOM     46  C   UNL A   1      40.903  26.250  27.318  1.00  0.00     0.134 A 
ATOM     47  C   UNL A   1      42.118  28.160  26.554  1.00  0.00     0.134 A 
ATOM     48  F   UNL A   1      40.154  25.615  28.230  1.00  0.00    -0.206 F 
ATOM     49  C   UNL A   1      41.278  25.546  26.170  1.00  0.00     0.040 A 
ATOM     50  C   UNL A   1      42.479  27.478  25.390  1.00  0.00     0.040 A 
ATOM     51  F   UNL A   1      42.554  29.422  26.700  1.00  0.00    -0.206 F 
ATOM     52  C   UNL A   1      42.070  26.160  25.203  1.00  0.00     0.006 A 
ENDBRANCH  24  45
BRANCH  36  53
ATOM     53  C   UNL A   1      44.109  27.603  33.935  1.00  0.00     0.057 A 
ATOM     54  C   UNL A   1      45.420  28.092  33.938  1.00  0.00     0.134 A 
ATOM     55  C   UNL A   1      43.878  26.358  34.533  1.00  0.00     0.134 A 
ATOM     56  F   UNL A   1      45.709  29.272  33.367  1.00  0.00    -0.206 F 
ATOM     57  C   UNL A   1      46.470  27.353  34.481  1.00  0.00     0.040 A 
ATOM     58  C   UNL A   1      44.913  25.625  35.111  1.00  0.00     0.040 A 
ATOM     59  F   UNL A   1      42.641  25.839  34.571  1.00  0.00    -0.206 F 
ATOM     60  C   UNL A   1      46.216  26.118  35.077  1.00  0.00     0.006 A 
ENDBRANCH  36  53
ENDBRANCH  10  11
ENDBRANCH   3   5
ENDBRANCH   2   3
ENDBRANCH   1   2
BRANCH   1  61
ATOM     61  C   UNL A   1      32.167  30.925  26.598  1.00  0.00     0.275 C 
BRANCH  61  62
ATOM     62  O   UNL A   1      31.415  29.978  25.823  1.00  0.00    -0.458 OA
BRANCH  62  63
ATOM     63  C   UNL A   1      32.126  29.240  24.931  1.00  0.00     0.339 C 
ATOM     64  O   UNL A   1      33.113  29.596  24.309  1.00  0.00    -0.246 OA
BRANCH  63  65
ATOM     65  C   UNL A   1      31.606  27.858  24.904  1.00  0.00     0.079 A 
ATOM     66  C   UNL A   1      32.376  26.851  25.521  1.00  0.00     0.026 A 
ATOM     67  C   UNL A   1      30.407  27.531  24.269  1.00  0.00     0.055 A 
ATOM     68  C   UNL A   1      31.920  25.522  25.561  1.00  0.00    -0.017 A 
ATOM     69  C   UNL A   1      29.938  26.216  24.323  1.00  0.00     0.022 A 
ATOM     70  Cl  UNL A   1      29.477  28.676  23.368  1.00  0.00    -0.083 Cl
ATOM     71  C   UNL A   1      30.675  25.230  24.983  1.00  0.00     0.010 A 
BRANCH  68  72
ATOM     72  C   UNL A   1      32.731  24.432  26.121  1.00  0.00    -0.017 A 
ATOM     73  C   UNL A   1      32.142  23.521  27.015  1.00  0.00     0.009 A 
ATOM     74  C   UNL A   1      34.094  24.282  25.833  1.00  0.00     0.029 A 
ATOM     75  C   UNL A   1      32.886  22.494  27.600  1.00  0.00     0.002 A 
ATOM     76  C   UNL A   1      34.838  23.254  26.420  1.00  0.00     0.041 A 
ATOM     77  C   UNL A   1      34.239  22.360  27.301  1.00  0.00     0.020 A 
ATOM     78  Cl  UNL A   1      36.515  23.103  26.060  1.00  0.00    -0.084 Cl
ENDBRANCH  68  72
ENDBRANCH  63  65
ENDBRANCH  62  63
ENDBRANCH  61  62
ENDBRANCH   1  61
TORSDOF 12
ENDMDL
MODEL 2
REMARK VINA RESULT:     -11.6      1.621      3.584
REMARK SMILES O=C(OCCOC(=O)c1cc(-c2cccc(Cl)c2)ccc1Cl)c1ccc(-c2c3nc(c(-c4c(F)cccc4F)c4ccc([nH]4)c(-c4c(F)cccc4F)c4nc(c(-c5c(F)cccc5F)c5ccc2[nH]5)C=C4)C=C3)cc1
REMARK SMILES IDX 4 1 3 2 2 3 1 4 23 5 24 6 76 7 25 8 75 9 26 10 27 11 28 12
REMARK SMILES IDX 69 13 29 14 74 15 68 16 70 17 30 18 73 19 67 20 66 21 31 23
REMARK SMILES IDX 57 24 40 25 56 26 41 27 44 28 55 29 71 30 42 31 43 32 54 34
REMARK SMILES IDX 72 35 45 36 32 37 33 38 38 39 34 40 35 41 37 42 39 43 36 44
REMARK SMILES IDX 58 45 59 46 64 47 60 48 61 49 63 50 65 51 62 52 46 53 47 54
REMARK SMILES IDX 52 55 48 56 49 57 51 58 53 59 50 60 5 61 6 62 7 63 8 64 9 65
REMARK SMILES IDX 10 66 21 67 11 68 20 69 22 70 19 71 12 72 13 73 18 74 14 75
REMARK SMILES IDX 16 76 15 77 17 78
REMARK H PARENT 70 22 44 33
REMARK Flexibility Score: inf
ROOT
ATOM      1  C   UNL A   1      31.900  32.038  27.160  1.00  0.00     0.275 C 
ENDROOT
BRANCH   1   2
ATOM      2  O   UNL A   1      32.448  33.365  27.251  1.00  0.00    -0.458 OA
BRANCH   2   3
ATOM      3  C   UNL A   1      33.181  33.949  28.225  1.00  0.00     0.338 C 
ATOM      4  O   UNL A   1      32.908  35.107  28.540  1.00  0.00    -0.246 OA
BRANCH   3   5
ATOM      5  C   UNL A   1      34.374  33.322  28.887  1.00  0.00     0.060 A 
ATOM      6  C   UNL A   1      34.357  32.394  29.926  1.00  0.00     0.016 A 
ATOM      7  C   UNL A   1      35.632  33.701  28.380  1.00  0.00     0.016 A 
ATOM      8  C   UNL A   1      35.533  31.801  30.384  1.00  0.00     0.010 A 
ATOM      9  C   UNL A   1      36.815  33.095  28.814  1.00  0.00     0.010 A 
ATOM     10  C   UNL A   1      36.766  32.133  29.822  1.00  0.00    -0.014 A 
BRANCH  10  11
ATOM     11  C   UNL A   1      37.984  31.531  30.404  1.00  0.00     0.031 A 
ATOM     12  C   UNL A   1      38.356  31.885  31.808  1.00  0.00     0.074 A 
ATOM     13  C   UNL A   1      38.651  30.578  29.728  1.00  0.00     0.049 A 
ATOM     14  N   UNL A   1      39.282  31.365  32.566  1.00  0.00    -0.248 NA
ATOM     15  C   UNL A   1      37.553  32.933  32.460  1.00  0.00     0.031 C 
ATOM     16  C   UNL A   1      38.294  30.100  28.395  1.00  0.00     0.029 A 
ATOM     17  N   UNL A   1      39.742  29.821  30.063  1.00  0.00    -0.354 N 
ATOM     18  C   UNL A   1      39.136  31.980  33.800  1.00  0.00     0.074 A 
ATOM     19  C   UNL A   1      38.088  32.967  33.670  1.00  0.00     0.031 C 
ATOM     20  C   UNL A   1      39.167  29.159  28.004  1.00  0.00     0.029 A 
ATOM     21  C   UNL A   1      40.140  28.957  29.069  1.00  0.00     0.049 A 
ATOM     22  H   UNL A   1      40.199  29.889  30.933  1.00  0.00     0.167 HD
ATOM     23  C   UNL A   1      39.796  31.711  34.948  1.00  0.00     0.037 A 
ATOM     24  C   UNL A   1      41.171  28.093  29.032  1.00  0.00     0.037 A 
ATOM     25  C   UNL A   1      40.862  30.754  35.046  1.00  0.00     0.049 A 
ATOM     26  C   UNL A   1      41.985  27.922  30.284  1.00  0.00     0.074 A 
ATOM     27  C   UNL A   1      41.649  30.445  36.140  1.00  0.00     0.029 A 
ATOM     28  N   UNL A   1      41.301  29.958  33.995  1.00  0.00    -0.354 N 
ATOM     29  N   UNL A   1      41.830  28.500  31.452  1.00  0.00    -0.248 NA
ATOM     30  C   UNL A   1      43.091  26.959  30.230  1.00  0.00     0.031 C 
ATOM     31  C   UNL A   1      42.597  29.497  35.736  1.00  0.00     0.029 A 
ATOM     32  C   UNL A   1      42.365  29.174  34.407  1.00  0.00     0.049 A 
ATOM     33  H   UNL A   1      40.913  29.952  33.090  1.00  0.00     0.167 HD
ATOM     34  C   UNL A   1      42.794  27.948  32.282  1.00  0.00     0.074 A 
ATOM     35  C   UNL A   1      43.513  26.972  31.486  1.00  0.00     0.031 C 
ATOM     36  C   UNL A   1      43.062  28.218  33.584  1.00  0.00     0.037 A 
BRANCH  23  37
ATOM     37  C   UNL A   1      39.382  32.489  36.161  1.00  0.00     0.057 A 
ATOM     38  C   UNL A   1      39.989  33.709  36.495  1.00  0.00     0.134 A 
ATOM     39  C   UNL A   1      38.391  32.004  37.020  1.00  0.00     0.134 A 
ATOM     40  F   UNL A   1      40.969  34.214  35.729  1.00  0.00    -0.206 F 
ATOM     41  C   UNL A   1      39.640  34.406  37.653  1.00  0.00     0.040 A 
ATOM     42  C   UNL A   1      38.016  32.703  38.168  1.00  0.00     0.040 A 
ATOM     43  F   UNL A   1      37.779  30.839  36.764  1.00  0.00    -0.206 F 
ATOM     44  C   UNL A   1      38.646  33.903  38.491  1.00  0.00     0.006 A 
ENDBRANCH  23  37
BRANCH  24  45
ATOM     45  C   UNL A   1      41.489  27.340  27.789  1.00  0.00     0.057 A 
ATOM     46  C   UNL A   1      42.265  27.893  26.763  1.00  0.00     0.134 A 
ATOM     47  C   UNL A   1      40.978  26.052  27.579  1.00  0.00     0.134 A 
ATOM     48  F   UNL A   1      42.778  29.124  26.892  1.00  0.00    -0.206 F 
ATOM     49  C   UNL A   1      42.485  27.212  25.561  1.00  0.00     0.040 A 
ATOM     50  C   UNL A   1      41.212  25.350  26.396  1.00  0.00     0.040 A 
ATOM     51  F   UNL A   1      40.237  25.454  28.526  1.00  0.00    -0.206 F 
ATOM     52  C   UNL A   1      41.957  25.937  25.375  1.00  0.00     0.006 A 
ENDBRANCH  24  45
BRANCH  36  53
ATOM     53  C   UNL A   1      44.169  27.427  34.217  1.00  0.00     0.057 A 
ATOM     54  C   UNL A   1      45.483  27.907  34.270  1.00  0.00     0.134 A 
ATOM     55  C   UNL A   1      43.910  26.178  34.795  1.00  0.00     0.134 A 
ATOM     56  F   UNL A   1      45.799  29.090  33.721  1.00  0.00    -0.206 F 
ATOM     57  C   UNL A   1      46.509  27.155  34.841  1.00  0.00     0.040 A 
ATOM     58  C   UNL A   1      44.920  25.433  35.400  1.00  0.00     0.040 A 
ATOM     59  F   UNL A   1      42.669  25.667  34.787  1.00  0.00    -0.206 F 
ATOM     60  C   UNL A   1      46.226  25.916  35.416  1.00  0.00     0.006 A 
ENDBRANCH  36  53
ENDBRANCH  10  11
ENDBRANCH   3   5
ENDBRANCH   2   3
ENDBRANCH   1   2
BRANCH   1  61
ATOM     61  C   UNL A   1      32.944  30.922  27.059  1.00  0.00     0.275 C 
BRANCH  61  62
ATOM     62  O   UNL A   1      32.409  29.611  27.304  1.00  0.00    -0.458 OA
BRANCH  62  63
ATOM     63  C   UNL A   1      32.858  28.622  26.488  1.00  0.00     0.339 C 
ATOM     64  O   UNL A   1      33.941  28.065  26.541  1.00  0.00    -0.246 OA
BRANCH  63  65
ATOM     65  C   UNL A   1      31.777  28.207  25.572  1.00  0.00     0.079 A 
ATOM     66  C   UNL A   1      31.151  29.202  24.794  1.00  0.00     0.026 A 
ATOM     67  C   UNL A   1      31.351  26.880  25.483  1.00  0.00     0.055 A 
ATOM     68  C   UNL A   1      30.140  28.868  23.878  1.00  0.00    -0.017 A 
ATOM     69  C   UNL A   1      30.361  26.537  24.559  1.00  0.00     0.022 A 
ATOM     70  Cl  UNL A   1      31.964  25.626  26.501  1.00  0.00    -0.083 Cl
ATOM     71  C   UNL A   1      29.780  27.517  23.750  1.00  0.00     0.010 A 
BRANCH  68  72
ATOM     72  C   UNL A   1      29.408  29.886  23.111  1.00  0.00    -0.017 A 
ATOM     73  C   UNL A   1      28.703  29.508  21.955  1.00  0.00     0.009 A 
ATOM     74  C   UNL A   1      29.416  31.243  23.461  1.00  0.00     0.029 A 
ATOM     75  C   UNL A   1      28.027  30.450  21.177  1.00  0.00     0.002 A 
ATOM     76  C   UNL A   1      28.740  32.185  22.681  1.00  0.00     0.041 A 
ATOM     77  C   UNL A   1      28.045  31.794  21.541  1.00  0.00     0.020 A 
ATOM     78  Cl  UNL A   1      28.780  33.848  23.126  1.00  0.00    -0.084 Cl
ENDBRANCH  68  72
ENDBRANCH  63  65
ENDBRANCH  62  63
ENDBRANCH  61  62
ENDBRANCH   1  61
TORSDOF 12
ENDMDL
MODEL 3
REMARK VINA RESULT:     -11.6      4.276      8.729
REMARK SMILES O=C(OCCOC(=O)c1cc(-c2cccc(Cl)c2)ccc1Cl)c1ccc(-c2c3nc(c(-c4c(F)cccc4F)c4ccc([nH]4)c(-c4c(F)cccc4F)c4nc(c(-c5c(F)cccc5F)c5ccc2[nH]5)C=C4)C=C3)cc1
REMARK SMILES IDX 4 1 3 2 2 3 1 4 23 5 24 6 76 7 25 8 75 9 26 10 27 11 28 12
REMARK SMILES IDX 69 13 29 14 74 15 68 16 70 17 30 18 73 19 67 20 66 21 31 23
REMARK SMILES IDX 57 24 40 25 56 26 41 27 44 28 55 29 71 30 42 31 43 32 54 34
REMARK SMILES IDX 72 35 45 36 32 37 33 38 38 39 34 40 35 41 37 42 39 43 36 44
REMARK SMILES IDX 58 45 59 46 64 47 60 48 61 49 63 50 65 51 62 52 46 53 47 54
REMARK SMILES IDX 52 55 48 56 49 57 51 58 53 59 50 60 5 61 6 62 7 63 8 64 9 65
REMARK SMILES IDX 10 66 21 67 11 68 20 69 22 70 19 71 12 72 13 73 18 74 14 75
REMARK SMILES IDX 16 76 15 77 17 78
REMARK H PARENT 70 22 44 33
REMARK Flexibility Score: inf
ROOT
ATOM      1  C   UNL A   1      36.838  21.493  25.491  1.00  0.00     0.275 C 
ENDROOT
BRANCH   1   2
ATOM      2  O   UNL A   1      37.744  22.609  25.479  1.00  0.00    -0.458 OA
BRANCH   2   3
ATOM      3  C   UNL A   1      38.895  22.815  26.157  1.00  0.00     0.338 C 
ATOM      4  O   UNL A   1      39.654  21.859  26.317  1.00  0.00    -0.246 OA
BRANCH   3   5
ATOM      5  C   UNL A   1      39.275  24.108  26.820  1.00  0.00     0.060 A 
ATOM      6  C   UNL A   1      39.103  24.439  28.162  1.00  0.00     0.016 A 
ATOM      7  C   UNL A   1      39.891  25.068  25.993  1.00  0.00     0.016 A 
ATOM      8  C   UNL A   1      39.598  25.635  28.681  1.00  0.00     0.010 A 
ATOM      9  C   UNL A   1      40.415  26.259  26.508  1.00  0.00     0.010 A 
ATOM     10  C   UNL A   1      40.271  26.543  27.865  1.00  0.00    -0.014 A 
BRANCH  10  11
ATOM     11  C   UNL A   1      40.702  27.827  28.456  1.00  0.00     0.031 A 
ATOM     12  C   UNL A   1      42.164  28.125  28.530  1.00  0.00     0.074 A 
ATOM     13  C   UNL A   1      39.786  28.758  28.782  1.00  0.00     0.049 A 
ATOM     14  N   UNL A   1      42.758  29.240  28.860  1.00  0.00    -0.248 NA
ATOM     15  C   UNL A   1      43.081  27.041  28.139  1.00  0.00     0.031 C 
ATOM     16  C   UNL A   1      38.342  28.587  28.645  1.00  0.00     0.029 A 
ATOM     17  N   UNL A   1      39.917  30.032  29.267  1.00  0.00    -0.354 N 
ATOM     18  C   UNL A   1      44.111  29.009  28.663  1.00  0.00     0.074 A 
ATOM     19  C   UNL A   1      44.260  27.628  28.260  1.00  0.00     0.031 C 
ATOM     20  C   UNL A   1      37.714  29.694  29.070  1.00  0.00     0.029 A 
ATOM     21  C   UNL A   1      38.717  30.662  29.496  1.00  0.00     0.049 A 
ATOM     22  H   UNL A   1      40.790  30.458  29.435  1.00  0.00     0.167 HD
ATOM     23  C   UNL A   1      45.131  29.889  28.771  1.00  0.00     0.037 A 
ATOM     24  C   UNL A   1      38.459  31.887  29.988  1.00  0.00     0.037 A 
ATOM     25  C   UNL A   1      44.966  31.246  29.212  1.00  0.00     0.049 A 
ATOM     26  C   UNL A   1      39.628  32.798  30.240  1.00  0.00     0.074 A 
ATOM     27  C   UNL A   1      45.933  32.210  29.425  1.00  0.00     0.029 A 
ATOM     28  N   UNL A   1      43.742  31.826  29.523  1.00  0.00    -0.354 N 
ATOM     29  N   UNL A   1      40.905  32.575  30.037  1.00  0.00    -0.248 NA
ATOM     30  C   UNL A   1      39.326  34.139  30.755  1.00  0.00     0.031 C 
ATOM     31  C   UNL A   1      45.299  33.358  29.912  1.00  0.00     0.029 A 
ATOM     32  C   UNL A   1      43.931  33.130  29.950  1.00  0.00     0.049 A 
ATOM     33  H   UNL A   1      42.869  31.377  29.451  1.00  0.00     0.167 HD
ATOM     34  C   UNL A   1      41.556  33.754  30.365  1.00  0.00     0.074 A 
ATOM     35  C   UNL A   1      40.527  34.697  30.759  1.00  0.00     0.031 C 
ATOM     36  C   UNL A   1      42.883  34.037  30.343  1.00  0.00     0.037 A 
BRANCH  23  37
ATOM     37  C   UNL A   1      46.499  29.381  28.427  1.00  0.00     0.057 A 
ATOM     38  C   UNL A   1      47.338  28.812  29.396  1.00  0.00     0.134 A 
ATOM     39  C   UNL A   1      46.996  29.487  27.124  1.00  0.00     0.134 A 
ATOM     40  F   UNL A   1      46.932  28.709  30.672  1.00  0.00    -0.206 F 
ATOM     41  C   UNL A   1      48.630  28.387  29.085  1.00  0.00     0.040 A 
ATOM     42  C   UNL A   1      48.278  29.045  26.795  1.00  0.00     0.040 A 
ATOM     43  F   UNL A   1      46.248  30.031  26.153  1.00  0.00    -0.206 F 
ATOM     44  C   UNL A   1      49.102  28.500  27.778  1.00  0.00     0.006 A 
ENDBRANCH  23  37
BRANCH  24  45
ATOM     45  C   UNL A   1      37.064  32.317  30.272  1.00  0.00     0.057 A 
ATOM     46  C   UNL A   1      36.305  33.042  29.344  1.00  0.00     0.134 A 
ATOM     47  C   UNL A   1      36.469  32.049  31.512  1.00  0.00     0.134 A 
ATOM     48  F   UNL A   1      36.815  33.342  28.142  1.00  0.00    -0.206 F 
ATOM     49  C   UNL A   1      35.027  33.518  29.654  1.00  0.00     0.040 A 
ATOM     50  C   UNL A   1      35.183  32.495  31.825  1.00  0.00     0.040 A 
ATOM     51  F   UNL A   1      37.132  31.347  32.445  1.00  0.00    -0.206 F 
ATOM     52  C   UNL A   1      34.464  33.246  30.897  1.00  0.00     0.006 A 
ENDBRANCH  24  45
BRANCH  36  53
ATOM     53  C   UNL A   1      43.277  35.429  30.740  1.00  0.00     0.057 A 
ATOM     54  C   UNL A   1      43.407  36.457  29.798  1.00  0.00     0.134 A 
ATOM     55  C   UNL A   1      43.514  35.746  32.083  1.00  0.00     0.134 A 
ATOM     56  F   UNL A   1      43.208  36.214  28.493  1.00  0.00    -0.206 F 
ATOM     57  C   UNL A   1      43.795  37.742  30.173  1.00  0.00     0.040 A 
ATOM     58  C   UNL A   1      43.868  37.036  32.475  1.00  0.00     0.040 A 
ATOM     59  F   UNL A   1      43.396  34.808  33.036  1.00  0.00    -0.206 F 
ATOM     60  C   UNL A   1      44.020  38.036  31.518  1.00  0.00     0.006 A 
ENDBRANCH  36  53
ENDBRANCH  10  11
ENDBRANCH   3   5
ENDBRANCH   2   3
ENDBRANCH   1   2
BRANCH   1  61
ATOM     61  C   UNL A   1      35.368  21.867  25.707  1.00  0.00     0.275 C 
BRANCH  61  62
ATOM     62  O   UNL A   1      35.135  23.284  25.749  1.00  0.00    -0.458 OA
BRANCH  62  63
ATOM     63  C   UNL A   1      33.836  23.677  25.686  1.00  0.00     0.339 C 
ATOM     64  O   UNL A   1      32.882  23.134  26.217  1.00  0.00    -0.246 OA
BRANCH  63  65
ATOM     65  C   UNL A   1      33.741  24.964  24.969  1.00  0.00     0.079 A 
ATOM     66  C   UNL A   1      33.732  26.147  25.734  1.00  0.00     0.026 A 
ATOM     67  C   UNL A   1      33.635  25.030  23.578  1.00  0.00     0.055 A 
ATOM     68  C   UNL A   1      33.679  27.406  25.110  1.00  0.00    -0.017 A 
ATOM     69  C   UNL A   1      33.603  26.277  22.950  1.00  0.00     0.022 A 
ATOM     70  Cl  UNL A   1      33.495  23.627  22.578  1.00  0.00    -0.083 Cl
ATOM     71  C   UNL A   1      33.649  27.450  23.707  1.00  0.00     0.010 A 
BRANCH  68  72
ATOM     72  C   UNL A   1      33.583  28.656  25.875  1.00  0.00    -0.017 A 
ATOM     73  C   UNL A   1      34.560  28.953  26.842  1.00  0.00     0.009 A 
ATOM     74  C   UNL A   1      32.525  29.561  25.713  1.00  0.00     0.029 A 
ATOM     75  C   UNL A   1      34.486  30.111  27.617  1.00  0.00     0.002 A 
ATOM     76  C   UNL A   1      32.451  30.720  26.491  1.00  0.00     0.041 A 
ATOM     77  C   UNL A   1      33.427  30.998  27.442  1.00  0.00     0.020 A 
ATOM     78  Cl  UNL A   1      31.131  31.804  26.282  1.00  0.00    -0.084 Cl
ENDBRANCH  68  72
ENDBRANCH  63  65
ENDBRANCH  62  63
ENDBRANCH  61  62
ENDBRANCH   1  61
TORSDOF 12
ENDMDL
