MODEL 1
REMARK VINA RESULT:     -11.4      0.000      0.000
REMARK SMILES O=C(OCCOC(=O)c1ccc(-c2c3nc(c(-c4c(F)cccc4F)c4ccc([nH]4)c(-c4c(F)cccc4F)c4nc(c(-c5c(F)cccc5F)c5ccc2[nH]5)C=C4)C=C3)cc1)C1=Cc2c(cc(Cl)c(Cl)c2Cl)O[C@H]1C(F)(F)F
REMARK SMILES IDX 5 1 4 2 3 3 2 4 1 5 63 6 64 7 75 8 65 9 74 10 66 11 72 12
REMARK SMILES IDX 67 13 70 14 73 15 68 16 71 17 69 18 76 19 77 20 78 21 79 22
REMARK SMILES IDX 6 23 7 24 8 25 9 26 10 27 62 28 11 29 61 30 12 31 13 32
REMARK SMILES IDX 14 33 55 34 15 35 60 36 54 37 56 38 16 39 59 40 53 41 52 42
REMARK SMILES IDX 17 44 43 45 26 46 42 47 27 48 30 49 41 50 57 51 28 52 29 53
REMARK SMILES IDX 40 55 58 56 31 57 18 58 19 59 24 60 20 61 21 62 23 63 25 64
REMARK SMILES IDX 22 65 44 66 45 67 50 68 46 69 47 70 49 71 51 72 48 73 32 74
REMARK SMILES IDX 33 75 38 76 34 77 35 78 37 79 39 80 36 81
REMARK H PARENT 56 43 30 54
REMARK Flexibility Score: inf
ROOT
ATOM      1  C   UNL A   1      32.799  29.748  26.014  1.00  0.00     0.275 C 
ENDROOT
BRANCH   1   2
ATOM      2  C   UNL A   1      32.882  29.233  24.566  1.00  0.00     0.275 C 
BRANCH   2   3
ATOM      3  O   UNL A   1      33.825  28.144  24.405  1.00  0.00    -0.459 OA
BRANCH   3   4
ATOM      4  C   UNL A   1      33.653  26.911  23.881  1.00  0.00     0.338 C 
ATOM      5  O   UNL A   1      33.719  26.772  22.661  1.00  0.00    -0.246 OA
BRANCH   4   6
ATOM      6  C   UNL A   1      33.585  25.696  24.727  1.00  0.00     0.087 C 
ATOM      7  C   UNL A   1      34.568  25.145  25.448  1.00  0.00     0.029 C 
ATOM      8  C   UNL A   1      32.201  25.068  24.801  1.00  0.00     0.316 C 
ATOM      9  C   UNL A   1      34.605  23.682  25.391  1.00  0.00     0.038 A 
ATOM     10  O   UNL A   1      32.193  23.646  25.121  1.00  0.00    -0.475 OA
ATOM     11  C   UNL A   1      33.399  23.010  25.192  1.00  0.00     0.131 A 
ATOM     12  C   UNL A   1      35.817  22.952  25.328  1.00  0.00     0.072 A 
ATOM     13  C   UNL A   1      33.377  21.632  25.005  1.00  0.00     0.069 A 
ATOM     14  C   UNL A   1      35.802  21.568  25.074  1.00  0.00     0.079 A 
ATOM     15  Cl  UNL A   1      37.346  23.780  25.468  1.00  0.00    -0.082 Cl
ATOM     16  C   UNL A   1      34.572  20.914  24.930  1.00  0.00     0.064 A 
ATOM     17  Cl  UNL A   1      37.288  20.681  24.896  1.00  0.00    -0.081 Cl
ATOM     18  Cl  UNL A   1      34.453  19.218  24.619  1.00  0.00    -0.083 Cl
BRANCH   8  19
ATOM     19  C   UNL A   1      31.359  25.806  25.871  1.00  0.00     0.430 C 
ATOM     20  F   UNL A   1      32.107  26.460  26.782  1.00  0.00    -0.167 F 
ATOM     21  F   UNL A   1      30.536  26.720  25.305  1.00  0.00    -0.167 F 
ATOM     22  F   UNL A   1      30.577  24.939  26.565  1.00  0.00    -0.167 F 
ENDBRANCH   8  19
ENDBRANCH   4   6
ENDBRANCH   3   4
ENDBRANCH   2   3
ENDBRANCH   1   2
BRANCH   1  23
ATOM     23  O   UNL A   1      34.008  29.475  26.738  1.00  0.00    -0.458 OA
BRANCH  23  24
ATOM     24  C   UNL A   1      34.421  30.526  27.491  1.00  0.00     0.338 C 
ATOM     25  O   UNL A   1      33.780  31.538  27.731  1.00  0.00    -0.246 OA
BRANCH  24  26
ATOM     26  C   UNL A   1      35.690  30.179  28.161  1.00  0.00     0.060 A 
ATOM     27  C   UNL A   1      36.876  30.443  27.466  1.00  0.00     0.016 A 
ATOM     28  C   UNL A   1      35.728  29.616  29.441  1.00  0.00     0.016 A 
ATOM     29  C   UNL A   1      38.102  30.087  28.021  1.00  0.00     0.010 A 
ATOM     30  C   UNL A   1      36.960  29.266  29.999  1.00  0.00     0.010 A 
ATOM     31  C   UNL A   1      38.149  29.463  29.274  1.00  0.00    -0.014 A 
BRANCH  31  32
ATOM     32  C   UNL A   1      39.424  28.877  29.747  1.00  0.00     0.031 A 
ATOM     33  C   UNL A   1      40.090  29.486  30.949  1.00  0.00     0.074 A 
ATOM     34  C   UNL A   1      39.959  27.804  29.139  1.00  0.00     0.049 A 
ATOM     35  N   UNL A   1      41.197  29.135  31.551  1.00  0.00    -0.248 NA
ATOM     36  C   UNL A   1      39.419  30.649  31.557  1.00  0.00     0.031 C 
ATOM     37  C   UNL A   1      39.391  27.116  27.982  1.00  0.00     0.029 A 
ATOM     38  N   UNL A   1      41.111  27.110  29.411  1.00  0.00    -0.354 N 
ATOM     39  C   UNL A   1      41.351  30.027  32.604  1.00  0.00     0.074 A 
ATOM     40  C   UNL A   1      40.252  30.963  32.538  1.00  0.00     0.031 C 
ATOM     41  C   UNL A   1      40.212  26.114  27.623  1.00  0.00     0.029 A 
ATOM     42  C   UNL A   1      41.364  26.095  28.520  1.00  0.00     0.049 A 
ATOM     43  H   UNL A   1      41.700  27.320  30.171  1.00  0.00     0.167 HD
ATOM     44  C   UNL A   1      42.316  30.051  33.552  1.00  0.00     0.037 A 
ATOM     45  C   UNL A   1      42.418  25.261  28.434  1.00  0.00     0.037 A 
ATOM     46  C   UNL A   1      43.399  29.108  33.623  1.00  0.00     0.049 A 
ATOM     47  C   UNL A   1      43.512  25.353  29.466  1.00  0.00     0.074 A 
ATOM     48  C   UNL A   1      44.391  29.009  34.582  1.00  0.00     0.029 A 
ATOM     49  N   UNL A   1      43.633  28.109  32.692  1.00  0.00    -0.354 N 
ATOM     50  N   UNL A   1      43.603  26.145  30.507  1.00  0.00    -0.248 NA
ATOM     51  C   UNL A   1      44.647  24.431  29.315  1.00  0.00     0.031 C 
ATOM     52  C   UNL A   1      45.260  27.982  34.200  1.00  0.00     0.029 A 
ATOM     53  C   UNL A   1      44.783  27.415  33.029  1.00  0.00     0.049 A 
ATOM     54  H   UNL A   1      43.068  27.921  31.908  1.00  0.00     0.167 HD
ATOM     55  C   UNL A   1      44.786  25.799  31.148  1.00  0.00     0.074 A 
ATOM     56  C   UNL A   1      45.372  24.715  30.389  1.00  0.00     0.031 C 
ATOM     57  C   UNL A   1      45.342  26.332  32.263  1.00  0.00     0.037 A 
BRANCH  44  58
ATOM     58  C   UNL A   1      42.251  31.135  34.584  1.00  0.00     0.057 A 
ATOM     59  C   UNL A   1      42.900  32.363  34.407  1.00  0.00     0.134 A 
ATOM     60  C   UNL A   1      41.488  30.965  35.746  1.00  0.00     0.134 A 
ATOM     61  F   UNL A   1      43.657  32.583  33.322  1.00  0.00    -0.206 F 
ATOM     62  C   UNL A   1      42.804  33.380  35.358  1.00  0.00     0.040 A 
ATOM     63  C   UNL A   1      41.367  31.982  36.692  1.00  0.00     0.040 A 
ATOM     64  F   UNL A   1      40.841  29.812  35.973  1.00  0.00    -0.206 F 
ATOM     65  C   UNL A   1      42.028  33.194  36.501  1.00  0.00     0.006 A 
ENDBRANCH  44  58
BRANCH  45  66
ATOM     66  C   UNL A   1      42.514  24.279  27.323  1.00  0.00     0.057 A 
ATOM     67  C   UNL A   1      42.091  22.955  27.479  1.00  0.00     0.134 A 
ATOM     68  C   UNL A   1      43.093  24.630  26.097  1.00  0.00     0.134 A 
ATOM     69  F   UNL A   1      41.551  22.550  28.639  1.00  0.00    -0.206 F 
ATOM     70  C   UNL A   1      42.267  22.006  26.470  1.00  0.00     0.040 A 
ATOM     71  C   UNL A   1      43.251  23.699  25.070  1.00  0.00     0.040 A 
ATOM     72  F   UNL A   1      43.522  25.883  25.883  1.00  0.00    -0.206 F 
ATOM     73  C   UNL A   1      42.849  22.379  25.259  1.00  0.00     0.006 A 
ENDBRANCH  45  66
BRANCH  57  74
ATOM     74  C   UNL A   1      46.635  25.741  32.740  1.00  0.00     0.057 A 
ATOM     75  C   UNL A   1      47.869  26.204  32.268  1.00  0.00     0.134 A 
ATOM     76  C   UNL A   1      46.647  24.748  33.727  1.00  0.00     0.134 A 
ATOM     77  F   UNL A   1      47.924  27.145  31.315  1.00  0.00    -0.206 F 
ATOM     78  C   UNL A   1      49.072  25.688  32.753  1.00  0.00     0.040 A 
ATOM     79  C   UNL A   1      47.843  24.243  34.237  1.00  0.00     0.040 A 
ATOM     80  F   UNL A   1      45.498  24.269  34.227  1.00  0.00    -0.206 F 
ATOM     81  C   UNL A   1      49.061  24.711  33.747  1.00  0.00     0.006 A 
ENDBRANCH  57  74
ENDBRANCH  31  32
ENDBRANCH  24  26
ENDBRANCH  23  24
ENDBRANCH   1  23
TORSDOF 12
ENDMDL
MODEL 2
REMARK VINA RESULT:     -11.3      3.696      8.723
REMARK SMILES O=C(OCCOC(=O)c1ccc(-c2c3nc(c(-c4c(F)cccc4F)c4ccc([nH]4)c(-c4c(F)cccc4F)c4nc(c(-c5c(F)cccc5F)c5ccc2[nH]5)C=C4)C=C3)cc1)C1=Cc2c(cc(Cl)c(Cl)c2Cl)O[C@H]1C(F)(F)F
REMARK SMILES IDX 5 1 4 2 3 3 2 4 1 5 63 6 64 7 75 8 65 9 74 10 66 11 72 12
REMARK SMILES IDX 67 13 70 14 73 15 68 16 71 17 69 18 76 19 77 20 78 21 79 22
REMARK SMILES IDX 6 23 7 24 8 25 9 26 10 27 62 28 11 29 61 30 12 31 13 32
REMARK SMILES IDX 14 33 55 34 15 35 60 36 54 37 56 38 16 39 59 40 53 41 52 42
REMARK SMILES IDX 17 44 43 45 26 46 42 47 27 48 30 49 41 50 57 51 28 52 29 53
REMARK SMILES IDX 40 55 58 56 31 57 18 58 19 59 24 60 20 61 21 62 23 63 25 64
REMARK SMILES IDX 22 65 44 66 45 67 50 68 46 69 47 70 49 71 51 72 48 73 32 74
REMARK SMILES IDX 33 75 38 76 34 77 35 78 37 79 39 80 36 81
REMARK H PARENT 56 43 30 54
REMARK Flexibility Score: inf
ROOT
ATOM      1  C   UNL A   1      45.601  23.273  24.750  1.00  0.00     0.275 C 
ENDROOT
BRANCH   1   2
ATOM      2  C   UNL A   1      45.096  21.873  25.143  1.00  0.00     0.275 C 
BRANCH   2   3
ATOM      3  O   UNL A   1      43.701  21.661  24.814  1.00  0.00    -0.459 OA
BRANCH   3   4
ATOM      4  C   UNL A   1      42.803  20.797  25.336  1.00  0.00     0.338 C 
ATOM      5  O   UNL A   1      43.065  19.596  25.329  1.00  0.00    -0.246 OA
BRANCH   4   6
ATOM      6  C   UNL A   1      41.613  21.255  26.090  1.00  0.00     0.087 C 
ATOM      7  C   UNL A   1      40.446  20.619  26.243  1.00  0.00     0.029 C 
ATOM      8  C   UNL A   1      41.806  22.584  26.805  1.00  0.00     0.316 C 
ATOM      9  C   UNL A   1      39.271  21.490  26.150  1.00  0.00     0.038 A 
ATOM     10  O   UNL A   1      40.576  23.321  27.066  1.00  0.00    -0.475 OA
ATOM     11  C   UNL A   1      39.419  22.821  26.541  1.00  0.00     0.131 A 
ATOM     12  C   UNL A   1      38.076  21.092  25.502  1.00  0.00     0.072 A 
ATOM     13  C   UNL A   1      38.383  23.731  26.363  1.00  0.00     0.069 A 
ATOM     14  C   UNL A   1      37.051  22.025  25.263  1.00  0.00     0.079 A 
ATOM     15  Cl  UNL A   1      37.905  19.460  24.909  1.00  0.00    -0.082 Cl
ATOM     16  C   UNL A   1      37.210  23.342  25.713  1.00  0.00     0.064 A 
ATOM     17  Cl  UNL A   1      35.623  21.570  24.380  1.00  0.00    -0.081 Cl
ATOM     18  Cl  UNL A   1      36.006  24.558  25.467  1.00  0.00    -0.083 Cl
BRANCH   8  19
ATOM     19  C   UNL A   1      42.514  22.339  28.161  1.00  0.00     0.430 C 
ATOM     20  F   UNL A   1      42.022  23.093  29.165  1.00  0.00    -0.167 F 
ATOM     21  F   UNL A   1      42.404  21.046  28.547  1.00  0.00    -0.167 F 
ATOM     22  F   UNL A   1      43.841  22.622  28.081  1.00  0.00    -0.167 F 
ENDBRANCH   8  19
ENDBRANCH   4   6
ENDBRANCH   3   4
ENDBRANCH   2   3
ENDBRANCH   1   2
BRANCH   1  23
ATOM     23  O   UNL A   1      44.600  24.275  24.979  1.00  0.00    -0.458 OA
BRANCH  23  24
ATOM     24  C   UNL A   1      45.127  25.502  25.223  1.00  0.00     0.338 C 
ATOM     25  O   UNL A   1      46.059  26.018  24.625  1.00  0.00    -0.246 OA
BRANCH  24  26
ATOM     26  C   UNL A   1      44.268  26.222  26.184  1.00  0.00     0.060 A 
ATOM     27  C   UNL A   1      44.560  27.569  26.422  1.00  0.00     0.016 A 
ATOM     28  C   UNL A   1      43.196  25.603  26.835  1.00  0.00     0.016 A 
ATOM     29  C   UNL A   1      43.821  28.287  27.359  1.00  0.00     0.010 A 
ATOM     30  C   UNL A   1      42.451  26.326  27.769  1.00  0.00     0.010 A 
ATOM     31  C   UNL A   1      42.788  27.660  28.064  1.00  0.00    -0.014 A 
BRANCH  31  32
ATOM     32  C   UNL A   1      42.170  28.353  29.218  1.00  0.00     0.031 A 
ATOM     33  C   UNL A   1      42.854  28.271  30.554  1.00  0.00     0.074 A 
ATOM     34  C   UNL A   1      41.041  29.068  29.071  1.00  0.00     0.049 A 
ATOM     35  N   UNL A   1      42.511  28.806  31.696  1.00  0.00    -0.248 NA
ATOM     36  C   UNL A   1      44.095  27.477  30.612  1.00  0.00     0.031 C 
ATOM     37  C   UNL A   1      40.303  29.237  27.821  1.00  0.00     0.029 A 
ATOM     38  N   UNL A   1      40.313  29.780  29.990  1.00  0.00    -0.354 N 
ATOM     39  C   UNL A   1      43.489  28.420  32.603  1.00  0.00     0.074 A 
ATOM     40  C   UNL A   1      44.418  27.570  31.893  1.00  0.00     0.031 C 
ATOM     41  C   UNL A   1      39.209  29.982  28.057  1.00  0.00     0.029 A 
ATOM     42  C   UNL A   1      39.166  30.334  29.474  1.00  0.00     0.049 A 
ATOM     43  H   UNL A   1      40.586  29.884  30.931  1.00  0.00     0.167 HD
ATOM     44  C   UNL A   1      43.610  28.759  33.907  1.00  0.00     0.037 A 
ATOM     45  C   UNL A   1      38.189  31.031  30.085  1.00  0.00     0.037 A 
ATOM     46  C   UNL A   1      42.692  29.618  34.604  1.00  0.00     0.049 A 
ATOM     47  C   UNL A   1      38.318  31.338  31.554  1.00  0.00     0.074 A 
ATOM     48  C   UNL A   1      42.762  30.074  35.908  1.00  0.00     0.029 A 
ATOM     49  N   UNL A   1      41.534  30.142  34.053  1.00  0.00    -0.354 N 
ATOM     50  N   UNL A   1      39.291  31.040  32.381  1.00  0.00    -0.248 NA
ATOM     51  C   UNL A   1      37.214  32.086  32.175  1.00  0.00     0.031 C 
ATOM     52  C   UNL A   1      41.614  30.830  36.164  1.00  0.00     0.029 A 
ATOM     53  C   UNL A   1      40.854  30.881  35.006  1.00  0.00     0.049 A 
ATOM     54  H   UNL A   1      41.237  30.008  33.124  1.00  0.00     0.167 HD
ATOM     55  C   UNL A   1      38.932  31.585  33.607  1.00  0.00     0.074 A 
ATOM     56  C   UNL A   1      37.659  32.246  33.415  1.00  0.00     0.031 C 
ATOM     57  C   UNL A   1      39.593  31.540  34.789  1.00  0.00     0.037 A 
BRANCH  44  58
ATOM     58  C   UNL A   1      44.770  28.195  34.668  1.00  0.00     0.057 A 
ATOM     59  C   UNL A   1      45.981  28.887  34.788  1.00  0.00     0.134 A 
ATOM     60  C   UNL A   1      44.656  26.966  35.330  1.00  0.00     0.134 A 
ATOM     61  F   UNL A   1      46.158  30.062  34.167  1.00  0.00    -0.206 F 
ATOM     62  C   UNL A   1      47.044  28.369  35.530  1.00  0.00     0.040 A 
ATOM     63  C   UNL A   1      45.703  26.449  36.092  1.00  0.00     0.040 A 
ATOM     64  F   UNL A   1      43.521  26.255  35.255  1.00  0.00    -0.206 F 
ATOM     65  C   UNL A   1      46.903  27.151  36.192  1.00  0.00     0.006 A 
ENDBRANCH  44  58
BRANCH  45  66
ATOM     66  C   UNL A   1      36.989  31.468  29.328  1.00  0.00     0.057 A 
ATOM     67  C   UNL A   1      35.930  30.592  29.067  1.00  0.00     0.134 A 
ATOM     68  C   UNL A   1      36.903  32.759  28.793  1.00  0.00     0.134 A 
ATOM     69  F   UNL A   1      35.963  29.334  29.531  1.00  0.00    -0.206 F 
ATOM     70  C   UNL A   1      34.843  30.972  28.275  1.00  0.00     0.040 A 
ATOM     71  C   UNL A   1      35.811  33.161  28.023  1.00  0.00     0.040 A 
ATOM     72  F   UNL A   1      37.885  33.648  29.005  1.00  0.00    -0.206 F 
ATOM     73  C   UNL A   1      34.782  32.262  27.751  1.00  0.00     0.006 A 
ENDBRANCH  45  66
BRANCH  57  74
ATOM     74  C   UNL A   1      38.965  32.238  35.958  1.00  0.00     0.057 A 
ATOM     75  C   UNL A   1      38.167  31.549  36.880  1.00  0.00     0.134 A 
ATOM     76  C   UNL A   1      39.214  33.594  36.200  1.00  0.00     0.134 A 
ATOM     77  F   UNL A   1      37.882  30.252  36.697  1.00  0.00    -0.206 F 
ATOM     78  C   UNL A   1      37.628  32.191  37.996  1.00  0.00     0.040 A 
ATOM     79  C   UNL A   1      38.701  34.240  37.325  1.00  0.00     0.040 A 
ATOM     80  F   UNL A   1      39.979  34.307  35.360  1.00  0.00    -0.206 F 
ATOM     81  C   UNL A   1      37.902  33.538  38.226  1.00  0.00     0.006 A 
ENDBRANCH  57  74
ENDBRANCH  31  32
ENDBRANCH  24  26
ENDBRANCH  23  24
ENDBRANCH   1  23
TORSDOF 12
ENDMDL
MODEL 3
REMARK VINA RESULT:     -11.3      4.073      6.628
REMARK SMILES O=C(OCCOC(=O)c1ccc(-c2c3nc(c(-c4c(F)cccc4F)c4ccc([nH]4)c(-c4c(F)cccc4F)c4nc(c(-c5c(F)cccc5F)c5ccc2[nH]5)C=C4)C=C3)cc1)C1=Cc2c(cc(Cl)c(Cl)c2Cl)O[C@H]1C(F)(F)F
REMARK SMILES IDX 5 1 4 2 3 3 2 4 1 5 63 6 64 7 75 8 65 9 74 10 66 11 72 12
REMARK SMILES IDX 67 13 70 14 73 15 68 16 71 17 69 18 76 19 77 20 78 21 79 22
REMARK SMILES IDX 6 23 7 24 8 25 9 26 10 27 62 28 11 29 61 30 12 31 13 32
REMARK SMILES IDX 14 33 55 34 15 35 60 36 54 37 56 38 16 39 59 40 53 41 52 42
REMARK SMILES IDX 17 44 43 45 26 46 42 47 27 48 30 49 41 50 57 51 28 52 29 53
REMARK SMILES IDX 40 55 58 56 31 57 18 58 19 59 24 60 20 61 21 62 23 63 25 64
REMARK SMILES IDX 22 65 44 66 45 67 50 68 46 69 47 70 49 71 51 72 48 73 32 74
REMARK SMILES IDX 33 75 38 76 34 77 35 78 37 79 39 80 36 81
REMARK H PARENT 56 43 30 54
REMARK Flexibility Score: inf
ROOT
ATOM      1  C   UNL A   1      35.868  21.008  25.162  1.00  0.00     0.275 C 
ENDROOT
BRANCH   1   2
ATOM      2  C   UNL A   1      35.125  21.460  26.432  1.00  0.00     0.275 C 
BRANCH   2   3
ATOM      3  O   UNL A   1      34.857  22.883  26.455  1.00  0.00    -0.459 OA
BRANCH   3   4
ATOM      4  C   UNL A   1      33.699  23.556  26.275  1.00  0.00     0.338 C 
ATOM      5  O   UNL A   1      32.769  23.350  27.052  1.00  0.00    -0.246 OA
BRANCH   4   6
ATOM      6  C   UNL A   1      33.575  24.669  25.304  1.00  0.00     0.087 C 
ATOM      7  C   UNL A   1      34.099  25.897  25.396  1.00  0.00     0.029 C 
ATOM      8  C   UNL A   1      32.803  24.310  24.043  1.00  0.00     0.316 C 
ATOM      9  C   UNL A   1      33.198  26.966  24.958  1.00  0.00     0.038 A 
ATOM     10  O   UNL A   1      32.191  25.442  23.360  1.00  0.00    -0.475 OA
ATOM     11  C   UNL A   1      32.258  26.659  23.973  1.00  0.00     0.131 A 
ATOM     12  C   UNL A   1      33.113  28.213  25.624  1.00  0.00     0.072 A 
ATOM     13  C   UNL A   1      31.294  27.589  23.599  1.00  0.00     0.069 A 
ATOM     14  C   UNL A   1      32.099  29.130  25.292  1.00  0.00     0.079 A 
ATOM     15  Cl  UNL A   1      34.209  28.583  26.931  1.00  0.00    -0.082 Cl
ATOM     16  C   UNL A   1      31.202  28.813  24.265  1.00  0.00     0.064 A 
ATOM     17  Cl  UNL A   1      31.927  30.621  26.172  1.00  0.00    -0.081 Cl
ATOM     18  Cl  UNL A   1      29.926  29.876  23.785  1.00  0.00    -0.083 Cl
BRANCH   8  19
ATOM     19  C   UNL A   1      33.753  23.603  23.044  1.00  0.00     0.430 C 
ATOM     20  F   UNL A   1      35.053  23.902  23.239  1.00  0.00    -0.167 F 
ATOM     21  F   UNL A   1      33.641  22.256  23.127  1.00  0.00    -0.167 F 
ATOM     22  F   UNL A   1      33.466  23.951  21.762  1.00  0.00    -0.167 F 
ENDBRANCH   8  19
ENDBRANCH   4   6
ENDBRANCH   3   4
ENDBRANCH   2   3
ENDBRANCH   1   2
BRANCH   1  23
ATOM     23  O   UNL A   1      37.030  21.815  24.919  1.00  0.00    -0.458 OA
BRANCH  23  24
ATOM     24  C   UNL A   1      38.137  21.354  25.556  1.00  0.00     0.338 C 
ATOM     25  O   UNL A   1      38.590  20.222  25.486  1.00  0.00    -0.246 OA
BRANCH  24  26
ATOM     26  C   UNL A   1      38.845  22.486  26.186  1.00  0.00     0.060 A 
ATOM     27  C   UNL A   1      38.320  23.767  25.980  1.00  0.00     0.016 A 
ATOM     28  C   UNL A   1      39.991  22.307  26.967  1.00  0.00     0.016 A 
ATOM     29  C   UNL A   1      38.973  24.880  26.502  1.00  0.00     0.010 A 
ATOM     30  C   UNL A   1      40.642  23.424  27.497  1.00  0.00     0.010 A 
ATOM     31  C   UNL A   1      40.157  24.717  27.231  1.00  0.00    -0.014 A 
BRANCH  31  32
ATOM     32  C   UNL A   1      40.968  25.908  27.575  1.00  0.00     0.031 A 
ATOM     33  C   UNL A   1      40.313  27.024  28.341  1.00  0.00     0.074 A 
ATOM     34  C   UNL A   1      42.268  25.978  27.243  1.00  0.00     0.049 A 
ATOM     35  N   UNL A   1      40.825  28.150  28.765  1.00  0.00    -0.248 NA
ATOM     36  C   UNL A   1      38.888  26.848  28.675  1.00  0.00     0.031 C 
ATOM     37  C   UNL A   1      43.015  24.950  26.521  1.00  0.00     0.029 A 
ATOM     38  N   UNL A   1      43.191  26.970  27.463  1.00  0.00    -0.354 N 
ATOM     39  C   UNL A   1      39.791  28.811  29.415  1.00  0.00     0.074 A 
ATOM     40  C   UNL A   1      38.611  27.985  29.296  1.00  0.00     0.031 C 
ATOM     41  C   UNL A   1      44.276  25.375  26.333  1.00  0.00     0.029 A 
ATOM     42  C   UNL A   1      44.422  26.708  26.912  1.00  0.00     0.049 A 
ATOM     43  H   UNL A   1      42.989  27.792  27.966  1.00  0.00     0.167 HD
ATOM     44  C   UNL A   1      39.828  29.995  30.068  1.00  0.00     0.037 A 
ATOM     45  C   UNL A   1      45.532  27.470  26.870  1.00  0.00     0.037 A 
ATOM     46  C   UNL A   1      41.008  30.806  30.200  1.00  0.00     0.049 A 
ATOM     47  C   UNL A   1      45.525  28.813  27.550  1.00  0.00     0.074 A 
ATOM     48  C   UNL A   1      41.165  31.991  30.896  1.00  0.00     0.029 A 
ATOM     49  N   UNL A   1      42.229  30.517  29.611  1.00  0.00    -0.354 N 
ATOM     50  N   UNL A   1      44.567  29.389  28.236  1.00  0.00    -0.248 NA
ATOM     51  C   UNL A   1      46.757  29.611  27.458  1.00  0.00     0.031 C 
ATOM     52  C   UNL A   1      42.469  32.448  30.683  1.00  0.00     0.029 A 
ATOM     53  C   UNL A   1      43.134  31.527  29.891  1.00  0.00     0.049 A 
ATOM     54  H   UNL A   1      42.423  29.716  29.073  1.00  0.00     0.167 HD
ATOM     55  C   UNL A   1      45.088  30.600  28.677  1.00  0.00     0.074 A 
ATOM     56  C   UNL A   1      46.451  30.669  28.197  1.00  0.00     0.031 C 
ATOM     57  C   UNL A   1      44.490  31.570  29.411  1.00  0.00     0.037 A 
BRANCH  44  58
ATOM     58  C   UNL A   1      38.556  30.490  30.686  1.00  0.00     0.057 A 
ATOM     59  C   UNL A   1      37.668  31.314  29.985  1.00  0.00     0.134 A 
ATOM     60  C   UNL A   1      38.193  30.095  31.979  1.00  0.00     0.134 A 
ATOM     61  F   UNL A   1      37.964  31.738  28.748  1.00  0.00    -0.206 F 
ATOM     62  C   UNL A   1      36.467  31.741  30.556  1.00  0.00     0.040 A 
ATOM     63  C   UNL A   1      36.986  30.497  32.552  1.00  0.00     0.040 A 
ATOM     64  F   UNL A   1      39.001  29.305  32.702  1.00  0.00    -0.206 F 
ATOM     65  C   UNL A   1      36.120  31.325  31.840  1.00  0.00     0.006 A 
ENDBRANCH  44  58
BRANCH  45  66
ATOM     66  C   UNL A   1      46.739  27.003  26.140  1.00  0.00     0.057 A 
ATOM     67  C   UNL A   1      46.929  27.289  24.784  1.00  0.00     0.134 A 
ATOM     68  C   UNL A   1      47.701  26.204  26.771  1.00  0.00     0.134 A 
ATOM     69  F   UNL A   1      46.031  28.028  24.116  1.00  0.00    -0.206 F 
ATOM     70  C   UNL A   1      48.014  26.772  24.072  1.00  0.00     0.040 A 
ATOM     71  C   UNL A   1      48.804  25.703  26.079  1.00  0.00     0.040 A 
ATOM     72  F   UNL A   1      47.577  25.892  28.069  1.00  0.00    -0.206 F 
ATOM     73  C   UNL A   1      48.957  25.977  24.721  1.00  0.00     0.006 A 
ENDBRANCH  45  66
BRANCH  57  74
ATOM     74  C   UNL A   1      45.310  32.777  29.756  1.00  0.00     0.057 A 
ATOM     75  C   UNL A   1      46.131  32.806  30.890  1.00  0.00     0.134 A 
ATOM     76  C   UNL A   1      45.327  33.894  28.912  1.00  0.00     0.134 A 
ATOM     77  F   UNL A   1      46.148  31.773  31.744  1.00  0.00    -0.206 F 
ATOM     78  C   UNL A   1      46.932  33.912  31.179  1.00  0.00     0.040 A 
ATOM     79  C   UNL A   1      46.143  34.994  29.177  1.00  0.00     0.040 A 
ATOM     80  F   UNL A   1      44.571  33.924  27.804  1.00  0.00    -0.206 F 
ATOM     81  C   UNL A   1      46.946  35.007  30.316  1.00  0.00     0.006 A 
ENDBRANCH  57  74
ENDBRANCH  31  32
ENDBRANCH  24  26
ENDBRANCH  23  24
ENDBRANCH   1  23
TORSDOF 12
ENDMDL
