MODEL 1
REMARK VINA RESULT:     -11.6      0.000      0.000
REMARK SMILES CC(C)Cc1cc2c(cc1Cl)C=C(C(=O)OCCOC(=O)c1ccc(-c3c4nc(c(-c5c(F)cccc5F)c5ccc([nH]5)c(-c5c(F)cccc5F)c5nc(c(-c6c(F)cccc6F)c6ccc3[nH]6)C=C5)C=C4)cc1)[C@@H](C(F)(F)F)O2
REMARK SMILES IDX 17 1 16 2 14 3 15 4 13 5 5 6 6 7 10 8 7 9 9 10 11 11 8 12
REMARK SMILES IDX 81 13 12 14 76 15 4 16 2 17 1 18 3 19 77 20 78 21 79 22
REMARK SMILES IDX 80 23 18 24 19 25 20 26 21 27 22 28 23 29 75 30 24 31 74 32
REMARK SMILES IDX 25 33 26 34 27 35 68 36 28 37 73 38 67 39 69 40 29 41 72 42
REMARK SMILES IDX 66 43 65 44 30 46 56 47 39 48 55 49 40 50 43 51 54 52 70 53
REMARK SMILES IDX 41 54 42 55 53 57 71 58 44 59 31 60 32 61 37 62 33 63 34 64
REMARK SMILES IDX 36 65 38 66 35 67 57 68 58 69 63 70 59 71 60 72 62 73 64 74
REMARK SMILES IDX 61 75 45 76 46 77 51 78 47 79 48 80 50 81 52 82 49 83
REMARK H PARENT 69 45 43 56
REMARK Flexibility Score: inf
ROOT
ATOM      1  C   UNL A   1      35.655  20.105  25.027  1.00  0.00     0.275 C 
ENDROOT
BRANCH   1   2
ATOM      2  O   UNL A   1      35.110  21.267  24.364  1.00  0.00    -0.459 OA
BRANCH   2   3
ATOM      3  C   UNL A   1      33.767  21.411  24.446  1.00  0.00     0.338 C 
ATOM      4  O   UNL A   1      32.928  20.555  24.216  1.00  0.00    -0.246 OA
BRANCH   3   5
ATOM      5  C   UNL A   1      33.417  22.769  24.905  1.00  0.00     0.087 C 
ATOM      6  C   UNL A   1      33.111  27.758  25.482  1.00  0.00    -0.025 A 
ATOM      7  C   UNL A   1      32.755  26.648  26.276  1.00  0.00     0.052 A 
ATOM      8  C   UNL A   1      33.685  27.529  24.223  1.00  0.00     0.045 A 
ATOM      9  C   UNL A   1      32.950  25.346  25.822  1.00  0.00     0.128 A 
ATOM     10  C   UNL A   1      33.910  26.227  23.782  1.00  0.00     0.032 A 
ATOM     11  Cl  UNL A   1      34.133  28.817  23.163  1.00  0.00    -0.084 Cl
ATOM     12  C   UNL A   1      33.546  25.142  24.586  1.00  0.00     0.019 A 
ATOM     13  O   UNL A   1      32.512  24.339  26.632  1.00  0.00    -0.475 OA
ATOM     14  C   UNL A   1      33.808  23.793  24.140  1.00  0.00     0.027 C 
ATOM     15  C   UNL A   1      32.754  22.954  26.242  1.00  0.00     0.316 C 
BRANCH   6  16
ATOM     16  C   UNL A   1      32.802  29.145  25.995  1.00  0.00     0.040 C 
BRANCH  16  17
ATOM     17  C   UNL A   1      33.631  29.523  27.239  1.00  0.00    -0.013 C 
ATOM     18  C   UNL A   1      35.111  29.160  27.083  1.00  0.00     0.008 C 
ATOM     19  C   UNL A   1      33.495  31.021  27.511  1.00  0.00     0.008 C 
ENDBRANCH  16  17
ENDBRANCH   6  16
BRANCH  15  20
ATOM     20  C   UNL A   1      33.564  22.283  27.364  1.00  0.00     0.430 C 
ATOM     21  F   UNL A   1      33.470  20.934  27.302  1.00  0.00    -0.167 F 
ATOM     22  F   UNL A   1      34.882  22.584  27.280  1.00  0.00    -0.167 F 
ATOM     23  F   UNL A   1      33.141  22.664  28.591  1.00  0.00    -0.167 F 
ENDBRANCH  15  20
ENDBRANCH   3   5
ENDBRANCH   2   3
ENDBRANCH   1   2
BRANCH   1  24
ATOM     24  C   UNL A   1      37.168  19.988  24.825  1.00  0.00     0.275 C 
BRANCH  24  25
ATOM     25  O   UNL A   1      37.850  21.124  25.385  1.00  0.00    -0.458 OA
BRANCH  25  26
ATOM     26  C   UNL A   1      39.037  20.853  25.971  1.00  0.00     0.338 C 
ATOM     27  O   UNL A   1      39.666  19.809  25.934  1.00  0.00    -0.246 OA
BRANCH  26  28
ATOM     28  C   UNL A   1      39.567  22.068  26.605  1.00  0.00     0.060 A 
ATOM     29  C   UNL A   1      40.702  22.045  27.406  1.00  0.00     0.016 A 
ATOM     30  C   UNL A   1      39.004  23.282  26.236  1.00  0.00     0.016 A 
ATOM     31  C   UNL A   1      41.256  23.259  27.834  1.00  0.00     0.010 A 
ATOM     32  C   UNL A   1      39.643  24.482  26.529  1.00  0.00     0.010 A 
ATOM     33  C   UNL A   1      40.761  24.495  27.368  1.00  0.00    -0.014 A 
BRANCH  33  34
ATOM     34  C   UNL A   1      41.398  25.788  27.756  1.00  0.00     0.031 A 
ATOM     35  C   UNL A   1      42.790  26.151  27.283  1.00  0.00     0.074 A 
ATOM     36  C   UNL A   1      40.741  26.636  28.575  1.00  0.00     0.049 A 
ATOM     37  N   UNL A   1      43.475  27.250  27.493  1.00  0.00    -0.248 NA
ATOM     38  C   UNL A   1      43.530  25.136  26.516  1.00  0.00     0.031 C 
ATOM     39  C   UNL A   1      39.448  26.371  29.210  1.00  0.00     0.029 A 
ATOM     40  N   UNL A   1      41.061  27.903  28.998  1.00  0.00    -0.354 N 
ATOM     41  C   UNL A   1      44.721  27.042  26.911  1.00  0.00     0.074 A 
ATOM     42  C   UNL A   1      44.730  25.686  26.413  1.00  0.00     0.031 C 
ATOM     43  C   UNL A   1      39.045  27.470  29.867  1.00  0.00     0.029 A 
ATOM     44  C   UNL A   1      40.066  28.505  29.733  1.00  0.00     0.049 A 
ATOM     45  H   UNL A   1      41.919  28.339  28.795  1.00  0.00     0.167 HD
ATOM     46  C   UNL A   1      45.752  27.908  26.756  1.00  0.00     0.037 A 
ATOM     47  C   UNL A   1      39.972  29.755  30.220  1.00  0.00     0.037 A 
ATOM     48  C   UNL A   1      45.725  29.278  27.194  1.00  0.00     0.049 A 
ATOM     49  C   UNL A   1      41.093  30.725  29.976  1.00  0.00     0.074 A 
ATOM     50  C   UNL A   1      46.676  30.265  27.004  1.00  0.00     0.029 A 
ATOM     51  N   UNL A   1      44.684  29.855  27.902  1.00  0.00    -0.354 N 
ATOM     52  N   UNL A   1      42.219  30.542  29.330  1.00  0.00    -0.248 NA
ATOM     53  C   UNL A   1      40.927  32.079  30.523  1.00  0.00     0.031 C 
ATOM     54  C   UNL A   1      46.221  31.435  27.624  1.00  0.00     0.029 A 
ATOM     55  C   UNL A   1      44.971  31.183  28.167  1.00  0.00     0.049 A 
ATOM     56  H   UNL A   1      43.860  29.390  28.177  1.00  0.00     0.167 HD
ATOM     57  C   UNL A   1      42.886  31.760  29.376  1.00  0.00     0.074 A 
ATOM     58  C   UNL A   1      42.026  32.680  30.092  1.00  0.00     0.031 C 
ATOM     59  C   UNL A   1      44.102  32.086  28.876  1.00  0.00     0.037 A 
BRANCH  46  60
ATOM     60  C   UNL A   1      46.980  27.404  26.050  1.00  0.00     0.057 A 
ATOM     61  C   UNL A   1      48.039  26.830  26.765  1.00  0.00     0.134 A 
ATOM     62  C   UNL A   1      47.120  27.500  24.658  1.00  0.00     0.134 A 
ATOM     63  F   UNL A   1      47.979  26.718  28.100  1.00  0.00    -0.206 F 
ATOM     64  C   UNL A   1      49.186  26.360  26.120  1.00  0.00     0.040 A 
ATOM     65  C   UNL A   1      48.249  27.006  24.000  1.00  0.00     0.040 A 
ATOM     66  F   UNL A   1      46.140  28.032  23.911  1.00  0.00    -0.206 F 
ATOM     67  C   UNL A   1      49.287  26.437  24.733  1.00  0.00     0.006 A 
ENDBRANCH  46  60
BRANCH  47  68
ATOM     68  C   UNL A   1      38.743  30.189  30.931  1.00  0.00     0.057 A 
ATOM     69  C   UNL A   1      37.653  30.744  30.249  1.00  0.00     0.134 A 
ATOM     70  C   UNL A   1      38.630  30.048  32.320  1.00  0.00     0.134 A 
ATOM     71  F   UNL A   1      37.704  30.915  28.920  1.00  0.00    -0.206 F 
ATOM     72  C   UNL A   1      36.497  31.143  30.922  1.00  0.00     0.040 A 
ATOM     73  C   UNL A   1      37.470  30.420  33.003  1.00  0.00     0.040 A 
ATOM     74  F   UNL A   1      39.634  29.509  33.026  1.00  0.00    -0.206 F 
ATOM     75  C   UNL A   1      36.401  30.973  32.302  1.00  0.00     0.006 A 
ENDBRANCH  47  68
BRANCH  59  76
ATOM     76  C   UNL A   1      44.559  33.501  29.066  1.00  0.00     0.057 A 
ATOM     77  C   UNL A   1      44.255  34.483  28.116  1.00  0.00     0.134 A 
ATOM     78  C   UNL A   1      45.322  33.884  30.175  1.00  0.00     0.134 A 
ATOM     79  F   UNL A   1      43.534  34.178  27.026  1.00  0.00    -0.206 F 
ATOM     80  C   UNL A   1      44.693  35.799  28.263  1.00  0.00     0.040 A 
ATOM     81  C   UNL A   1      45.746  35.203  30.347  1.00  0.00     0.040 A 
ATOM     82  F   UNL A   1      45.634  32.992  31.127  1.00  0.00    -0.206 F 
ATOM     83  C   UNL A   1      45.435  36.162  29.385  1.00  0.00     0.006 A 
ENDBRANCH  59  76
ENDBRANCH  33  34
ENDBRANCH  26  28
ENDBRANCH  25  26
ENDBRANCH  24  25
ENDBRANCH   1  24
TORSDOF 14
ENDMDL
MODEL 2
REMARK VINA RESULT:     -11.5      4.112      9.092
REMARK SMILES CC(C)Cc1cc2c(cc1Cl)C=C(C(=O)OCCOC(=O)c1ccc(-c3c4nc(c(-c5c(F)cccc5F)c5ccc([nH]5)c(-c5c(F)cccc5F)c5nc(c(-c6c(F)cccc6F)c6ccc3[nH]6)C=C5)C=C4)cc1)[C@@H](C(F)(F)F)O2
REMARK SMILES IDX 17 1 16 2 14 3 15 4 13 5 5 6 6 7 10 8 7 9 9 10 11 11 8 12
REMARK SMILES IDX 81 13 12 14 76 15 4 16 2 17 1 18 3 19 77 20 78 21 79 22
REMARK SMILES IDX 80 23 18 24 19 25 20 26 21 27 22 28 23 29 75 30 24 31 74 32
REMARK SMILES IDX 25 33 26 34 27 35 68 36 28 37 73 38 67 39 69 40 29 41 72 42
REMARK SMILES IDX 66 43 65 44 30 46 56 47 39 48 55 49 40 50 43 51 54 52 70 53
REMARK SMILES IDX 41 54 42 55 53 57 71 58 44 59 31 60 32 61 37 62 33 63 34 64
REMARK SMILES IDX 36 65 38 66 35 67 57 68 58 69 63 70 59 71 60 72 62 73 64 74
REMARK SMILES IDX 61 75 45 76 46 77 51 78 47 79 48 80 50 81 52 82 49 83
REMARK H PARENT 69 45 43 56
REMARK Flexibility Score: inf
ROOT
ATOM      1  C   UNL A   1      31.557  28.441  25.088  1.00  0.00     0.275 C 
ENDROOT
BRANCH   1   2
ATOM      2  O   UNL A   1      32.457  27.396  25.519  1.00  0.00    -0.459 OA
BRANCH   2   3
ATOM      3  C   UNL A   1      33.081  26.717  24.529  1.00  0.00     0.338 C 
ATOM      4  O   UNL A   1      33.748  27.196  23.625  1.00  0.00    -0.246 OA
BRANCH   3   5
ATOM      5  C   UNL A   1      32.892  25.263  24.696  1.00  0.00     0.087 C 
ATOM      6  C   UNL A   1      33.573  20.282  24.897  1.00  0.00    -0.025 A 
ATOM      7  C   UNL A   1      32.442  21.123  24.842  1.00  0.00     0.052 A 
ATOM      8  C   UNL A   1      34.847  20.867  24.909  1.00  0.00     0.045 A 
ATOM      9  C   UNL A   1      32.576  22.509  24.815  1.00  0.00     0.128 A 
ATOM     10  C   UNL A   1      34.983  22.252  24.849  1.00  0.00     0.032 A 
ATOM     11  Cl  UNL A   1      36.295  19.928  25.000  1.00  0.00    -0.084 Cl
ATOM     12  C   UNL A   1      33.847  23.066  24.797  1.00  0.00     0.019 A 
ATOM     13  O   UNL A   1      31.424  23.240  24.831  1.00  0.00    -0.475 OA
ATOM     14  C   UNL A   1      33.990  24.501  24.704  1.00  0.00     0.027 C 
ATOM     15  C   UNL A   1      31.500  24.694  24.731  1.00  0.00     0.316 C 
BRANCH   6  16
ATOM     16  C   UNL A   1      33.361  18.790  25.005  1.00  0.00     0.040 C 
BRANCH  16  17
ATOM     17  C   UNL A   1      33.700  18.040  23.702  1.00  0.00    -0.013 C 
ATOM     18  C   UNL A   1      34.084  16.579  23.954  1.00  0.00     0.008 C 
ATOM     19  C   UNL A   1      32.505  18.100  22.749  1.00  0.00     0.008 C 
ENDBRANCH  16  17
ENDBRANCH   6  16
BRANCH  15  20
ATOM     20  C   UNL A   1      30.690  25.124  23.497  1.00  0.00     0.430 C 
ATOM     21  F   UNL A   1      29.903  24.119  23.047  1.00  0.00    -0.167 F 
ATOM     22  F   UNL A   1      29.868  26.165  23.774  1.00  0.00    -0.167 F 
ATOM     23  F   UNL A   1      31.490  25.504  22.474  1.00  0.00    -0.167 F 
ENDBRANCH  15  20
ENDBRANCH   3   5
ENDBRANCH   2   3
ENDBRANCH   1   2
BRANCH   1  24
ATOM     24  C   UNL A   1      32.117  29.835  25.383  1.00  0.00     0.275 C 
BRANCH  24  25
ATOM     25  O   UNL A   1      32.352  30.006  26.793  1.00  0.00    -0.458 OA
BRANCH  25  26
ATOM     26  C   UNL A   1      32.930  31.176  27.143  1.00  0.00     0.338 C 
ATOM     27  O   UNL A   1      32.417  32.282  27.172  1.00  0.00    -0.246 OA
BRANCH  26  28
ATOM     28  C   UNL A   1      34.299  30.931  27.617  1.00  0.00     0.060 A 
ATOM     29  C   UNL A   1      35.155  31.970  27.959  1.00  0.00     0.016 A 
ATOM     30  C   UNL A   1      34.659  29.618  27.889  1.00  0.00     0.016 A 
ATOM     31  C   UNL A   1      36.380  31.667  28.570  1.00  0.00     0.010 A 
ATOM     32  C   UNL A   1      35.797  29.331  28.634  1.00  0.00     0.010 A 
ATOM     33  C   UNL A   1      36.700  30.347  28.955  1.00  0.00    -0.014 A 
BRANCH  33  34
ATOM     34  C   UNL A   1      37.967  30.031  29.679  1.00  0.00     0.031 A 
ATOM     35  C   UNL A   1      38.199  30.503  31.099  1.00  0.00     0.074 A 
ATOM     36  C   UNL A   1      38.943  29.345  29.048  1.00  0.00     0.049 A 
ATOM     37  N   UNL A   1      39.224  30.281  31.888  1.00  0.00    -0.248 NA
ATOM     38  C   UNL A   1      37.175  31.374  31.698  1.00  0.00     0.031 C 
ATOM     39  C   UNL A   1      38.916  28.931  27.643  1.00  0.00     0.029 A 
ATOM     40  N   UNL A   1      40.139  28.855  29.511  1.00  0.00    -0.354 N 
ATOM     41  C   UNL A   1      38.975  31.002  33.050  1.00  0.00     0.074 A 
ATOM     42  C   UNL A   1      37.748  31.735  32.836  1.00  0.00     0.031 C 
ATOM     43  C   UNL A   1      39.997  28.178  27.383  1.00  0.00     0.029 A 
ATOM     44  C   UNL A   1      40.812  28.086  28.590  1.00  0.00     0.049 A 
ATOM     45  H   UNL A   1      40.482  29.036  30.415  1.00  0.00     0.167 HD
ATOM     46  C   UNL A   1      39.671  31.023  34.213  1.00  0.00     0.037 A 
ATOM     47  C   UNL A   1      41.943  27.367  28.710  1.00  0.00     0.037 A 
ATOM     48  C   UNL A   1      40.858  30.248  34.456  1.00  0.00     0.049 A 
ATOM     49  C   UNL A   1      42.662  27.343  30.029  1.00  0.00     0.074 A 
ATOM     50  C   UNL A   1      41.586  30.123  35.626  1.00  0.00     0.029 A 
ATOM     51  N   UNL A   1      41.485  29.456  33.506  1.00  0.00    -0.354 N 
ATOM     52  N   UNL A   1      42.353  27.947  31.150  1.00  0.00    -0.248 NA
ATOM     53  C   UNL A   1      43.885  26.529  30.100  1.00  0.00     0.031 C 
ATOM     54  C   UNL A   1      42.672  29.275  35.376  1.00  0.00     0.029 A 
ATOM     55  C   UNL A   1      42.597  28.846  34.061  1.00  0.00     0.049 A 
ATOM     56  H   UNL A   1      41.184  29.344  32.575  1.00  0.00     0.167 HD
ATOM     57  C   UNL A   1      43.330  27.572  32.065  1.00  0.00     0.074 A 
ATOM     58  C   UNL A   1      44.226  26.669  31.372  1.00  0.00     0.031 C 
ATOM     59  C   UNL A   1      43.475  27.946  33.359  1.00  0.00     0.037 A 
BRANCH  46  60
ATOM     60  C   UNL A   1      39.138  31.886  35.323  1.00  0.00     0.057 A 
ATOM     61  C   UNL A   1      39.476  33.242  35.408  1.00  0.00     0.134 A 
ATOM     62  C   UNL A   1      38.300  31.368  36.321  1.00  0.00     0.134 A 
ATOM     63  F   UNL A   1      40.285  33.803  34.496  1.00  0.00    -0.206 F 
ATOM     64  C   UNL A   1      38.990  34.054  36.436  1.00  0.00     0.040 A 
ATOM     65  C   UNL A   1      37.783  32.176  37.336  1.00  0.00     0.040 A 
ATOM     66  F   UNL A   1      37.931  30.078  36.296  1.00  0.00    -0.206 F 
ATOM     67  C   UNL A   1      38.131  33.523  37.397  1.00  0.00     0.006 A 
ENDBRANCH  46  60
BRANCH  47  68
ATOM     68  C   UNL A   1      42.433  26.552  27.570  1.00  0.00     0.057 A 
ATOM     69  C   UNL A   1      42.067  25.211  27.410  1.00  0.00     0.134 A 
ATOM     70  C   UNL A   1      43.280  27.108  26.602  1.00  0.00     0.134 A 
ATOM     71  F   UNL A   1      41.267  24.617  28.308  1.00  0.00    -0.206 F 
ATOM     72  C   UNL A   1      42.526  24.452  26.332  1.00  0.00     0.040 A 
ATOM     73  C   UNL A   1      43.726  26.369  25.506  1.00  0.00     0.040 A 
ATOM     74  F   UNL A   1      43.653  28.394  26.692  1.00  0.00    -0.206 F 
ATOM     75  C   UNL A   1      43.351  25.034  25.371  1.00  0.00     0.006 A 
ENDBRANCH  47  68
BRANCH  59  76
ATOM     76  C   UNL A   1      44.630  27.359  34.112  1.00  0.00     0.057 A 
ATOM     77  C   UNL A   1      45.868  28.012  34.143  1.00  0.00     0.134 A 
ATOM     78  C   UNL A   1      44.524  26.135  34.784  1.00  0.00     0.134 A 
ATOM     79  F   UNL A   1      46.037  29.184  33.512  1.00  0.00    -0.206 F 
ATOM     80  C   UNL A   1      46.961  27.468  34.816  1.00  0.00     0.040 A 
ATOM     81  C   UNL A   1      45.604  25.593  35.482  1.00  0.00     0.040 A 
ATOM     82  F   UNL A   1      43.361  25.468  34.802  1.00  0.00    -0.206 F 
ATOM     83  C   UNL A   1      46.828  26.258  35.495  1.00  0.00     0.006 A 
ENDBRANCH  59  76
ENDBRANCH  33  34
ENDBRANCH  26  28
ENDBRANCH  25  26
ENDBRANCH  24  25
ENDBRANCH   1  24
TORSDOF 14
ENDMDL
MODEL 3
REMARK VINA RESULT:     -11.4      1.623      2.060
REMARK SMILES CC(C)Cc1cc2c(cc1Cl)C=C(C(=O)OCCOC(=O)c1ccc(-c3c4nc(c(-c5c(F)cccc5F)c5ccc([nH]5)c(-c5c(F)cccc5F)c5nc(c(-c6c(F)cccc6F)c6ccc3[nH]6)C=C5)C=C4)cc1)[C@@H](C(F)(F)F)O2
REMARK SMILES IDX 17 1 16 2 14 3 15 4 13 5 5 6 6 7 10 8 7 9 9 10 11 11 8 12
REMARK SMILES IDX 81 13 12 14 76 15 4 16 2 17 1 18 3 19 77 20 78 21 79 22
REMARK SMILES IDX 80 23 18 24 19 25 20 26 21 27 22 28 23 29 75 30 24 31 74 32
REMARK SMILES IDX 25 33 26 34 27 35 68 36 28 37 73 38 67 39 69 40 29 41 72 42
REMARK SMILES IDX 66 43 65 44 30 46 56 47 39 48 55 49 40 50 43 51 54 52 70 53
REMARK SMILES IDX 41 54 42 55 53 57 71 58 44 59 31 60 32 61 37 62 33 63 34 64
REMARK SMILES IDX 36 65 38 66 35 67 57 68 58 69 63 70 59 71 60 72 62 73 64 74
REMARK SMILES IDX 61 75 45 76 46 77 51 78 47 79 48 80 50 81 52 82 49 83
REMARK H PARENT 69 45 43 56
REMARK Flexibility Score: inf
ROOT
ATOM      1  C   UNL A   1      35.168  20.789  25.202  1.00  0.00     0.275 C 
ENDROOT
BRANCH   1   2
ATOM      2  O   UNL A   1      35.045  22.228  25.200  1.00  0.00    -0.459 OA
BRANCH   2   3
ATOM      3  C   UNL A   1      34.091  22.735  26.015  1.00  0.00     0.338 C 
ATOM      4  O   UNL A   1      33.799  22.334  27.131  1.00  0.00    -0.246 OA
BRANCH   3   5
ATOM      5  C   UNL A   1      33.441  23.904  25.392  1.00  0.00     0.087 C 
ATOM      6  C   UNL A   1      31.190  28.327  24.572  1.00  0.00    -0.025 A 
ATOM      7  C   UNL A   1      31.337  27.141  23.824  1.00  0.00     0.052 A 
ATOM      8  C   UNL A   1      31.771  28.398  25.846  1.00  0.00     0.045 A 
ATOM      9  C   UNL A   1      32.056  26.059  24.326  1.00  0.00     0.128 A 
ATOM     10  C   UNL A   1      32.463  27.304  26.361  1.00  0.00     0.032 A 
ATOM     11  Cl  UNL A   1      31.672  29.814  26.831  1.00  0.00    -0.084 Cl
ATOM     12  C   UNL A   1      32.598  26.138  25.601  1.00  0.00     0.019 A 
ATOM     13  O   UNL A   1      32.200  24.980  23.503  1.00  0.00    -0.475 OA
ATOM     14  C   UNL A   1      33.289  24.994  26.150  1.00  0.00     0.027 C 
ATOM     15  C   UNL A   1      32.882  23.790  24.001  1.00  0.00     0.316 C 
BRANCH   6  16
ATOM     16  C   UNL A   1      30.467  29.495  23.941  1.00  0.00     0.040 C 
BRANCH  16  17
ATOM     17  C   UNL A   1      29.627  29.089  22.714  1.00  0.00    -0.013 C 
ATOM     18  C   UNL A   1      28.198  28.690  23.094  1.00  0.00     0.008 C 
ATOM     19  C   UNL A   1      29.589  30.243  21.712  1.00  0.00     0.008 C 
ENDBRANCH  16  17
ENDBRANCH   6  16
BRANCH  15  20
ATOM     20  C   UNL A   1      31.906  22.606  23.888  1.00  0.00     0.430 C 
ATOM     21  F   UNL A   1      30.879  22.891  23.052  1.00  0.00    -0.167 F 
ATOM     22  F   UNL A   1      32.512  21.501  23.391  1.00  0.00    -0.167 F 
ATOM     23  F   UNL A   1      31.375  22.271  25.085  1.00  0.00    -0.167 F 
ENDBRANCH  15  20
ENDBRANCH   3   5
ENDBRANCH   2   3
ENDBRANCH   1   2
BRANCH   1  24
ATOM     24  C   UNL A   1      36.617  20.338  25.003  1.00  0.00     0.275 C 
BRANCH  24  25
ATOM     25  O   UNL A   1      37.529  21.429  25.226  1.00  0.00    -0.458 OA
BRANCH  25  26
ATOM     26  C   UNL A   1      38.705  21.089  25.798  1.00  0.00     0.338 C 
ATOM     27  O   UNL A   1      39.286  20.020  25.731  1.00  0.00    -0.246 OA
BRANCH  26  28
ATOM     28  C   UNL A   1      39.291  22.262  26.462  1.00  0.00     0.060 A 
ATOM     29  C   UNL A   1      40.446  22.173  27.228  1.00  0.00     0.016 A 
ATOM     30  C   UNL A   1      38.758  23.507  26.154  1.00  0.00     0.016 A 
ATOM     31  C   UNL A   1      41.051  23.352  27.686  1.00  0.00     0.010 A 
ATOM     32  C   UNL A   1      39.444  24.673  26.473  1.00  0.00     0.010 A 
ATOM     33  C   UNL A   1      40.583  24.620  27.279  1.00  0.00    -0.014 A 
BRANCH  33  34
ATOM     34  C   UNL A   1      41.273  25.877  27.697  1.00  0.00     0.031 A 
ATOM     35  C   UNL A   1      42.680  26.191  27.235  1.00  0.00     0.074 A 
ATOM     36  C   UNL A   1      40.649  26.733  28.533  1.00  0.00     0.049 A 
ATOM     37  N   UNL A   1      43.409  27.256  27.470  1.00  0.00    -0.248 NA
ATOM     38  C   UNL A   1      43.380  25.163  26.448  1.00  0.00     0.031 C 
ATOM     39  C   UNL A   1      39.345  26.508  29.159  1.00  0.00     0.029 A 
ATOM     40  N   UNL A   1      41.020  27.976  28.985  1.00  0.00    -0.354 N 
ATOM     41  C   UNL A   1      44.647  27.009  26.887  1.00  0.00     0.074 A 
ATOM     42  C   UNL A   1      44.601  25.665  26.359  1.00  0.00     0.031 C 
ATOM     43  C   UNL A   1      38.985  27.609  29.840  1.00  0.00     0.029 A 
ATOM     44  C   UNL A   1      40.048  28.602  29.730  1.00  0.00     0.049 A 
ATOM     45  H   UNL A   1      41.896  28.380  28.793  1.00  0.00     0.167 HD
ATOM     46  C   UNL A   1      45.713  27.835  26.753  1.00  0.00     0.037 A 
ATOM     47  C   UNL A   1      40.006  29.845  30.244  1.00  0.00     0.037 A 
ATOM     48  C   UNL A   1      45.743  29.195  27.220  1.00  0.00     0.049 A 
ATOM     49  C   UNL A   1      41.166  30.772  30.023  1.00  0.00     0.074 A 
ATOM     50  C   UNL A   1      46.734  30.146  27.053  1.00  0.00     0.029 A 
ATOM     51  N   UNL A   1      44.724  29.799  27.939  1.00  0.00    -0.354 N 
ATOM     52  N   UNL A   1      42.286  30.556  29.376  1.00  0.00    -0.248 NA
ATOM     53  C   UNL A   1      41.055  32.120  30.600  1.00  0.00     0.031 C 
ATOM     54  C   UNL A   1      46.326  31.320  27.697  1.00  0.00     0.029 A 
ATOM     55  C   UNL A   1      45.066  31.108  28.232  1.00  0.00     0.049 A 
ATOM     56  H   UNL A   1      43.881  29.363  28.202  1.00  0.00     0.167 HD
ATOM     57  C   UNL A   1      43.002  31.745  29.449  1.00  0.00     0.074 A 
ATOM     58  C   UNL A   1      42.180  32.684  30.184  1.00  0.00     0.031 C 
ATOM     59  C   UNL A   1      44.232  32.031  28.959  1.00  0.00     0.037 A 
BRANCH  46  60
ATOM     60  C   UNL A   1      46.921  27.295  26.038  1.00  0.00     0.057 A 
ATOM     61  C   UNL A   1      47.962  26.679  26.745  1.00  0.00     0.134 A 
ATOM     62  C   UNL A   1      47.062  27.399  24.647  1.00  0.00     0.134 A 
ATOM     63  F   UNL A   1      47.902  26.556  28.079  1.00  0.00    -0.206 F 
ATOM     64  C   UNL A   1      49.090  26.176  26.092  1.00  0.00     0.040 A 
ATOM     65  C   UNL A   1      48.171  26.874  23.980  1.00  0.00     0.040 A 
ATOM     66  F   UNL A   1      46.098  27.972  23.908  1.00  0.00    -0.206 F 
ATOM     67  C   UNL A   1      49.191  26.263  24.705  1.00  0.00     0.006 A 
ENDBRANCH  46  60
BRANCH  47  68
ATOM     68  C   UNL A   1      38.793  30.314  30.961  1.00  0.00     0.057 A 
ATOM     69  C   UNL A   1      37.755  30.979  30.299  1.00  0.00     0.134 A 
ATOM     70  C   UNL A   1      38.645  30.097  32.337  1.00  0.00     0.134 A 
ATOM     71  F   UNL A   1      37.841  31.226  28.984  1.00  0.00    -0.206 F 
ATOM     72  C   UNL A   1      36.613  31.411  30.978  1.00  0.00     0.040 A 
ATOM     73  C   UNL A   1      37.499  30.501  33.024  1.00  0.00     0.040 A 
ATOM     74  F   UNL A   1      39.599  29.451  33.024  1.00  0.00    -0.206 F 
ATOM     75  C   UNL A   1      36.480  31.164  32.343  1.00  0.00     0.006 A 
ENDBRANCH  47  68
BRANCH  59  76
ATOM     76  C   UNL A   1      44.747  33.421  29.181  1.00  0.00     0.057 A 
ATOM     77  C   UNL A   1      44.482  34.437  28.255  1.00  0.00     0.134 A 
ATOM     78  C   UNL A   1      45.526  33.747  30.297  1.00  0.00     0.134 A 
ATOM     79  F   UNL A   1      43.748  34.186  27.160  1.00  0.00    -0.206 F 
ATOM     80  C   UNL A   1      44.974  35.729  28.431  1.00  0.00     0.040 A 
ATOM     81  C   UNL A   1      46.004  35.042  30.498  1.00  0.00     0.040 A 
ATOM     82  F   UNL A   1      45.804  32.820  31.227  1.00  0.00    -0.206 F 
ATOM     83  C   UNL A   1      45.732  36.036  29.560  1.00  0.00     0.006 A 
ENDBRANCH  59  76
ENDBRANCH  33  34
ENDBRANCH  26  28
ENDBRANCH  25  26
ENDBRANCH  24  25
ENDBRANCH   1  24
TORSDOF 14
ENDMDL
