MODEL 1
REMARK VINA RESULT:     -11.7      0.000      0.000
REMARK SMILES Nc1c(Cl)ccc2c1C=C(C(=O)OCCOC(=O)c1ccc(-c3c4nc(c(-c5c(F)cccc5F)c5ccc([nH]5)c(-c5c(F)cccc5F)c5nc(c(-c6c(F)cccc6F)c6ccc3[nH]6)C=C5)C=C4)cc1)[C@@H](C(F)(F)F)O2
REMARK SMILES IDX 15 1 14 2 13 3 11 4 12 5 10 6 2 7 3 8 8 9 4 10 5 11 7 12
REMARK SMILES IDX 9 13 6 14 78 15 73 16 1 17 74 20 75 21 76 22 77 23 16 24
REMARK SMILES IDX 17 25 18 26 19 27 20 28 72 29 21 30 71 31 22 32 23 33 24 34
REMARK SMILES IDX 65 35 25 36 70 37 64 38 66 39 26 40 69 41 63 42 62 43 27 45
REMARK SMILES IDX 53 46 36 47 52 48 37 49 40 50 51 51 67 52 38 53 39 54 50 56
REMARK SMILES IDX 68 57 41 58 28 59 29 60 34 61 30 62 31 63 33 64 35 65 32 66
REMARK SMILES IDX 54 67 55 68 60 69 56 70 57 71 59 72 61 73 58 74 42 75 43 76
REMARK SMILES IDX 48 77 44 78 45 79 47 80 49 81 46 82
REMARK H PARENT 1 18 1 19 66 44 40 55
REMARK Flexibility Score: inf
ROOT
ATOM      1  C   UNL A   1      33.941  28.556  26.101  1.00  0.00     0.275 C 
ENDROOT
BRANCH   1   2
ATOM      2  C   UNL A   1      33.735  27.085  25.744  1.00  0.00     0.275 C 
BRANCH   2   3
ATOM      3  O   UNL A   1      33.480  26.926  24.332  1.00  0.00    -0.459 OA
BRANCH   3   4
ATOM      4  C   UNL A   1      32.626  25.927  24.001  1.00  0.00     0.338 C 
ATOM      5  O   UNL A   1      32.878  24.738  23.956  1.00  0.00    -0.246 OA
BRANCH   4   6
ATOM      6  C   UNL A   1      31.281  26.482  23.738  1.00  0.00     0.088 C 
ATOM      7  C   UNL A   1      29.756  29.467  22.132  1.00  0.00     0.061 A 
ATOM      8  C   UNL A   1      28.487  30.080  22.120  1.00  0.00     0.064 A 
ATOM      9  C   UNL A   1      29.902  28.248  22.837  1.00  0.00     0.042 A 
ATOM     10  Cl  UNL A   1      28.254  31.614  21.350  1.00  0.00    -0.082 Cl
ATOM     11  C   UNL A   1      27.379  29.462  22.700  1.00  0.00     0.026 A 
ATOM     12  C   UNL A   1      28.779  27.620  23.394  1.00  0.00     0.130 A 
ATOM     13  C   UNL A   1      31.204  27.624  23.046  1.00  0.00     0.029 C 
ATOM     14  C   UNL A   1      27.523  28.221  23.316  1.00  0.00     0.049 A 
ATOM     15  O   UNL A   1      28.810  26.407  24.023  1.00  0.00    -0.475 OA
ATOM     16  C   UNL A   1      30.091  25.807  24.350  1.00  0.00     0.316 C 
BRANCH   7  17
ATOM     17  N   UNL A   1      30.855  30.113  21.543  1.00  0.00    -0.397 N 
ATOM     18  H   UNL A   1      30.733  30.641  20.722  1.00  0.00     0.156 HD
ATOM     19  H   UNL A   1      31.747  30.038  21.952  1.00  0.00     0.156 HD
ENDBRANCH   7  17
BRANCH  16  20
ATOM     20  C   UNL A   1      30.220  25.732  25.882  1.00  0.00     0.430 C 
ATOM     21  F   UNL A   1      30.627  26.914  26.401  1.00  0.00    -0.167 F 
ATOM     22  F   UNL A   1      29.036  25.438  26.470  1.00  0.00    -0.167 F 
ATOM     23  F   UNL A   1      31.108  24.789  26.272  1.00  0.00    -0.167 F 
ENDBRANCH  16  20
ENDBRANCH   4   6
ENDBRANCH   3   4
ENDBRANCH   2   3
ENDBRANCH   1   2
BRANCH   1  24
ATOM     24  O   UNL A   1      34.197  28.695  27.511  1.00  0.00    -0.458 OA
BRANCH  24  25
ATOM     25  C   UNL A   1      34.638  29.911  27.901  1.00  0.00     0.338 C 
ATOM     26  O   UNL A   1      33.993  30.943  27.991  1.00  0.00    -0.246 OA
BRANCH  25  27
ATOM     27  C   UNL A   1      36.059  29.840  28.271  1.00  0.00     0.060 A 
ATOM     28  C   UNL A   1      37.031  30.104  27.311  1.00  0.00     0.016 A 
ATOM     29  C   UNL A   1      36.425  29.337  29.518  1.00  0.00     0.016 A 
ATOM     30  C   UNL A   1      38.352  29.728  27.537  1.00  0.00     0.010 A 
ATOM     31  C   UNL A   1      37.774  29.078  29.787  1.00  0.00     0.010 A 
ATOM     32  C   UNL A   1      38.747  29.213  28.780  1.00  0.00    -0.014 A 
BRANCH  32  33
ATOM     33  C   UNL A   1      40.154  28.781  29.014  1.00  0.00     0.031 A 
ATOM     34  C   UNL A   1      41.146  29.727  29.647  1.00  0.00     0.074 A 
ATOM     35  C   UNL A   1      40.552  27.538  28.671  1.00  0.00     0.049 A 
ATOM     36  N   UNL A   1      42.444  29.607  29.774  1.00  0.00    -0.248 NA
ATOM     37  C   UNL A   1      40.608  30.981  30.200  1.00  0.00     0.031 C 
ATOM     38  C   UNL A   1      39.697  26.501  28.091  1.00  0.00     0.029 A 
ATOM     39  N   UNL A   1      41.784  26.937  28.758  1.00  0.00    -0.354 N 
ATOM     40  C   UNL A   1      42.882  30.787  30.366  1.00  0.00     0.074 A 
ATOM     41  C   UNL A   1      41.713  31.615  30.567  1.00  0.00     0.031 C 
ATOM     42  C   UNL A   1      40.417  25.385  27.905  1.00  0.00     0.029 A 
ATOM     43  C   UNL A   1      41.804  25.655  28.260  1.00  0.00     0.049 A 
ATOM     44  H   UNL A   1      42.575  27.380  29.142  1.00  0.00     0.167 HD
ATOM     45  C   UNL A   1      44.144  31.146  30.709  1.00  0.00     0.037 A 
ATOM     46  C   UNL A   1      42.830  24.808  28.056  1.00  0.00     0.037 A 
ATOM     47  C   UNL A   1      45.299  30.300  30.554  1.00  0.00     0.049 A 
ATOM     48  C   UNL A   1      44.224  25.250  28.400  1.00  0.00     0.074 A 
ATOM     49  C   UNL A   1      46.614  30.562  30.901  1.00  0.00     0.029 A 
ATOM     50  N   UNL A   1      45.276  29.023  30.014  1.00  0.00    -0.354 N 
ATOM     51  N   UNL A   1      44.627  26.381  28.929  1.00  0.00    -0.248 NA
ATOM     52  C   UNL A   1      45.308  24.306  28.100  1.00  0.00     0.031 C 
ATOM     53  C   UNL A   1      47.393  29.461  30.528  1.00  0.00     0.029 A 
ATOM     54  C   UNL A   1      46.557  28.494  29.997  1.00  0.00     0.049 A 
ATOM     55  H   UNL A   1      44.469  28.560  29.692  1.00  0.00     0.167 HD
ATOM     56  C   UNL A   1      46.007  26.274  29.040  1.00  0.00     0.074 A 
ATOM     57  C   UNL A   1      46.368  24.962  28.546  1.00  0.00     0.031 C 
ATOM     58  C   UNL A   1      46.898  27.184  29.503  1.00  0.00     0.037 A 
BRANCH  45  59
ATOM     59  C   UNL A   1      44.351  32.531  31.256  1.00  0.00     0.057 A 
ATOM     60  C   UNL A   1      44.644  33.595  30.392  1.00  0.00     0.134 A 
ATOM     61  C   UNL A   1      44.305  32.810  32.627  1.00  0.00     0.134 A 
ATOM     62  F   UNL A   1      44.711  33.398  29.066  1.00  0.00    -0.206 F 
ATOM     63  C   UNL A   1      44.888  34.883  30.871  1.00  0.00     0.040 A 
ATOM     64  C   UNL A   1      44.521  34.100  33.117  1.00  0.00     0.040 A 
ATOM     65  F   UNL A   1      44.019  31.840  33.509  1.00  0.00    -0.206 F 
ATOM     66  C   UNL A   1      44.820  35.140  32.239  1.00  0.00     0.006 A 
ENDBRANCH  45  59
BRANCH  46  67
ATOM     67  C   UNL A   1      42.591  23.476  27.442  1.00  0.00     0.057 A 
ATOM     68  C   UNL A   1      42.682  23.285  26.057  1.00  0.00     0.134 A 
ATOM     69  C   UNL A   1      42.297  22.357  28.228  1.00  0.00     0.134 A 
ATOM     70  F   UNL A   1      42.959  24.318  25.247  1.00  0.00    -0.206 F 
ATOM     71  C   UNL A   1      42.480  22.033  25.476  1.00  0.00     0.040 A 
ATOM     72  C   UNL A   1      42.124  21.092  27.663  1.00  0.00     0.040 A 
ATOM     73  F   UNL A   1      42.220  22.470  29.563  1.00  0.00    -0.206 F 
ATOM     74  C   UNL A   1      42.211  20.930  26.282  1.00  0.00     0.006 A 
ENDBRANCH  46  67
BRANCH  58  75
ATOM     75  C   UNL A   1      48.339  26.770  29.529  1.00  0.00     0.057 A 
ATOM     76  C   UNL A   1      49.195  27.104  28.473  1.00  0.00     0.134 A 
ATOM     77  C   UNL A   1      48.878  26.038  30.596  1.00  0.00     0.134 A 
ATOM     78  F   UNL A   1      48.740  27.797  27.419  1.00  0.00    -0.206 F 
ATOM     79  C   UNL A   1      50.538  26.728  28.478  1.00  0.00     0.040 A 
ATOM     80  C   UNL A   1      50.227  25.681  30.624  1.00  0.00     0.040 A 
ATOM     81  F   UNL A   1      48.114  25.703  31.645  1.00  0.00    -0.206 F 
ATOM     82  C   UNL A   1      51.060  26.021  29.559  1.00  0.00     0.006 A 
ENDBRANCH  58  75
ENDBRANCH  32  33
ENDBRANCH  25  27
ENDBRANCH  24  25
ENDBRANCH   1  24
TORSDOF 13
ENDMDL
MODEL 2
REMARK VINA RESULT:     -11.5      3.387      6.666
REMARK SMILES Nc1c(Cl)ccc2c1C=C(C(=O)OCCOC(=O)c1ccc(-c3c4nc(c(-c5c(F)cccc5F)c5ccc([nH]5)c(-c5c(F)cccc5F)c5nc(c(-c6c(F)cccc6F)c6ccc3[nH]6)C=C5)C=C4)cc1)[C@@H](C(F)(F)F)O2
REMARK SMILES IDX 15 1 14 2 13 3 11 4 12 5 10 6 2 7 3 8 8 9 4 10 5 11 7 12
REMARK SMILES IDX 9 13 6 14 78 15 73 16 1 17 74 20 75 21 76 22 77 23 16 24
REMARK SMILES IDX 17 25 18 26 19 27 20 28 72 29 21 30 71 31 22 32 23 33 24 34
REMARK SMILES IDX 65 35 25 36 70 37 64 38 66 39 26 40 69 41 63 42 62 43 27 45
REMARK SMILES IDX 53 46 36 47 52 48 37 49 40 50 51 51 67 52 38 53 39 54 50 56
REMARK SMILES IDX 68 57 41 58 28 59 29 60 34 61 30 62 31 63 33 64 35 65 32 66
REMARK SMILES IDX 54 67 55 68 60 69 56 70 57 71 59 72 61 73 58 74 42 75 43 76
REMARK SMILES IDX 48 77 44 78 45 79 47 80 49 81 46 82
REMARK H PARENT 1 18 1 19 66 44 40 55
REMARK Flexibility Score: inf
ROOT
ATOM      1  C   UNL A   1      37.203  19.827  24.907  1.00  0.00     0.275 C 
ENDROOT
BRANCH   1   2
ATOM      2  C   UNL A   1      35.728  20.204  25.034  1.00  0.00     0.275 C 
BRANCH   2   3
ATOM      3  O   UNL A   1      35.574  21.475  25.699  1.00  0.00    -0.459 OA
BRANCH   3   4
ATOM      4  C   UNL A   1      34.310  21.961  25.746  1.00  0.00     0.338 C 
ATOM      5  O   UNL A   1      33.414  21.592  26.482  1.00  0.00    -0.246 OA
BRANCH   4   6
ATOM      6  C   UNL A   1      34.163  23.075  24.785  1.00  0.00     0.088 C 
ATOM      7  C   UNL A   1      33.746  26.768  24.831  1.00  0.00     0.061 A 
ATOM      8  C   UNL A   1      33.362  27.761  23.907  1.00  0.00     0.064 A 
ATOM      9  C   UNL A   1      33.858  25.434  24.370  1.00  0.00     0.042 A 
ATOM     10  Cl  UNL A   1      33.123  29.399  24.419  1.00  0.00    -0.082 Cl
ATOM     11  C   UNL A   1      33.191  27.465  22.556  1.00  0.00     0.026 A 
ATOM     12  C   UNL A   1      33.710  25.149  23.005  1.00  0.00     0.130 A 
ATOM     13  C   UNL A   1      34.087  24.316  25.278  1.00  0.00     0.029 C 
ATOM     14  C   UNL A   1      33.388  26.162  22.103  1.00  0.00     0.049 A 
ATOM     15  O   UNL A   1      33.877  23.908  22.457  1.00  0.00    -0.475 OA
ATOM     16  C   UNL A   1      33.994  22.754  23.330  1.00  0.00     0.316 C 
BRANCH   7  17
ATOM     17  N   UNL A   1      33.909  27.094  26.188  1.00  0.00    -0.397 N 
ATOM     18  H   UNL A   1      33.125  27.324  26.736  1.00  0.00     0.156 HD
ATOM     19  H   UNL A   1      34.808  27.092  26.589  1.00  0.00     0.156 HD
ENDBRANCH   7  17
BRANCH  16  20
ATOM     20  C   UNL A   1      32.779  21.840  23.100  1.00  0.00     0.430 C 
ATOM     21  F   UNL A   1      32.396  21.846  21.801  1.00  0.00    -0.167 F 
ATOM     22  F   UNL A   1      33.054  20.551  23.415  1.00  0.00    -0.167 F 
ATOM     23  F   UNL A   1      31.710  22.216  23.840  1.00  0.00    -0.167 F 
ENDBRANCH  16  20
ENDBRANCH   4   6
ENDBRANCH   3   4
ENDBRANCH   2   3
ENDBRANCH   1   2
BRANCH   1  24
ATOM     24  O   UNL A   1      38.034  20.973  25.170  1.00  0.00    -0.458 OA
BRANCH  24  25
ATOM     25  C   UNL A   1      39.140  20.728  25.907  1.00  0.00     0.338 C 
ATOM     26  O   UNL A   1      39.739  19.671  26.021  1.00  0.00    -0.246 OA
BRANCH  25  27
ATOM     27  C   UNL A   1      39.596  21.963  26.562  1.00  0.00     0.060 A 
ATOM     28  C   UNL A   1      39.033  23.181  26.195  1.00  0.00     0.016 A 
ATOM     29  C   UNL A   1      40.705  21.930  27.406  1.00  0.00     0.016 A 
ATOM     30  C   UNL A   1      39.662  24.372  26.546  1.00  0.00     0.010 A 
ATOM     31  C   UNL A   1      41.260  23.131  27.860  1.00  0.00     0.010 A 
ATOM     32  C   UNL A   1      40.784  24.367  27.389  1.00  0.00    -0.014 A 
BRANCH  32  33
ATOM     33  C   UNL A   1      41.477  25.639  27.741  1.00  0.00     0.031 A 
ATOM     34  C   UNL A   1      40.766  26.695  28.552  1.00  0.00     0.074 A 
ATOM     35  C   UNL A   1      42.749  25.854  27.347  1.00  0.00     0.049 A 
ATOM     36  N   UNL A   1      41.127  27.926  28.812  1.00  0.00    -0.248 NA
ATOM     37  C   UNL A   1      39.469  26.319  29.140  1.00  0.00     0.031 C 
ATOM     38  C   UNL A   1      43.578  24.908  26.595  1.00  0.00     0.029 A 
ATOM     39  N   UNL A   1      43.569  26.942  27.521  1.00  0.00    -0.354 N 
ATOM     40  C   UNL A   1      40.083  28.487  29.540  1.00  0.00     0.074 A 
ATOM     41  C   UNL A   1      39.070  27.464  29.676  1.00  0.00     0.031 C 
ATOM     42  C   UNL A   1      44.794  25.442  26.402  1.00  0.00     0.029 A 
ATOM     43  C   UNL A   1      44.801  26.800  26.928  1.00  0.00     0.049 A 
ATOM     44  H   UNL A   1      43.300  27.745  28.023  1.00  0.00     0.167 HD
ATOM     45  C   UNL A   1      39.980  29.740  30.047  1.00  0.00     0.037 A 
ATOM     46  C   UNL A   1      45.807  27.681  26.772  1.00  0.00     0.037 A 
ATOM     47  C   UNL A   1      41.011  30.741  29.954  1.00  0.00     0.049 A 
ATOM     48  C   UNL A   1      45.647  29.077  27.301  1.00  0.00     0.074 A 
ATOM     49  C   UNL A   1      41.014  32.029  30.463  1.00  0.00     0.029 A 
ATOM     50  N   UNL A   1      42.229  30.563  29.315  1.00  0.00    -0.354 N 
ATOM     51  N   UNL A   1      44.641  29.603  27.959  1.00  0.00    -0.248 NA
ATOM     52  C   UNL A   1      46.753  30.009  27.048  1.00  0.00     0.031 C 
ATOM     53  C   UNL A   1      42.214  32.644  30.092  1.00  0.00     0.029 A 
ATOM     54  C   UNL A   1      42.981  31.724  29.398  1.00  0.00     0.049 A 
ATOM     55  H   UNL A   1      42.518  29.733  28.870  1.00  0.00     0.167 HD
ATOM     56  C   UNL A   1      45.003  30.919  28.213  1.00  0.00     0.074 A 
ATOM     57  C   UNL A   1      46.328  31.104  27.659  1.00  0.00     0.031 C 
ATOM     58  C   UNL A   1      44.299  31.891  28.842  1.00  0.00     0.037 A 
BRANCH  45  59
ATOM     59  C   UNL A   1      38.690  30.116  30.722  1.00  0.00     0.057 A 
ATOM     60  C   UNL A   1      37.653  30.704  29.985  1.00  0.00     0.134 A 
ATOM     61  C   UNL A   1      38.484  29.942  32.095  1.00  0.00     0.134 A 
ATOM     62  F   UNL A   1      37.785  30.908  28.665  1.00  0.00    -0.206 F 
ATOM     63  C   UNL A   1      36.461  31.107  30.589  1.00  0.00     0.040 A 
ATOM     64  C   UNL A   1      37.286  30.317  32.707  1.00  0.00     0.040 A 
ATOM     65  F   UNL A   1      39.431  29.375  32.858  1.00  0.00    -0.206 F 
ATOM     66  C   UNL A   1      36.272  30.908  31.954  1.00  0.00     0.006 A 
ENDBRANCH  45  59
BRANCH  46  67
ATOM     67  C   UNL A   1      47.036  27.290  26.032  1.00  0.00     0.057 A 
ATOM     68  C   UNL A   1      48.124  26.700  26.687  1.00  0.00     0.134 A 
ATOM     69  C   UNL A   1      47.136  27.468  24.648  1.00  0.00     0.134 A 
ATOM     70  F   UNL A   1      48.092  26.503  28.013  1.00  0.00    -0.206 F 
ATOM     71  C   UNL A   1      49.272  26.311  25.995  1.00  0.00     0.040 A 
ATOM     72  C   UNL A   1      48.266  27.054  23.938  1.00  0.00     0.040 A 
ATOM     73  F   UNL A   1      46.117  28.005  23.960  1.00  0.00    -0.206 F 
ATOM     74  C   UNL A   1      49.339  26.478  24.614  1.00  0.00     0.006 A 
ENDBRANCH  46  67
BRANCH  58  75
ATOM     75  C   UNL A   1      44.970  33.223  28.994  1.00  0.00     0.057 A 
ATOM     76  C   UNL A   1      44.782  34.229  28.037  1.00  0.00     0.134 A 
ATOM     77  C   UNL A   1      45.803  33.512  30.082  1.00  0.00     0.134 A 
ATOM     78  F   UNL A   1      44.001  34.014  26.968  1.00  0.00    -0.206 F 
ATOM     79  C   UNL A   1      45.396  35.475  28.159  1.00  0.00     0.040 A 
ATOM     80  C   UNL A   1      46.401  34.765  30.230  1.00  0.00     0.040 A 
ATOM     81  F   UNL A   1      46.009  32.597  31.042  1.00  0.00    -0.206 F 
ATOM     82  C   UNL A   1      46.202  35.749  29.262  1.00  0.00     0.006 A 
ENDBRANCH  58  75
ENDBRANCH  32  33
ENDBRANCH  25  27
ENDBRANCH  24  25
ENDBRANCH   1  24
TORSDOF 13
ENDMDL
MODEL 3
REMARK VINA RESULT:     -11.4      4.447      7.116
REMARK SMILES Nc1c(Cl)ccc2c1C=C(C(=O)OCCOC(=O)c1ccc(-c3c4nc(c(-c5c(F)cccc5F)c5ccc([nH]5)c(-c5c(F)cccc5F)c5nc(c(-c6c(F)cccc6F)c6ccc3[nH]6)C=C5)C=C4)cc1)[C@@H](C(F)(F)F)O2
REMARK SMILES IDX 15 1 14 2 13 3 11 4 12 5 10 6 2 7 3 8 8 9 4 10 5 11 7 12
REMARK SMILES IDX 9 13 6 14 78 15 73 16 1 17 74 20 75 21 76 22 77 23 16 24
REMARK SMILES IDX 17 25 18 26 19 27 20 28 72 29 21 30 71 31 22 32 23 33 24 34
REMARK SMILES IDX 65 35 25 36 70 37 64 38 66 39 26 40 69 41 63 42 62 43 27 45
REMARK SMILES IDX 53 46 36 47 52 48 37 49 40 50 51 51 67 52 38 53 39 54 50 56
REMARK SMILES IDX 68 57 41 58 28 59 29 60 34 61 30 62 31 63 33 64 35 65 32 66
REMARK SMILES IDX 54 67 55 68 60 69 56 70 57 71 59 72 61 73 58 74 42 75 43 76
REMARK SMILES IDX 48 77 44 78 45 79 47 80 49 81 46 82
REMARK H PARENT 1 18 1 19 66 44 40 55
REMARK Flexibility Score: inf
ROOT
ATOM      1  C   UNL A   1      35.996  21.942  26.126  1.00  0.00     0.275 C 
ENDROOT
BRANCH   1   2
ATOM      2  C   UNL A   1      35.161  23.216  26.009  1.00  0.00     0.275 C 
BRANCH   2   3
ATOM      3  O   UNL A   1      33.838  23.020  26.551  1.00  0.00    -0.459 OA
BRANCH   3   4
ATOM      4  C   UNL A   1      32.815  23.251  25.693  1.00  0.00     0.338 C 
ATOM      5  O   UNL A   1      32.175  24.280  25.582  1.00  0.00    -0.246 OA
BRANCH   4   6
ATOM      6  C   UNL A   1      32.596  22.064  24.840  1.00  0.00     0.088 C 
ATOM      7  C   UNL A   1      32.706  18.360  25.126  1.00  0.00     0.061 A 
ATOM      8  C   UNL A   1      32.735  17.270  24.233  1.00  0.00     0.064 A 
ATOM      9  C   UNL A   1      32.579  19.663  24.587  1.00  0.00     0.042 A 
ATOM     10  Cl  UNL A   1      32.972  15.656  24.815  1.00  0.00    -0.082 Cl
ATOM     11  C   UNL A   1      32.545  17.451  22.863  1.00  0.00     0.026 A 
ATOM     12  C   UNL A   1      32.363  19.835  23.212  1.00  0.00     0.130 A 
ATOM     13  C   UNL A   1      32.705  20.859  25.411  1.00  0.00     0.029 C 
ATOM     14  C   UNL A   1      32.336  18.733  22.358  1.00  0.00     0.049 A 
ATOM     15  O   UNL A   1      32.151  21.045  22.613  1.00  0.00    -0.475 OA
ATOM     16  C   UNL A   1      32.377  22.263  23.370  1.00  0.00     0.316 C 
BRANCH   7  17
ATOM     17  N   UNL A   1      32.903  18.148  26.501  1.00  0.00    -0.397 N 
ATOM     18  H   UNL A   1      33.060  17.238  26.841  1.00  0.00     0.156 HD
ATOM     19  H   UNL A   1      32.884  18.910  27.123  1.00  0.00     0.156 HD
ENDBRANCH   7  17
BRANCH  16  20
ATOM     20  C   UNL A   1      33.551  23.026  22.732  1.00  0.00     0.430 C 
ATOM     21  F   UNL A   1      34.742  22.512  23.118  1.00  0.00    -0.167 F 
ATOM     22  F   UNL A   1      33.519  22.953  21.379  1.00  0.00    -0.167 F 
ATOM     23  F   UNL A   1      33.547  24.338  23.064  1.00  0.00    -0.167 F 
ENDBRANCH  16  20
ENDBRANCH   4   6
ENDBRANCH   3   4
ENDBRANCH   2   3
ENDBRANCH   1   2
BRANCH   1  24
ATOM     24  O   UNL A   1      37.113  21.993  25.220  1.00  0.00    -0.458 OA
BRANCH  24  25
ATOM     25  C   UNL A   1      38.305  21.641  25.751  1.00  0.00     0.338 C 
ATOM     26  O   UNL A   1      38.863  20.558  25.674  1.00  0.00    -0.246 OA
BRANCH  25  27
ATOM     27  C   UNL A   1      38.914  22.790  26.437  1.00  0.00     0.060 A 
ATOM     28  C   UNL A   1      38.487  24.078  26.126  1.00  0.00     0.016 A 
ATOM     29  C   UNL A   1      40.028  22.599  27.251  1.00  0.00     0.016 A 
ATOM     30  C   UNL A   1      39.257  25.175  26.502  1.00  0.00     0.010 A 
ATOM     31  C   UNL A   1      40.727  23.711  27.733  1.00  0.00     0.010 A 
ATOM     32  C   UNL A   1      40.387  25.011  27.316  1.00  0.00    -0.014 A 
BRANCH  32  33
ATOM     33  C   UNL A   1      41.230  26.180  27.696  1.00  0.00     0.031 A 
ATOM     34  C   UNL A   1      40.658  27.285  28.550  1.00  0.00     0.074 A 
ATOM     35  C   UNL A   1      42.513  26.258  27.286  1.00  0.00     0.049 A 
ATOM     36  N   UNL A   1      41.165  28.458  28.841  1.00  0.00    -0.248 NA
ATOM     37  C   UNL A   1      39.334  27.045  29.149  1.00  0.00     0.031 C 
ATOM     38  C   UNL A   1      43.215  25.247  26.492  1.00  0.00     0.029 A 
ATOM     39  N   UNL A   1      43.456  27.237  27.479  1.00  0.00    -0.354 N 
ATOM     40  C   UNL A   1      40.204  29.113  29.603  1.00  0.00     0.074 A 
ATOM     41  C   UNL A   1      39.079  28.211  29.725  1.00  0.00     0.031 C 
ATOM     42  C   UNL A   1      44.482  25.640  26.294  1.00  0.00     0.029 A 
ATOM     43  C   UNL A   1      44.656  26.971  26.861  1.00  0.00     0.049 A 
ATOM     44  H   UNL A   1      43.291  28.049  28.010  1.00  0.00     0.167 HD
ATOM     45  C   UNL A   1      40.255  30.352  30.150  1.00  0.00     0.037 A 
ATOM     46  C   UNL A   1      45.756  27.732  26.715  1.00  0.00     0.037 A 
ATOM     47  C   UNL A   1      41.395  31.228  30.069  1.00  0.00     0.049 A 
ATOM     48  C   UNL A   1      45.768  29.120  27.288  1.00  0.00     0.074 A 
ATOM     49  C   UNL A   1      41.555  32.490  30.617  1.00  0.00     0.029 A 
ATOM     50  N   UNL A   1      42.575  30.930  29.405  1.00  0.00    -0.354 N 
ATOM     51  N   UNL A   1      44.840  29.738  27.979  1.00  0.00    -0.248 NA
ATOM     52  C   UNL A   1      46.972  29.924  27.045  1.00  0.00     0.031 C 
ATOM     53  C   UNL A   1      42.815  32.972  30.245  1.00  0.00     0.029 A 
ATOM     54  C   UNL A   1      43.459  31.992  29.510  1.00  0.00     0.049 A 
ATOM     55  H   UNL A   1      42.759  30.087  28.930  1.00  0.00     0.167 HD
ATOM     56  C   UNL A   1      45.357  30.994  28.267  1.00  0.00     0.074 A 
ATOM     57  C   UNL A   1      46.687  31.041  27.697  1.00  0.00     0.031 C 
ATOM     58  C   UNL A   1      44.780  32.021  28.937  1.00  0.00     0.037 A 
BRANCH  45  59
ATOM     59  C   UNL A   1      39.027  30.855  30.858  1.00  0.00     0.057 A 
ATOM     60  C   UNL A   1      38.035  31.545  30.147  1.00  0.00     0.134 A 
ATOM     61  C   UNL A   1      38.840  30.700  32.236  1.00  0.00     0.134 A 
ATOM     62  F   UNL A   1      38.153  31.737  28.824  1.00  0.00    -0.206 F 
ATOM     63  C   UNL A   1      36.906  32.064  30.782  1.00  0.00     0.040 A 
ATOM     64  C   UNL A   1      37.702  31.192  32.879  1.00  0.00     0.040 A 
ATOM     65  F   UNL A   1      39.746  30.039  32.975  1.00  0.00    -0.206 F 
ATOM     66  C   UNL A   1      36.734  31.883  32.152  1.00  0.00     0.006 A 
ENDBRANCH  45  59
BRANCH  46  67
ATOM     67  C   UNL A   1      46.920  27.225  25.942  1.00  0.00     0.057 A 
ATOM     68  C   UNL A   1      47.042  27.465  24.567  1.00  0.00     0.134 A 
ATOM     69  C   UNL A   1      47.953  26.518  26.566  1.00  0.00     0.134 A 
ATOM     70  F   UNL A   1      46.085  28.135  23.908  1.00  0.00    -0.206 F 
ATOM     71  C   UNL A   1      48.142  27.011  23.840  1.00  0.00     0.040 A 
ATOM     72  C   UNL A   1      49.075  26.085  25.857  1.00  0.00     0.040 A 
ATOM     73  F   UNL A   1      47.906  26.278  27.885  1.00  0.00    -0.206 F 
ATOM     74  C   UNL A   1      49.169  26.328  24.488  1.00  0.00     0.006 A 
ENDBRANCH  46  67
BRANCH  58  75
ATOM     75  C   UNL A   1      45.604  33.261  29.118  1.00  0.00     0.057 A 
ATOM     76  C   UNL A   1      45.529  34.308  28.191  1.00  0.00     0.134 A 
ATOM     77  C   UNL A   1      46.474  33.418  30.205  1.00  0.00     0.134 A 
ATOM     78  F   UNL A   1      44.721  34.217  27.124  1.00  0.00    -0.206 F 
ATOM     79  C   UNL A   1      46.287  35.469  28.340  1.00  0.00     0.040 A 
ATOM     80  C   UNL A   1      47.217  34.587  30.379  1.00  0.00     0.040 A 
ATOM     81  F   UNL A   1      46.578  32.459  31.137  1.00  0.00    -0.206 F 
ATOM     82  C   UNL A   1      47.128  35.615  29.441  1.00  0.00     0.006 A 
ENDBRANCH  58  75
ENDBRANCH  32  33
ENDBRANCH  25  27
ENDBRANCH  24  25
ENDBRANCH   1  24
TORSDOF 13
ENDMDL
