MODEL 1
REMARK VINA RESULT:     -10.7      0.000      0.000
REMARK SMILES C[NH2+][C@@]1(C(=O)OCCOC(=O)c2ccc(-c3c4nc(c(-c5c(F)cccc5F)c5ccc([nH]5)c(-c5c(F)cccc5F)c5nc(c(-c6c(F)cccc6F)c6ccc3[nH]6)C=C5)C=C4)cc2)CCC[C@H]1CCSc1nccc(=O)[nH]1
REMARK SMILES IDX 7 1 6 2 4 3 5 4 3 5 66 6 69 7 67 8 68 9 2 10 1 11 70 14
REMARK SMILES IDX 71 15 72 16 73 17 74 18 79 19 75 20 77 21 76 23 78 24 8 25
REMARK SMILES IDX 9 26 10 27 11 28 12 29 13 30 65 31 14 32 64 33 15 34 16 35
REMARK SMILES IDX 17 36 58 37 18 38 63 39 57 40 59 41 19 42 62 43 56 44 55 45
REMARK SMILES IDX 20 47 46 48 29 49 45 50 30 51 33 52 44 53 60 54 31 55 32 56
REMARK SMILES IDX 43 58 61 59 34 60 21 61 22 62 27 63 23 64 24 65 26 66 28 67
REMARK SMILES IDX 25 68 47 69 48 70 53 71 49 72 50 73 52 74 54 75 51 76 35 77
REMARK SMILES IDX 36 78 41 79 37 80 38 81 40 82 42 83 39 84
REMARK H PARENT 2 12 2 13 79 22 59 46 33 57
REMARK Flexibility Score: inf
ROOT
ATOM      1  C   UNL A   1      32.460  31.115  26.708  1.00  0.00     0.274 C 
ENDROOT
BRANCH   1   2
ATOM      2  O   UNL A   1      31.816  29.858  27.003  1.00  0.00    -0.457 OA
BRANCH   2   3
ATOM      3  C   UNL A   1      32.576  28.733  26.894  1.00  0.00     0.368 C 
ATOM      4  O   UNL A   1      33.557  28.513  27.602  1.00  0.00    -0.245 OA
BRANCH   3   5
ATOM      5  C   UNL A   1      32.068  27.719  25.785  1.00  0.00     0.197 C 
ATOM      6  C   UNL A   1      33.331  27.242  25.041  1.00  0.00     0.081 C 
ATOM      7  C   UNL A   1      31.231  28.395  24.646  1.00  0.00     0.063 C 
ATOM      8  C   UNL A   1      33.649  28.399  24.108  1.00  0.00     0.008 C 
ATOM      9  C   UNL A   1      32.289  28.870  23.614  1.00  0.00     0.011 C 
BRANCH   5  10
ATOM     10  N   UNL A   1      31.338  26.692  26.545  1.00  0.00    -0.334 N 
ATOM     11  C   UNL A   1      31.804  25.325  26.522  1.00  0.00     0.331 C 
ATOM     12  H   UNL A   1      31.338  26.988  27.522  1.00  0.00     0.347 HD
ATOM     13  H   UNL A   1      30.433  26.645  26.077  1.00  0.00     0.347 HD
ENDBRANCH   5  10
BRANCH   7  14
ATOM     14  C   UNL A   1      30.178  27.527  23.899  1.00  0.00     0.022 C 
BRANCH  14  15
ATOM     15  C   UNL A   1      29.495  28.208  22.701  1.00  0.00     0.079 C 
BRANCH  15  16
ATOM     16  S   UNL A   1      27.866  28.934  23.108  1.00  0.00    -0.088 SA
BRANCH  16  17
ATOM     17  C   UNL A   1      27.931  30.363  22.122  1.00  0.00     0.168 A 
ATOM     18  N   UNL A   1      27.788  30.325  20.842  1.00  0.00    -0.233 NA
ATOM     19  N   UNL A   1      28.143  31.499  22.836  1.00  0.00    -0.301 N 
ATOM     20  C   UNL A   1      27.974  31.505  20.174  1.00  0.00     0.120 A 
ATOM     21  C   UNL A   1      28.259  32.711  22.226  1.00  0.00     0.251 A 
ATOM     22  H   UNL A   1      28.215  31.444  23.816  1.00  0.00     0.172 HD
ATOM     23  C   UNL A   1      28.213  32.683  20.756  1.00  0.00     0.091 A 
ATOM     24  O   UNL A   1      28.403  33.762  22.839  1.00  0.00    -0.269 OA
ENDBRANCH  16  17
ENDBRANCH  15  16
ENDBRANCH  14  15
ENDBRANCH   7  14
ENDBRANCH   3   5
ENDBRANCH   2   3
ENDBRANCH   1   2
BRANCH   1  25
ATOM     25  C   UNL A   1      31.691  32.287  27.321  1.00  0.00     0.275 C 
BRANCH  25  26
ATOM     26  O   UNL A   1      32.336  33.546  27.045  1.00  0.00    -0.458 OA
BRANCH  26  27
ATOM     27  C   UNL A   1      32.925  34.095  28.127  1.00  0.00     0.338 C 
ATOM     28  O   UNL A   1      32.522  35.026  28.800  1.00  0.00    -0.246 OA
BRANCH  27  29
ATOM     29  C   UNL A   1      34.168  33.423  28.493  1.00  0.00     0.060 A 
ATOM     30  C   UNL A   1      34.142  32.575  29.595  1.00  0.00     0.016 A 
ATOM     31  C   UNL A   1      35.376  33.847  27.939  1.00  0.00     0.016 A 
ATOM     32  C   UNL A   1      35.334  32.222  30.212  1.00  0.00     0.010 A 
ATOM     33  C   UNL A   1      36.578  33.396  28.492  1.00  0.00     0.010 A 
ATOM     34  C   UNL A   1      36.566  32.594  29.643  1.00  0.00    -0.014 A 
BRANCH  34  35
ATOM     35  C   UNL A   1      37.815  32.016  30.195  1.00  0.00     0.031 A 
ATOM     36  C   UNL A   1      38.527  32.619  31.372  1.00  0.00     0.074 A 
ATOM     37  C   UNL A   1      38.292  30.898  29.612  1.00  0.00     0.049 A 
ATOM     38  N   UNL A   1      39.653  32.245  31.926  1.00  0.00    -0.248 NA
ATOM     39  C   UNL A   1      37.905  33.791  32.005  1.00  0.00     0.031 C 
ATOM     40  C   UNL A   1      37.677  30.228  28.461  1.00  0.00     0.029 A 
ATOM     41  N   UNL A   1      39.374  30.114  29.911  1.00  0.00    -0.354 N 
ATOM     42  C   UNL A   1      39.895  33.151  32.950  1.00  0.00     0.074 A 
ATOM     43  C   UNL A   1      38.795  34.094  32.944  1.00  0.00     0.031 C 
ATOM     44  C   UNL A   1      38.346  29.100  28.200  1.00  0.00     0.029 A 
ATOM     45  C   UNL A   1      39.488  29.013  29.100  1.00  0.00     0.049 A 
ATOM     46  H   UNL A   1      40.006  30.320  30.637  1.00  0.00     0.167 HD
ATOM     47  C   UNL A   1      40.946  33.191  33.805  1.00  0.00     0.037 A 
ATOM     48  C   UNL A   1      40.425  28.050  29.058  1.00  0.00     0.037 A 
ATOM     49  C   UNL A   1      42.026  32.234  33.810  1.00  0.00     0.049 A 
ATOM     50  C   UNL A   1      41.574  28.123  30.011  1.00  0.00     0.074 A 
ATOM     51  C   UNL A   1      43.134  32.184  34.639  1.00  0.00     0.029 A 
ATOM     52  N   UNL A   1      42.128  31.152  32.947  1.00  0.00    -0.354 N 
ATOM     53  N   UNL A   1      41.805  29.007  30.952  1.00  0.00    -0.248 NA
ATOM     54  C   UNL A   1      42.604  27.086  29.883  1.00  0.00     0.031 C 
ATOM     55  C   UNL A   1      43.921  31.092  34.257  1.00  0.00     0.029 A 
ATOM     56  C   UNL A   1      43.286  30.439  33.213  1.00  0.00     0.049 A 
ATOM     57  H   UNL A   1      41.473  30.926  32.247  1.00  0.00     0.167 HD
ATOM     58  C   UNL A   1      43.014  28.640  31.523  1.00  0.00     0.074 A 
ATOM     59  C   UNL A   1      43.449  27.434  30.844  1.00  0.00     0.031 C 
ATOM     60  C   UNL A   1      43.706  29.253  32.512  1.00  0.00     0.037 A 
BRANCH  47  61
ATOM     61  C   UNL A   1      41.006  34.323  34.788  1.00  0.00     0.057 A 
ATOM     62  C   UNL A   1      41.564  35.565  34.458  1.00  0.00     0.134 A 
ATOM     63  C   UNL A   1      40.441  34.189  36.063  1.00  0.00     0.134 A 
ATOM     64  F   UNL A   1      42.129  35.759  33.257  1.00  0.00    -0.206 F 
ATOM     65  C   UNL A   1      41.567  36.627  35.365  1.00  0.00     0.040 A 
ATOM     66  C   UNL A   1      40.422  35.248  36.972  1.00  0.00     0.040 A 
ATOM     67  F   UNL A   1      39.883  33.028  36.440  1.00  0.00    -0.206 F 
ATOM     68  C   UNL A   1      40.989  36.472  36.624  1.00  0.00     0.006 A 
ENDBRANCH  47  61
BRANCH  48  69
ATOM     69  C   UNL A   1      40.307  26.966  28.055  1.00  0.00     0.057 A 
ATOM     70  C   UNL A   1      40.947  27.058  26.815  1.00  0.00     0.134 A 
ATOM     71  C   UNL A   1      39.608  25.786  28.339  1.00  0.00     0.134 A 
ATOM     72  F   UNL A   1      41.619  28.170  26.482  1.00  0.00    -0.206 F 
ATOM     73  C   UNL A   1      40.898  26.013  25.893  1.00  0.00     0.040 A 
ATOM     74  C   UNL A   1      39.574  24.723  27.438  1.00  0.00     0.040 A 
ATOM     75  F   UNL A   1      38.986  25.635  29.518  1.00  0.00    -0.206 F 
ATOM     76  C   UNL A   1      40.220  24.836  26.209  1.00  0.00     0.006 A 
ENDBRANCH  48  69
BRANCH  60  77
ATOM     77  C   UNL A   1      45.005  28.621  32.903  1.00  0.00     0.057 A 
ATOM     78  C   UNL A   1      45.064  27.621  33.881  1.00  0.00     0.134 A 
ATOM     79  C   UNL A   1      46.205  29.017  32.300  1.00  0.00     0.134 A 
ATOM     80  F   UNL A   1      43.949  27.214  34.506  1.00  0.00    -0.206 F 
ATOM     81  C   UNL A   1      46.278  27.051  34.264  1.00  0.00     0.040 A 
ATOM     82  C   UNL A   1      47.423  28.442  32.663  1.00  0.00     0.040 A 
ATOM     83  F   UNL A   1      46.210  29.971  31.357  1.00  0.00    -0.206 F 
ATOM     84  C   UNL A   1      47.462  27.461  33.652  1.00  0.00     0.006 A 
ENDBRANCH  60  77
ENDBRANCH  34  35
ENDBRANCH  27  29
ENDBRANCH  26  27
ENDBRANCH  25  26
ENDBRANCH   1  25
TORSDOF 16
ENDMDL
MODEL 2
REMARK VINA RESULT:     -10.4      4.278      8.473
REMARK SMILES C[NH2+][C@@]1(C(=O)OCCOC(=O)c2ccc(-c3c4nc(c(-c5c(F)cccc5F)c5ccc([nH]5)c(-c5c(F)cccc5F)c5nc(c(-c6c(F)cccc6F)c6ccc3[nH]6)C=C5)C=C4)cc2)CCC[C@H]1CCSc1nccc(=O)[nH]1
REMARK SMILES IDX 7 1 6 2 4 3 5 4 3 5 66 6 69 7 67 8 68 9 2 10 1 11 70 14
REMARK SMILES IDX 71 15 72 16 73 17 74 18 79 19 75 20 77 21 76 23 78 24 8 25
REMARK SMILES IDX 9 26 10 27 11 28 12 29 13 30 65 31 14 32 64 33 15 34 16 35
REMARK SMILES IDX 17 36 58 37 18 38 63 39 57 40 59 41 19 42 62 43 56 44 55 45
REMARK SMILES IDX 20 47 46 48 29 49 45 50 30 51 33 52 44 53 60 54 31 55 32 56
REMARK SMILES IDX 43 58 61 59 34 60 21 61 22 62 27 63 23 64 24 65 26 66 28 67
REMARK SMILES IDX 25 68 47 69 48 70 53 71 49 72 50 73 52 74 54 75 51 76 35 77
REMARK SMILES IDX 36 78 41 79 37 80 38 81 40 82 42 83 39 84
REMARK H PARENT 2 12 2 13 79 22 59 46 33 57
REMARK Flexibility Score: inf
ROOT
ATOM      1  C   UNL A   1      34.678  20.355  25.350  1.00  0.00     0.274 C 
ENDROOT
BRANCH   1   2
ATOM      2  O   UNL A   1      34.097  21.667  25.498  1.00  0.00    -0.457 OA
BRANCH   2   3
ATOM      3  C   UNL A   1      32.794  21.811  25.125  1.00  0.00     0.368 C 
ATOM      4  O   UNL A   1      31.940  20.948  25.315  1.00  0.00    -0.245 OA
BRANCH   3   5
ATOM      5  C   UNL A   1      32.472  23.208  24.444  1.00  0.00     0.197 C 
ATOM      6  C   UNL A   1      33.175  24.270  25.311  1.00  0.00     0.081 C 
ATOM      7  C   UNL A   1      30.964  23.625  24.541  1.00  0.00     0.063 C 
ATOM      8  C   UNL A   1      32.247  24.423  26.505  1.00  0.00     0.008 C 
ATOM      9  C   UNL A   1      30.850  24.354  25.907  1.00  0.00     0.011 C 
BRANCH   5  10
ATOM     10  N   UNL A   1      32.972  23.060  23.068  1.00  0.00    -0.334 N 
ATOM     11  C   UNL A   1      34.350  23.376  22.775  1.00  0.00     0.331 C 
ATOM     12  H   UNL A   1      32.829  22.085  22.802  1.00  0.00     0.347 HD
ATOM     13  H   UNL A   1      32.448  23.762  22.545  1.00  0.00     0.347 HD
ENDBRANCH   5  10
BRANCH   7  14
ATOM     14  C   UNL A   1      30.393  24.562  23.439  1.00  0.00     0.022 C 
BRANCH  14  15
ATOM     15  C   UNL A   1      30.075  25.996  23.895  1.00  0.00     0.079 C 
BRANCH  15  16
ATOM     16  S   UNL A   1      31.134  27.263  23.105  1.00  0.00    -0.088 SA
BRANCH  16  17
ATOM     17  C   UNL A   1      29.913  28.398  22.619  1.00  0.00     0.168 A 
ATOM     18  N   UNL A   1      30.157  29.370  21.809  1.00  0.00    -0.233 NA
ATOM     19  N   UNL A   1      28.698  28.152  23.175  1.00  0.00    -0.301 N 
ATOM     20  C   UNL A   1      29.137  30.257  21.598  1.00  0.00     0.120 A 
ATOM     21  C   UNL A   1      27.629  28.961  22.935  1.00  0.00     0.251 A 
ATOM     22  H   UNL A   1      28.589  27.371  23.765  1.00  0.00     0.172 HD
ATOM     23  C   UNL A   1      27.907  30.142  22.105  1.00  0.00     0.091 A 
ATOM     24  O   UNL A   1      26.509  28.744  23.381  1.00  0.00    -0.269 OA
ENDBRANCH  16  17
ENDBRANCH  15  16
ENDBRANCH  14  15
ENDBRANCH   7  14
ENDBRANCH   3   5
ENDBRANCH   2   3
ENDBRANCH   1   2
BRANCH   1  25
ATOM     25  C   UNL A   1      36.164  20.446  24.996  1.00  0.00     0.275 C 
BRANCH  25  26
ATOM     26  O   UNL A   1      36.836  21.445  25.787  1.00  0.00    -0.458 OA
BRANCH  26  27
ATOM     27  C   UNL A   1      38.176  21.293  25.817  1.00  0.00     0.338 C 
ATOM     28  O   UNL A   1      38.826  20.352  25.400  1.00  0.00    -0.246 OA
BRANCH  27  29
ATOM     29  C   UNL A   1      38.861  22.444  26.399  1.00  0.00     0.060 A 
ATOM     30  C   UNL A   1      38.418  23.710  26.034  1.00  0.00     0.016 A 
ATOM     31  C   UNL A   1      40.081  22.267  27.053  1.00  0.00     0.016 A 
ATOM     32  C   UNL A   1      39.245  24.806  26.237  1.00  0.00     0.010 A 
ATOM     33  C   UNL A   1      40.860  23.387  27.360  1.00  0.00     0.010 A 
ATOM     34  C   UNL A   1      40.455  24.663  26.939  1.00  0.00    -0.014 A 
BRANCH  34  35
ATOM     35  C   UNL A   1      41.204  25.881  27.335  1.00  0.00     0.031 A 
ATOM     36  C   UNL A   1      42.605  26.148  26.867  1.00  0.00     0.074 A 
ATOM     37  C   UNL A   1      40.569  26.768  28.126  1.00  0.00     0.049 A 
ATOM     38  N   UNL A   1      43.393  27.148  27.176  1.00  0.00    -0.248 NA
ATOM     39  C   UNL A   1      43.203  25.174  25.943  1.00  0.00     0.031 C 
ATOM     40  C   UNL A   1      39.205  26.607  28.639  1.00  0.00     0.029 A 
ATOM     41  N   UNL A   1      40.964  27.984  28.616  1.00  0.00    -0.354 N 
ATOM     42  C   UNL A   1      44.591  26.909  26.514  1.00  0.00     0.074 A 
ATOM     43  C   UNL A   1      44.425  25.670  25.781  1.00  0.00     0.031 C 
ATOM     44  C   UNL A   1      38.852  27.710  29.306  1.00  0.00     0.029 A 
ATOM     45  C   UNL A   1      39.991  28.616  29.350  1.00  0.00     0.049 A 
ATOM     46  H   UNL A   1      41.857  28.368  28.457  1.00  0.00     0.167 HD
ATOM     47  C   UNL A   1      45.722  27.656  26.529  1.00  0.00     0.037 A 
ATOM     48  C   UNL A   1      40.016  29.785  30.015  1.00  0.00     0.037 A 
ATOM     49  C   UNL A   1      45.865  28.898  27.249  1.00  0.00     0.049 A 
ATOM     50  C   UNL A   1      41.279  30.584  30.016  1.00  0.00     0.074 A 
ATOM     51  C   UNL A   1      46.969  29.732  27.324  1.00  0.00     0.029 A 
ATOM     52  N   UNL A   1      44.869  29.489  28.013  1.00  0.00    -0.354 N 
ATOM     53  N   UNL A   1      42.414  30.327  29.412  1.00  0.00    -0.248 NA
ATOM     54  C   UNL A   1      41.277  31.818  30.809  1.00  0.00     0.031 C 
ATOM     55  C   UNL A   1      46.650  30.810  28.158  1.00  0.00     0.029 A 
ATOM     56  C   UNL A   1      45.337  30.667  28.575  1.00  0.00     0.049 A 
ATOM     57  H   UNL A   1      43.964  29.123  28.139  1.00  0.00     0.167 HD
ATOM     58  C   UNL A   1      43.267  31.362  29.760  1.00  0.00     0.074 A 
ATOM     59  C   UNL A   1      42.507  32.267  30.601  1.00  0.00     0.031 C 
ATOM     60  C   UNL A   1      44.567  31.540  29.423  1.00  0.00     0.037 A 
BRANCH  47  61
ATOM     61  C   UNL A   1      46.911  27.140  25.774  1.00  0.00     0.057 A 
ATOM     62  C   UNL A   1      47.177  27.523  24.454  1.00  0.00     0.134 A 
ATOM     63  C   UNL A   1      47.838  26.294  26.399  1.00  0.00     0.134 A 
ATOM     64  F   UNL A   1      46.327  28.324  23.794  1.00  0.00    -0.206 F 
ATOM     65  C   UNL A   1      48.316  27.075  23.780  1.00  0.00     0.040 A 
ATOM     66  C   UNL A   1      48.989  25.854  25.742  1.00  0.00     0.040 A 
ATOM     67  F   UNL A   1      47.647  25.895  27.666  1.00  0.00    -0.206 F 
ATOM     68  C   UNL A   1      49.229  26.243  24.426  1.00  0.00     0.006 A 
ENDBRANCH  47  61
BRANCH  48  69
ATOM     69  C   UNL A   1      38.807  30.229  30.746  1.00  0.00     0.057 A 
ATOM     70  C   UNL A   1      37.795  30.944  30.100  1.00  0.00     0.134 A 
ATOM     71  C   UNL A   1      38.607  29.891  32.091  1.00  0.00     0.134 A 
ATOM     72  F   UNL A   1      37.937  31.308  28.818  1.00  0.00    -0.206 F 
ATOM     73  C   UNL A   1      36.622  31.306  30.765  1.00  0.00     0.040 A 
ATOM     74  C   UNL A   1      37.429  30.222  32.760  1.00  0.00     0.040 A 
ATOM     75  F   UNL A   1      39.538  29.194  32.760  1.00  0.00    -0.206 F 
ATOM     76  C   UNL A   1      36.433  30.933  32.095  1.00  0.00     0.006 A 
ENDBRANCH  48  69
BRANCH  60  77
ATOM     77  C   UNL A   1      45.234  32.760  29.977  1.00  0.00     0.057 A 
ATOM     78  C   UNL A   1      45.918  32.727  31.197  1.00  0.00     0.134 A 
ATOM     79  C   UNL A   1      45.188  33.977  29.286  1.00  0.00     0.134 A 
ATOM     80  F   UNL A   1      45.979  31.594  31.913  1.00  0.00    -0.206 F 
ATOM     81  C   UNL A   1      46.517  33.871  31.726  1.00  0.00     0.040 A 
ATOM     82  C   UNL A   1      45.798  35.123  29.796  1.00  0.00     0.040 A 
ATOM     83  F   UNL A   1      44.547  34.070  28.112  1.00  0.00    -0.206 F 
ATOM     84  C   UNL A   1      46.459  35.074  31.022  1.00  0.00     0.006 A 
ENDBRANCH  60  77
ENDBRANCH  34  35
ENDBRANCH  27  29
ENDBRANCH  26  27
ENDBRANCH  25  26
ENDBRANCH   1  25
TORSDOF 16
ENDMDL
MODEL 3
REMARK VINA RESULT:     -10.3      2.202      7.177
REMARK SMILES C[NH2+][C@@]1(C(=O)OCCOC(=O)c2ccc(-c3c4nc(c(-c5c(F)cccc5F)c5ccc([nH]5)c(-c5c(F)cccc5F)c5nc(c(-c6c(F)cccc6F)c6ccc3[nH]6)C=C5)C=C4)cc2)CCC[C@H]1CCSc1nccc(=O)[nH]1
REMARK SMILES IDX 7 1 6 2 4 3 5 4 3 5 66 6 69 7 67 8 68 9 2 10 1 11 70 14
REMARK SMILES IDX 71 15 72 16 73 17 74 18 79 19 75 20 77 21 76 23 78 24 8 25
REMARK SMILES IDX 9 26 10 27 11 28 12 29 13 30 65 31 14 32 64 33 15 34 16 35
REMARK SMILES IDX 17 36 58 37 18 38 63 39 57 40 59 41 19 42 62 43 56 44 55 45
REMARK SMILES IDX 20 47 46 48 29 49 45 50 30 51 33 52 44 53 60 54 31 55 32 56
REMARK SMILES IDX 43 58 61 59 34 60 21 61 22 62 27 63 23 64 24 65 26 66 28 67
REMARK SMILES IDX 25 68 47 69 48 70 53 71 49 72 50 73 52 74 54 75 51 76 35 77
REMARK SMILES IDX 36 78 41 79 37 80 38 81 40 82 42 83 39 84
REMARK H PARENT 2 12 2 13 79 22 59 46 33 57
REMARK Flexibility Score: inf
ROOT
ATOM      1  C   UNL A   1      31.767  30.865  26.615  1.00  0.00     0.274 C 
ENDROOT
BRANCH   1   2
ATOM      2  O   UNL A   1      31.298  30.392  25.334  1.00  0.00    -0.457 OA
BRANCH   2   3
ATOM      3  C   UNL A   1      31.401  29.055  25.094  1.00  0.00     0.368 C 
ATOM      4  O   UNL A   1      31.498  28.216  25.988  1.00  0.00    -0.245 OA
BRANCH   3   5
ATOM      5  C   UNL A   1      31.362  28.674  23.554  1.00  0.00     0.197 C 
ATOM      6  C   UNL A   1      30.021  29.217  23.021  1.00  0.00     0.081 C 
ATOM      7  C   UNL A   1      31.244  27.135  23.287  1.00  0.00     0.063 C 
ATOM      8  C   UNL A   1      29.010  28.187  23.497  1.00  0.00     0.008 C 
ATOM      9  C   UNL A   1      29.717  26.852  23.315  1.00  0.00     0.011 C 
BRANCH   5  10
ATOM     10  N   UNL A   1      32.577  29.293  23.000  1.00  0.00    -0.334 N 
ATOM     11  C   UNL A   1      33.871  28.883  23.491  1.00  0.00     0.331 C 
ATOM     12  H   UNL A   1      32.571  29.115  21.995  1.00  0.00     0.347 HD
ATOM     13  H   UNL A   1      32.506  30.267  23.296  1.00  0.00     0.347 HD
ENDBRANCH   5  10
BRANCH   7  14
ATOM     14  C   UNL A   1      31.818  26.578  21.953  1.00  0.00     0.022 C 
BRANCH  14  15
ATOM     15  C   UNL A   1      32.622  25.274  22.077  1.00  0.00     0.079 C 
BRANCH  15  16
ATOM     16  S   UNL A   1      33.685  25.213  23.566  1.00  0.00    -0.088 SA
BRANCH  16  17
ATOM     17  C   UNL A   1      32.857  23.976  24.462  1.00  0.00     0.168 A 
ATOM     18  N   UNL A   1      32.971  22.725  24.177  1.00  0.00    -0.233 NA
ATOM     19  N   UNL A   1      32.094  24.465  25.474  1.00  0.00    -0.301 N 
ATOM     20  C   UNL A   1      32.178  21.864  24.888  1.00  0.00     0.120 A 
ATOM     21  C   UNL A   1      31.346  23.643  26.261  1.00  0.00     0.251 A 
ATOM     22  H   UNL A   1      32.082  25.434  25.641  1.00  0.00     0.172 HD
ATOM     23  C   UNL A   1      31.368  22.221  25.887  1.00  0.00     0.091 A 
ATOM     24  O   UNL A   1      30.683  24.042  27.211  1.00  0.00    -0.269 OA
ENDBRANCH  16  17
ENDBRANCH  15  16
ENDBRANCH  14  15
ENDBRANCH   7  14
ENDBRANCH   3   5
ENDBRANCH   2   3
ENDBRANCH   1   2
BRANCH   1  25
ATOM     25  C   UNL A   1      31.463  32.353  26.799  1.00  0.00     0.275 C 
BRANCH  25  26
ATOM     26  O   UNL A   1      32.654  33.156  26.679  1.00  0.00    -0.458 OA
BRANCH  26  27
ATOM     27  C   UNL A   1      33.077  33.665  27.854  1.00  0.00     0.338 C 
ATOM     28  O   UNL A   1      32.531  34.514  28.535  1.00  0.00    -0.246 OA
BRANCH  27  29
ATOM     29  C   UNL A   1      34.321  33.057  28.316  1.00  0.00     0.060 A 
ATOM     30  C   UNL A   1      34.272  31.738  28.751  1.00  0.00     0.016 A 
ATOM     31  C   UNL A   1      35.431  33.862  28.580  1.00  0.00     0.016 A 
ATOM     32  C   UNL A   1      35.299  31.241  29.542  1.00  0.00     0.010 A 
ATOM     33  C   UNL A   1      36.516  33.323  29.277  1.00  0.00     0.010 A 
ATOM     34  C   UNL A   1      36.451  32.014  29.778  1.00  0.00    -0.014 A 
BRANCH  34  35
ATOM     35  C   UNL A   1      37.620  31.378  30.433  1.00  0.00     0.031 A 
ATOM     36  C   UNL A   1      38.534  30.438  29.703  1.00  0.00     0.074 A 
ATOM     37  C   UNL A   1      37.854  31.691  31.723  1.00  0.00     0.049 A 
ATOM     38  N   UNL A   1      39.564  29.773  30.167  1.00  0.00    -0.248 NA
ATOM     39  C   UNL A   1      38.263  30.205  28.277  1.00  0.00     0.031 C 
ATOM     40  C   UNL A   1      37.026  32.596  32.528  1.00  0.00     0.029 A 
ATOM     41  N   UNL A   1      38.857  31.315  32.575  1.00  0.00    -0.354 N 
ATOM     42  C   UNL A   1      40.043  29.019  29.104  1.00  0.00     0.074 A 
ATOM     43  C   UNL A   1      39.194  29.311  27.967  1.00  0.00     0.031 C 
ATOM     44  C   UNL A   1      37.594  32.761  33.728  1.00  0.00     0.029 A 
ATOM     45  C   UNL A   1      38.769  31.906  33.812  1.00  0.00     0.049 A 
ATOM     46  H   UNL A   1      39.571  30.684  32.327  1.00  0.00     0.167 HD
ATOM     47  C   UNL A   1      41.090  28.158  29.090  1.00  0.00     0.037 A 
ATOM     48  C   UNL A   1      39.532  31.757  34.909  1.00  0.00     0.037 A 
ATOM     49  C   UNL A   1      41.939  27.893  30.226  1.00  0.00     0.049 A 
ATOM     50  C   UNL A   1      40.677  30.798  34.864  1.00  0.00     0.074 A 
ATOM     51  C   UNL A   1      43.028  27.042  30.313  1.00  0.00     0.029 A 
ATOM     52  N   UNL A   1      41.796  28.482  31.474  1.00  0.00    -0.354 N 
ATOM     53  N   UNL A   1      41.096  30.066  33.860  1.00  0.00    -0.248 NA
ATOM     54  C   UNL A   1      41.439  30.621  36.105  1.00  0.00     0.031 C 
ATOM     55  C   UNL A   1      43.524  27.093  31.620  1.00  0.00     0.029 A 
ATOM     56  C   UNL A   1      42.767  28.002  32.341  1.00  0.00     0.049 A 
ATOM     57  H   UNL A   1      41.105  29.143  31.711  1.00  0.00     0.167 HD
ATOM     58  C   UNL A   1      42.165  29.333  34.350  1.00  0.00     0.074 A 
ATOM     59  C   UNL A   1      42.349  29.733  35.731  1.00  0.00     0.031 C 
ATOM     60  C   UNL A   1      42.918  28.403  33.716  1.00  0.00     0.037 A 
BRANCH  47  61
ATOM     61  C   UNL A   1      41.363  27.410  27.819  1.00  0.00     0.057 A 
ATOM     62  C   UNL A   1      40.798  26.156  27.558  1.00  0.00     0.134 A 
ATOM     63  C   UNL A   1      42.155  27.981  26.813  1.00  0.00     0.134 A 
ATOM     64  F   UNL A   1      40.036  25.549  28.481  1.00  0.00    -0.206 F 
ATOM     65  C   UNL A   1      41.019  25.492  26.349  1.00  0.00     0.040 A 
ATOM     66  C   UNL A   1      42.369  27.336  25.593  1.00  0.00     0.040 A 
ATOM     67  F   UNL A   1      42.721  29.184  26.995  1.00  0.00    -0.206 F 
ATOM     68  C   UNL A   1      41.802  26.086  25.360  1.00  0.00     0.006 A 
ENDBRANCH  47  61
BRANCH  48  69
ATOM     69  C   UNL A   1      39.198  32.521  36.133  1.00  0.00     0.057 A 
ATOM     70  C   UNL A   1      39.707  33.806  36.343  1.00  0.00     0.134 A 
ATOM     71  C   UNL A   1      38.311  32.011  37.089  1.00  0.00     0.134 A 
ATOM     72  F   UNL A   1      40.572  34.341  35.469  1.00  0.00    -0.206 F 
ATOM     73  C   UNL A   1      39.343  34.559  37.459  1.00  0.00     0.040 A 
ATOM     74  C   UNL A   1      37.917  32.762  38.195  1.00  0.00     0.040 A 
ATOM     75  F   UNL A   1      37.779  30.788  36.935  1.00  0.00    -0.206 F 
ATOM     76  C   UNL A   1      38.435  34.042  38.382  1.00  0.00     0.006 A 
ENDBRANCH  48  69
BRANCH  60  77
ATOM     77  C   UNL A   1      44.001  27.762  34.526  1.00  0.00     0.057 A 
ATOM     78  C   UNL A   1      45.278  28.329  34.614  1.00  0.00     0.134 A 
ATOM     79  C   UNL A   1      43.767  26.568  35.218  1.00  0.00     0.134 A 
ATOM     80  F   UNL A   1      45.566  29.462  33.957  1.00  0.00    -0.206 F 
ATOM     81  C   UNL A   1      46.295  27.717  35.347  1.00  0.00     0.040 A 
ATOM     82  C   UNL A   1      44.771  25.956  35.968  1.00  0.00     0.040 A 
ATOM     83  F   UNL A   1      42.564  25.978  35.170  1.00  0.00    -0.206 F 
ATOM     84  C   UNL A   1      46.041  26.527  36.029  1.00  0.00     0.006 A 
ENDBRANCH  60  77
ENDBRANCH  34  35
ENDBRANCH  27  29
ENDBRANCH  26  27
ENDBRANCH  25  26
ENDBRANCH   1  25
TORSDOF 16
ENDMDL
