MODEL 1
REMARK VINA RESULT:     -12.0      0.000      0.000
REMARK SMILES Cc1cs/c(=N\S(=O)(=O)c2ccc(/C=C/C(=O)OCCOC(=O)c3ccc(-c4c5nc(c(-c6c(F)cccc6F)c6ccc([nH]6)c(-c6c(F)cccc6F)c6nc(c(-c7c(F)cccc7F)c7ccc4[nH]7)C=C6)C=C5)cc3)cc2)[nH]1
REMARK SMILES IDX 19 1 18 2 16 3 17 4 15 5 14 6 13 7 10 8 11 9 79 10 12 11
REMARK SMILES IDX 78 12 7 13 8 14 9 15 6 16 1 17 2 18 3 19 80 20 4 21 5 22
REMARK SMILES IDX 20 24 21 25 22 26 23 27 24 28 25 29 77 30 26 31 76 32 27 33
REMARK SMILES IDX 28 34 29 35 70 36 30 37 75 38 69 39 71 40 31 41 74 42 68 43
REMARK SMILES IDX 67 44 32 46 58 47 41 48 57 49 42 50 45 51 56 52 72 53 43 54
REMARK SMILES IDX 44 55 55 57 73 58 46 59 33 60 34 61 39 62 35 63 36 64 38 65
REMARK SMILES IDX 40 66 37 67 59 68 60 69 65 70 61 71 62 72 64 73 66 74 63 75
REMARK SMILES IDX 47 76 48 77 53 78 49 79 50 80 52 81 54 82 51 83
REMARK H PARENT 80 23 71 45 45 56
REMARK Flexibility Score: inf
ROOT
ATOM      1  C   UNL A   1      42.806  20.769  26.126  1.00  0.00     0.275 C 
ENDROOT
BRANCH   1   2
ATOM      2  O   UNL A   1      41.419  20.924  25.771  1.00  0.00    -0.459 OA
BRANCH   2   3
ATOM      3  C   UNL A   1      40.587  21.237  26.791  1.00  0.00     0.330 C 
ATOM      4  O   UNL A   1      40.778  21.003  27.976  1.00  0.00    -0.247 OA
BRANCH   3   5
ATOM      5  C   UNL A   1      39.383  21.968  26.349  1.00  0.00     0.094 C 
ATOM      6  C   UNL A   1      38.404  21.489  25.567  1.00  0.00     0.015 C 
BRANCH   6   7
ATOM      7  C   UNL A   1      37.286  22.336  25.122  1.00  0.00    -0.025 A 
ATOM      8  C   UNL A   1      35.146  23.926  24.254  1.00  0.00     0.089 A 
ATOM      9  C   UNL A   1      35.663  24.102  25.539  1.00  0.00     0.023 A 
ATOM     10  C   UNL A   1      35.706  22.986  23.385  1.00  0.00     0.023 A 
ATOM     11  C   UNL A   1      36.732  23.312  25.965  1.00  0.00     0.009 A 
ATOM     12  C   UNL A   1      36.780  22.198  23.821  1.00  0.00     0.009 A 
BRANCH   8  13
ATOM     13  S   UNL A   1      33.755  24.939  23.772  1.00  0.00     0.285 S 
ATOM     14  O   UNL A   1      32.581  24.166  24.127  1.00  0.00    -0.199 OA
ATOM     15  O   UNL A   1      34.029  25.316  22.399  1.00  0.00    -0.199 OA
BRANCH  13  16
ATOM     16  N   UNL A   1      33.835  26.247  24.717  1.00  0.00    -0.130 NA
ATOM     17  C   UNL A   1      31.787  30.455  25.974  1.00  0.00     0.065 C 
ATOM     18  C   UNL A   1      31.884  29.191  25.193  1.00  0.00     0.024 A 
ATOM     19  C   UNL A   1      31.020  28.778  24.250  1.00  0.00     0.089 A 
ATOM     20  N   UNL A   1      32.925  28.307  25.399  1.00  0.00    -0.334 N 
ATOM     21  S   UNL A   1      31.499  27.235  23.575  1.00  0.00    -0.104 S 
ATOM     22  C   UNL A   1      32.935  27.163  24.636  1.00  0.00     0.199 A 
ATOM     23  H   UNL A   1      33.630  28.489  26.061  1.00  0.00     0.169 HD
ENDBRANCH  13  16
ENDBRANCH   8  13
ENDBRANCH   6   7
ENDBRANCH   3   5
ENDBRANCH   2   3
ENDBRANCH   1   2
BRANCH   1  24
ATOM     24  C   UNL A   1      43.702  21.743  25.354  1.00  0.00     0.275 C 
BRANCH  24  25
ATOM     25  O   UNL A   1      43.003  22.946  24.982  1.00  0.00    -0.458 OA
BRANCH  25  26
ATOM     26  C   UNL A   1      43.723  24.086  25.109  1.00  0.00     0.338 C 
ATOM     27  O   UNL A   1      44.667  24.443  24.423  1.00  0.00    -0.246 OA
BRANCH  26  28
ATOM     28  C   UNL A   1      43.130  24.943  26.152  1.00  0.00     0.060 A 
ATOM     29  C   UNL A   1      43.687  26.210  26.348  1.00  0.00     0.016 A 
ATOM     30  C   UNL A   1      42.096  24.488  26.974  1.00  0.00     0.016 A 
ATOM     31  C   UNL A   1      43.214  27.028  27.373  1.00  0.00     0.010 A 
ATOM     32  C   UNL A   1      41.624  25.310  28.004  1.00  0.00     0.010 A 
ATOM     33  C   UNL A   1      42.187  26.580  28.217  1.00  0.00    -0.014 A 
BRANCH  33  34
ATOM     34  C   UNL A   1      41.731  27.438  29.338  1.00  0.00     0.031 A 
ATOM     35  C   UNL A   1      42.448  27.403  30.657  1.00  0.00     0.074 A 
ATOM     36  C   UNL A   1      40.689  28.270  29.161  1.00  0.00     0.049 A 
ATOM     37  N   UNL A   1      42.191  28.066  31.756  1.00  0.00    -0.248 NA
ATOM     38  C   UNL A   1      43.607  26.503  30.753  1.00  0.00     0.031 C 
ATOM     39  C   UNL A   1      39.926  28.413  27.921  1.00  0.00     0.029 A 
ATOM     40  N   UNL A   1      40.091  29.151  30.026  1.00  0.00    -0.354 N 
ATOM     41  C   UNL A   1      43.149  27.661  32.676  1.00  0.00     0.074 A 
ATOM     42  C   UNL A   1      43.978  26.675  32.013  1.00  0.00     0.031 C 
ATOM     43  C   UNL A   1      38.963  29.333  28.104  1.00  0.00     0.029 A 
ATOM     44  C   UNL A   1      39.021  29.817  29.481  1.00  0.00     0.049 A 
ATOM     45  H   UNL A   1      40.400  29.293  30.950  1.00  0.00     0.167 HD
ATOM     46  C   UNL A   1      43.327  28.080  33.951  1.00  0.00     0.037 A 
ATOM     47  C   UNL A   1      38.172  30.703  30.035  1.00  0.00     0.037 A 
ATOM     48  C   UNL A   1      42.508  29.065  34.609  1.00  0.00     0.049 A 
ATOM     49  C   UNL A   1      38.358  31.110  31.470  1.00  0.00     0.074 A 
ATOM     50  C   UNL A   1      42.626  29.569  35.893  1.00  0.00     0.029 A 
ATOM     51  N   UNL A   1      41.412  29.692  34.034  1.00  0.00    -0.354 N 
ATOM     52  N   UNL A   1      39.282  30.737  32.322  1.00  0.00    -0.248 NA
ATOM     53  C   UNL A   1      37.383  32.062  32.020  1.00  0.00     0.031 C 
ATOM     54  C   UNL A   1      41.577  30.471  36.109  1.00  0.00     0.029 A 
ATOM     55  C   UNL A   1      40.831  30.561  34.945  1.00  0.00     0.049 A 
ATOM     56  H   UNL A   1      41.095  29.544  33.115  1.00  0.00     0.167 HD
ATOM     57  C   UNL A   1      39.013  31.422  33.500  1.00  0.00     0.074 A 
ATOM     58  C   UNL A   1      37.847  32.246  33.248  1.00  0.00     0.031 C 
ATOM     59  C   UNL A   1      39.672  31.375  34.682  1.00  0.00     0.037 A 
BRANCH  46  60
ATOM     60  C   UNL A   1      44.446  27.457  34.733  1.00  0.00     0.057 A 
ATOM     61  C   UNL A   1      44.269  26.274  35.462  1.00  0.00     0.134 A 
ATOM     62  C   UNL A   1      45.726  28.024  34.724  1.00  0.00     0.134 A 
ATOM     63  F   UNL A   1      43.064  25.686  35.522  1.00  0.00    -0.206 F 
ATOM     64  C   UNL A   1      45.320  25.690  36.172  1.00  0.00     0.040 A 
ATOM     65  C   UNL A   1      46.791  27.437  35.410  1.00  0.00     0.040 A 
ATOM     66  F   UNL A   1      45.966  29.153  34.040  1.00  0.00    -0.206 F 
ATOM     67  C   UNL A   1      46.587  26.269  36.142  1.00  0.00     0.006 A 
ENDBRANCH  46  60
BRANCH  47  68
ATOM     68  C   UNL A   1      37.057  31.260  29.229  1.00  0.00     0.057 A 
ATOM     69  C   UNL A   1      37.100  32.571  28.741  1.00  0.00     0.134 A 
ATOM     70  C   UNL A   1      35.919  30.499  28.937  1.00  0.00     0.134 A 
ATOM     71  F   UNL A   1      38.154  33.357  29.009  1.00  0.00    -0.206 F 
ATOM     72  C   UNL A   1      36.046  33.109  28.001  1.00  0.00     0.040 A 
ATOM     73  C   UNL A   1      34.869  31.016  28.178  1.00  0.00     0.040 A 
ATOM     74  F   UNL A   1      35.819  29.236  29.378  1.00  0.00    -0.206 F 
ATOM     75  C   UNL A   1      34.929  32.329  27.713  1.00  0.00     0.006 A 
ENDBRANCH  47  68
BRANCH  59  76
ATOM     76  C   UNL A   1      39.166  32.255  35.786  1.00  0.00     0.057 A 
ATOM     77  C   UNL A   1      38.256  31.787  36.744  1.00  0.00     0.134 A 
ATOM     78  C   UNL A   1      39.616  33.575  35.912  1.00  0.00     0.134 A 
ATOM     79  F   UNL A   1      37.777  30.537  36.673  1.00  0.00    -0.206 F 
ATOM     80  C   UNL A   1      37.799  32.609  37.776  1.00  0.00     0.040 A 
ATOM     81  C   UNL A   1      39.183  34.398  36.951  1.00  0.00     0.040 A 
ATOM     82  F   UNL A   1      40.492  34.082  35.031  1.00  0.00    -0.206 F 
ATOM     83  C   UNL A   1      38.267  33.917  37.884  1.00  0.00     0.006 A 
ENDBRANCH  59  76
ENDBRANCH  33  34
ENDBRANCH  26  28
ENDBRANCH  25  26
ENDBRANCH  24  25
ENDBRANCH   1  24
TORSDOF 14
ENDMDL
MODEL 2
REMARK VINA RESULT:     -11.8      4.779     10.009
REMARK SMILES Cc1cs/c(=N\S(=O)(=O)c2ccc(/C=C/C(=O)OCCOC(=O)c3ccc(-c4c5nc(c(-c6c(F)cccc6F)c6ccc([nH]6)c(-c6c(F)cccc6F)c6nc(c(-c7c(F)cccc7F)c7ccc4[nH]7)C=C6)C=C5)cc3)cc2)[nH]1
REMARK SMILES IDX 19 1 18 2 16 3 17 4 15 5 14 6 13 7 10 8 11 9 79 10 12 11
REMARK SMILES IDX 78 12 7 13 8 14 9 15 6 16 1 17 2 18 3 19 80 20 4 21 5 22
REMARK SMILES IDX 20 24 21 25 22 26 23 27 24 28 25 29 77 30 26 31 76 32 27 33
REMARK SMILES IDX 28 34 29 35 70 36 30 37 75 38 69 39 71 40 31 41 74 42 68 43
REMARK SMILES IDX 67 44 32 46 58 47 41 48 57 49 42 50 45 51 56 52 72 53 43 54
REMARK SMILES IDX 44 55 55 57 73 58 46 59 33 60 34 61 39 62 35 63 36 64 38 65
REMARK SMILES IDX 40 66 37 67 59 68 60 69 65 70 61 71 62 72 64 73 66 74 63 75
REMARK SMILES IDX 47 76 48 77 53 78 49 79 50 80 52 81 54 82 51 83
REMARK H PARENT 80 23 71 45 45 56
REMARK Flexibility Score: inf
ROOT
ATOM      1  C   UNL A   1      34.452  34.101  30.094  1.00  0.00     0.275 C 
ENDROOT
BRANCH   1   2
ATOM      2  O   UNL A   1      33.828  33.069  29.306  1.00  0.00    -0.459 OA
BRANCH   2   3
ATOM      3  C   UNL A   1      34.538  32.642  28.237  1.00  0.00     0.330 C 
ATOM      4  O   UNL A   1      35.388  33.281  27.632  1.00  0.00    -0.247 OA
BRANCH   3   5
ATOM      5  C   UNL A   1      34.232  31.248  27.861  1.00  0.00     0.094 C 
ATOM      6  C   UNL A   1      33.159  30.827  27.174  1.00  0.00     0.015 C 
BRANCH   6   7
ATOM      7  C   UNL A   1      32.912  29.398  26.924  1.00  0.00    -0.025 A 
ATOM      8  C   UNL A   1      32.411  26.681  26.444  1.00  0.00     0.089 A 
ATOM      9  C   UNL A   1      33.653  27.226  26.112  1.00  0.00     0.023 A 
ATOM     10  C   UNL A   1      31.426  27.471  27.043  1.00  0.00     0.023 A 
ATOM     11  C   UNL A   1      33.901  28.578  26.357  1.00  0.00     0.009 A 
ATOM     12  C   UNL A   1      31.684  28.827  27.287  1.00  0.00     0.009 A 
BRANCH   8  13
ATOM     13  S   UNL A   1      32.135  24.954  26.076  1.00  0.00     0.285 S 
ATOM     14  O   UNL A   1      31.499  24.941  24.774  1.00  0.00    -0.199 OA
ATOM     15  O   UNL A   1      31.471  24.426  27.251  1.00  0.00    -0.199 OA
BRANCH  13  16
ATOM     16  N   UNL A   1      33.610  24.306  25.953  1.00  0.00    -0.130 NA
ATOM     17  C   UNL A   1      36.208  20.328  25.001  1.00  0.00     0.065 C 
ATOM     18  C   UNL A   1      34.943  21.097  25.163  1.00  0.00     0.024 A 
ATOM     19  C   UNL A   1      33.701  20.614  24.998  1.00  0.00     0.089 A 
ATOM     20  N   UNL A   1      34.964  22.433  25.513  1.00  0.00    -0.334 N 
ATOM     21  S   UNL A   1      32.492  21.849  25.284  1.00  0.00    -0.104 S 
ATOM     22  C   UNL A   1      33.750  23.067  25.638  1.00  0.00     0.199 A 
ATOM     23  H   UNL A   1      35.811  22.911  25.666  1.00  0.00     0.169 HD
ENDBRANCH  13  16
ENDBRANCH   8  13
ENDBRANCH   6   7
ENDBRANCH   3   5
ENDBRANCH   2   3
ENDBRANCH   1   2
BRANCH   1  24
ATOM     24  C   UNL A   1      34.472  33.744  31.584  1.00  0.00     0.275 C 
BRANCH  24  25
ATOM     25  O   UNL A   1      34.804  32.361  31.807  1.00  0.00    -0.458 OA
BRANCH  25  26
ATOM     26  C   UNL A   1      35.860  32.153  32.628  1.00  0.00     0.338 C 
ATOM     27  O   UNL A   1      35.902  32.328  33.835  1.00  0.00    -0.246 OA
BRANCH  26  28
ATOM     28  C   UNL A   1      36.974  31.550  31.874  1.00  0.00     0.060 A 
ATOM     29  C   UNL A   1      38.064  31.062  32.601  1.00  0.00     0.016 A 
ATOM     30  C   UNL A   1      36.987  31.529  30.478  1.00  0.00     0.016 A 
ATOM     31  C   UNL A   1      39.176  30.554  31.932  1.00  0.00     0.010 A 
ATOM     32  C   UNL A   1      38.106  31.021  29.808  1.00  0.00     0.010 A 
ATOM     33  C   UNL A   1      39.212  30.540  30.530  1.00  0.00    -0.014 A 
BRANCH  33  34
ATOM     34  C   UNL A   1      40.424  30.048  29.831  1.00  0.00     0.031 A 
ATOM     35  C   UNL A   1      41.592  30.965  29.608  1.00  0.00     0.074 A 
ATOM     36  C   UNL A   1      40.485  28.768  29.421  1.00  0.00     0.049 A 
ATOM     37  N   UNL A   1      42.730  30.723  29.006  1.00  0.00    -0.248 NA
ATOM     38  C   UNL A   1      41.465  32.333  30.130  1.00  0.00     0.031 C 
ATOM     39  C   UNL A   1      39.426  27.775  29.600  1.00  0.00     0.029 A 
ATOM     40  N   UNL A   1      41.480  28.085  28.769  1.00  0.00    -0.354 N 
ATOM     41  C   UNL A   1      43.452  31.907  29.072  1.00  0.00     0.074 A 
ATOM     42  C   UNL A   1      42.613  32.875  29.748  1.00  0.00     0.031 C 
ATOM     43  C   UNL A   1      39.831  26.606  29.074  1.00  0.00     0.029 A 
ATOM     44  C   UNL A   1      41.160  26.779  28.492  1.00  0.00     0.049 A 
ATOM     45  H   UNL A   1      42.342  28.492  28.522  1.00  0.00     0.167 HD
ATOM     46  C   UNL A   1      44.702  32.162  28.617  1.00  0.00     0.037 A 
ATOM     47  C   UNL A   1      41.852  25.833  27.829  1.00  0.00     0.037 A 
ATOM     48  C   UNL A   1      45.540  31.199  27.950  1.00  0.00     0.049 A 
ATOM     49  C   UNL A   1      43.216  26.157  27.286  1.00  0.00     0.074 A 
ATOM     50  C   UNL A   1      46.830  31.359  27.473  1.00  0.00     0.029 A 
ATOM     51  N   UNL A   1      45.167  29.895  27.659  1.00  0.00    -0.354 N 
ATOM     52  N   UNL A   1      43.896  27.275  27.374  1.00  0.00    -0.248 NA
ATOM     53  C   UNL A   1      43.908  25.089  26.552  1.00  0.00     0.031 C 
ATOM     54  C   UNL A   1      47.222  30.165  26.858  1.00  0.00     0.029 A 
ATOM     55  C   UNL A   1      46.193  29.247  26.989  1.00  0.00     0.049 A 
ATOM     56  H   UNL A   1      44.302  29.489  27.895  1.00  0.00     0.167 HD
ATOM     57  C   UNL A   1      45.102  27.038  26.726  1.00  0.00     0.074 A 
ATOM     58  C   UNL A   1      45.066  25.666  26.263  1.00  0.00     0.031 C 
ATOM     59  C   UNL A   1      46.145  27.881  26.534  1.00  0.00     0.037 A 
BRANCH  46  60
ATOM     60  C   UNL A   1      45.238  33.550  28.809  1.00  0.00     0.057 A 
ATOM     61  C   UNL A   1      45.983  33.906  29.941  1.00  0.00     0.134 A 
ATOM     62  C   UNL A   1      45.041  34.533  27.831  1.00  0.00     0.134 A 
ATOM     63  F   UNL A   1      46.198  33.014  30.920  1.00  0.00    -0.206 F 
ATOM     64  C   UNL A   1      46.493  35.195  30.103  1.00  0.00     0.040 A 
ATOM     65  C   UNL A   1      45.566  35.819  27.970  1.00  0.00     0.040 A 
ATOM     66  F   UNL A   1      44.342  34.257  26.719  1.00  0.00    -0.206 F 
ATOM     67  C   UNL A   1      46.290  36.154  29.112  1.00  0.00     0.006 A 
ENDBRANCH  46  60
BRANCH  47  68
ATOM     68  C   UNL A   1      41.260  24.486  27.633  1.00  0.00     0.057 A 
ATOM     69  C   UNL A   1      41.700  23.385  28.376  1.00  0.00     0.134 A 
ATOM     70  C   UNL A   1      40.249  24.267  26.689  1.00  0.00     0.134 A 
ATOM     71  F   UNL A   1      42.683  23.530  29.278  1.00  0.00    -0.206 F 
ATOM     72  C   UNL A   1      41.163  22.112  28.181  1.00  0.00     0.040 A 
ATOM     73  C   UNL A   1      39.687  23.004  26.501  1.00  0.00     0.040 A 
ATOM     74  F   UNL A   1      39.786  25.282  25.945  1.00  0.00    -0.206 F 
ATOM     75  C   UNL A   1      40.150  21.920  27.245  1.00  0.00     0.006 A 
ENDBRANCH  47  68
BRANCH  59  76
ATOM     76  C   UNL A   1      47.343  27.337  25.813  1.00  0.00     0.057 A 
ATOM     77  C   UNL A   1      48.373  26.672  26.491  1.00  0.00     0.134 A 
ATOM     78  C   UNL A   1      47.454  27.453  24.422  1.00  0.00     0.134 A 
ATOM     79  F   UNL A   1      48.333  26.539  27.825  1.00  0.00    -0.206 F 
ATOM     80  C   UNL A   1      49.479  26.158  25.813  1.00  0.00     0.040 A 
ATOM     81  C   UNL A   1      48.543  26.924  23.730  1.00  0.00     0.040 A 
ATOM     82  F   UNL A   1      46.499  28.074  23.712  1.00  0.00    -0.206 F 
ATOM     83  C   UNL A   1      49.563  26.278  24.427  1.00  0.00     0.006 A 
ENDBRANCH  59  76
ENDBRANCH  33  34
ENDBRANCH  26  28
ENDBRANCH  25  26
ENDBRANCH  24  25
ENDBRANCH   1  24
TORSDOF 14
ENDMDL
MODEL 3
REMARK VINA RESULT:     -11.7      0.380      6.203
REMARK SMILES Cc1cs/c(=N\S(=O)(=O)c2ccc(/C=C/C(=O)OCCOC(=O)c3ccc(-c4c5nc(c(-c6c(F)cccc6F)c6ccc([nH]6)c(-c6c(F)cccc6F)c6nc(c(-c7c(F)cccc7F)c7ccc4[nH]7)C=C6)C=C5)cc3)cc2)[nH]1
REMARK SMILES IDX 19 1 18 2 16 3 17 4 15 5 14 6 13 7 10 8 11 9 79 10 12 11
REMARK SMILES IDX 78 12 7 13 8 14 9 15 6 16 1 17 2 18 3 19 80 20 4 21 5 22
REMARK SMILES IDX 20 24 21 25 22 26 23 27 24 28 25 29 77 30 26 31 76 32 27 33
REMARK SMILES IDX 28 34 29 35 70 36 30 37 75 38 69 39 71 40 31 41 74 42 68 43
REMARK SMILES IDX 67 44 32 46 58 47 41 48 57 49 42 50 45 51 56 52 72 53 43 54
REMARK SMILES IDX 44 55 55 57 73 58 46 59 33 60 34 61 39 62 35 63 36 64 38 65
REMARK SMILES IDX 40 66 37 67 59 68 60 69 65 70 61 71 62 72 64 73 66 74 63 75
REMARK SMILES IDX 47 76 48 77 53 78 49 79 50 80 52 81 54 82 51 83
REMARK H PARENT 80 23 71 45 45 56
REMARK Flexibility Score: inf
ROOT
ATOM      1  C   UNL A   1      42.785  20.987  26.097  1.00  0.00     0.275 C 
ENDROOT
BRANCH   1   2
ATOM      2  O   UNL A   1      41.429  21.160  25.645  1.00  0.00    -0.459 OA
BRANCH   2   3
ATOM      3  C   UNL A   1      40.499  21.277  26.620  1.00  0.00     0.330 C 
ATOM      4  O   UNL A   1      40.595  20.851  27.763  1.00  0.00    -0.247 OA
BRANCH   3   5
ATOM      5  C   UNL A   1      39.311  22.042  26.196  1.00  0.00     0.094 C 
ATOM      6  C   UNL A   1      38.262  21.566  25.507  1.00  0.00     0.015 C 
BRANCH   6   7
ATOM      7  C   UNL A   1      37.166  22.442  25.065  1.00  0.00    -0.025 A 
ATOM      8  C   UNL A   1      35.064  24.087  24.205  1.00  0.00     0.089 A 
ATOM      9  C   UNL A   1      35.589  24.248  25.489  1.00  0.00     0.023 A 
ATOM     10  C   UNL A   1      35.597  23.135  23.333  1.00  0.00     0.023 A 
ATOM     11  C   UNL A   1      36.639  23.431  25.911  1.00  0.00     0.009 A 
ATOM     12  C   UNL A   1      36.652  22.319  23.766  1.00  0.00     0.009 A 
BRANCH   8  13
ATOM     13  S   UNL A   1      33.698  25.136  23.728  1.00  0.00     0.285 S 
ATOM     14  O   UNL A   1      32.506  24.363  24.019  1.00  0.00    -0.199 OA
ATOM     15  O   UNL A   1      34.013  25.566  22.381  1.00  0.00    -0.199 OA
BRANCH  13  16
ATOM     16  N   UNL A   1      33.766  26.402  24.729  1.00  0.00    -0.130 NA
ATOM     17  C   UNL A   1      31.754  30.599  26.077  1.00  0.00     0.065 C 
ATOM     18  C   UNL A   1      31.856  29.366  25.249  1.00  0.00     0.024 A 
ATOM     19  C   UNL A   1      31.024  29.011  24.257  1.00  0.00     0.089 A 
ATOM     20  N   UNL A   1      32.871  28.452  25.459  1.00  0.00    -0.334 N 
ATOM     21  S   UNL A   1      31.498  27.487  23.538  1.00  0.00    -0.104 S 
ATOM     22  C   UNL A   1      32.889  27.340  24.650  1.00  0.00     0.199 A 
ATOM     23  H   UNL A   1      33.552  28.592  26.156  1.00  0.00     0.169 HD
ENDBRANCH  13  16
ENDBRANCH   8  13
ENDBRANCH   6   7
ENDBRANCH   3   5
ENDBRANCH   2   3
ENDBRANCH   1   2
BRANCH   1  24
ATOM     24  C   UNL A   1      43.714  22.067  25.533  1.00  0.00     0.275 C 
BRANCH  24  25
ATOM     25  O   UNL A   1      43.001  23.267  25.179  1.00  0.00    -0.458 OA
BRANCH  25  26
ATOM     26  C   UNL A   1      43.708  24.413  25.318  1.00  0.00     0.338 C 
ATOM     27  O   UNL A   1      44.637  24.797  24.626  1.00  0.00    -0.246 OA
BRANCH  26  28
ATOM     28  C   UNL A   1      43.121  25.240  26.389  1.00  0.00     0.060 A 
ATOM     29  C   UNL A   1      43.670  26.508  26.607  1.00  0.00     0.016 A 
ATOM     30  C   UNL A   1      42.102  24.757  27.212  1.00  0.00     0.016 A 
ATOM     31  C   UNL A   1      43.202  27.297  27.657  1.00  0.00     0.010 A 
ATOM     32  C   UNL A   1      41.636  25.551  28.268  1.00  0.00     0.010 A 
ATOM     33  C   UNL A   1      42.190  26.821  28.503  1.00  0.00    -0.014 A 
BRANCH  33  34
ATOM     34  C   UNL A   1      41.742  27.648  29.649  1.00  0.00     0.031 A 
ATOM     35  C   UNL A   1      40.550  28.551  29.510  1.00  0.00     0.074 A 
ATOM     36  C   UNL A   1      42.390  27.567  30.825  1.00  0.00     0.049 A 
ATOM     37  N   UNL A   1      40.016  29.359  30.391  1.00  0.00    -0.248 NA
ATOM     38  C   UNL A   1      39.868  28.545  28.207  1.00  0.00     0.031 C 
ATOM     39  C   UNL A   1      43.546  26.711  31.093  1.00  0.00     0.029 A 
ATOM     40  N   UNL A   1      42.169  28.215  32.014  1.00  0.00    -0.354 N 
ATOM     41  C   UNL A   1      38.941  29.961  29.751  1.00  0.00     0.074 A 
ATOM     42  C   UNL A   1      38.913  29.444  28.398  1.00  0.00     0.031 C 
ATOM     43  C   UNL A   1      43.930  26.883  32.369  1.00  0.00     0.029 A 
ATOM     44  C   UNL A   1      43.070  27.884  32.996  1.00  0.00     0.049 A 
ATOM     45  H   UNL A   1      41.434  28.856  32.151  1.00  0.00     0.167 HD
ATOM     46  C   UNL A   1      38.053  30.854  30.249  1.00  0.00     0.037 A 
ATOM     47  C   UNL A   1      43.199  28.349  34.253  1.00  0.00     0.037 A 
ATOM     48  C   UNL A   1      38.075  31.364  31.596  1.00  0.00     0.049 A 
ATOM     49  C   UNL A   1      42.233  29.382  34.764  1.00  0.00     0.074 A 
ATOM     50  C   UNL A   1      37.203  32.256  32.196  1.00  0.00     0.029 A 
ATOM     51  N   UNL A   1      39.024  31.029  32.551  1.00  0.00    -0.354 N 
ATOM     52  N   UNL A   1      41.207  29.927  34.156  1.00  0.00    -0.248 NA
ATOM     53  C   UNL A   1      42.444  29.865  36.136  1.00  0.00     0.031 C 
ATOM     54  C   UNL A   1      37.648  32.493  33.502  1.00  0.00     0.029 A 
ATOM     55  C   UNL A   1      38.772  31.715  33.729  1.00  0.00     0.049 A 
ATOM     56  H   UNL A   1      39.765  30.397  32.413  1.00  0.00     0.167 HD
ATOM     57  C   UNL A   1      40.639  30.799  35.076  1.00  0.00     0.074 A 
ATOM     58  C   UNL A   1      41.425  30.700  36.288  1.00  0.00     0.031 C 
ATOM     59  C   UNL A   1      39.562  31.608  34.929  1.00  0.00     0.037 A 
BRANCH  46  60
ATOM     60  C   UNL A   1      36.987  31.358  29.321  1.00  0.00     0.057 A 
ATOM     61  C   UNL A   1      35.874  30.578  28.979  1.00  0.00     0.134 A 
ATOM     62  C   UNL A   1      37.052  32.655  28.795  1.00  0.00     0.134 A 
ATOM     63  F   UNL A   1      35.757  29.323  29.440  1.00  0.00    -0.206 F 
ATOM     64  C   UNL A   1      34.878  31.062  28.130  1.00  0.00     0.040 A 
ATOM     65  C   UNL A   1      36.050  33.158  27.964  1.00  0.00     0.040 A 
ATOM     66  F   UNL A   1      38.087  33.457  29.088  1.00  0.00    -0.206 F 
ATOM     67  C   UNL A   1      34.961  32.358  27.625  1.00  0.00     0.006 A 
ENDBRANCH  46  60
BRANCH  47  68
ATOM     68  C   UNL A   1      44.295  27.846  35.118  1.00  0.00     0.057 A 
ATOM     69  C   UNL A   1      44.102  26.755  35.973  1.00  0.00     0.134 A 
ATOM     70  C   UNL A   1      45.558  28.451  35.117  1.00  0.00     0.134 A 
ATOM     71  F   UNL A   1      42.907  26.150  36.035  1.00  0.00    -0.206 F 
ATOM     72  C   UNL A   1      45.122  26.290  36.804  1.00  0.00     0.040 A 
ATOM     73  C   UNL A   1      46.594  27.982  35.925  1.00  0.00     0.040 A 
ATOM     74  F   UNL A   1      45.804  29.501  34.320  1.00  0.00    -0.206 F 
ATOM     75  C   UNL A   1      46.374  26.901  36.778  1.00  0.00     0.006 A 
ENDBRANCH  47  68
BRANCH  59  76
ATOM     76  C   UNL A   1      39.155  32.430  36.115  1.00  0.00     0.057 A 
ATOM     77  C   UNL A   1      38.298  31.928  37.103  1.00  0.00     0.134 A 
ATOM     78  C   UNL A   1      39.650  33.729  36.288  1.00  0.00     0.134 A 
ATOM     79  F   UNL A   1      37.778  30.696  36.989  1.00  0.00    -0.206 F 
ATOM     80  C   UNL A   1      37.933  32.695  38.210  1.00  0.00     0.040 A 
ATOM     81  C   UNL A   1      39.310  34.497  37.401  1.00  0.00     0.040 A 
ATOM     82  F   UNL A   1      40.480  34.267  35.381  1.00  0.00    -0.206 F 
ATOM     83  C   UNL A   1      38.444  33.983  38.364  1.00  0.00     0.006 A 
ENDBRANCH  59  76
ENDBRANCH  33  34
ENDBRANCH  26  28
ENDBRANCH  25  26
ENDBRANCH  24  25
ENDBRANCH   1  24
TORSDOF 14
ENDMDL
