MODEL 1
REMARK VINA RESULT:     -11.0      0.000      0.000
REMARK SMILES CC(C)(O)C#Cc1ccc(C(=O)N[C@@H](CCC(N)=O)C(=O)OCCOC(=O)c2ccc(-c3c4nc(c(-c5c(F)cccc5F)c5ccc([nH]5)c(-c5c(F)cccc5F)c5nc(c(-c6c(F)cccc6F)c6ccc3[nH]6)C=C5)C=C4)cc2)s1
REMARK SMILES IDX 22 1 20 2 21 3 14 4 13 5 11 6 12 7 10 9 7 10 8 11 82 12 9 13
REMARK SMILES IDX 6 14 5 15 2 16 1 17 3 18 4 19 15 21 16 22 17 23 18 24 19 25
REMARK SMILES IDX 23 28 24 29 25 30 26 31 27 32 28 33 29 34 81 35 30 36 80 37
REMARK SMILES IDX 31 38 32 39 33 40 74 41 34 42 79 43 73 44 75 45 35 46 78 47
REMARK SMILES IDX 72 48 71 49 36 51 62 52 45 53 61 54 46 55 49 56 60 57 76 58
REMARK SMILES IDX 47 59 48 60 59 62 77 63 50 64 37 65 38 66 43 67 39 68 40 69
REMARK SMILES IDX 42 70 44 71 41 72 63 73 64 74 69 75 65 76 66 77 68 78 70 79
REMARK SMILES IDX 67 80 51 81 52 82 57 83 53 84 54 85 56 86 58 87 55 88
REMARK H PARENT 13 8 4 20 18 26 18 27 75 50 49 61
REMARK Flexibility Score: inf
ROOT
ATOM      1  O   UNL A   1      35.786  22.201  25.577  1.00  0.00    -0.461 OA
ENDROOT
BRANCH   1   2
ATOM      2  C   UNL A   1      34.566  21.915  26.094  1.00  0.00     0.328 C 
ATOM      3  O   UNL A   1      34.374  21.309  27.146  1.00  0.00    -0.250 OA
BRANCH   2   4
ATOM      4  C   UNL A   1      33.425  22.288  25.144  1.00  0.00     0.193 C 
BRANCH   4   5
ATOM      5  N   UNL A   1      33.744  22.763  23.791  1.00  0.00    -0.338 N 
ATOM      6  C   UNL A   1      33.148  23.706  22.974  1.00  0.00     0.262 C 
ATOM      7  O   UNL A   1      33.692  23.913  21.886  1.00  0.00    -0.268 OA
ATOM      8  H   UNL A   1      34.530  22.327  23.390  1.00  0.00     0.164 HD
BRANCH   6   9
ATOM      9  C   UNL A   1      31.999  24.494  23.401  1.00  0.00     0.093 A 
ATOM     10  C   UNL A   1      30.487  26.385  23.679  1.00  0.00     0.078 A 
ATOM     11  C   UNL A   1      29.777  25.215  23.532  1.00  0.00     0.030 A 
ATOM     12  S   UNL A   1      32.102  26.049  24.109  1.00  0.00    -0.121 S 
ATOM     13  C   UNL A   1      30.667  24.098  23.409  1.00  0.00     0.027 A 
BRANCH  10  14
ATOM     14  C   UNL A   1      30.003  27.714  23.576  1.00  0.00    -0.053 C 
ATOM     15  C   UNL A   1      29.577  28.914  23.300  1.00  0.00    -0.063 C 
BRANCH  15  16
ATOM     16  C   UNL A   1      29.079  30.314  22.977  1.00  0.00     0.120 C 
ATOM     17  C   UNL A   1      27.604  30.437  23.352  1.00  0.00     0.056 C 
ATOM     18  C   UNL A   1      29.303  30.613  21.497  1.00  0.00     0.056 C 
BRANCH  16  19
ATOM     19  O   UNL A   1      29.833  31.240  23.754  1.00  0.00    -0.378 OA
ATOM     20  H   UNL A   1      30.573  31.578  23.226  1.00  0.00     0.212 HD
ENDBRANCH  16  19
ENDBRANCH  15  16
ENDBRANCH  10  14
ENDBRANCH   6   9
ENDBRANCH   4   5
BRANCH   4  21
ATOM     21  C   UNL A   1      32.449  21.101  25.071  1.00  0.00     0.047 C 
BRANCH  21  22
ATOM     22  C   UNL A   1      33.009  19.838  24.399  1.00  0.00     0.102 C 
BRANCH  22  23
ATOM     23  C   UNL A   1      32.801  18.537  25.145  1.00  0.00     0.217 C 
ATOM     24  N   UNL A   1      32.870  18.601  26.503  1.00  0.00    -0.370 N 
ATOM     25  O   UNL A   1      32.565  17.473  24.583  1.00  0.00    -0.275 OA
ATOM     26  H   UNL A   1      33.059  19.460  26.946  1.00  0.00     0.159 HD
ATOM     27  H   UNL A   1      32.728  17.790  27.042  1.00  0.00     0.159 HD
ENDBRANCH  22  23
ENDBRANCH  21  22
ENDBRANCH   4  21
ENDBRANCH   2   4
ENDBRANCH   1   2
BRANCH   1  28
ATOM     28  C   UNL A   1      36.675  21.086  25.412  1.00  0.00     0.274 C 
BRANCH  28  29
ATOM     29  C   UNL A   1      38.068  21.484  25.853  1.00  0.00     0.275 C 
BRANCH  29  30
ATOM     30  O   UNL A   1      39.049  20.900  24.994  1.00  0.00    -0.458 OA
BRANCH  30  31
ATOM     31  C   UNL A   1      39.896  20.049  25.618  1.00  0.00     0.338 C 
ATOM     32  O   UNL A   1      39.755  18.855  25.797  1.00  0.00    -0.246 OA
BRANCH  31  33
ATOM     33  C   UNL A   1      40.924  20.812  26.319  1.00  0.00     0.060 A 
ATOM     34  C   UNL A   1      40.833  20.812  27.715  1.00  0.00     0.016 A 
ATOM     35  C   UNL A   1      41.628  21.789  25.607  1.00  0.00     0.016 A 
ATOM     36  C   UNL A   1      41.261  21.926  28.391  1.00  0.00     0.010 A 
ATOM     37  C   UNL A   1      42.027  22.912  26.278  1.00  0.00     0.010 A 
ATOM     38  C   UNL A   1      41.762  22.994  27.645  1.00  0.00    -0.014 A 
BRANCH  38  39
ATOM     39  C   UNL A   1      42.105  24.203  28.351  1.00  0.00     0.031 A 
ATOM     40  C   UNL A   1      41.095  25.269  28.174  1.00  0.00     0.074 A 
ATOM     41  C   UNL A   1      43.148  24.246  29.199  1.00  0.00     0.049 A 
ATOM     42  N   UNL A   1      41.244  26.443  27.660  1.00  0.00    -0.248 NA
ATOM     43  C   UNL A   1      39.694  24.909  28.466  1.00  0.00     0.031 C 
ATOM     44  C   UNL A   1      43.974  23.126  29.664  1.00  0.00     0.029 A 
ATOM     45  N   UNL A   1      43.604  25.291  29.933  1.00  0.00    -0.354 N 
ATOM     46  C   UNL A   1      39.993  27.043  27.764  1.00  0.00     0.074 A 
ATOM     47  C   UNL A   1      39.051  26.002  28.064  1.00  0.00     0.031 C 
ATOM     48  C   UNL A   1      44.658  23.513  30.765  1.00  0.00     0.029 A 
ATOM     49  C   UNL A   1      44.409  24.925  31.000  1.00  0.00     0.049 A 
ATOM     50  H   UNL A   1      43.383  26.229  29.727  1.00  0.00     0.167 HD
ATOM     51  C   UNL A   1      39.875  28.390  27.898  1.00  0.00     0.037 A 
ATOM     52  C   UNL A   1      44.747  25.714  32.047  1.00  0.00     0.037 A 
ATOM     53  C   UNL A   1      41.047  29.069  27.411  1.00  0.00     0.049 A 
ATOM     54  C   UNL A   1      44.449  27.120  31.669  1.00  0.00     0.074 A 
ATOM     55  C   UNL A   1      41.705  29.118  26.196  1.00  0.00     0.029 A 
ATOM     56  N   UNL A   1      41.934  29.562  28.336  1.00  0.00    -0.354 N 
ATOM     57  N   UNL A   1      45.103  27.795  30.764  1.00  0.00    -0.248 NA
ATOM     58  C   UNL A   1      43.130  27.644  31.996  1.00  0.00     0.031 C 
ATOM     59  C   UNL A   1      43.090  29.203  26.525  1.00  0.00     0.029 A 
ATOM     60  C   UNL A   1      43.197  29.240  27.915  1.00  0.00     0.049 A 
ATOM     61  H   UNL A   1      41.702  30.057  29.156  1.00  0.00     0.167 HD
ATOM     62  C   UNL A   1      44.138  28.555  30.117  1.00  0.00     0.074 A 
ATOM     63  C   UNL A   1      42.965  28.499  30.985  1.00  0.00     0.031 C 
ATOM     64  C   UNL A   1      44.286  28.917  28.808  1.00  0.00     0.037 A 
BRANCH  51  65
ATOM     65  C   UNL A   1      38.892  29.032  28.847  1.00  0.00     0.057 A 
ATOM     66  C   UNL A   1      38.943  28.691  30.207  1.00  0.00     0.134 A 
ATOM     67  C   UNL A   1      37.726  29.727  28.449  1.00  0.00     0.134 A 
ATOM     68  F   UNL A   1      39.992  28.019  30.708  1.00  0.00    -0.206 F 
ATOM     69  C   UNL A   1      37.882  28.942  31.085  1.00  0.00     0.040 A 
ATOM     70  C   UNL A   1      36.686  30.032  29.329  1.00  0.00     0.040 A 
ATOM     71  F   UNL A   1      37.475  30.061  27.179  1.00  0.00    -0.206 F 
ATOM     72  C   UNL A   1      36.745  29.607  30.644  1.00  0.00     0.006 A 
ENDBRANCH  51  65
BRANCH  52  73
ATOM     73  C   UNL A   1      44.990  25.305  33.448  1.00  0.00     0.057 A 
ATOM     74  C   UNL A   1      43.928  25.030  34.317  1.00  0.00     0.134 A 
ATOM     75  C   UNL A   1      46.271  24.935  33.897  1.00  0.00     0.134 A 
ATOM     76  F   UNL A   1      42.666  25.302  33.956  1.00  0.00    -0.206 F 
ATOM     77  C   UNL A   1      44.127  24.415  35.561  1.00  0.00     0.040 A 
ATOM     78  C   UNL A   1      46.485  24.331  35.139  1.00  0.00     0.040 A 
ATOM     79  F   UNL A   1      47.348  25.069  33.110  1.00  0.00    -0.206 F 
ATOM     80  C   UNL A   1      45.407  24.058  35.972  1.00  0.00     0.006 A 
ENDBRANCH  52  73
BRANCH  64  81
ATOM     81  C   UNL A   1      45.637  28.719  28.178  1.00  0.00     0.057 A 
ATOM     82  C   UNL A   1      46.689  29.644  28.271  1.00  0.00     0.134 A 
ATOM     83  C   UNL A   1      45.930  27.486  27.587  1.00  0.00     0.134 A 
ATOM     84  F   UNL A   1      46.532  30.809  28.912  1.00  0.00    -0.206 F 
ATOM     85  C   UNL A   1      47.959  29.369  27.757  1.00  0.00     0.040 A 
ATOM     86  C   UNL A   1      47.204  27.185  27.100  1.00  0.00     0.040 A 
ATOM     87  F   UNL A   1      44.990  26.530  27.516  1.00  0.00    -0.206 F 
ATOM     88  C   UNL A   1      48.221  28.133  27.175  1.00  0.00     0.006 A 
ENDBRANCH  64  81
ENDBRANCH  38  39
ENDBRANCH  31  33
ENDBRANCH  30  31
ENDBRANCH  29  30
ENDBRANCH  28  29
ENDBRANCH   1  28
TORSDOF 19
ENDMDL
MODEL 2
REMARK VINA RESULT:     -11.0      2.955      7.883
REMARK SMILES CC(C)(O)C#Cc1ccc(C(=O)N[C@@H](CCC(N)=O)C(=O)OCCOC(=O)c2ccc(-c3c4nc(c(-c5c(F)cccc5F)c5ccc([nH]5)c(-c5c(F)cccc5F)c5nc(c(-c6c(F)cccc6F)c6ccc3[nH]6)C=C5)C=C4)cc2)s1
REMARK SMILES IDX 22 1 20 2 21 3 14 4 13 5 11 6 12 7 10 9 7 10 8 11 82 12 9 13
REMARK SMILES IDX 6 14 5 15 2 16 1 17 3 18 4 19 15 21 16 22 17 23 18 24 19 25
REMARK SMILES IDX 23 28 24 29 25 30 26 31 27 32 28 33 29 34 81 35 30 36 80 37
REMARK SMILES IDX 31 38 32 39 33 40 74 41 34 42 79 43 73 44 75 45 35 46 78 47
REMARK SMILES IDX 72 48 71 49 36 51 62 52 45 53 61 54 46 55 49 56 60 57 76 58
REMARK SMILES IDX 47 59 48 60 59 62 77 63 50 64 37 65 38 66 43 67 39 68 40 69
REMARK SMILES IDX 42 70 44 71 41 72 63 73 64 74 69 75 65 76 66 77 68 78 70 79
REMARK SMILES IDX 67 80 51 81 52 82 57 83 53 84 54 85 56 86 58 87 55 88
REMARK H PARENT 13 8 4 20 18 26 18 27 75 50 49 61
REMARK Flexibility Score: inf
ROOT
ATOM      1  O   UNL A   1      31.694  28.705  26.127  1.00  0.00    -0.461 OA
ENDROOT
BRANCH   1   2
ATOM      2  C   UNL A   1      32.279  27.693  25.441  1.00  0.00     0.328 C 
ATOM      3  O   UNL A   1      33.451  27.681  25.072  1.00  0.00    -0.250 OA
BRANCH   2   4
ATOM      4  C   UNL A   1      31.278  26.612  25.023  1.00  0.00     0.193 C 
BRANCH   4   5
ATOM      5  N   UNL A   1      30.689  25.743  26.051  1.00  0.00    -0.338 N 
ATOM      6  C   UNL A   1      30.672  24.370  26.207  1.00  0.00     0.262 C 
ATOM      7  O   UNL A   1      30.121  23.938  27.222  1.00  0.00    -0.268 OA
ATOM      8  H   UNL A   1      30.218  26.232  26.764  1.00  0.00     0.164 HD
BRANCH   6   9
ATOM      9  C   UNL A   1      31.353  23.471  25.283  1.00  0.00     0.093 A 
ATOM     10  C   UNL A   1      32.209  21.419  24.287  1.00  0.00     0.078 A 
ATOM     11  C   UNL A   1      31.782  22.288  23.311  1.00  0.00     0.030 A 
ATOM     12  S   UNL A   1      32.454  22.250  25.755  1.00  0.00    -0.121 S 
ATOM     13  C   UNL A   1      31.315  23.511  23.894  1.00  0.00     0.027 A 
BRANCH  10  14
ATOM     14  C   UNL A   1      32.497  20.037  24.156  1.00  0.00    -0.053 C 
ATOM     15  C   UNL A   1      32.855  18.784  24.193  1.00  0.00    -0.063 C 
BRANCH  15  16
ATOM     16  C   UNL A   1      33.271  17.322  24.237  1.00  0.00     0.120 C 
ATOM     17  C   UNL A   1      32.546  16.613  25.378  1.00  0.00     0.056 C 
ATOM     18  C   UNL A   1      34.786  17.222  24.394  1.00  0.00     0.056 C 
BRANCH  16  19
ATOM     19  O   UNL A   1      32.895  16.718  23.003  1.00  0.00    -0.378 OA
ATOM     20  H   UNL A   1      33.675  16.320  22.586  1.00  0.00     0.212 HD
ENDBRANCH  16  19
ENDBRANCH  15  16
ENDBRANCH  10  14
ENDBRANCH   6   9
ENDBRANCH   4   5
BRANCH   4  21
ATOM     21  C   UNL A   1      30.166  27.278  24.194  1.00  0.00     0.047 C 
BRANCH  21  22
ATOM     22  C   UNL A   1      30.628  27.905  22.870  1.00  0.00     0.102 C 
BRANCH  22  23
ATOM     23  C   UNL A   1      30.188  29.331  22.617  1.00  0.00     0.217 C 
ATOM     24  N   UNL A   1      30.339  30.203  23.652  1.00  0.00    -0.370 N 
ATOM     25  O   UNL A   1      29.733  29.711  21.543  1.00  0.00    -0.275 OA
ATOM     26  H   UNL A   1      30.705  29.889  24.510  1.00  0.00     0.159 HD
ATOM     27  H   UNL A   1      30.083  31.147  23.541  1.00  0.00     0.159 HD
ENDBRANCH  22  23
ENDBRANCH  21  22
ENDBRANCH   4  21
ENDBRANCH   2   4
ENDBRANCH   1   2
BRANCH   1  28
ATOM     28  C   UNL A   1      32.415  29.188  27.269  1.00  0.00     0.274 C 
BRANCH  28  29
ATOM     29  C   UNL A   1      33.042  30.528  26.939  1.00  0.00     0.275 C 
BRANCH  29  30
ATOM     30  O   UNL A   1      34.462  30.461  27.074  1.00  0.00    -0.458 OA
BRANCH  30  31
ATOM     31  C   UNL A   1      34.998  31.465  27.806  1.00  0.00     0.338 C 
ATOM     32  O   UNL A   1      34.877  32.663  27.630  1.00  0.00    -0.246 OA
BRANCH  31  33
ATOM     33  C   UNL A   1      36.002  30.923  28.715  1.00  0.00     0.060 A 
ATOM     34  C   UNL A   1      37.029  31.801  29.078  1.00  0.00     0.016 A 
ATOM     35  C   UNL A   1      36.123  29.533  28.818  1.00  0.00     0.016 A 
ATOM     36  C   UNL A   1      38.270  31.275  29.334  1.00  0.00     0.010 A 
ATOM     37  C   UNL A   1      37.368  29.011  29.043  1.00  0.00     0.010 A 
ATOM     38  C   UNL A   1      38.433  29.894  29.216  1.00  0.00    -0.014 A 
BRANCH  38  39
ATOM     39  C   UNL A   1      39.763  29.360  29.375  1.00  0.00     0.031 A 
ATOM     40  C   UNL A   1      40.177  29.281  30.793  1.00  0.00     0.074 A 
ATOM     41  C   UNL A   1      40.439  28.845  28.333  1.00  0.00     0.049 A 
ATOM     42  N   UNL A   1      41.172  29.861  31.374  1.00  0.00    -0.248 NA
ATOM     43  C   UNL A   1      39.255  28.590  31.715  1.00  0.00     0.031 C 
ATOM     44  C   UNL A   1      39.941  28.592  26.976  1.00  0.00     0.029 A 
ATOM     45  N   UNL A   1      41.685  28.310  28.309  1.00  0.00    -0.354 N 
ATOM     46  C   UNL A   1      41.119  29.427  32.695  1.00  0.00     0.074 A 
ATOM     47  C   UNL A   1      39.827  28.834  32.891  1.00  0.00     0.031 C 
ATOM     48  C   UNL A   1      40.790  27.746  26.347  1.00  0.00     0.029 A 
ATOM     49  C   UNL A   1      41.933  27.502  27.210  1.00  0.00     0.049 A 
ATOM     50  H   UNL A   1      42.355  28.480  29.011  1.00  0.00     0.167 HD
ATOM     51  C   UNL A   1      42.251  29.316  33.439  1.00  0.00     0.037 A 
ATOM     52  C   UNL A   1      42.957  26.625  27.085  1.00  0.00     0.037 A 
ATOM     53  C   UNL A   1      43.306  30.141  32.912  1.00  0.00     0.049 A 
ATOM     54  C   UNL A   1      43.967  26.955  28.125  1.00  0.00     0.074 A 
ATOM     55  C   UNL A   1      43.449  31.493  32.665  1.00  0.00     0.029 A 
ATOM     56  N   UNL A   1      44.312  29.524  32.208  1.00  0.00    -0.354 N 
ATOM     57  N   UNL A   1      44.701  28.033  28.124  1.00  0.00    -0.248 NA
ATOM     58  C   UNL A   1      43.853  26.286  29.414  1.00  0.00     0.031 C 
ATOM     59  C   UNL A   1      44.232  31.575  31.476  1.00  0.00     0.029 A 
ATOM     60  C   UNL A   1      44.556  30.274  31.089  1.00  0.00     0.049 A 
ATOM     61  H   UNL A   1      44.773  28.692  32.463  1.00  0.00     0.167 HD
ATOM     62  C   UNL A   1      44.790  28.407  29.458  1.00  0.00     0.074 A 
ATOM     63  C   UNL A   1      44.339  27.241  30.211  1.00  0.00     0.031 C 
ATOM     64  C   UNL A   1      44.946  29.717  29.814  1.00  0.00     0.037 A 
BRANCH  51  65
ATOM     65  C   UNL A   1      42.507  28.152  34.365  1.00  0.00     0.057 A 
ATOM     66  C   UNL A   1      42.601  28.393  35.745  1.00  0.00     0.134 A 
ATOM     67  C   UNL A   1      42.957  26.877  33.951  1.00  0.00     0.134 A 
ATOM     68  F   UNL A   1      42.217  29.570  36.264  1.00  0.00    -0.206 F 
ATOM     69  C   UNL A   1      43.176  27.474  36.630  1.00  0.00     0.040 A 
ATOM     70  C   UNL A   1      43.481  25.931  34.834  1.00  0.00     0.040 A 
ATOM     71  F   UNL A   1      43.012  26.507  32.667  1.00  0.00    -0.206 F 
ATOM     72  C   UNL A   1      43.627  26.242  36.173  1.00  0.00     0.006 A 
ENDBRANCH  51  65
BRANCH  52  73
ATOM     73  C   UNL A   1      42.961  25.337  26.358  1.00  0.00     0.057 A 
ATOM     74  C   UNL A   1      43.901  25.071  25.356  1.00  0.00     0.134 A 
ATOM     75  C   UNL A   1      42.198  24.239  26.799  1.00  0.00     0.134 A 
ATOM     76  F   UNL A   1      44.708  26.043  24.907  1.00  0.00    -0.206 F 
ATOM     77  C   UNL A   1      44.079  23.785  24.826  1.00  0.00     0.040 A 
ATOM     78  C   UNL A   1      42.358  22.955  26.271  1.00  0.00     0.040 A 
ATOM     79  F   UNL A   1      41.332  24.359  27.815  1.00  0.00    -0.206 F 
ATOM     80  C   UNL A   1      43.310  22.722  25.288  1.00  0.00     0.006 A 
ENDBRANCH  52  73
BRANCH  64  81
ATOM     81  C   UNL A   1      45.303  30.696  28.731  1.00  0.00     0.057 A 
ATOM     82  C   UNL A   1      46.619  30.980  28.332  1.00  0.00     0.134 A 
ATOM     83  C   UNL A   1      44.276  31.258  27.965  1.00  0.00     0.134 A 
ATOM     84  F   UNL A   1      47.665  30.406  28.938  1.00  0.00    -0.206 F 
ATOM     85  C   UNL A   1      46.896  31.820  27.250  1.00  0.00     0.040 A 
ATOM     86  C   UNL A   1      44.539  32.071  26.861  1.00  0.00     0.040 A 
ATOM     87  F   UNL A   1      42.992  30.983  28.251  1.00  0.00    -0.206 F 
ATOM     88  C   UNL A   1      45.853  32.363  26.507  1.00  0.00     0.006 A 
ENDBRANCH  64  81
ENDBRANCH  38  39
ENDBRANCH  31  33
ENDBRANCH  30  31
ENDBRANCH  29  30
ENDBRANCH  28  29
ENDBRANCH   1  28
TORSDOF 19
ENDMDL
MODEL 3
REMARK VINA RESULT:     -10.9      2.625      6.385
REMARK SMILES CC(C)(O)C#Cc1ccc(C(=O)N[C@@H](CCC(N)=O)C(=O)OCCOC(=O)c2ccc(-c3c4nc(c(-c5c(F)cccc5F)c5ccc([nH]5)c(-c5c(F)cccc5F)c5nc(c(-c6c(F)cccc6F)c6ccc3[nH]6)C=C5)C=C4)cc2)s1
REMARK SMILES IDX 22 1 20 2 21 3 14 4 13 5 11 6 12 7 10 9 7 10 8 11 82 12 9 13
REMARK SMILES IDX 6 14 5 15 2 16 1 17 3 18 4 19 15 21 16 22 17 23 18 24 19 25
REMARK SMILES IDX 23 28 24 29 25 30 26 31 27 32 28 33 29 34 81 35 30 36 80 37
REMARK SMILES IDX 31 38 32 39 33 40 74 41 34 42 79 43 73 44 75 45 35 46 78 47
REMARK SMILES IDX 72 48 71 49 36 51 62 52 45 53 61 54 46 55 49 56 60 57 76 58
REMARK SMILES IDX 47 59 48 60 59 62 77 63 50 64 37 65 38 66 43 67 39 68 40 69
REMARK SMILES IDX 42 70 44 71 41 72 63 73 64 74 69 75 65 76 66 77 68 78 70 79
REMARK SMILES IDX 67 80 51 81 52 82 57 83 53 84 54 85 56 86 58 87 55 88
REMARK H PARENT 13 8 4 20 18 26 18 27 75 50 49 61
REMARK Flexibility Score: inf
ROOT
ATOM      1  O   UNL A   1      36.399  21.783  25.858  1.00  0.00    -0.461 OA
ENDROOT
BRANCH   1   2
ATOM      2  C   UNL A   1      35.757  22.931  25.529  1.00  0.00     0.328 C 
ATOM      3  O   UNL A   1      36.176  24.061  25.764  1.00  0.00    -0.250 OA
BRANCH   2   4
ATOM      4  C   UNL A   1      34.356  22.677  24.966  1.00  0.00     0.193 C 
BRANCH   4   5
ATOM      5  N   UNL A   1      34.152  22.700  23.511  1.00  0.00    -0.338 N 
ATOM      6  C   UNL A   1      33.224  23.345  22.715  1.00  0.00     0.262 C 
ATOM      7  O   UNL A   1      33.347  23.195  21.496  1.00  0.00    -0.268 OA
ATOM      8  H   UNL A   1      34.799  22.153  23.009  1.00  0.00     0.164 HD
BRANCH   6   9
ATOM      9  C   UNL A   1      32.211  24.238  23.262  1.00  0.00     0.093 A 
ATOM     10  C   UNL A   1      30.768  26.183  23.533  1.00  0.00     0.078 A 
ATOM     11  C   UNL A   1      30.088  25.029  23.847  1.00  0.00     0.030 A 
ATOM     12  S   UNL A   1      32.450  25.906  23.559  1.00  0.00    -0.121 S 
ATOM     13  C   UNL A   1      30.948  23.888  23.727  1.00  0.00     0.027 A 
BRANCH  10  14
ATOM     14  C   UNL A   1      30.227  27.469  23.282  1.00  0.00    -0.053 C 
ATOM     15  C   UNL A   1      29.823  28.646  22.894  1.00  0.00    -0.063 C 
BRANCH  15  16
ATOM     16  C   UNL A   1      29.352  30.018  22.440  1.00  0.00     0.120 C 
ATOM     17  C   UNL A   1      29.213  30.943  23.647  1.00  0.00     0.056 C 
ATOM     18  C   UNL A   1      28.031  29.887  21.687  1.00  0.00     0.056 C 
BRANCH  16  19
ATOM     19  O   UNL A   1      30.334  30.553  21.558  1.00  0.00    -0.378 OA
ATOM     20  H   UNL A   1      30.328  30.055  20.726  1.00  0.00     0.212 HD
ENDBRANCH  16  19
ENDBRANCH  15  16
ENDBRANCH  10  14
ENDBRANCH   6   9
ENDBRANCH   4   5
BRANCH   4  21
ATOM     21  C   UNL A   1      33.832  21.356  25.552  1.00  0.00     0.047 C 
BRANCH  21  22
ATOM     22  C   UNL A   1      33.161  20.415  24.540  1.00  0.00     0.102 C 
BRANCH  22  23
ATOM     23  C   UNL A   1      32.699  19.076  25.077  1.00  0.00     0.217 C 
ATOM     24  N   UNL A   1      32.920  18.847  26.400  1.00  0.00    -0.370 N 
ATOM     25  O   UNL A   1      32.137  18.235  24.383  1.00  0.00    -0.275 OA
ATOM     26  H   UNL A   1      33.370  19.529  26.949  1.00  0.00     0.159 HD
ATOM     27  H   UNL A   1      32.627  18.001  26.808  1.00  0.00     0.159 HD
ENDBRANCH  22  23
ENDBRANCH  21  22
ENDBRANCH   4  21
ENDBRANCH   2   4
ENDBRANCH   1   2
BRANCH   1  28
ATOM     28  C   UNL A   1      37.448  21.374  24.967  1.00  0.00     0.274 C 
BRANCH  28  29
ATOM     29  C   UNL A   1      38.763  21.342  25.719  1.00  0.00     0.275 C 
BRANCH  29  30
ATOM     30  O   UNL A   1      38.987  22.585  26.385  1.00  0.00    -0.458 OA
BRANCH  30  31
ATOM     31  C   UNL A   1      40.110  22.615  27.140  1.00  0.00     0.338 C 
ATOM     32  O   UNL A   1      40.513  21.764  27.909  1.00  0.00    -0.246 OA
BRANCH  31  33
ATOM     33  C   UNL A   1      40.669  23.962  27.128  1.00  0.00     0.060 A 
ATOM     34  C   UNL A   1      41.746  24.180  27.994  1.00  0.00     0.016 A 
ATOM     35  C   UNL A   1      39.883  25.003  26.622  1.00  0.00     0.016 A 
ATOM     36  C   UNL A   1      41.897  25.431  28.537  1.00  0.00     0.010 A 
ATOM     37  C   UNL A   1      40.015  26.243  27.186  1.00  0.00     0.010 A 
ATOM     38  C   UNL A   1      40.966  26.413  28.191  1.00  0.00    -0.014 A 
BRANCH  38  39
ATOM     39  C   UNL A   1      41.064  27.691  28.850  1.00  0.00     0.031 A 
ATOM     40  C   UNL A   1      42.229  28.478  28.392  1.00  0.00     0.074 A 
ATOM     41  C   UNL A   1      40.085  28.140  29.655  1.00  0.00     0.049 A 
ATOM     42  N   UNL A   1      43.230  28.912  29.081  1.00  0.00    -0.248 NA
ATOM     43  C   UNL A   1      42.372  28.663  26.935  1.00  0.00     0.031 C 
ATOM     44  C   UNL A   1      38.760  27.548  29.874  1.00  0.00     0.029 A 
ATOM     45  N   UNL A   1      40.019  29.305  30.346  1.00  0.00    -0.354 N 
ATOM     46  C   UNL A   1      44.018  29.611  28.172  1.00  0.00     0.074 A 
ATOM     47  C   UNL A   1      43.563  29.251  26.859  1.00  0.00     0.031 C 
ATOM     48  C   UNL A   1      37.954  28.472  30.445  1.00  0.00     0.029 A 
ATOM     49  C   UNL A   1      38.738  29.661  30.735  1.00  0.00     0.049 A 
ATOM     50  H   UNL A   1      40.812  29.851  30.553  1.00  0.00     0.167 HD
ATOM     51  C   UNL A   1      44.779  30.662  28.572  1.00  0.00     0.037 A 
ATOM     52  C   UNL A   1      38.349  30.886  31.163  1.00  0.00     0.037 A 
ATOM     53  C   UNL A   1      45.055  30.601  29.984  1.00  0.00     0.049 A 
ATOM     54  C   UNL A   1      39.573  31.651  31.517  1.00  0.00     0.074 A 
ATOM     55  C   UNL A   1      45.663  29.679  30.814  1.00  0.00     0.029 A 
ATOM     56  N   UNL A   1      44.354  31.444  30.811  1.00  0.00    -0.354 N 
ATOM     57  N   UNL A   1      40.343  31.381  32.534  1.00  0.00    -0.248 NA
ATOM     58  C   UNL A   1      40.188  32.463  30.475  1.00  0.00     0.031 C 
ATOM     59  C   UNL A   1      44.932  29.737  32.037  1.00  0.00     0.029 A 
ATOM     60  C   UNL A   1      43.947  30.716  31.898  1.00  0.00     0.049 A 
ATOM     61  H   UNL A   1      44.175  32.399  30.650  1.00  0.00     0.167 HD
ATOM     62  C   UNL A   1      41.633  31.619  32.080  1.00  0.00     0.074 A 
ATOM     63  C   UNL A   1      41.468  32.380  30.846  1.00  0.00     0.031 C 
ATOM     64  C   UNL A   1      42.698  30.934  32.592  1.00  0.00     0.037 A 
BRANCH  51  65
ATOM     65  C   UNL A   1      44.900  31.935  27.769  1.00  0.00     0.057 A 
ATOM     66  C   UNL A   1      46.071  32.159  27.028  1.00  0.00     0.134 A 
ATOM     67  C   UNL A   1      44.066  33.066  27.924  1.00  0.00     0.134 A 
ATOM     68  F   UNL A   1      46.952  31.168  26.820  1.00  0.00    -0.206 F 
ATOM     69  C   UNL A   1      46.428  33.426  26.554  1.00  0.00     0.040 A 
ATOM     70  C   UNL A   1      44.386  34.323  27.406  1.00  0.00     0.040 A 
ATOM     71  F   UNL A   1      42.952  33.054  28.663  1.00  0.00    -0.206 F 
ATOM     72  C   UNL A   1      45.589  34.515  26.750  1.00  0.00     0.006 A 
ENDBRANCH  51  65
BRANCH  52  73
ATOM     73  C   UNL A   1      37.036  31.538  30.969  1.00  0.00     0.057 A 
ATOM     74  C   UNL A   1      36.167  31.755  32.044  1.00  0.00     0.134 A 
ATOM     75  C   UNL A   1      36.706  32.186  29.764  1.00  0.00     0.134 A 
ATOM     76  F   UNL A   1      36.425  31.219  33.246  1.00  0.00    -0.206 F 
ATOM     77  C   UNL A   1      35.036  32.577  31.932  1.00  0.00     0.040 A 
ATOM     78  C   UNL A   1      35.576  32.999  29.635  1.00  0.00     0.040 A 
ATOM     79  F   UNL A   1      37.514  32.121  28.696  1.00  0.00    -0.206 F 
ATOM     80  C   UNL A   1      34.742  33.206  30.726  1.00  0.00     0.006 A 
ENDBRANCH  52  73
BRANCH  64  81
ATOM     81  C   UNL A   1      42.476  30.132  33.844  1.00  0.00     0.057 A 
ATOM     82  C   UNL A   1      42.038  28.799  33.854  1.00  0.00     0.134 A 
ATOM     83  C   UNL A   1      42.863  30.679  35.072  1.00  0.00     0.134 A 
ATOM     84  F   UNL A   1      41.746  28.157  32.716  1.00  0.00    -0.206 F 
ATOM     85  C   UNL A   1      41.945  28.062  35.039  1.00  0.00     0.040 A 
ATOM     86  C   UNL A   1      42.808  29.943  36.258  1.00  0.00     0.040 A 
ATOM     87  F   UNL A   1      43.348  31.930  35.132  1.00  0.00    -0.206 F 
ATOM     88  C   UNL A   1      42.338  28.633  36.245  1.00  0.00     0.006 A 
ENDBRANCH  64  81
ENDBRANCH  38  39
ENDBRANCH  31  33
ENDBRANCH  30  31
ENDBRANCH  29  30
ENDBRANCH  28  29
ENDBRANCH   1  28
TORSDOF 19
ENDMDL
