MODEL 1
REMARK VINA RESULT:     -12.3      0.000      0.000
REMARK SMILES NS(=O)(=O)c1ccc(-n2nc(NC(=O)NCCCC(=O)OCCOC(=O)c3ccc(-c4c5nc(c(-c6c(F)cccc6F)c6ccc([nH]6)c(-c6c(F)cccc6F)c6nc(c(-c7c(F)cccc7F)c7ccc4[nH]7)C=C6)C=C5)cc3)cc2-c2ccccc2)cc1
REMARK SMILES IDX 19 1 20 2 18 3 17 4 16 5 15 6 12 7 13 8 14 10 11 12 9 13
REMARK SMILES IDX 10 14 82 15 81 16 8 17 5 18 6 19 90 20 7 21 89 22 2 23 3 24
REMARK SMILES IDX 4 25 1 26 83 29 84 30 88 31 85 32 87 33 86 34 21 35 22 36
REMARK SMILES IDX 23 37 24 38 25 39 26 40 27 41 28 42 80 43 29 44 79 45 30 46
REMARK SMILES IDX 31 47 32 48 73 49 33 50 78 51 72 52 74 53 34 54 77 55 71 56
REMARK SMILES IDX 70 57 35 59 61 60 44 61 60 62 45 63 48 64 59 65 75 66 46 67
REMARK SMILES IDX 47 68 58 70 76 71 49 72 36 73 37 74 42 75 38 76 39 77 41 78
REMARK SMILES IDX 43 79 40 80 62 81 63 82 68 83 64 84 65 85 67 86 69 87 66 88
REMARK SMILES IDX 50 89 51 90 56 91 52 92 53 93 55 94 57 95 54 96
REMARK H PARENT 12 9 15 11 1 27 1 28 74 58 48 69
REMARK Flexibility Score: inf
ROOT
ATOM      1  C   UNL A   1      31.877  29.528  26.224  1.00  0.00     0.305 C 
ATOM      2  O   UNL A   1      31.461  29.618  25.075  1.00  0.00    -0.252 OA
ENDROOT
BRANCH   1   3
ATOM      3  C   UNL A   1      31.599  28.341  27.116  1.00  0.00     0.124 C 
BRANCH   3   4
ATOM      4  C   UNL A   1      32.141  26.997  26.645  1.00  0.00     0.033 C 
BRANCH   4   5
ATOM      5  C   UNL A   1      31.124  25.989  26.104  1.00  0.00     0.118 C 
BRANCH   5   6
ATOM      6  N   UNL A   1      30.198  26.544  25.129  1.00  0.00    -0.338 N 
ATOM      7  N   UNL A   1      31.433  26.502  23.092  1.00  0.00    -0.291 N 
ATOM      8  C   UNL A   1      30.332  26.817  23.813  1.00  0.00     0.320 C 
ATOM      9  H   UNL A   1      31.632  27.108  22.342  1.00  0.00     0.173 HD
ATOM     10  O   UNL A   1      29.441  27.484  23.275  1.00  0.00    -0.248 OA
ATOM     11  H   UNL A   1      29.310  26.761  25.497  1.00  0.00     0.165 HD
BRANCH   7  12
ATOM     12  C   UNL A   1      32.314  25.462  23.253  1.00  0.00     0.157 A 
ATOM     13  N   UNL A   1      32.980  23.485  23.578  1.00  0.00    -0.231 N 
ATOM     14  N   UNL A   1      32.030  24.202  22.948  1.00  0.00    -0.149 NA
ATOM     15  C   UNL A   1      34.096  24.264  23.882  1.00  0.00     0.076 A 
ATOM     16  C   UNL A   1      33.655  25.566  23.687  1.00  0.00     0.078 A 
BRANCH  13  17
ATOM     17  C   UNL A   1      32.734  22.117  23.834  1.00  0.00     0.065 A 
ATOM     18  C   UNL A   1      32.579  19.376  24.162  1.00  0.00     0.082 A 
ATOM     19  C   UNL A   1      32.910  20.188  25.256  1.00  0.00     0.024 A 
ATOM     20  C   UNL A   1      32.228  19.936  22.937  1.00  0.00     0.024 A 
ATOM     21  C   UNL A   1      32.977  21.568  25.096  1.00  0.00     0.030 A 
ATOM     22  C   UNL A   1      32.289  21.315  22.777  1.00  0.00     0.030 A 
BRANCH  18  23
ATOM     23  S   UNL A   1      32.773  17.630  24.290  1.00  0.00     0.238 S 
ATOM     24  O   UNL A   1      33.048  17.083  23.000  1.00  0.00    -0.207 OA
ATOM     25  O   UNL A   1      31.736  17.141  25.185  1.00  0.00    -0.207 OA
BRANCH  23  26
ATOM     26  N   UNL A   1      34.191  17.378  25.147  1.00  0.00    -0.225 NA
ATOM     27  H   UNL A   1      34.511  18.262  25.543  1.00  0.00     0.137 HD
ATOM     28  H   UNL A   1      34.905  17.007  24.521  1.00  0.00     0.137 HD
ENDBRANCH  23  26
ENDBRANCH  18  23
ENDBRANCH  13  17
BRANCH  15  29
ATOM     29  C   UNL A   1      35.404  23.742  24.312  1.00  0.00     0.000 A 
ATOM     30  C   UNL A   1      36.087  22.777  23.549  1.00  0.00     0.010 A 
ATOM     31  C   UNL A   1      35.985  24.163  25.513  1.00  0.00     0.010 A 
ATOM     32  C   UNL A   1      37.261  22.183  24.016  1.00  0.00     0.001 A 
ATOM     33  C   UNL A   1      37.179  23.590  25.968  1.00  0.00     0.001 A 
ATOM     34  C   UNL A   1      37.805  22.586  25.230  1.00  0.00     0.000 A 
ENDBRANCH  15  29
ENDBRANCH   7  12
ENDBRANCH   5   6
ENDBRANCH   4   5
ENDBRANCH   3   4
ENDBRANCH   1   3
BRANCH   1  35
ATOM     35  O   UNL A   1      32.576  30.493  26.879  1.00  0.00    -0.462 OA
BRANCH  35  36
ATOM     36  C   UNL A   1      33.986  30.253  27.044  1.00  0.00     0.274 C 
BRANCH  36  37
ATOM     37  C   UNL A   1      34.679  31.332  27.869  1.00  0.00     0.275 C 
BRANCH  37  38
ATOM     38  O   UNL A   1      36.085  31.111  28.021  1.00  0.00    -0.458 OA
BRANCH  38  39
ATOM     39  C   UNL A   1      36.434  30.407  29.122  1.00  0.00     0.338 C 
ATOM     40  O   UNL A   1      36.057  30.612  30.263  1.00  0.00    -0.246 OA
BRANCH  39  41
ATOM     41  C   UNL A   1      37.504  29.447  28.838  1.00  0.00     0.060 A 
ATOM     42  C   UNL A   1      37.881  28.566  29.866  1.00  0.00     0.016 A 
ATOM     43  C   UNL A   1      38.282  29.599  27.693  1.00  0.00     0.016 A 
ATOM     44  C   UNL A   1      39.110  27.928  29.808  1.00  0.00     0.010 A 
ATOM     45  C   UNL A   1      39.519  28.994  27.654  1.00  0.00     0.010 A 
ATOM     46  C   UNL A   1      39.945  28.199  28.727  1.00  0.00    -0.014 A 
BRANCH  46  47
ATOM     47  C   UNL A   1      41.291  27.652  28.662  1.00  0.00     0.031 A 
ATOM     48  C   UNL A   1      41.442  26.391  27.930  1.00  0.00     0.074 A 
ATOM     49  C   UNL A   1      42.367  28.374  29.026  1.00  0.00     0.049 A 
ATOM     50  N   UNL A   1      41.961  25.312  28.412  1.00  0.00    -0.248 NA
ATOM     51  C   UNL A   1      40.908  26.253  26.571  1.00  0.00     0.031 C 
ATOM     52  C   UNL A   1      42.337  29.677  29.660  1.00  0.00     0.029 A 
ATOM     53  N   UNL A   1      43.699  28.185  28.788  1.00  0.00    -0.354 N 
ATOM     54  C   UNL A   1      42.046  24.440  27.344  1.00  0.00     0.074 A 
ATOM     55  C   UNL A   1      41.210  24.982  26.306  1.00  0.00     0.031 C 
ATOM     56  C   UNL A   1      43.524  30.293  29.514  1.00  0.00     0.029 A 
ATOM     57  C   UNL A   1      44.440  29.357  28.905  1.00  0.00     0.049 A 
ATOM     58  H   UNL A   1      44.092  27.311  28.560  1.00  0.00     0.167 HD
ATOM     59  C   UNL A   1      43.037  23.513  27.302  1.00  0.00     0.037 A 
ATOM     60  C   UNL A   1      45.724  29.593  28.554  1.00  0.00     0.037 A 
ATOM     61  C   UNL A   1      43.638  23.318  28.603  1.00  0.00     0.049 A 
ATOM     62  C   UNL A   1      46.426  28.297  28.642  1.00  0.00     0.074 A 
ATOM     63  C   UNL A   1      43.157  22.996  29.858  1.00  0.00     0.029 A 
ATOM     64  N   UNL A   1      44.909  23.800  28.800  1.00  0.00    -0.354 N 
ATOM     65  N   UNL A   1      46.621  27.669  29.771  1.00  0.00    -0.248 NA
ATOM     66  C   UNL A   1      46.521  27.473  27.448  1.00  0.00     0.031 C 
ATOM     67  C   UNL A   1      43.998  23.685  30.780  1.00  0.00     0.029 A 
ATOM     68  C   UNL A   1      44.971  24.365  30.047  1.00  0.00     0.049 A 
ATOM     69  H   UNL A   1      45.650  23.748  28.154  1.00  0.00     0.167 HD
ATOM     70  C   UNL A   1      46.371  26.341  29.464  1.00  0.00     0.074 A 
ATOM     71  C   UNL A   1      46.482  26.262  28.012  1.00  0.00     0.031 C 
ATOM     72  C   UNL A   1      45.791  25.510  30.380  1.00  0.00     0.037 A 
BRANCH  59  73
ATOM     73  C   UNL A   1      43.710  23.078  26.028  1.00  0.00     0.057 A 
ATOM     74  C   UNL A   1      43.780  21.707  25.734  1.00  0.00     0.134 A 
ATOM     75  C   UNL A   1      44.519  23.908  25.224  1.00  0.00     0.134 A 
ATOM     76  F   UNL A   1      43.080  20.814  26.450  1.00  0.00    -0.206 F 
ATOM     77  C   UNL A   1      44.637  21.195  24.754  1.00  0.00     0.040 A 
ATOM     78  C   UNL A   1      45.330  23.414  24.201  1.00  0.00     0.040 A 
ATOM     79  F   UNL A   1      44.652  25.222  25.445  1.00  0.00    -0.206 F 
ATOM     80  C   UNL A   1      45.416  22.049  23.984  1.00  0.00     0.006 A 
ENDBRANCH  59  73
BRANCH  60  81
ATOM     81  C   UNL A   1      46.303  30.861  28.055  1.00  0.00     0.057 A 
ATOM     82  C   UNL A   1      45.775  31.543  26.953  1.00  0.00     0.134 A 
ATOM     83  C   UNL A   1      47.283  31.557  28.793  1.00  0.00     0.134 A 
ATOM     84  F   UNL A   1      44.800  30.993  26.215  1.00  0.00    -0.206 F 
ATOM     85  C   UNL A   1      46.196  32.836  26.605  1.00  0.00     0.040 A 
ATOM     86  C   UNL A   1      47.719  32.842  28.451  1.00  0.00     0.040 A 
ATOM     87  F   UNL A   1      47.798  31.045  29.920  1.00  0.00    -0.206 F 
ATOM     88  C   UNL A   1      47.168  33.491  27.356  1.00  0.00     0.006 A 
ENDBRANCH  60  81
BRANCH  72  89
ATOM     89  C   UNL A   1      45.753  25.961  31.816  1.00  0.00     0.057 A 
ATOM     90  C   UNL A   1      46.840  25.857  32.696  1.00  0.00     0.134 A 
ATOM     91  C   UNL A   1      44.647  26.686  32.269  1.00  0.00     0.134 A 
ATOM     92  F   UNL A   1      47.979  25.268  32.323  1.00  0.00    -0.206 F 
ATOM     93  C   UNL A   1      46.820  26.425  33.973  1.00  0.00     0.040 A 
ATOM     94  C   UNL A   1      44.623  27.283  33.534  1.00  0.00     0.040 A 
ATOM     95  F   UNL A   1      43.589  26.878  31.464  1.00  0.00    -0.206 F 
ATOM     96  C   UNL A   1      45.711  27.150  34.394  1.00  0.00     0.006 A 
ENDBRANCH  72  89
ENDBRANCH  46  47
ENDBRANCH  39  41
ENDBRANCH  38  39
ENDBRANCH  37  38
ENDBRANCH  36  37
ENDBRANCH  35  36
ENDBRANCH   1  35
TORSDOF 19
ENDMDL
MODEL 2
REMARK VINA RESULT:     -11.6      3.330      5.032
REMARK SMILES NS(=O)(=O)c1ccc(-n2nc(NC(=O)NCCCC(=O)OCCOC(=O)c3ccc(-c4c5nc(c(-c6c(F)cccc6F)c6ccc([nH]6)c(-c6c(F)cccc6F)c6nc(c(-c7c(F)cccc7F)c7ccc4[nH]7)C=C6)C=C5)cc3)cc2-c2ccccc2)cc1
REMARK SMILES IDX 19 1 20 2 18 3 17 4 16 5 15 6 12 7 13 8 14 10 11 12 9 13
REMARK SMILES IDX 10 14 82 15 81 16 8 17 5 18 6 19 90 20 7 21 89 22 2 23 3 24
REMARK SMILES IDX 4 25 1 26 83 29 84 30 88 31 85 32 87 33 86 34 21 35 22 36
REMARK SMILES IDX 23 37 24 38 25 39 26 40 27 41 28 42 80 43 29 44 79 45 30 46
REMARK SMILES IDX 31 47 32 48 73 49 33 50 78 51 72 52 74 53 34 54 77 55 71 56
REMARK SMILES IDX 70 57 35 59 61 60 44 61 60 62 45 63 48 64 59 65 75 66 46 67
REMARK SMILES IDX 47 68 58 70 76 71 49 72 36 73 37 74 42 75 38 76 39 77 41 78
REMARK SMILES IDX 43 79 40 80 62 81 63 82 68 83 64 84 65 85 67 86 69 87 66 88
REMARK SMILES IDX 50 89 51 90 56 91 52 92 53 93 55 94 57 95 54 96
REMARK H PARENT 12 9 15 11 1 27 1 28 74 58 48 69
REMARK Flexibility Score: inf
ROOT
ATOM      1  C   UNL A   1      32.033  28.913  26.391  1.00  0.00     0.305 C 
ATOM      2  O   UNL A   1      32.428  28.840  25.233  1.00  0.00    -0.252 OA
ENDROOT
BRANCH   1   3
ATOM      3  C   UNL A   1      31.394  27.757  27.123  1.00  0.00     0.124 C 
BRANCH   3   4
ATOM      4  C   UNL A   1      31.796  26.359  26.668  1.00  0.00     0.033 C 
BRANCH   4   5
ATOM      5  C   UNL A   1      30.708  25.501  26.017  1.00  0.00     0.118 C 
BRANCH   5   6
ATOM      6  N   UNL A   1      29.927  26.196  25.007  1.00  0.00    -0.338 N 
ATOM      7  N   UNL A   1      31.466  26.493  23.212  1.00  0.00    -0.291 N 
ATOM      8  C   UNL A   1      30.256  26.678  23.788  1.00  0.00     0.320 C 
ATOM      9  H   UNL A   1      31.758  27.213  22.608  1.00  0.00     0.173 HD
ATOM     10  O   UNL A   1      29.437  27.414  23.226  1.00  0.00    -0.248 OA
ATOM     11  H   UNL A   1      28.986  26.343  25.257  1.00  0.00     0.165 HD
BRANCH   7  12
ATOM     12  C   UNL A   1      32.346  25.449  23.346  1.00  0.00     0.157 A 
ATOM     13  N   UNL A   1      33.013  23.466  23.629  1.00  0.00    -0.231 N 
ATOM     14  N   UNL A   1      32.058  24.195  23.020  1.00  0.00    -0.149 NA
ATOM     15  C   UNL A   1      34.133  24.237  23.938  1.00  0.00     0.076 A 
ATOM     16  C   UNL A   1      33.692  25.544  23.771  1.00  0.00     0.078 A 
BRANCH  13  17
ATOM     17  C   UNL A   1      32.767  22.093  23.862  1.00  0.00     0.065 A 
ATOM     18  C   UNL A   1      32.607  19.346  24.136  1.00  0.00     0.082 A 
ATOM     19  C   UNL A   1      32.969  20.134  25.238  1.00  0.00     0.024 A 
ATOM     20  C   UNL A   1      32.228  19.934  22.933  1.00  0.00     0.024 A 
ATOM     21  C   UNL A   1      33.038  21.517  25.106  1.00  0.00     0.030 A 
ATOM     22  C   UNL A   1      32.291  21.316  22.800  1.00  0.00     0.030 A 
BRANCH  18  23
ATOM     23  S   UNL A   1      32.796  17.598  24.222  1.00  0.00     0.238 S 
ATOM     24  O   UNL A   1      33.004  17.073  22.910  1.00  0.00    -0.207 OA
ATOM     25  O   UNL A   1      31.799  17.097  25.157  1.00  0.00    -0.207 OA
BRANCH  23  26
ATOM     26  N   UNL A   1      34.252  17.322  25.005  1.00  0.00    -0.225 NA
ATOM     27  H   UNL A   1      34.073  17.061  25.975  1.00  0.00     0.137 HD
ATOM     28  H   UNL A   1      34.818  18.170  24.979  1.00  0.00     0.137 HD
ENDBRANCH  23  26
ENDBRANCH  18  23
ENDBRANCH  13  17
BRANCH  15  29
ATOM     29  C   UNL A   1      35.443  23.706  24.347  1.00  0.00     0.000 A 
ATOM     30  C   UNL A   1      36.079  22.692  23.607  1.00  0.00     0.010 A 
ATOM     31  C   UNL A   1      36.075  24.167  25.508  1.00  0.00     0.010 A 
ATOM     32  C   UNL A   1      37.255  22.093  24.061  1.00  0.00     0.001 A 
ATOM     33  C   UNL A   1      37.271  23.587  25.948  1.00  0.00     0.001 A 
ATOM     34  C   UNL A   1      37.849  22.538  25.236  1.00  0.00     0.000 A 
ENDBRANCH  15  29
ENDBRANCH   7  12
ENDBRANCH   5   6
ENDBRANCH   4   5
ENDBRANCH   3   4
ENDBRANCH   1   3
BRANCH   1  35
ATOM     35  O   UNL A   1      32.046  30.041  27.150  1.00  0.00    -0.462 OA
BRANCH  35  36
ATOM     36  C   UNL A   1      31.911  31.285  26.437  1.00  0.00     0.274 C 
BRANCH  36  37
ATOM     37  C   UNL A   1      31.467  32.436  27.334  1.00  0.00     0.275 C 
BRANCH  37  38
ATOM     38  O   UNL A   1      32.366  33.550  27.310  1.00  0.00    -0.458 OA
BRANCH  38  39
ATOM     39  C   UNL A   1      32.950  33.834  28.497  1.00  0.00     0.338 C 
ATOM     40  O   UNL A   1      32.643  34.734  29.259  1.00  0.00    -0.246 OA
BRANCH  39  41
ATOM     41  C   UNL A   1      34.165  33.041  28.709  1.00  0.00     0.060 A 
ATOM     42  C   UNL A   1      34.467  32.651  30.025  1.00  0.00     0.016 A 
ATOM     43  C   UNL A   1      35.101  32.925  27.685  1.00  0.00     0.016 A 
ATOM     44  C   UNL A   1      35.759  32.261  30.345  1.00  0.00     0.010 A 
ATOM     45  C   UNL A   1      36.392  32.574  28.012  1.00  0.00     0.010 A 
ATOM     46  C   UNL A   1      36.725  32.287  29.343  1.00  0.00    -0.014 A 
BRANCH  46  47
ATOM     47  C   UNL A   1      38.120  32.000  29.637  1.00  0.00     0.031 A 
ATOM     48  C   UNL A   1      38.592  30.657  29.289  1.00  0.00     0.074 A 
ATOM     49  C   UNL A   1      38.989  32.973  29.970  1.00  0.00     0.049 A 
ATOM     50  N   UNL A   1      39.150  29.832  30.109  1.00  0.00    -0.248 NA
ATOM     51  C   UNL A   1      38.366  30.117  27.943  1.00  0.00     0.031 C 
ATOM     52  C   UNL A   1      38.648  34.357  30.234  1.00  0.00     0.029 A 
ATOM     53  N   UNL A   1      40.354  32.986  30.006  1.00  0.00    -0.354 N 
ATOM     54  C   UNL A   1      39.570  28.771  29.329  1.00  0.00     0.074 A 
ATOM     55  C   UNL A   1      38.892  28.898  28.066  1.00  0.00     0.031 C 
ATOM     56  C   UNL A   1      39.740  35.134  30.126  1.00  0.00     0.029 A 
ATOM     57  C   UNL A   1      40.883  34.271  29.934  1.00  0.00     0.049 A 
ATOM     58  H   UNL A   1      40.904  32.173  30.076  1.00  0.00     0.167 HD
ATOM     59  C   UNL A   1      40.670  28.060  29.687  1.00  0.00     0.037 A 
ATOM     60  C   UNL A   1      42.165  34.657  29.743  1.00  0.00     0.037 A 
ATOM     61  C   UNL A   1      41.019  28.281  31.072  1.00  0.00     0.049 A 
ATOM     62  C   UNL A   1      43.011  33.569  30.274  1.00  0.00     0.074 A 
ATOM     63  C   UNL A   1      40.346  28.169  32.274  1.00  0.00     0.029 A 
ATOM     64  N   UNL A   1      42.144  29.023  31.339  1.00  0.00    -0.354 N 
ATOM     65  N   UNL A   1      43.062  33.261  31.542  1.00  0.00    -0.248 NA
ATOM     66  C   UNL A   1      43.460  32.527  29.362  1.00  0.00     0.031 C 
ATOM     67  C   UNL A   1      40.879  29.193  33.110  1.00  0.00     0.029 A 
ATOM     68  C   UNL A   1      41.874  29.858  32.392  1.00  0.00     0.049 A 
ATOM     69  H   UNL A   1      42.999  28.965  30.855  1.00  0.00     0.167 HD
ATOM     70  C   UNL A   1      43.068  31.875  31.552  1.00  0.00     0.074 A 
ATOM     71  C   UNL A   1      43.479  31.490  30.206  1.00  0.00     0.031 C 
ATOM     72  C   UNL A   1      42.439  31.181  32.546  1.00  0.00     0.037 A 
BRANCH  59  73
ATOM     73  C   UNL A   1      41.640  27.480  28.691  1.00  0.00     0.057 A 
ATOM     74  C   UNL A   1      42.339  28.352  27.841  1.00  0.00     0.134 A 
ATOM     75  C   UNL A   1      41.714  26.115  28.346  1.00  0.00     0.134 A 
ATOM     76  F   UNL A   1      42.316  29.677  28.047  1.00  0.00    -0.206 F 
ATOM     77  C   UNL A   1      43.010  27.904  26.699  1.00  0.00     0.040 A 
ATOM     78  C   UNL A   1      42.435  25.650  27.244  1.00  0.00     0.040 A 
ATOM     79  F   UNL A   1      41.017  25.167  28.986  1.00  0.00    -0.206 F 
ATOM     80  C   UNL A   1      43.060  26.549  26.397  1.00  0.00     0.006 A 
ENDBRANCH  59  73
BRANCH  60  81
ATOM     81  C   UNL A   1      42.647  35.863  29.034  1.00  0.00     0.057 A 
ATOM     82  C   UNL A   1      42.183  36.220  27.763  1.00  0.00     0.134 A 
ATOM     83  C   UNL A   1      43.440  36.829  29.690  1.00  0.00     0.134 A 
ATOM     84  F   UNL A   1      41.380  35.397  27.076  1.00  0.00    -0.206 F 
ATOM     85  C   UNL A   1      42.489  37.461  27.179  1.00  0.00     0.040 A 
ATOM     86  C   UNL A   1      43.760  38.064  29.116  1.00  0.00     0.040 A 
ATOM     87  F   UNL A   1      43.868  36.639  30.947  1.00  0.00    -0.206 F 
ATOM     88  C   UNL A   1      43.276  38.388  27.857  1.00  0.00     0.006 A 
ENDBRANCH  60  81
BRANCH  72  89
ATOM     89  C   UNL A   1      42.051  31.931  33.792  1.00  0.00     0.057 A 
ATOM     90  C   UNL A   1      40.789  32.511  33.993  1.00  0.00     0.134 A 
ATOM     91  C   UNL A   1      42.914  31.909  34.892  1.00  0.00     0.134 A 
ATOM     92  F   UNL A   1      39.860  32.496  33.034  1.00  0.00    -0.206 F 
ATOM     93  C   UNL A   1      40.412  33.064  35.220  1.00  0.00     0.040 A 
ATOM     94  C   UNL A   1      42.540  32.434  36.133  1.00  0.00     0.040 A 
ATOM     95  F   UNL A   1      44.117  31.321  34.795  1.00  0.00    -0.206 F 
ATOM     96  C   UNL A   1      41.287  33.019  36.300  1.00  0.00     0.006 A 
ENDBRANCH  72  89
ENDBRANCH  46  47
ENDBRANCH  39  41
ENDBRANCH  38  39
ENDBRANCH  37  38
ENDBRANCH  36  37
ENDBRANCH  35  36
ENDBRANCH   1  35
TORSDOF 19
ENDMDL
MODEL 3
REMARK VINA RESULT:     -11.1      5.854     11.282
REMARK SMILES NS(=O)(=O)c1ccc(-n2nc(NC(=O)NCCCC(=O)OCCOC(=O)c3ccc(-c4c5nc(c(-c6c(F)cccc6F)c6ccc([nH]6)c(-c6c(F)cccc6F)c6nc(c(-c7c(F)cccc7F)c7ccc4[nH]7)C=C6)C=C5)cc3)cc2-c2ccccc2)cc1
REMARK SMILES IDX 19 1 20 2 18 3 17 4 16 5 15 6 12 7 13 8 14 10 11 12 9 13
REMARK SMILES IDX 10 14 82 15 81 16 8 17 5 18 6 19 90 20 7 21 89 22 2 23 3 24
REMARK SMILES IDX 4 25 1 26 83 29 84 30 88 31 85 32 87 33 86 34 21 35 22 36
REMARK SMILES IDX 23 37 24 38 25 39 26 40 27 41 28 42 80 43 29 44 79 45 30 46
REMARK SMILES IDX 31 47 32 48 73 49 33 50 78 51 72 52 74 53 34 54 77 55 71 56
REMARK SMILES IDX 70 57 35 59 61 60 44 61 60 62 45 63 48 64 59 65 75 66 46 67
REMARK SMILES IDX 47 68 58 70 76 71 49 72 36 73 37 74 42 75 38 76 39 77 41 78
REMARK SMILES IDX 43 79 40 80 62 81 63 82 68 83 64 84 65 85 67 86 69 87 66 88
REMARK SMILES IDX 50 89 51 90 56 91 52 92 53 93 55 94 57 95 54 96
REMARK H PARENT 12 9 15 11 1 27 1 28 74 58 48 69
REMARK Flexibility Score: inf
ROOT
ATOM      1  C   UNL A   1      33.135  36.048  31.149  1.00  0.00     0.305 C 
ATOM      2  O   UNL A   1      32.955  37.200  30.770  1.00  0.00    -0.252 OA
ENDROOT
BRANCH   1   3
ATOM      3  C   UNL A   1      33.185  35.653  32.605  1.00  0.00     0.124 C 
BRANCH   3   4
ATOM      4  C   UNL A   1      34.505  35.895  33.329  1.00  0.00     0.033 C 
BRANCH   4   5
ATOM      5  C   UNL A   1      35.480  34.717  33.407  1.00  0.00     0.118 C 
BRANCH   5   6
ATOM      6  N   UNL A   1      35.045  33.536  32.677  1.00  0.00    -0.338 N 
ATOM      7  N   UNL A   1      37.084  32.429  32.135  1.00  0.00    -0.291 N 
ATOM      8  C   UNL A   1      35.738  32.545  32.074  1.00  0.00     0.320 C 
ATOM      9  H   UNL A   1      37.506  32.011  31.350  1.00  0.00     0.173 HD
ATOM     10  O   UNL A   1      35.107  31.772  31.344  1.00  0.00    -0.248 OA
ATOM     11  H   UNL A   1      34.067  33.443  32.610  1.00  0.00     0.165 HD
BRANCH   7  12
ATOM     12  C   UNL A   1      37.949  32.807  33.131  1.00  0.00     0.157 A 
ATOM     13  N   UNL A   1      38.649  33.180  35.088  1.00  0.00    -0.231 N 
ATOM     14  N   UNL A   1      37.918  32.313  34.362  1.00  0.00    -0.149 NA
ATOM     15  C   UNL A   1      39.502  33.934  34.283  1.00  0.00     0.076 A 
ATOM     16  C   UNL A   1      39.032  33.706  32.996  1.00  0.00     0.078 A 
BRANCH  13  17
ATOM     17  C   UNL A   1      38.465  33.210  36.489  1.00  0.00     0.065 A 
ATOM     18  C   UNL A   1      37.976  32.918  39.195  1.00  0.00     0.082 A 
ATOM     19  C   UNL A   1      39.294  32.867  38.718  1.00  0.00     0.024 A 
ATOM     20  C   UNL A   1      36.919  33.215  38.340  1.00  0.00     0.024 A 
ATOM     21  C   UNL A   1      39.543  33.025  37.358  1.00  0.00     0.030 A 
ATOM     22  C   UNL A   1      37.166  33.380  36.983  1.00  0.00     0.030 A 
BRANCH  18  23
ATOM     23  S   UNL A   1      37.637  32.437  40.854  1.00  0.00     0.238 S 
ATOM     24  O   UNL A   1      37.431  33.600  41.658  1.00  0.00    -0.207 OA
ATOM     25  O   UNL A   1      38.554  31.359  41.191  1.00  0.00    -0.207 OA
BRANCH  23  26
ATOM     26  N   UNL A   1      36.136  31.692  40.829  1.00  0.00    -0.225 NA
ATOM     27  H   UNL A   1      35.406  32.393  40.952  1.00  0.00     0.137 HD
ATOM     28  H   UNL A   1      36.083  31.009  41.584  1.00  0.00     0.137 HD
ENDBRANCH  23  26
ENDBRANCH  18  23
ENDBRANCH  13  17
BRANCH  15  29
ATOM     29  C   UNL A   1      40.618  34.762  34.770  1.00  0.00     0.000 A 
ATOM     30  C   UNL A   1      41.918  34.236  34.881  1.00  0.00     0.010 A 
ATOM     31  C   UNL A   1      40.407  36.085  35.175  1.00  0.00     0.010 A 
ATOM     32  C   UNL A   1      42.950  34.973  35.464  1.00  0.00     0.001 A 
ATOM     33  C   UNL A   1      41.450  36.836  35.732  1.00  0.00     0.001 A 
ATOM     34  C   UNL A   1      42.714  36.273  35.895  1.00  0.00     0.000 A 
ENDBRANCH  15  29
ENDBRANCH   7  12
ENDBRANCH   5   6
ENDBRANCH   4   5
ENDBRANCH   3   4
ENDBRANCH   1   3
BRANCH   1  35
ATOM     35  O   UNL A   1      33.384  34.989  30.334  1.00  0.00    -0.462 OA
BRANCH  35  36
ATOM     36  C   UNL A   1      33.279  35.239  28.920  1.00  0.00     0.274 C 
BRANCH  36  37
ATOM     37  C   UNL A   1      33.328  33.963  28.087  1.00  0.00     0.275 C 
BRANCH  37  38
ATOM     38  O   UNL A   1      34.045  32.900  28.722  1.00  0.00    -0.458 OA
BRANCH  38  39
ATOM     39  C   UNL A   1      34.221  31.797  27.959  1.00  0.00     0.338 C 
ATOM     40  O   UNL A   1      33.344  31.105  27.472  1.00  0.00    -0.246 OA
BRANCH  39  41
ATOM     41  C   UNL A   1      35.625  31.379  27.921  1.00  0.00     0.060 A 
ATOM     42  C   UNL A   1      35.894  30.011  27.739  1.00  0.00     0.016 A 
ATOM     43  C   UNL A   1      36.621  32.266  28.321  1.00  0.00     0.016 A 
ATOM     44  C   UNL A   1      37.137  29.505  28.084  1.00  0.00     0.010 A 
ATOM     45  C   UNL A   1      37.843  31.755  28.699  1.00  0.00     0.010 A 
ATOM     46  C   UNL A   1      38.081  30.376  28.620  1.00  0.00    -0.014 A 
BRANCH  46  47
ATOM     47  C   UNL A   1      39.362  29.889  29.107  1.00  0.00     0.031 A 
ATOM     48  C   UNL A   1      39.547  29.898  30.562  1.00  0.00     0.074 A 
ATOM     49  C   UNL A   1      40.224  29.236  28.305  1.00  0.00     0.049 A 
ATOM     50  N   UNL A   1      40.515  30.484  31.182  1.00  0.00    -0.248 NA
ATOM     51  C   UNL A   1      38.545  29.285  31.441  1.00  0.00     0.031 C 
ATOM     52  C   UNL A   1      40.088  29.075  26.871  1.00  0.00     0.029 A 
ATOM     53  N   UNL A   1      41.313  28.464  28.594  1.00  0.00    -0.354 N 
ATOM     54  C   UNL A   1      40.383  30.104  32.504  1.00  0.00     0.074 A 
ATOM     55  C   UNL A   1      39.062  29.550  32.640  1.00  0.00     0.031 C 
ATOM     56  C   UNL A   1      40.855  28.056  26.443  1.00  0.00     0.029 A 
ATOM     57  C   UNL A   1      41.649  27.597  27.559  1.00  0.00     0.049 A 
ATOM     58  H   UNL A   1      41.807  28.516  29.444  1.00  0.00     0.167 HD
ATOM     59  C   UNL A   1      41.484  30.001  33.293  1.00  0.00     0.037 A 
ATOM     60  C   UNL A   1      42.522  26.564  27.560  1.00  0.00     0.037 A 
ATOM     61  C   UNL A   1      42.615  30.697  32.721  1.00  0.00     0.049 A 
ATOM     62  C   UNL A   1      43.541  26.881  28.581  1.00  0.00     0.074 A 
ATOM     63  C   UNL A   1      42.842  31.988  32.282  1.00  0.00     0.029 A 
ATOM     64  N   UNL A   1      43.641  29.941  32.211  1.00  0.00    -0.354 N 
ATOM     65  N   UNL A   1      44.380  27.875  28.466  1.00  0.00    -0.248 NA
ATOM     66  C   UNL A   1      43.349  26.384  29.935  1.00  0.00     0.031 C 
ATOM     67  C   UNL A   1      43.753  31.868  31.193  1.00  0.00     0.029 A 
ATOM     68  C   UNL A   1      44.066  30.517  31.043  1.00  0.00     0.049 A 
ATOM     69  H   UNL A   1      44.009  29.123  32.617  1.00  0.00     0.167 HD
ATOM     70  C   UNL A   1      44.425  28.427  29.736  1.00  0.00     0.074 A 
ATOM     71  C   UNL A   1      43.916  27.383  30.619  1.00  0.00     0.031 C 
ATOM     72  C   UNL A   1      44.571  29.774  29.908  1.00  0.00     0.037 A 
BRANCH  59  73
ATOM     73  C   UNL A   1      41.634  28.960  34.369  1.00  0.00     0.057 A 
ATOM     74  C   UNL A   1      42.064  29.362  35.644  1.00  0.00     0.134 A 
ATOM     75  C   UNL A   1      41.642  27.568  34.143  1.00  0.00     0.134 A 
ATOM     76  F   UNL A   1      42.131  30.662  35.968  1.00  0.00    -0.206 F 
ATOM     77  C   UNL A   1      42.524  28.450  36.599  1.00  0.00     0.040 A 
ATOM     78  C   UNL A   1      42.039  26.644  35.112  1.00  0.00     0.040 A 
ATOM     79  F   UNL A   1      41.368  27.027  32.949  1.00  0.00    -0.206 F 
ATOM     80  C   UNL A   1      42.514  27.087  36.336  1.00  0.00     0.006 A 
ENDBRANCH  59  73
BRANCH  60  81
ATOM     81  C   UNL A   1      42.427  25.302  26.793  1.00  0.00     0.057 A 
ATOM     82  C   UNL A   1      43.333  24.971  25.780  1.00  0.00     0.134 A 
ATOM     83  C   UNL A   1      41.546  24.273  27.187  1.00  0.00     0.134 A 
ATOM     84  F   UNL A   1      44.248  25.859  25.368  1.00  0.00    -0.206 F 
ATOM     85  C   UNL A   1      43.362  23.696  25.193  1.00  0.00     0.040 A 
ATOM     86  C   UNL A   1      41.557  23.001  26.604  1.00  0.00     0.040 A 
ATOM     87  F   UNL A   1      40.693  24.440  28.209  1.00  0.00    -0.206 F 
ATOM     88  C   UNL A   1      42.475  22.705  25.607  1.00  0.00     0.006 A 
ENDBRANCH  60  81
BRANCH  72  89
ATOM     89  C   UNL A   1      45.026  30.590  28.727  1.00  0.00     0.057 A 
ATOM     90  C   UNL A   1      46.365  30.698  28.322  1.00  0.00     0.134 A 
ATOM     91  C   UNL A   1      44.065  31.134  27.869  1.00  0.00     0.134 A 
ATOM     92  F   UNL A   1      47.349  30.128  29.023  1.00  0.00    -0.206 F 
ATOM     93  C   UNL A   1      46.733  31.336  27.134  1.00  0.00     0.040 A 
ATOM     94  C   UNL A   1      44.417  31.751  26.665  1.00  0.00     0.040 A 
ATOM     95  F   UNL A   1      42.759  31.021  28.160  1.00  0.00    -0.206 F 
ATOM     96  C   UNL A   1      45.755  31.858  26.294  1.00  0.00     0.006 A 
ENDBRANCH  72  89
ENDBRANCH  46  47
ENDBRANCH  39  41
ENDBRANCH  38  39
ENDBRANCH  37  38
ENDBRANCH  36  37
ENDBRANCH  35  36
ENDBRANCH   1  35
TORSDOF 19
ENDMDL
