MODEL 1
REMARK VINA RESULT:     -11.8      0.000      0.000
REMARK SMILES O=C(OCCOC(=O)[C@H]1CC(=O)N(CCc2ccc3c(c2)OCO3)C1)c1ccc(-c2c3nc(c(-c4c(F)cccc4F)c4ccc([nH]4)c(-c4c(F)cccc4F)c4nc(c(-c5c(F)cccc5F)c5ccc2[nH]5)C=C4)C=C3)cc1
REMARK SMILES IDX 5 1 4 2 3 3 2 4 1 5 26 6 27 7 79 8 28 9 78 10 29 11 30 12
REMARK SMILES IDX 31 13 72 14 32 15 77 16 71 17 73 18 33 19 76 20 70 21 69 22
REMARK SMILES IDX 34 24 60 25 43 26 59 27 44 28 47 29 58 30 74 31 45 32 46 33
REMARK SMILES IDX 57 35 75 36 48 37 35 38 36 39 41 40 37 41 38 42 40 43 42 44
REMARK SMILES IDX 39 45 61 46 62 47 67 48 63 49 64 50 66 51 68 52 65 53 49 54
REMARK SMILES IDX 50 55 55 56 51 57 52 58 54 59 56 60 53 61 6 62 7 63 8 64
REMARK SMILES IDX 9 65 10 66 25 67 11 68 13 69 12 70 14 71 15 72 16 73 17 74
REMARK SMILES IDX 21 75 18 76 20 77 19 78 22 79 24 80 23 81
REMARK H PARENT 73 23 47 34
REMARK Flexibility Score: inf
ROOT
ATOM      1  C   UNL A   1      44.020  19.940  25.383  1.00  0.00     0.274 C 
ENDROOT
BRANCH   1   2
ATOM      2  C   UNL A   1      44.771  21.242  25.002  1.00  0.00     0.275 C 
BRANCH   2   3
ATOM      3  O   UNL A   1      44.487  22.334  25.885  1.00  0.00    -0.458 OA
BRANCH   3   4
ATOM      4  C   UNL A   1      43.853  23.492  25.577  1.00  0.00     0.338 C 
ATOM      5  O   UNL A   1      43.703  23.779  24.392  1.00  0.00    -0.246 OA
BRANCH   4   6
ATOM      6  C   UNL A   1      43.438  24.511  26.606  1.00  0.00     0.060 A 
ATOM      7  C   UNL A   1      42.410  24.358  27.539  1.00  0.00     0.016 A 
ATOM      8  C   UNL A   1      44.199  25.690  26.687  1.00  0.00     0.016 A 
ATOM      9  C   UNL A   1      42.172  25.266  28.551  1.00  0.00     0.010 A 
ATOM     10  C   UNL A   1      43.959  26.630  27.702  1.00  0.00     0.010 A 
ATOM     11  C   UNL A   1      42.942  26.408  28.647  1.00  0.00    -0.014 A 
BRANCH  11  12
ATOM     12  C   UNL A   1      42.478  27.380  29.642  1.00  0.00     0.031 A 
ATOM     13  C   UNL A   1      42.999  27.284  31.007  1.00  0.00     0.074 A 
ATOM     14  C   UNL A   1      41.626  28.367  29.293  1.00  0.00     0.049 A 
ATOM     15  N   UNL A   1      42.572  27.911  32.061  1.00  0.00    -0.248 NA
ATOM     16  C   UNL A   1      44.093  26.326  31.235  1.00  0.00     0.031 C 
ATOM     17  C   UNL A   1      40.630  28.194  27.668  1.00  0.00     0.029 A 
ATOM     18  N   UNL A   1      40.848  29.654  30.208  1.00  0.00    -0.354 N 
ATOM     19  C   UNL A   1      43.400  27.482  33.067  1.00  0.00     0.074 A 
ATOM     20  C   UNL A   1      44.227  26.415  32.546  1.00  0.00     0.031 C 
ATOM     21  C   UNL A   1      39.180  29.449  27.798  1.00  0.00     0.029 A 
ATOM     22  C   UNL A   1      39.367  30.285  29.495  1.00  0.00     0.049 A 
ATOM     23  H   UNL A   1      41.214  29.995  31.056  1.00  0.00     0.167 HD
ATOM     24  C   UNL A   1      43.511  28.016  34.295  1.00  0.00     0.037 A 
ATOM     25  C   UNL A   1      38.315  30.919  30.029  1.00  0.00     0.037 A 
ATOM     26  C   UNL A   1      42.642  29.037  34.806  1.00  0.00     0.049 A 
ATOM     27  C   UNL A   1      38.441  31.225  31.459  1.00  0.00     0.074 A 
ATOM     28  C   UNL A   1      42.689  29.618  36.054  1.00  0.00     0.029 A 
ATOM     29  N   UNL A   1      41.551  29.595  34.136  1.00  0.00    -0.354 N 
ATOM     30  N   UNL A   1      39.317  30.748  32.308  1.00  0.00    -0.248 NA
ATOM     31  C   UNL A   1      37.485  32.181  32.003  1.00  0.00     0.031 C 
ATOM     32  C   UNL A   1      41.581  30.452  36.178  1.00  0.00     0.029 A 
ATOM     33  C   UNL A   1      40.894  30.487  34.972  1.00  0.00     0.049 A 
ATOM     34  H   UNL A   1      41.287  29.385  33.210  1.00  0.00     0.167 HD
ATOM     35  C   UNL A   1      39.077  31.405  33.489  1.00  0.00     0.074 A 
ATOM     36  C   UNL A   1      37.954  32.304  33.234  1.00  0.00     0.031 C 
ATOM     37  C   UNL A   1      39.742  31.305  34.662  1.00  0.00     0.037 A 
BRANCH  24  38
ATOM     38  C   UNL A   1      44.609  27.443  35.126  1.00  0.00     0.057 A 
ATOM     39  C   UNL A   1      44.391  26.364  35.999  1.00  0.00     0.134 A 
ATOM     40  C   UNL A   1      45.860  28.061  35.143  1.00  0.00     0.134 A 
ATOM     41  F   UNL A   1      43.188  25.772  36.069  1.00  0.00    -0.206 F 
ATOM     42  C   UNL A   1      45.374  25.953  36.896  1.00  0.00     0.040 A 
ATOM     43  C   UNL A   1      46.863  27.629  36.004  1.00  0.00     0.040 A 
ATOM     44  F   UNL A   1      46.107  29.119  34.356  1.00  0.00    -0.206 F 
ATOM     45  C   UNL A   1      46.617  26.583  36.894  1.00  0.00     0.006 A 
ENDBRANCH  24  38
BRANCH  25  46
ATOM     46  C   UNL A   1      37.173  31.293  29.168  1.00  0.00     0.057 A 
ATOM     47  C   UNL A   1      36.122  30.385  29.000  1.00  0.00     0.134 A 
ATOM     48  C   UNL A   1      37.012  32.567  28.601  1.00  0.00     0.134 A 
ATOM     49  F   UNL A   1      36.212  29.155  29.526  1.00  0.00    -0.206 F 
ATOM     50  C   UNL A   1      34.961  30.720  28.303  1.00  0.00     0.040 A 
ATOM     51  C   UNL A   1      35.835  32.930  27.935  1.00  0.00     0.040 A 
ATOM     52  F   UNL A   1      37.958  33.504  28.747  1.00  0.00    -0.206 F 
ATOM     53  C   UNL A   1      34.808  32.001  27.778  1.00  0.00     0.006 A 
ENDBRANCH  25  46
BRANCH  37  54
ATOM     54  C   UNL A   1      39.251  32.235  35.721  1.00  0.00     0.057 A 
ATOM     55  C   UNL A   1      39.735  33.544  35.835  1.00  0.00     0.134 A 
ATOM     56  C   UNL A   1      38.318  31.789  36.663  1.00  0.00     0.134 A 
ATOM     57  F   UNL A   1      40.659  34.006  34.977  1.00  0.00    -0.206 F 
ATOM     58  C   UNL A   1      39.347  34.361  36.890  1.00  0.00     0.040 A 
ATOM     59  C   UNL A   1      37.878  32.618  37.687  1.00  0.00     0.040 A 
ATOM     60  F   UNL A   1      37.825  30.543  36.600  1.00  0.00    -0.206 F 
ATOM     61  C   UNL A   1      38.407  33.901  37.813  1.00  0.00     0.006 A 
ENDBRANCH  37  54
ENDBRANCH  11  12
ENDBRANCH   4   6
ENDBRANCH   3   4
ENDBRANCH   2   3
ENDBRANCH   1   2
BRANCH   1  62
ATOM     62  O   UNL A   1      42.918  20.123  26.346  1.00  0.00    -0.462 OA
BRANCH  62  63
ATOM     63  C   UNL A   1      41.802  19.400  26.084  1.00  0.00     0.311 C 
ATOM     64  O   UNL A   1      41.875  18.217  25.751  1.00  0.00    -0.252 OA
BRANCH  63  65
ATOM     65  C   UNL A   1      40.417  20.055  26.224  1.00  0.00     0.128 C 
ATOM     66  C   UNL A   1      40.685  21.555  26.292  1.00  0.00     0.117 C 
ATOM     67  C   UNL A   1      39.173  20.001  25.327  1.00  0.00     0.135 C 
ATOM     68  C   UNL A   1      39.347  22.197  26.159  1.00  0.00     0.223 C 
ATOM     69  N   UNL A   1      38.502  21.317  25.494  1.00  0.00    -0.341 N 
ATOM     70  O   UNL A   1      39.070  23.318  26.551  1.00  0.00    -0.275 OA
BRANCH  69  71
ATOM     71  C   UNL A   1      37.072  21.714  25.380  1.00  0.00     0.124 C 
BRANCH  71  72
ATOM     72  C   UNL A   1      36.469  22.236  24.070  1.00  0.00     0.057 C 
BRANCH  72  73
ATOM     73  C   UNL A   1      35.243  23.121  24.212  1.00  0.00    -0.042 A 
ATOM     74  C   UNL A   1      35.141  23.770  25.556  1.00  0.00     0.008 A 
ATOM     75  C   UNL A   1      34.496  23.427  23.038  1.00  0.00     0.054 A 
ATOM     76  C   UNL A   1      34.533  25.001  25.841  1.00  0.00     0.051 A 
ATOM     77  C   UNL A   1      33.966  24.654  23.151  1.00  0.00     0.166 A 
ATOM     78  C   UNL A   1      34.076  25.601  24.660  1.00  0.00     0.165 A 
ATOM     79  O   UNL A   1      33.754  25.710  21.713  1.00  0.00    -0.454 OA
ATOM     80  O   UNL A   1      33.869  27.598  24.074  1.00  0.00    -0.454 OA
ATOM     81  C   UNL A   1      33.642  27.554  22.140  1.00  0.00     0.468 C 
ENDBRANCH  72  73
ENDBRANCH  71  72
ENDBRANCH  69  71
ENDBRANCH  63  65
ENDBRANCH  62  63
ENDBRANCH   1  62
TORSDOF 14
ENDMDL
MODEL 2
REMARK VINA RESULT:     -11.6      1.696      2.300
REMARK SMILES O=C(OCCOC(=O)[C@H]1CC(=O)N(CCc2ccc3c(c2)OCO3)C1)c1ccc(-c2c3nc(c(-c4c(F)cccc4F)c4ccc([nH]4)c(-c4c(F)cccc4F)c4nc(c(-c5c(F)cccc5F)c5ccc2[nH]5)C=C4)C=C3)cc1
REMARK SMILES IDX 5 1 4 2 3 3 2 4 1 5 26 6 27 7 79 8 28 9 78 10 29 11 30 12
REMARK SMILES IDX 31 13 72 14 32 15 77 16 71 17 73 18 33 19 76 20 70 21 69 22
REMARK SMILES IDX 34 24 60 25 43 26 59 27 44 28 47 29 58 30 74 31 45 32 46 33
REMARK SMILES IDX 57 35 75 36 48 37 35 38 36 39 41 40 37 41 38 42 40 43 42 44
REMARK SMILES IDX 39 45 61 46 62 47 67 48 63 49 64 50 66 51 68 52 65 53 49 54
REMARK SMILES IDX 50 55 55 56 51 57 52 58 54 59 56 60 53 61 6 62 7 63 8 64
REMARK SMILES IDX 9 65 10 66 25 67 11 68 13 69 12 70 14 71 15 72 16 73 17 74
REMARK SMILES IDX 21 75 18 76 20 77 19 78 22 79 24 80 23 81
REMARK H PARENT 73 23 47 34
REMARK Flexibility Score: inf
ROOT
ATOM      1  C   UNL A   1      42.600  20.317  26.241  1.00  0.00     0.274 C 
ENDROOT
BRANCH   1   2
ATOM      2  C   UNL A   1      43.569  21.243  25.461  1.00  0.00     0.275 C 
BRANCH   2   3
ATOM      3  O   UNL A   1      42.945  22.448  25.001  1.00  0.00    -0.458 OA
BRANCH   3   4
ATOM      4  C   UNL A   1      43.442  23.707  25.077  1.00  0.00     0.338 C 
ATOM      5  O   UNL A   1      44.328  24.035  24.291  1.00  0.00    -0.246 OA
BRANCH   4   6
ATOM      6  C   UNL A   1      43.062  24.687  26.157  1.00  0.00     0.060 A 
ATOM      7  C   UNL A   1      42.108  24.474  27.155  1.00  0.00     0.016 A 
ATOM      8  C   UNL A   1      43.782  25.892  26.214  1.00  0.00     0.016 A 
ATOM      9  C   UNL A   1      41.908  25.350  28.202  1.00  0.00     0.010 A 
ATOM     10  C   UNL A   1      43.579  26.800  27.265  1.00  0.00     0.010 A 
ATOM     11  C   UNL A   1      42.639  26.518  28.272  1.00  0.00    -0.014 A 
BRANCH  11  12
ATOM     12  C   UNL A   1      42.210  27.449  29.320  1.00  0.00     0.031 A 
ATOM     13  C   UNL A   1      42.757  27.284  30.668  1.00  0.00     0.074 A 
ATOM     14  C   UNL A   1      41.364  28.463  29.034  1.00  0.00     0.049 A 
ATOM     15  N   UNL A   1      42.362  27.868  31.758  1.00  0.00    -0.248 NA
ATOM     16  C   UNL A   1      43.842  26.303  30.829  1.00  0.00     0.031 C 
ATOM     17  C   UNL A   1      40.333  28.377  27.425  1.00  0.00     0.029 A 
ATOM     18  N   UNL A   1      40.625  29.717  30.024  1.00  0.00    -0.354 N 
ATOM     19  C   UNL A   1      43.204  27.382  32.725  1.00  0.00     0.074 A 
ATOM     20  C   UNL A   1      44.005  26.329  32.139  1.00  0.00     0.031 C 
ATOM     21  C   UNL A   1      38.904  29.645  27.643  1.00  0.00     0.029 A 
ATOM     22  C   UNL A   1      39.138  30.400  29.372  1.00  0.00     0.049 A 
ATOM     23  H   UNL A   1      41.013  30.014  30.879  1.00  0.00     0.167 HD
ATOM     24  C   UNL A   1      43.349  27.858  33.974  1.00  0.00     0.037 A 
ATOM     25  C   UNL A   1      38.107  31.022  29.957  1.00  0.00     0.037 A 
ATOM     26  C   UNL A   1      42.505  28.866  34.550  1.00  0.00     0.049 A 
ATOM     27  C   UNL A   1      38.267  31.260  31.397  1.00  0.00     0.074 A 
ATOM     28  C   UNL A   1      42.587  29.389  35.822  1.00  0.00     0.029 A 
ATOM     29  N   UNL A   1      41.408  29.468  33.929  1.00  0.00    -0.354 N 
ATOM     30  N   UNL A   1      39.154  30.733  32.204  1.00  0.00    -0.248 NA
ATOM     31  C   UNL A   1      37.336  32.204  32.004  1.00  0.00     0.031 C 
ATOM     32  C   UNL A   1      41.493  30.231  36.007  1.00  0.00     0.029 A 
ATOM     33  C   UNL A   1      40.781  30.330  34.819  1.00  0.00     0.049 A 
ATOM     34  H   UNL A   1      41.123  29.305  33.001  1.00  0.00     0.167 HD
ATOM     35  C   UNL A   1      38.947  31.339  33.418  1.00  0.00     0.074 A 
ATOM     36  C   UNL A   1      37.833  32.264  33.229  1.00  0.00     0.031 C 
ATOM     37  C   UNL A   1      39.635  31.176  34.572  1.00  0.00     0.037 A 
BRANCH  24  38
ATOM     38  C   UNL A   1      44.455  27.232  34.754  1.00  0.00     0.057 A 
ATOM     39  C   UNL A   1      44.242  26.112  35.574  1.00  0.00     0.134 A 
ATOM     40  C   UNL A   1      45.712  27.839  34.781  1.00  0.00     0.134 A 
ATOM     41  F   UNL A   1      43.035  25.527  35.634  1.00  0.00    -0.206 F 
ATOM     42  C   UNL A   1      45.236  25.646  36.431  1.00  0.00     0.040 A 
ATOM     43  C   UNL A   1      46.725  27.353  35.601  1.00  0.00     0.040 A 
ATOM     44  F   UNL A   1      45.955  28.934  34.047  1.00  0.00    -0.206 F 
ATOM     45  C   UNL A   1      46.485  26.264  36.439  1.00  0.00     0.006 A 
ENDBRANCH  24  38
BRANCH  25  46
ATOM     46  C   UNL A   1      36.953  31.451  29.139  1.00  0.00     0.057 A 
ATOM     47  C   UNL A   1      35.875  30.575  28.971  1.00  0.00     0.134 A 
ATOM     48  C   UNL A   1      36.809  32.745  28.615  1.00  0.00     0.134 A 
ATOM     49  F   UNL A   1      35.948  29.327  29.458  1.00  0.00    -0.206 F 
ATOM     50  C   UNL A   1      34.705  30.959  28.316  1.00  0.00     0.040 A 
ATOM     51  C   UNL A   1      35.625  33.157  27.992  1.00  0.00     0.040 A 
ATOM     52  F   UNL A   1      37.782  33.654  28.764  1.00  0.00    -0.206 F 
ATOM     53  C   UNL A   1      34.571  32.258  27.835  1.00  0.00     0.006 A 
ENDBRANCH  25  46
BRANCH  37  54
ATOM     54  C   UNL A   1      39.180  32.064  35.682  1.00  0.00     0.057 A 
ATOM     55  C   UNL A   1      39.668  33.367  35.831  1.00  0.00     0.134 A 
ATOM     56  C   UNL A   1      38.278  31.580  36.636  1.00  0.00     0.134 A 
ATOM     57  F   UNL A   1      40.563  33.864  34.963  1.00  0.00    -0.206 F 
ATOM     58  C   UNL A   1      39.315  34.142  36.930  1.00  0.00     0.040 A 
ATOM     59  C   UNL A   1      37.872  32.368  37.705  1.00  0.00     0.040 A 
ATOM     60  F   UNL A   1      37.783  30.337  36.540  1.00  0.00    -0.206 F 
ATOM     61  C   UNL A   1      38.406  33.645  37.865  1.00  0.00     0.006 A 
ENDBRANCH  37  54
ENDBRANCH  11  12
ENDBRANCH   4   6
ENDBRANCH   3   4
ENDBRANCH   2   3
ENDBRANCH   1   2
BRANCH   1  62
ATOM     62  O   UNL A   1      41.203  20.347  25.769  1.00  0.00    -0.462 OA
BRANCH  62  63
ATOM     63  C   UNL A   1      40.369  21.128  26.498  1.00  0.00     0.311 C 
ATOM     64  O   UNL A   1      40.531  21.272  27.710  1.00  0.00    -0.252 OA
BRANCH  63  65
ATOM     65  C   UNL A   1      39.214  21.868  25.803  1.00  0.00     0.128 C 
ATOM     66  C   UNL A   1      38.171  20.795  25.502  1.00  0.00     0.117 C 
ATOM     67  C   UNL A   1      38.333  23.037  26.266  1.00  0.00     0.135 C 
ATOM     68  C   UNL A   1      36.954  21.542  25.078  1.00  0.00     0.223 C 
ATOM     69  N   UNL A   1      37.010  22.819  25.624  1.00  0.00    -0.341 N 
ATOM     70  O   UNL A   1      36.058  21.083  24.390  1.00  0.00    -0.275 OA
BRANCH  69  71
ATOM     71  C   UNL A   1      35.949  23.776  25.206  1.00  0.00     0.124 C 
BRANCH  71  72
ATOM     72  C   UNL A   1      34.618  23.903  25.958  1.00  0.00     0.057 C 
BRANCH  72  73
ATOM     73  C   UNL A   1      33.457  23.107  25.387  1.00  0.00    -0.042 A 
ATOM     74  C   UNL A   1      33.172  23.432  23.955  1.00  0.00     0.008 A 
ATOM     75  C   UNL A   1      32.952  22.015  26.150  1.00  0.00     0.054 A 
ATOM     76  C   UNL A   1      32.619  22.566  23.000  1.00  0.00     0.051 A 
ATOM     77  C   UNL A   1      32.506  21.059  25.322  1.00  0.00     0.166 A 
ATOM     78  C   UNL A   1      32.423  21.294  23.555  1.00  0.00     0.165 A 
ATOM     79  O   UNL A   1      32.630  19.320  25.759  1.00  0.00    -0.454 OA
ATOM     80  O   UNL A   1      32.475  19.370  22.738  1.00  0.00    -0.454 OA
ATOM     81  C   UNL A   1      32.586  18.159  24.260  1.00  0.00     0.468 C 
ENDBRANCH  72  73
ENDBRANCH  71  72
ENDBRANCH  69  71
ENDBRANCH  63  65
ENDBRANCH  62  63
ENDBRANCH   1  62
TORSDOF 14
ENDMDL
MODEL 3
REMARK VINA RESULT:     -11.5      3.457      8.854
REMARK SMILES O=C(OCCOC(=O)[C@H]1CC(=O)N(CCc2ccc3c(c2)OCO3)C1)c1ccc(-c2c3nc(c(-c4c(F)cccc4F)c4ccc([nH]4)c(-c4c(F)cccc4F)c4nc(c(-c5c(F)cccc5F)c5ccc2[nH]5)C=C4)C=C3)cc1
REMARK SMILES IDX 5 1 4 2 3 3 2 4 1 5 26 6 27 7 79 8 28 9 78 10 29 11 30 12
REMARK SMILES IDX 31 13 72 14 32 15 77 16 71 17 73 18 33 19 76 20 70 21 69 22
REMARK SMILES IDX 34 24 60 25 43 26 59 27 44 28 47 29 58 30 74 31 45 32 46 33
REMARK SMILES IDX 57 35 75 36 48 37 35 38 36 39 41 40 37 41 38 42 40 43 42 44
REMARK SMILES IDX 39 45 61 46 62 47 67 48 63 49 64 50 66 51 68 52 65 53 49 54
REMARK SMILES IDX 50 55 55 56 51 57 52 58 54 59 56 60 53 61 6 62 7 63 8 64
REMARK SMILES IDX 9 65 10 66 25 67 11 68 13 69 12 70 14 71 15 72 16 73 17 74
REMARK SMILES IDX 21 75 18 76 20 77 19 78 22 79 24 80 23 81
REMARK H PARENT 73 23 47 34
REMARK Flexibility Score: inf
ROOT
ATOM      1  C   UNL A   1      32.771  31.229  27.048  1.00  0.00     0.274 C 
ENDROOT
BRANCH   1   2
ATOM      2  C   UNL A   1      31.707  32.349  27.185  1.00  0.00     0.275 C 
BRANCH   2   3
ATOM      3  O   UNL A   1      32.278  33.662  27.254  1.00  0.00    -0.458 OA
BRANCH   3   4
ATOM      4  C   UNL A   1      32.918  34.222  28.310  1.00  0.00     0.338 C 
ATOM      5  O   UNL A   1      32.506  35.298  28.739  1.00  0.00    -0.246 OA
BRANCH   4   6
ATOM      6  C   UNL A   1      34.185  33.665  28.905  1.00  0.00     0.060 A 
ATOM      7  C   UNL A   1      34.261  32.697  29.908  1.00  0.00     0.016 A 
ATOM      8  C   UNL A   1      35.401  34.101  28.349  1.00  0.00     0.016 A 
ATOM      9  C   UNL A   1      35.449  32.121  30.309  1.00  0.00     0.010 A 
ATOM     10  C   UNL A   1      36.619  33.535  28.758  1.00  0.00     0.010 A 
ATOM     11  C   UNL A   1      36.639  32.529  29.740  1.00  0.00    -0.014 A 
BRANCH  11  12
ATOM     12  C   UNL A   1      37.842  31.982  30.374  1.00  0.00     0.031 A 
ATOM     13  C   UNL A   1      38.488  30.820  29.761  1.00  0.00     0.074 A 
ATOM     14  C   UNL A   1      38.367  32.568  31.472  1.00  0.00     0.049 A 
ATOM     15  N   UNL A   1      39.427  30.080  30.267  1.00  0.00    -0.248 NA
ATOM     16  C   UNL A   1      37.982  30.396  28.445  1.00  0.00     0.031 C 
ATOM     17  C   UNL A   1      37.274  33.764  32.490  1.00  0.00     0.029 A 
ATOM     18  N   UNL A   1      39.744  32.172  32.494  1.00  0.00    -0.354 N 
ATOM     19  C   UNL A   1      39.681  29.147  29.294  1.00  0.00     0.074 A 
ATOM     20  C   UNL A   1      38.685  29.295  28.255  1.00  0.00     0.031 C 
ATOM     21  C   UNL A   1      38.129  33.936  34.203  1.00  0.00     0.029 A 
ATOM     22  C   UNL A   1      39.668  32.820  34.130  1.00  0.00     0.049 A 
ATOM     23  H   UNL A   1      40.501  31.629  32.175  1.00  0.00     0.167 HD
ATOM     24  C   UNL A   1      40.728  28.305  29.246  1.00  0.00     0.037 A 
ATOM     25  C   UNL A   1      40.249  32.436  35.274  1.00  0.00     0.037 A 
ATOM     26  C   UNL A   1      41.671  28.138  30.314  1.00  0.00     0.049 A 
ATOM     27  C   UNL A   1      41.193  31.320  35.140  1.00  0.00     0.074 A 
ATOM     28  C   UNL A   1      42.755  27.288  30.339  1.00  0.00     0.029 A 
ATOM     29  N   UNL A   1      41.629  28.784  31.552  1.00  0.00    -0.354 N 
ATOM     30  N   UNL A   1      41.344  30.513  34.119  1.00  0.00    -0.248 NA
ATOM     31  C   UNL A   1      42.079  31.082  36.273  1.00  0.00     0.031 C 
ATOM     32  C   UNL A   1      43.312  27.344  31.614  1.00  0.00     0.029 A 
ATOM     33  C   UNL A   1      42.653  28.311  32.363  1.00  0.00     0.049 A 
ATOM     34  H   UNL A   1      40.972  29.470  31.811  1.00  0.00     0.167 HD
ATOM     35  C   UNL A   1      42.405  29.706  34.445  1.00  0.00     0.074 A 
ATOM     36  C   UNL A   1      42.842  30.123  35.774  1.00  0.00     0.031 C 
ATOM     37  C   UNL A   1      42.988  28.737  33.703  1.00  0.00     0.037 A 
BRANCH  24  38
ATOM     38  C   UNL A   1      40.831  27.511  27.988  1.00  0.00     0.057 A 
ATOM     39  C   UNL A   1      40.259  26.234  27.868  1.00  0.00     0.134 A 
ATOM     40  C   UNL A   1      41.620  27.981  26.936  1.00  0.00     0.134 A 
ATOM     41  F   UNL A   1      39.543  25.707  28.874  1.00  0.00    -0.206 F 
ATOM     42  C   UNL A   1      40.511  25.433  26.757  1.00  0.00     0.040 A 
ATOM     43  C   UNL A   1      41.840  27.205  25.803  1.00  0.00     0.040 A 
ATOM     44  F   UNL A   1      42.220  29.177  27.017  1.00  0.00    -0.206 F 
ATOM     45  C   UNL A   1      41.299  25.923  25.717  1.00  0.00     0.006 A 
ENDBRANCH  24  38
BRANCH  25  46
ATOM     46  C   UNL A   1      39.950  33.163  36.525  1.00  0.00     0.057 A 
ATOM     47  C   UNL A   1      40.611  34.368  36.785  1.00  0.00     0.134 A 
ATOM     48  C   UNL A   1      38.940  32.784  37.423  1.00  0.00     0.134 A 
ATOM     49  F   UNL A   1      41.580  34.791  35.959  1.00  0.00    -0.206 F 
ATOM     50  C   UNL A   1      40.290  35.165  37.884  1.00  0.00     0.040 A 
ATOM     51  C   UNL A   1      38.579  33.594  38.506  1.00  0.00     0.040 A 
ATOM     52  F   UNL A   1      38.237  31.661  37.224  1.00  0.00    -0.206 F 
ATOM     53  C   UNL A   1      39.261  34.787  38.742  1.00  0.00     0.006 A 
ENDBRANCH  25  46
BRANCH  37  54
ATOM     54  C   UNL A   1      44.180  28.111  34.348  1.00  0.00     0.057 A 
ATOM     55  C   UNL A   1      45.465  28.645  34.198  1.00  0.00     0.134 A 
ATOM     56  C   UNL A   1      44.033  26.932  35.087  1.00  0.00     0.134 A 
ATOM     57  F   UNL A   1      45.662  29.754  33.467  1.00  0.00    -0.206 F 
ATOM     58  C   UNL A   1      46.576  27.991  34.716  1.00  0.00     0.040 A 
ATOM     59  C   UNL A   1      45.131  26.303  35.660  1.00  0.00     0.040 A 
ATOM     60  F   UNL A   1      42.824  26.378  35.259  1.00  0.00    -0.206 F 
ATOM     61  C   UNL A   1      46.409  26.822  35.459  1.00  0.00     0.006 A 
ENDBRANCH  37  54
ENDBRANCH  11  12
ENDBRANCH   4   6
ENDBRANCH   3   4
ENDBRANCH   2   3
ENDBRANCH   1   2
BRANCH   1  62
ATOM     62  O   UNL A   1      32.250  29.940  26.559  1.00  0.00    -0.462 OA
BRANCH  62  63
ATOM     63  C   UNL A   1      33.142  28.920  26.569  1.00  0.00     0.311 C 
ATOM     64  O   UNL A   1      34.271  29.068  27.037  1.00  0.00    -0.252 OA
BRANCH  63  65
ATOM     65  C   UNL A   1      32.738  27.545  26.010  1.00  0.00     0.128 C 
ATOM     66  C   UNL A   1      34.046  26.779  25.840  1.00  0.00     0.117 C 
ATOM     67  C   UNL A   1      31.809  26.456  26.565  1.00  0.00     0.135 C 
ATOM     68  C   UNL A   1      33.642  25.373  25.557  1.00  0.00     0.223 C 
ATOM     69  N   UNL A   1      32.373  25.167  26.084  1.00  0.00    -0.341 N 
ATOM     70  O   UNL A   1      34.334  24.550  24.982  1.00  0.00    -0.275 OA
BRANCH  69  71
ATOM     71  C   UNL A   1      31.725  23.860  25.788  1.00  0.00     0.124 C 
BRANCH  71  72
ATOM     72  C   UNL A   1      30.708  23.688  24.653  1.00  0.00     0.057 C 
BRANCH  72  73
ATOM     73  C   UNL A   1      30.735  24.756  23.573  1.00  0.00    -0.042 A 
ATOM     74  C   UNL A   1      29.760  25.863  23.819  1.00  0.00     0.008 A 
ATOM     75  C   UNL A   1      31.800  24.727  22.626  1.00  0.00     0.054 A 
ATOM     76  C   UNL A   1      29.892  27.196  23.404  1.00  0.00     0.051 A 
ATOM     77  C   UNL A   1      32.098  25.979  22.250  1.00  0.00     0.166 A 
ATOM     78  C   UNL A   1      31.125  27.384  22.765  1.00  0.00     0.165 A 
ATOM     79  O   UNL A   1      33.783  26.448  21.838  1.00  0.00    -0.454 OA
ATOM     80  O   UNL A   1      32.412  29.027  22.627  1.00  0.00    -0.454 OA
ATOM     81  C   UNL A   1      34.108  28.310  21.993  1.00  0.00     0.468 C 
ENDBRANCH  72  73
ENDBRANCH  71  72
ENDBRANCH  69  71
ENDBRANCH  63  65
ENDBRANCH  62  63
ENDBRANCH   1  62
TORSDOF 14
ENDMDL
