MODEL 1
REMARK VINA RESULT:     -12.3      0.000      0.000
REMARK SMILES NS(=O)(=O)c1ccc(-n2nc(C(F)F)cc2-c2ccc(C(=O)OCCOC(=O)c3ccc(-c4c5nc(c(-c6c(F)cccc6F)c6ccc([nH]6)c(-c6c(F)cccc6F)c6nc(c(-c7c(F)cccc7F)c7ccc4[nH]7)C=C6)C=C5)cc3)cc2)cc1
REMARK SMILES IDX 24 1 23 2 21 3 22 4 20 5 17 6 18 7 84 8 19 9 83 10 16 11
REMARK SMILES IDX 9 12 10 13 11 14 15 15 8 16 5 17 6 18 86 19 7 20 85 21 2 22
REMARK SMILES IDX 3 23 4 24 1 25 12 28 13 29 14 30 25 31 26 32 27 33 28 34
REMARK SMILES IDX 29 35 30 36 82 37 31 38 81 39 32 40 33 41 34 42 75 43 35 44
REMARK SMILES IDX 80 45 74 46 76 47 36 48 79 49 73 50 72 51 37 53 63 54 46 55
REMARK SMILES IDX 62 56 47 57 50 58 61 59 77 60 48 61 49 62 60 64 78 65 51 66
REMARK SMILES IDX 38 67 39 68 44 69 40 70 41 71 43 72 45 73 42 74 64 75 65 76
REMARK SMILES IDX 70 77 66 78 67 79 69 80 71 81 68 82 52 83 53 84 58 85 54 86
REMARK SMILES IDX 55 87 57 88 59 89 56 90
REMARK H PARENT 1 26 1 27 76 52 50 63
REMARK Flexibility Score: inf
ROOT
ATOM      1  C   UNL A   1      34.401  33.116  28.176  1.00  0.00     0.275 C 
ENDROOT
BRANCH   1   2
ATOM      2  O   UNL A   1      33.860  31.812  27.915  1.00  0.00    -0.458 OA
BRANCH   2   3
ATOM      3  C   UNL A   1      34.750  30.873  27.505  1.00  0.00     0.338 C 
ATOM      4  O   UNL A   1      35.965  30.987  27.486  1.00  0.00    -0.246 OA
BRANCH   3   5
ATOM      5  C   UNL A   1      34.040  29.616  27.154  1.00  0.00     0.060 A 
ATOM      6  C   UNL A   1      32.762  27.233  26.404  1.00  0.00     0.000 A 
ATOM      7  C   UNL A   1      34.052  27.522  25.939  1.00  0.00     0.011 A 
ATOM      8  C   UNL A   1      32.122  28.137  27.261  1.00  0.00     0.011 A 
ATOM      9  C   UNL A   1      34.689  28.706  26.311  1.00  0.00     0.016 A 
ATOM     10  C   UNL A   1      32.762  29.319  27.643  1.00  0.00     0.016 A 
BRANCH   6  11
ATOM     11  C   UNL A   1      32.065  26.035  25.943  1.00  0.00     0.075 A 
ATOM     12  N   UNL A   1      30.884  26.005  25.209  1.00  0.00    -0.233 N 
ATOM     13  N   UNL A   1      30.307  24.776  25.249  1.00  0.00    -0.166 NA
ATOM     14  C   UNL A   1      31.233  23.972  25.799  1.00  0.00     0.129 A 
ATOM     15  C   UNL A   1      32.342  24.720  26.257  1.00  0.00     0.060 A 
BRANCH  12  16
ATOM     16  C   UNL A   1      30.280  27.055  24.466  1.00  0.00     0.065 A 
ATOM     17  C   UNL A   1      29.066  29.129  23.049  1.00  0.00     0.082 A 
ATOM     18  C   UNL A   1      30.365  29.294  23.534  1.00  0.00     0.024 A 
ATOM     19  C   UNL A   1      28.375  27.929  23.250  1.00  0.00     0.024 A 
ATOM     20  C   UNL A   1      30.967  28.260  24.254  1.00  0.00     0.030 A 
ATOM     21  C   UNL A   1      28.995  26.878  23.934  1.00  0.00     0.030 A 
BRANCH  17  22
ATOM     22  S   UNL A   1      28.280  30.454  22.182  1.00  0.00     0.238 S 
ATOM     23  O   UNL A   1      27.288  31.055  23.045  1.00  0.00    -0.207 OA
ATOM     24  O   UNL A   1      27.990  30.013  20.840  1.00  0.00    -0.207 OA
BRANCH  22  25
ATOM     25  N   UNL A   1      29.494  31.612  22.045  1.00  0.00    -0.225 NA
ATOM     26  H   UNL A   1      30.003  31.678  22.926  1.00  0.00     0.137 HD
ATOM     27  H   UNL A   1      29.077  32.517  21.826  1.00  0.00     0.137 HD
ENDBRANCH  22  25
ENDBRANCH  17  22
ENDBRANCH  12  16
BRANCH  14  28
ATOM     28  C   UNL A   1      31.054  22.488  25.924  1.00  0.00     0.393 C 
ATOM     29  F   UNL A   1      29.785  22.141  26.274  1.00  0.00    -0.203 F 
ATOM     30  F   UNL A   1      31.325  21.850  24.752  1.00  0.00    -0.203 F 
ENDBRANCH  14  28
ENDBRANCH   6  11
ENDBRANCH   3   5
ENDBRANCH   2   3
ENDBRANCH   1   2
BRANCH   1  31
ATOM     31  C   UNL A   1      34.234  33.487  29.643  1.00  0.00     0.275 C 
BRANCH  31  32
ATOM     32  O   UNL A   1      34.400  32.351  30.495  1.00  0.00    -0.458 OA
BRANCH  32  33
ATOM     33  C   UNL A   1      35.475  32.381  31.315  1.00  0.00     0.338 C 
ATOM     34  O   UNL A   1      35.635  33.088  32.296  1.00  0.00    -0.246 OA
BRANCH  33  35
ATOM     35  C   UNL A   1      36.560  31.597  30.700  1.00  0.00     0.060 A 
ATOM     36  C   UNL A   1      36.485  30.206  30.818  1.00  0.00     0.016 A 
ATOM     37  C   UNL A   1      37.730  32.225  30.244  1.00  0.00     0.016 A 
ATOM     38  C   UNL A   1      37.633  29.462  30.632  1.00  0.00     0.010 A 
ATOM     39  C   UNL A   1      38.877  31.478  30.060  1.00  0.00     0.010 A 
ATOM     40  C   UNL A   1      38.835  30.112  30.323  1.00  0.00    -0.014 A 
BRANCH  40  41
ATOM     41  C   UNL A   1      40.032  29.294  30.253  1.00  0.00     0.031 A 
ATOM     42  C   UNL A   1      40.744  29.109  31.540  1.00  0.00     0.074 A 
ATOM     43  C   UNL A   1      40.442  28.672  29.132  1.00  0.00     0.049 A 
ATOM     44  N   UNL A   1      41.947  29.467  31.845  1.00  0.00    -0.248 NA
ATOM     45  C   UNL A   1      39.979  28.528  32.652  1.00  0.00     0.031 C 
ATOM     46  C   UNL A   1      39.720  28.502  27.869  1.00  0.00     0.029 A 
ATOM     47  N   UNL A   1      41.589  27.965  28.935  1.00  0.00    -0.354 N 
ATOM     48  C   UNL A   1      42.161  29.000  33.138  1.00  0.00     0.074 A 
ATOM     49  C   UNL A   1      40.886  28.541  33.628  1.00  0.00     0.031 C 
ATOM     50  C   UNL A   1      40.354  27.570  27.122  1.00  0.00     0.029 A 
ATOM     51  C   UNL A   1      41.584  27.182  27.794  1.00  0.00     0.049 A 
ATOM     52  H   UNL A   1      42.356  28.007  29.552  1.00  0.00     0.167 HD
ATOM     53  C   UNL A   1      43.411  28.840  33.649  1.00  0.00     0.037 A 
ATOM     54  C   UNL A   1      42.492  26.234  27.467  1.00  0.00     0.037 A 
ATOM     55  C   UNL A   1      44.389  29.615  32.935  1.00  0.00     0.049 A 
ATOM     56  C   UNL A   1      43.726  26.489  28.249  1.00  0.00     0.074 A 
ATOM     57  C   UNL A   1      44.567  30.960  32.677  1.00  0.00     0.029 A 
ATOM     58  N   UNL A   1      45.240  28.962  32.080  1.00  0.00    -0.354 N 
ATOM     59  N   UNL A   1      44.531  27.494  28.049  1.00  0.00    -0.248 NA
ATOM     60  C   UNL A   1      43.871  25.824  29.536  1.00  0.00     0.031 C 
ATOM     61  C   UNL A   1      45.138  31.018  31.373  1.00  0.00     0.029 A 
ATOM     62  C   UNL A   1      45.289  29.703  30.928  1.00  0.00     0.049 A 
ATOM     63  H   UNL A   1      45.724  28.124  32.259  1.00  0.00     0.167 HD
ATOM     64  C   UNL A   1      44.981  27.846  29.312  1.00  0.00     0.074 A 
ATOM     65  C   UNL A   1      44.636  26.717  30.168  1.00  0.00     0.031 C 
ATOM     66  C   UNL A   1      45.340  29.131  29.603  1.00  0.00     0.037 A 
BRANCH  53  67
ATOM     67  C   UNL A   1      43.785  27.727  34.592  1.00  0.00     0.057 A 
ATOM     68  C   UNL A   1      43.716  26.393  34.158  1.00  0.00     0.134 A 
ATOM     69  C   UNL A   1      43.936  27.901  35.983  1.00  0.00     0.134 A 
ATOM     70  F   UNL A   1      43.540  26.099  32.861  1.00  0.00    -0.206 F 
ATOM     71  C   UNL A   1      43.742  25.313  35.049  1.00  0.00     0.040 A 
ATOM     72  C   UNL A   1      44.017  26.830  36.876  1.00  0.00     0.040 A 
ATOM     73  F   UNL A   1      43.911  29.110  36.560  1.00  0.00    -0.206 F 
ATOM     74  C   UNL A   1      43.890  25.530  36.414  1.00  0.00     0.006 A 
ENDBRANCH  53  67
BRANCH  54  75
ATOM     75  C   UNL A   1      42.273  24.972  26.727  1.00  0.00     0.057 A 
ATOM     76  C   UNL A   1      43.049  24.641  25.609  1.00  0.00     0.134 A 
ATOM     77  C   UNL A   1      41.474  23.941  27.254  1.00  0.00     0.134 A 
ATOM     78  F   UNL A   1      43.875  25.544  25.062  1.00  0.00    -0.206 F 
ATOM     79  C   UNL A   1      43.046  23.354  25.057  1.00  0.00     0.040 A 
ATOM     80  C   UNL A   1      41.453  22.656  26.707  1.00  0.00     0.040 A 
ATOM     81  F   UNL A   1      40.754  24.123  28.370  1.00  0.00    -0.206 F 
ATOM     82  C   UNL A   1      42.253  22.354  25.612  1.00  0.00     0.006 A 
ENDBRANCH  54  75
BRANCH  66  83
ATOM     83  C   UNL A   1      45.516  30.085  28.456  1.00  0.00     0.057 A 
ATOM     84  C   UNL A   1      44.462  30.804  27.873  1.00  0.00     0.134 A 
ATOM     85  C   UNL A   1      46.811  30.394  28.023  1.00  0.00     0.134 A 
ATOM     86  F   UNL A   1      43.201  30.656  28.301  1.00  0.00    -0.206 F 
ATOM     87  C   UNL A   1      44.683  31.747  26.865  1.00  0.00     0.040 A 
ATOM     88  C   UNL A   1      47.048  31.359  27.041  1.00  0.00     0.040 A 
ATOM     89  F   UNL A   1      47.872  29.791  28.580  1.00  0.00    -0.206 F 
ATOM     90  C   UNL A   1      45.982  32.031  26.450  1.00  0.00     0.006 A 
ENDBRANCH  66  83
ENDBRANCH  40  41
ENDBRANCH  33  35
ENDBRANCH  32  33
ENDBRANCH  31  32
ENDBRANCH   1  31
TORSDOF 16
ENDMDL
MODEL 2
REMARK VINA RESULT:     -12.2      4.679      8.900
REMARK SMILES NS(=O)(=O)c1ccc(-n2nc(C(F)F)cc2-c2ccc(C(=O)OCCOC(=O)c3ccc(-c4c5nc(c(-c6c(F)cccc6F)c6ccc([nH]6)c(-c6c(F)cccc6F)c6nc(c(-c7c(F)cccc7F)c7ccc4[nH]7)C=C6)C=C5)cc3)cc2)cc1
REMARK SMILES IDX 24 1 23 2 21 3 22 4 20 5 17 6 18 7 84 8 19 9 83 10 16 11
REMARK SMILES IDX 9 12 10 13 11 14 15 15 8 16 5 17 6 18 86 19 7 20 85 21 2 22
REMARK SMILES IDX 3 23 4 24 1 25 12 28 13 29 14 30 25 31 26 32 27 33 28 34
REMARK SMILES IDX 29 35 30 36 82 37 31 38 81 39 32 40 33 41 34 42 75 43 35 44
REMARK SMILES IDX 80 45 74 46 76 47 36 48 79 49 73 50 72 51 37 53 63 54 46 55
REMARK SMILES IDX 62 56 47 57 50 58 61 59 77 60 48 61 49 62 60 64 78 65 51 66
REMARK SMILES IDX 38 67 39 68 44 69 40 70 41 71 43 72 45 73 42 74 64 75 65 76
REMARK SMILES IDX 70 77 66 78 67 79 69 80 71 81 68 82 52 83 53 84 58 85 54 86
REMARK SMILES IDX 55 87 57 88 59 89 56 90
REMARK H PARENT 1 26 1 27 76 52 50 63
REMARK Flexibility Score: inf
ROOT
ATOM      1  C   UNL A   1      40.799  20.039  26.789  1.00  0.00     0.275 C 
ENDROOT
BRANCH   1   2
ATOM      2  O   UNL A   1      39.735  20.588  25.997  1.00  0.00    -0.458 OA
BRANCH   2   3
ATOM      3  C   UNL A   1      39.554  21.929  26.096  1.00  0.00     0.338 C 
ATOM      4  O   UNL A   1      40.411  22.757  26.362  1.00  0.00    -0.246 OA
BRANCH   3   5
ATOM      5  C   UNL A   1      38.155  22.284  25.743  1.00  0.00     0.060 A 
ATOM      6  C   UNL A   1      35.526  22.902  24.983  1.00  0.00     0.000 A 
ATOM      7  C   UNL A   1      36.186  21.801  24.421  1.00  0.00     0.011 A 
ATOM      8  C   UNL A   1      36.184  23.682  25.940  1.00  0.00     0.011 A 
ATOM      9  C   UNL A   1      37.492  21.491  24.798  1.00  0.00     0.016 A 
ATOM     10  C   UNL A   1      37.491  23.369  26.327  1.00  0.00     0.016 A 
BRANCH   6  11
ATOM     11  C   UNL A   1      34.190  23.273  24.522  1.00  0.00     0.075 A 
ATOM     12  N   UNL A   1      33.194  22.396  24.106  1.00  0.00    -0.233 N 
ATOM     13  N   UNL A   1      32.224  23.041  23.407  1.00  0.00    -0.166 NA
ATOM     14  C   UNL A   1      32.478  24.349  23.584  1.00  0.00     0.129 A 
ATOM     15  C   UNL A   1      33.702  24.538  24.264  1.00  0.00     0.060 A 
BRANCH  12  16
ATOM     16  C   UNL A   1      33.096  20.997  24.341  1.00  0.00     0.065 A 
ATOM     17  C   UNL A   1      32.950  18.246  24.777  1.00  0.00     0.082 A 
ATOM     18  C   UNL A   1      33.272  19.095  25.837  1.00  0.00     0.024 A 
ATOM     19  C   UNL A   1      32.682  18.761  23.504  1.00  0.00     0.024 A 
ATOM     20  C   UNL A   1      33.356  20.471  25.615  1.00  0.00     0.030 A 
ATOM     21  C   UNL A   1      32.726  20.143  23.292  1.00  0.00     0.030 A 
BRANCH  17  22
ATOM     22  S   UNL A   1      32.892  16.499  25.041  1.00  0.00     0.238 S 
ATOM     23  O   UNL A   1      33.292  15.828  23.825  1.00  0.00    -0.207 OA
ATOM     24  O   UNL A   1      31.674  16.184  25.747  1.00  0.00    -0.207 OA
BRANCH  22  25
ATOM     25  N   UNL A   1      34.150  16.220  26.125  1.00  0.00    -0.225 NA
ATOM     26  H   UNL A   1      34.701  15.423  25.809  1.00  0.00     0.137 HD
ATOM     27  H   UNL A   1      33.765  16.022  27.049  1.00  0.00     0.137 HD
ENDBRANCH  22  25
ENDBRANCH  17  22
ENDBRANCH  12  16
BRANCH  14  28
ATOM     28  C   UNL A   1      31.572  25.431  23.076  1.00  0.00     0.393 C 
ATOM     29  F   UNL A   1      30.258  25.081  23.126  1.00  0.00    -0.203 F 
ATOM     30  F   UNL A   1      31.701  26.575  23.803  1.00  0.00    -0.203 F 
ENDBRANCH  14  28
ENDBRANCH   6  11
ENDBRANCH   3   5
ENDBRANCH   2   3
ENDBRANCH   1   2
BRANCH   1  31
ATOM     31  C   UNL A   1      41.896  19.471  25.899  1.00  0.00     0.275 C 
BRANCH  31  32
ATOM     32  O   UNL A   1      43.169  20.049  26.199  1.00  0.00    -0.458 OA
BRANCH  32  33
ATOM     33  C   UNL A   1      43.788  20.673  25.171  1.00  0.00     0.338 C 
ATOM     34  O   UNL A   1      44.314  20.151  24.200  1.00  0.00    -0.246 OA
BRANCH  33  35
ATOM     35  C   UNL A   1      43.962  22.094  25.515  1.00  0.00     0.060 A 
ATOM     36  C   UNL A   1      44.448  22.384  26.793  1.00  0.00     0.016 A 
ATOM     37  C   UNL A   1      43.429  23.102  24.695  1.00  0.00     0.016 A 
ATOM     38  C   UNL A   1      44.252  23.651  27.306  1.00  0.00     0.010 A 
ATOM     39  C   UNL A   1      43.232  24.368  25.212  1.00  0.00     0.010 A 
ATOM     40  C   UNL A   1      43.582  24.611  26.536  1.00  0.00    -0.014 A 
BRANCH  40  41
ATOM     41  C   UNL A   1      43.301  25.888  27.167  1.00  0.00     0.031 A 
ATOM     42  C   UNL A   1      44.292  26.956  26.894  1.00  0.00     0.074 A 
ATOM     43  C   UNL A   1      42.187  26.134  27.882  1.00  0.00     0.049 A 
ATOM     44  N   UNL A   1      45.040  27.585  27.740  1.00  0.00    -0.248 NA
ATOM     45  C   UNL A   1      44.540  27.299  25.487  1.00  0.00     0.031 C 
ATOM     46  C   UNL A   1      40.983  25.310  28.005  1.00  0.00     0.029 A 
ATOM     47  N   UNL A   1      41.873  27.257  28.587  1.00  0.00    -0.354 N 
ATOM     48  C   UNL A   1      45.733  28.534  26.994  1.00  0.00     0.074 A 
ATOM     49  C   UNL A   1      45.481  28.235  25.607  1.00  0.00     0.031 C 
ATOM     50  C   UNL A   1      39.998  26.050  28.562  1.00  0.00     0.029 A 
ATOM     51  C   UNL A   1      40.540  27.343  28.950  1.00  0.00     0.049 A 
ATOM     52  H   UNL A   1      42.537  27.946  28.819  1.00  0.00     0.167 HD
ATOM     53  C   UNL A   1      46.308  29.622  27.570  1.00  0.00     0.037 A 
ATOM     54  C   UNL A   1      39.918  28.428  29.465  1.00  0.00     0.037 A 
ATOM     55  C   UNL A   1      46.527  29.436  28.979  1.00  0.00     0.049 A 
ATOM     56  C   UNL A   1      40.954  29.330  30.025  1.00  0.00     0.074 A 
ATOM     57  C   UNL A   1      47.246  28.537  29.742  1.00  0.00     0.029 A 
ATOM     58  N   UNL A   1      45.697  30.081  29.859  1.00  0.00    -0.354 N 
ATOM     59  N   UNL A   1      41.651  29.077  31.096  1.00  0.00    -0.248 NA
ATOM     60  C   UNL A   1      41.498  30.368  29.161  1.00  0.00     0.031 C 
ATOM     61  C   UNL A   1      46.476  28.353  30.927  1.00  0.00     0.029 A 
ATOM     62  C   UNL A   1      45.347  29.166  30.817  1.00  0.00     0.049 A 
ATOM     63  H   UNL A   1      45.408  31.021  29.812  1.00  0.00     0.167 HD
ATOM     64  C   UNL A   1      42.905  29.608  30.838  1.00  0.00     0.074 A 
ATOM     65  C   UNL A   1      42.718  30.486  29.689  1.00  0.00     0.031 C 
ATOM     66  C   UNL A   1      44.029  29.075  31.401  1.00  0.00     0.037 A 
BRANCH  53  67
ATOM     67  C   UNL A   1      46.372  30.974  26.909  1.00  0.00     0.057 A 
ATOM     68  C   UNL A   1      47.587  31.678  26.876  1.00  0.00     0.134 A 
ATOM     69  C   UNL A   1      45.232  31.725  26.557  1.00  0.00     0.134 A 
ATOM     70  F   UNL A   1      48.738  31.080  27.221  1.00  0.00    -0.206 F 
ATOM     71  C   UNL A   1      47.655  33.042  26.568  1.00  0.00     0.040 A 
ATOM     72  C   UNL A   1      45.294  33.074  26.197  1.00  0.00     0.040 A 
ATOM     73  F   UNL A   1      43.992  31.225  26.643  1.00  0.00    -0.206 F 
ATOM     74  C   UNL A   1      46.506  33.745  26.230  1.00  0.00     0.006 A 
ENDBRANCH  53  67
BRANCH  54  75
ATOM     75  C   UNL A   1      38.517  28.860  29.269  1.00  0.00     0.057 A 
ATOM     76  C   UNL A   1      37.631  28.967  30.348  1.00  0.00     0.134 A 
ATOM     77  C   UNL A   1      38.088  29.429  28.057  1.00  0.00     0.134 A 
ATOM     78  F   UNL A   1      37.970  28.493  31.556  1.00  0.00    -0.206 F 
ATOM     79  C   UNL A   1      36.398  29.618  30.235  1.00  0.00     0.040 A 
ATOM     80  C   UNL A   1      36.854  30.072  27.927  1.00  0.00     0.040 A 
ATOM     81  F   UNL A   1      38.888  29.457  26.981  1.00  0.00    -0.206 F 
ATOM     82  C   UNL A   1      36.009  30.181  29.023  1.00  0.00     0.006 A 
ENDBRANCH  54  75
BRANCH  66  83
ATOM     83  C   UNL A   1      43.851  28.097  32.528  1.00  0.00     0.057 A 
ATOM     84  C   UNL A   1      43.781  26.707  32.348  1.00  0.00     0.134 A 
ATOM     85  C   UNL A   1      43.895  28.565  33.846  1.00  0.00     0.134 A 
ATOM     86  F   UNL A   1      43.844  26.161  31.126  1.00  0.00    -0.206 F 
ATOM     87  C   UNL A   1      43.701  25.828  33.432  1.00  0.00     0.040 A 
ATOM     88  C   UNL A   1      43.853  27.694  34.938  1.00  0.00     0.040 A 
ATOM     89  F   UNL A   1      44.025  29.878  34.094  1.00  0.00    -0.206 F 
ATOM     90  C   UNL A   1      43.743  26.322  34.733  1.00  0.00     0.006 A 
ENDBRANCH  66  83
ENDBRANCH  40  41
ENDBRANCH  33  35
ENDBRANCH  32  33
ENDBRANCH  31  32
ENDBRANCH   1  31
TORSDOF 16
ENDMDL
MODEL 3
REMARK VINA RESULT:     -11.9      2.067      2.815
REMARK SMILES NS(=O)(=O)c1ccc(-n2nc(C(F)F)cc2-c2ccc(C(=O)OCCOC(=O)c3ccc(-c4c5nc(c(-c6c(F)cccc6F)c6ccc([nH]6)c(-c6c(F)cccc6F)c6nc(c(-c7c(F)cccc7F)c7ccc4[nH]7)C=C6)C=C5)cc3)cc2)cc1
REMARK SMILES IDX 24 1 23 2 21 3 22 4 20 5 17 6 18 7 84 8 19 9 83 10 16 11
REMARK SMILES IDX 9 12 10 13 11 14 15 15 8 16 5 17 6 18 86 19 7 20 85 21 2 22
REMARK SMILES IDX 3 23 4 24 1 25 12 28 13 29 14 30 25 31 26 32 27 33 28 34
REMARK SMILES IDX 29 35 30 36 82 37 31 38 81 39 32 40 33 41 34 42 75 43 35 44
REMARK SMILES IDX 80 45 74 46 76 47 36 48 79 49 73 50 72 51 37 53 63 54 46 55
REMARK SMILES IDX 62 56 47 57 50 58 61 59 77 60 48 61 49 62 60 64 78 65 51 66
REMARK SMILES IDX 38 67 39 68 44 69 40 70 41 71 43 72 45 73 42 74 64 75 65 76
REMARK SMILES IDX 70 77 66 78 67 79 69 80 71 81 68 82 52 83 53 84 58 85 54 86
REMARK SMILES IDX 55 87 57 88 59 89 56 90
REMARK H PARENT 1 26 1 27 76 52 50 63
REMARK Flexibility Score: inf
ROOT
ATOM      1  C   UNL A   1      33.582  34.213  28.055  1.00  0.00     0.275 C 
ENDROOT
BRANCH   1   2
ATOM      2  O   UNL A   1      33.218  32.842  27.834  1.00  0.00    -0.458 OA
BRANCH   2   3
ATOM      3  C   UNL A   1      34.160  31.920  28.155  1.00  0.00     0.338 C 
ATOM      4  O   UNL A   1      35.083  32.071  28.940  1.00  0.00    -0.246 OA
BRANCH   3   5
ATOM      5  C   UNL A   1      33.868  30.633  27.474  1.00  0.00     0.060 A 
ATOM      6  C   UNL A   1      33.418  28.193  26.162  1.00  0.00     0.000 A 
ATOM      7  C   UNL A   1      34.699  28.522  26.628  1.00  0.00     0.011 A 
ATOM      8  C   UNL A   1      32.361  29.086  26.372  1.00  0.00     0.011 A 
ATOM      9  C   UNL A   1      34.924  29.734  27.281  1.00  0.00     0.016 A 
ATOM     10  C   UNL A   1      32.582  30.296  27.034  1.00  0.00     0.016 A 
BRANCH   6  11
ATOM     11  C   UNL A   1      33.206  26.963  25.403  1.00  0.00     0.075 A 
ATOM     12  N   UNL A   1      32.168  26.720  24.510  1.00  0.00    -0.233 N 
ATOM     13  N   UNL A   1      32.036  25.393  24.252  1.00  0.00    -0.166 NA
ATOM     14  C   UNL A   1      33.130  24.823  24.785  1.00  0.00     0.129 A 
ATOM     15  C   UNL A   1      33.882  25.765  25.523  1.00  0.00     0.060 A 
BRANCH  12  16
ATOM     16  C   UNL A   1      31.309  27.660  23.879  1.00  0.00     0.065 A 
ATOM     17  C   UNL A   1      29.619  29.531  22.686  1.00  0.00     0.082 A 
ATOM     18  C   UNL A   1      30.990  29.577  22.425  1.00  0.00     0.024 A 
ATOM     19  C   UNL A   1      29.082  28.547  23.523  1.00  0.00     0.024 A 
ATOM     20  C   UNL A   1      31.837  28.647  23.032  1.00  0.00     0.030 A 
ATOM     21  C   UNL A   1      29.925  27.591  24.097  1.00  0.00     0.030 A 
BRANCH  17  22
ATOM     22  S   UNL A   1      28.549  30.738  21.960  1.00  0.00     0.238 S 
ATOM     23  O   UNL A   1      27.986  30.193  20.745  1.00  0.00    -0.207 OA
ATOM     24  O   UNL A   1      29.204  32.021  22.016  1.00  0.00    -0.207 OA
BRANCH  22  25
ATOM     25  N   UNL A   1      27.258  30.821  23.037  1.00  0.00    -0.225 NA
ATOM     26  H   UNL A   1      27.426  31.566  23.714  1.00  0.00     0.137 HD
ATOM     27  H   UNL A   1      27.166  29.932  23.527  1.00  0.00     0.137 HD
ENDBRANCH  22  25
ENDBRANCH  17  22
ENDBRANCH  12  16
BRANCH  14  28
ATOM     28  C   UNL A   1      33.451  23.366  24.624  1.00  0.00     0.393 C 
ATOM     29  F   UNL A   1      32.624  22.565  25.350  1.00  0.00    -0.203 F 
ATOM     30  F   UNL A   1      33.342  22.969  23.326  1.00  0.00    -0.203 F 
ENDBRANCH  14  28
ENDBRANCH   6  11
ENDBRANCH   3   5
ENDBRANCH   2   3
ENDBRANCH   1   2
BRANCH   1  31
ATOM     31  C   UNL A   1      32.971  34.732  29.349  1.00  0.00     0.275 C 
BRANCH  31  32
ATOM     32  O   UNL A   1      33.977  35.154  30.274  1.00  0.00    -0.458 OA
BRANCH  32  33
ATOM     33  C   UNL A   1      33.834  34.706  31.542  1.00  0.00     0.338 C 
ATOM     34  O   UNL A   1      32.984  35.039  32.352  1.00  0.00    -0.246 OA
BRANCH  33  35
ATOM     35  C   UNL A   1      35.027  33.921  31.903  1.00  0.00     0.060 A 
ATOM     36  C   UNL A   1      36.272  34.514  31.674  1.00  0.00     0.016 A 
ATOM     37  C   UNL A   1      34.920  32.557  32.223  1.00  0.00     0.016 A 
ATOM     38  C   UNL A   1      37.390  33.705  31.607  1.00  0.00     0.010 A 
ATOM     39  C   UNL A   1      36.040  31.751  32.153  1.00  0.00     0.010 A 
ATOM     40  C   UNL A   1      37.252  32.321  31.778  1.00  0.00    -0.014 A 
BRANCH  40  41
ATOM     41  C   UNL A   1      38.439  31.508  31.583  1.00  0.00     0.031 A 
ATOM     42  C   UNL A   1      39.225  31.240  32.811  1.00  0.00     0.074 A 
ATOM     43  C   UNL A   1      38.777  30.958  30.402  1.00  0.00     0.049 A 
ATOM     44  N   UNL A   1      40.446  31.576  33.065  1.00  0.00    -0.248 NA
ATOM     45  C   UNL A   1      38.526  30.590  33.928  1.00  0.00     0.031 C 
ATOM     46  C   UNL A   1      37.979  30.871  29.177  1.00  0.00     0.029 A 
ATOM     47  N   UNL A   1      39.906  30.263  30.092  1.00  0.00    -0.354 N 
ATOM     48  C   UNL A   1      40.735  31.026  34.311  1.00  0.00     0.074 A 
ATOM     49  C   UNL A   1      39.489  30.538  34.846  1.00  0.00     0.031 C 
ATOM     50  C   UNL A   1      38.562  29.988  28.335  1.00  0.00     0.029 A 
ATOM     51  C   UNL A   1      39.828  29.555  28.905  1.00  0.00     0.049 A 
ATOM     52  H   UNL A   1      40.709  30.265  30.663  1.00  0.00     0.167 HD
ATOM     53  C   UNL A   1      42.012  30.832  34.734  1.00  0.00     0.037 A 
ATOM     54  C   UNL A   1      40.710  28.629  28.464  1.00  0.00     0.037 A 
ATOM     55  C   UNL A   1      42.950  31.649  34.013  1.00  0.00     0.049 A 
ATOM     56  C   UNL A   1      41.990  28.831  29.186  1.00  0.00     0.074 A 
ATOM     57  C   UNL A   1      43.120  33.008  33.832  1.00  0.00     0.029 A 
ATOM     58  N   UNL A   1      43.745  31.052  33.069  1.00  0.00    -0.354 N 
ATOM     59  N   UNL A   1      42.787  29.846  29.003  1.00  0.00    -0.248 NA
ATOM     60  C   UNL A   1      42.209  28.085  30.416  1.00  0.00     0.031 C 
ATOM     61  C   UNL A   1      43.612  33.149  32.501  1.00  0.00     0.029 A 
ATOM     62  C   UNL A   1      43.729  31.865  31.966  1.00  0.00     0.049 A 
ATOM     63  H   UNL A   1      44.234  30.203  33.164  1.00  0.00     0.167 HD
ATOM     64  C   UNL A   1      43.314  30.115  30.256  1.00  0.00     0.074 A 
ATOM     65  C   UNL A   1      43.015  28.934  31.057  1.00  0.00     0.031 C 
ATOM     66  C   UNL A   1      43.696  31.379  30.607  1.00  0.00     0.037 A 
BRANCH  53  67
ATOM     67  C   UNL A   1      42.436  29.660  35.580  1.00  0.00     0.057 A 
ATOM     68  C   UNL A   1      43.314  29.860  36.658  1.00  0.00     0.134 A 
ATOM     69  C   UNL A   1      42.239  28.315  35.205  1.00  0.00     0.134 A 
ATOM     70  F   UNL A   1      43.607  31.097  37.087  1.00  0.00    -0.206 F 
ATOM     71  C   UNL A   1      43.988  28.803  37.281  1.00  0.00     0.040 A 
ATOM     72  C   UNL A   1      42.865  27.248  35.854  1.00  0.00     0.040 A 
ATOM     73  F   UNL A   1      41.516  27.971  34.131  1.00  0.00    -0.206 F 
ATOM     74  C   UNL A   1      43.766  27.492  36.878  1.00  0.00     0.006 A 
ENDBRANCH  53  67
BRANCH  54  75
ATOM     75  C   UNL A   1      40.440  27.417  27.660  1.00  0.00     0.057 A 
ATOM     76  C   UNL A   1      41.091  27.195  26.440  1.00  0.00     0.134 A 
ATOM     77  C   UNL A   1      39.734  26.325  28.193  1.00  0.00     0.134 A 
ATOM     78  F   UNL A   1      41.826  28.163  25.874  1.00  0.00    -0.206 F 
ATOM     79  C   UNL A   1      41.059  25.952  25.796  1.00  0.00     0.040 A 
ATOM     80  C   UNL A   1      39.683  25.082  27.556  1.00  0.00     0.040 A 
ATOM     81  F   UNL A   1      39.142  26.400  29.394  1.00  0.00    -0.206 F 
ATOM     82  C   UNL A   1      40.360  24.888  26.358  1.00  0.00     0.006 A 
ENDBRANCH  54  75
BRANCH  66  83
ATOM     83  C   UNL A   1      43.809  32.404  29.514  1.00  0.00     0.057 A 
ATOM     84  C   UNL A   1      42.803  33.335  29.215  1.00  0.00     0.134 A 
ATOM     85  C   UNL A   1      45.027  32.547  28.840  1.00  0.00     0.134 A 
ATOM     86  F   UNL A   1      41.644  33.345  29.887  1.00  0.00    -0.206 F 
ATOM     87  C   UNL A   1      42.984  34.328  28.247  1.00  0.00     0.040 A 
ATOM     88  C   UNL A   1      45.232  33.557  27.897  1.00  0.00     0.040 A 
ATOM     89  F   UNL A   1      46.055  31.731  29.120  1.00  0.00    -0.206 F 
ATOM     90  C   UNL A   1      44.205  34.444  27.589  1.00  0.00     0.006 A 
ENDBRANCH  66  83
ENDBRANCH  40  41
ENDBRANCH  33  35
ENDBRANCH  32  33
ENDBRANCH  31  32
ENDBRANCH   1  31
TORSDOF 16
ENDMDL
