MODEL 1
REMARK VINA RESULT:     -13.0      0.000      0.000
REMARK SMILES Cc1ccc(C)c(-c2cc(C(=O)OCCOC(=O)c3ccc(-c4c5nc(c(-c6c(F)cccc6F)c6ccc([nH]6)c(-c6c(F)cccc6F)c6nc(c(-c7c(F)cccc7F)c7ccc4[nH]7)C=C6)C=C5)cc3)c3cc(C)ccc3n2)c1
REMARK SMILES IDX 15 1 14 2 13 3 11 4 12 5 10 6 8 7 9 8 80 9 79 10 73 11 78 12
REMARK SMILES IDX 74 13 77 14 75 15 76 16 7 17 1 18 2 19 3 20 81 21 4 22 5 23
REMARK SMILES IDX 6 24 16 25 17 26 18 27 19 28 20 29 72 30 21 31 71 32 22 33
REMARK SMILES IDX 23 34 24 35 65 36 25 37 70 38 64 39 66 40 26 41 69 42 63 43
REMARK SMILES IDX 62 44 27 46 53 47 36 48 52 49 37 50 40 51 51 52 67 53 38 54
REMARK SMILES IDX 39 55 50 57 68 58 41 59 28 60 29 61 34 62 30 63 31 64 33 65
REMARK SMILES IDX 35 66 32 67 54 68 55 69 60 70 56 71 57 72 59 73 61 74 58 75
REMARK SMILES IDX 42 76 43 77 48 78 44 79 45 80 47 81 49 82 46 83
REMARK H PARENT 66 45 40 56
REMARK Flexibility Score: inf
ROOT
ATOM      1  C   UNL A   1      41.157  20.219  26.236  1.00  0.00     0.275 C 
ENDROOT
BRANCH   1   2
ATOM      2  C   UNL A   1      40.465  21.565  26.442  1.00  0.00     0.275 C 
BRANCH   2   3
ATOM      3  O   UNL A   1      39.151  21.462  25.875  1.00  0.00    -0.458 OA
BRANCH   3   4
ATOM      4  C   UNL A   1      38.226  22.640  26.037  1.00  0.00     0.339 C 
ATOM      5  O   UNL A   1      39.085  23.522  26.305  1.00  0.00    -0.246 OA
BRANCH   4   6
ATOM      6  C   UNL A   1      36.068  22.639  25.802  1.00  0.00     0.071 A 
ATOM      7  C   UNL A   1      33.841  24.088  25.355  1.00  0.00     0.072 A 
ATOM      8  C   UNL A   1      35.105  23.863  25.947  1.00  0.00     0.045 A 
ATOM      9  N   UNL A   1      33.189  23.110  24.756  1.00  0.00    -0.248 NA
ATOM     10  C   UNL A   1      33.679  21.892  24.766  1.00  0.00     0.072 A 
ATOM     11  C   UNL A   1      34.998  21.481  25.215  1.00  0.00     0.015 A 
ATOM     12  C   UNL A   1      32.697  21.062  24.224  1.00  0.00     0.029 A 
ATOM     13  C   UNL A   1      35.025  20.005  24.968  1.00  0.00     0.014 A 
ATOM     14  C   UNL A   1      32.840  19.699  24.056  1.00  0.00     0.005 A 
ATOM     15  C   UNL A   1      34.029  19.146  24.438  1.00  0.00    -0.050 A 
ATOM     16  C   UNL A   1      34.301  17.680  24.275  1.00  0.00     0.044 C 
BRANCH   7  17
ATOM     17  C   UNL A   1      33.168  25.417  25.204  1.00  0.00     0.003 A 
ATOM     18  C   UNL A   1      31.645  28.123  27.518  1.00  0.00     0.044 C 
ATOM     19  C   UNL A   1      32.121  27.390  26.294  1.00  0.00    -0.050 A 
ATOM     20  C   UNL A   1      31.998  28.018  25.057  1.00  0.00     0.004 A 
ATOM     21  C   UNL A   1      32.689  26.098  26.356  1.00  0.00     0.014 A 
ATOM     22  C   UNL A   1      32.493  27.398  23.916  1.00  0.00     0.004 A 
ATOM     23  C   UNL A   1      33.109  26.127  23.979  1.00  0.00    -0.042 A 
ATOM     24  C   UNL A   1      33.701  25.622  22.691  1.00  0.00     0.045 C 
ENDBRANCH   7  17
ENDBRANCH   4   6
ENDBRANCH   3   4
ENDBRANCH   2   3
ENDBRANCH   1   2
BRANCH   1  25
ATOM     25  O   UNL A   1      42.603  20.262  26.391  1.00  0.00    -0.458 OA
BRANCH  25  26
ATOM     26  C   UNL A   1      43.426  20.249  25.302  1.00  0.00     0.338 C 
ATOM     27  O   UNL A   1      43.688  19.264  24.635  1.00  0.00    -0.246 OA
BRANCH  26  28
ATOM     28  C   UNL A   1      44.206  21.498  25.183  1.00  0.00     0.060 A 
ATOM     29  C   UNL A   1      45.409  21.810  26.507  1.00  0.00     0.016 A 
ATOM     30  C   UNL A   1      43.301  22.870  24.446  1.00  0.00     0.016 A 
ATOM     31  C   UNL A   1      45.678  23.538  27.123  1.00  0.00     0.010 A 
ATOM     32  C   UNL A   1      43.514  24.566  25.146  1.00  0.00     0.010 A 
ATOM     33  C   UNL A   1      44.658  24.888  26.499  1.00  0.00    -0.014 A 
BRANCH  33  34
ATOM     34  C   UNL A   1      44.213  26.081  27.308  1.00  0.00     0.031 A 
ATOM     35  C   UNL A   1      45.097  27.237  27.024  1.00  0.00     0.074 A 
ATOM     36  C   UNL A   1      43.021  26.374  27.920  1.00  0.00     0.049 A 
ATOM     37  N   UNL A   1      46.134  27.589  27.708  1.00  0.00    -0.248 NA
ATOM     38  C   UNL A   1      44.964  27.941  25.738  1.00  0.00     0.031 C 
ATOM     39  C   UNL A   1      41.790  25.586  28.056  1.00  0.00     0.029 A 
ATOM     40  N   UNL A   1      42.632  27.559  28.528  1.00  0.00    -0.354 N 
ATOM     41  C   UNL A   1      46.645  28.684  27.031  1.00  0.00     0.074 A 
ATOM     42  C   UNL A   1      46.117  28.610  25.698  1.00  0.00     0.031 C 
ATOM     43  C   UNL A   1      40.762  26.357  28.504  1.00  0.00     0.029 A 
ATOM     44  C   UNL A   1      41.264  27.674  28.847  1.00  0.00     0.049 A 
ATOM     45  H   UNL A   1      43.275  28.278  28.726  1.00  0.00     0.167 HD
ATOM     46  C   UNL A   1      47.166  29.756  27.685  1.00  0.00     0.037 A 
ATOM     47  C   UNL A   1      40.605  28.746  29.393  1.00  0.00     0.037 A 
ATOM     48  C   UNL A   1      47.322  29.483  29.094  1.00  0.00     0.049 A 
ATOM     49  C   UNL A   1      41.628  29.597  30.037  1.00  0.00     0.074 A 
ATOM     50  C   UNL A   1      47.958  28.502  29.830  1.00  0.00     0.029 A 
ATOM     51  N   UNL A   1      46.417  30.058  29.956  1.00  0.00    -0.354 N 
ATOM     52  N   UNL A   1      42.293  29.254  31.101  1.00  0.00    -0.248 NA
ATOM     53  C   UNL A   1      42.219  30.650  29.230  1.00  0.00     0.031 C 
ATOM     54  C   UNL A   1      47.068  28.205  30.903  1.00  0.00     0.029 A 
ATOM     55  C   UNL A   1      45.985  29.079  30.815  1.00  0.00     0.049 A 
ATOM     56  H   UNL A   1      46.132  31.000  29.957  1.00  0.00     0.167 HD
ATOM     57  C   UNL A   1      43.582  29.683  30.844  1.00  0.00     0.074 A 
ATOM     58  C   UNL A   1      43.463  30.602  29.712  1.00  0.00     0.031 C 
ATOM     59  C   UNL A   1      44.653  29.024  31.370  1.00  0.00     0.037 A 
BRANCH  46  60
ATOM     60  C   UNL A   1      47.186  31.157  27.129  1.00  0.00     0.057 A 
ATOM     61  C   UNL A   1      48.402  31.856  27.109  1.00  0.00     0.134 A 
ATOM     62  C   UNL A   1      46.046  31.932  26.819  1.00  0.00     0.134 A 
ATOM     63  F   UNL A   1      49.553  31.237  27.414  1.00  0.00    -0.206 F 
ATOM     64  C   UNL A   1      48.474  33.228  26.842  1.00  0.00     0.040 A 
ATOM     65  C   UNL A   1      46.113  33.286  26.487  1.00  0.00     0.040 A 
ATOM     66  F   UNL A   1      44.798  31.458  26.917  1.00  0.00    -0.206 F 
ATOM     67  C   UNL A   1      47.328  33.947  26.526  1.00  0.00     0.006 A 
ENDBRANCH  46  60
BRANCH  47  68
ATOM     68  C   UNL A   1      39.205  29.270  29.274  1.00  0.00     0.057 A 
ATOM     69  C   UNL A   1      38.597  29.520  28.023  1.00  0.00     0.134 A 
ATOM     70  C   UNL A   1      38.321  29.206  30.361  1.00  0.00     0.134 A 
ATOM     71  F   UNL A   1      39.331  29.554  26.901  1.00  0.00    -0.206 F 
ATOM     72  C   UNL A   1      37.205  29.666  27.864  1.00  0.00     0.040 A 
ATOM     73  C   UNL A   1      36.929  29.348  30.216  1.00  0.00     0.040 A 
ATOM     74  F   UNL A   1      38.772  28.901  31.586  1.00  0.00    -0.206 F 
ATOM     75  C   UNL A   1      36.364  29.565  28.965  1.00  0.00     0.006 A 
ENDBRANCH  47  68
BRANCH  59  76
ATOM     76  C   UNL A   1      44.397  27.987  32.434  1.00  0.00     0.057 A 
ATOM     77  C   UNL A   1      44.224  26.615  32.184  1.00  0.00     0.134 A 
ATOM     78  C   UNL A   1      44.491  28.370  33.776  1.00  0.00     0.134 A 
ATOM     79  F   UNL A   1      44.200  26.134  30.936  1.00  0.00    -0.206 F 
ATOM     80  C   UNL A   1      44.130  25.677  33.218  1.00  0.00     0.040 A 
ATOM     81  C   UNL A   1      44.430  27.440  34.818  1.00  0.00     0.040 A 
ATOM     82  F   UNL A   1      44.695  29.657  34.097  1.00  0.00    -0.206 F 
ATOM     83  C   UNL A   1      44.245  26.088  34.541  1.00  0.00     0.006 A 
ENDBRANCH  59  76
ENDBRANCH  33  34
ENDBRANCH  26  28
ENDBRANCH  25  26
ENDBRANCH   1  25
TORSDOF 12
ENDMDL
MODEL 2
REMARK VINA RESULT:     -12.9      3.510      8.004
REMARK SMILES Cc1ccc(C)c(-c2cc(C(=O)OCCOC(=O)c3ccc(-c4c5nc(c(-c6c(F)cccc6F)c6ccc([nH]6)c(-c6c(F)cccc6F)c6nc(c(-c7c(F)cccc7F)c7ccc4[nH]7)C=C6)C=C5)cc3)c3cc(C)ccc3n2)c1
REMARK SMILES IDX 15 1 14 2 13 3 11 4 12 5 10 6 8 7 9 8 80 9 79 10 73 11 78 12
REMARK SMILES IDX 74 13 77 14 75 15 76 16 7 17 1 18 2 19 3 20 81 21 4 22 5 23
REMARK SMILES IDX 6 24 16 25 17 26 18 27 19 28 20 29 72 30 21 31 71 32 22 33
REMARK SMILES IDX 23 34 24 35 65 36 25 37 70 38 64 39 66 40 26 41 69 42 63 43
REMARK SMILES IDX 62 44 27 46 53 47 36 48 52 49 37 50 40 51 51 52 67 53 38 54
REMARK SMILES IDX 39 55 50 57 68 58 41 59 28 60 29 61 34 62 30 63 31 64 33 65
REMARK SMILES IDX 35 66 32 67 54 68 55 69 60 70 56 71 57 72 59 73 61 74 58 75
REMARK SMILES IDX 42 76 43 77 48 78 44 79 45 80 47 81 49 82 46 83
REMARK H PARENT 66 45 40 56
REMARK Flexibility Score: inf
ROOT
ATOM      1  C   UNL A   1      35.155  32.663  29.481  1.00  0.00     0.275 C 
ENDROOT
BRANCH   1   2
ATOM      2  C   UNL A   1      34.886  32.364  28.007  1.00  0.00     0.275 C 
BRANCH   2   3
ATOM      3  O   UNL A   1      34.258  31.076  27.939  1.00  0.00    -0.458 OA
BRANCH   3   4
ATOM      4  C   UNL A   1      33.061  30.929  27.037  1.00  0.00     0.339 C 
ATOM      5  O   UNL A   1      32.491  32.023  27.296  1.00  0.00    -0.246 OA
BRANCH   4   6
ATOM      6  C   UNL A   1      32.627  29.263  25.714  1.00  0.00     0.071 A 
ATOM      7  C   UNL A   1      32.910  26.629  25.229  1.00  0.00     0.072 A 
ATOM      8  C   UNL A   1      33.381  27.894  25.647  1.00  0.00     0.045 A 
ATOM      9  N   UNL A   1      31.767  26.510  24.581  1.00  0.00    -0.248 NA
ATOM     10  C   UNL A   1      31.083  27.582  24.256  1.00  0.00     0.072 A 
ATOM     11  C   UNL A   1      31.334  28.948  24.686  1.00  0.00     0.015 A 
ATOM     12  C   UNL A   1      30.036  27.156  23.436  1.00  0.00     0.029 A 
ATOM     13  C   UNL A   1      30.238  29.740  24.046  1.00  0.00     0.014 A 
ATOM     14  C   UNL A   1      29.085  27.996  22.894  1.00  0.00     0.005 A 
ATOM     15  C   UNL A   1      29.181  29.324  23.196  1.00  0.00    -0.050 A 
ATOM     16  C   UNL A   1      28.185  30.320  22.682  1.00  0.00     0.044 C 
BRANCH   7  17
ATOM     17  C   UNL A   1      33.530  25.308  25.564  1.00  0.00     0.003 A 
ATOM     18  C   UNL A   1      37.069  23.734  25.557  1.00  0.00     0.044 C 
ATOM     19  C   UNL A   1      35.588  23.924  25.739  1.00  0.00    -0.050 A 
ATOM     20  C   UNL A   1      34.851  22.886  26.302  1.00  0.00     0.004 A 
ATOM     21  C   UNL A   1      34.925  25.114  25.365  1.00  0.00     0.014 A 
ATOM     22  C   UNL A   1      33.494  23.057  26.548  1.00  0.00     0.004 A 
ATOM     23  C   UNL A   1      32.834  24.264  26.223  1.00  0.00    -0.042 A 
ATOM     24  C   UNL A   1      31.393  24.357  26.646  1.00  0.00     0.045 C 
ENDBRANCH   7  17
ENDBRANCH   4   6
ENDBRANCH   3   4
ENDBRANCH   2   3
ENDBRANCH   1   2
BRANCH   1  25
ATOM     25  O   UNL A   1      35.429  31.483  30.288  1.00  0.00    -0.458 OA
BRANCH  25  26
ATOM     26  C   UNL A   1      36.704  31.172  30.664  1.00  0.00     0.338 C 
ATOM     27  O   UNL A   1      37.456  31.915  31.269  1.00  0.00    -0.246 OA
BRANCH  26  28
ATOM     28  C   UNL A   1      37.190  29.941  30.006  1.00  0.00     0.060 A 
ATOM     29  C   UNL A   1      37.763  28.623  31.116  1.00  0.00     0.016 A 
ATOM     30  C   UNL A   1      38.023  30.220  28.433  1.00  0.00     0.016 A 
ATOM     31  C   UNL A   1      39.227  27.588  30.645  1.00  0.00     0.010 A 
ATOM     32  C   UNL A   1      39.539  29.243  28.033  1.00  0.00     0.010 A 
ATOM     33  C   UNL A   1      40.159  27.971  29.149  1.00  0.00    -0.014 A 
BRANCH  33  34
ATOM     34  C   UNL A   1      41.648  27.794  28.989  1.00  0.00     0.031 A 
ATOM     35  C   UNL A   1      41.925  26.584  28.177  1.00  0.00     0.074 A 
ATOM     36  C   UNL A   1      42.690  28.675  29.126  1.00  0.00     0.049 A 
ATOM     37  N   UNL A   1      42.177  25.403  28.633  1.00  0.00    -0.248 NA
ATOM     38  C   UNL A   1      41.678  26.623  26.726  1.00  0.00     0.031 C 
ATOM     39  C   UNL A   1      42.714  30.079  29.550  1.00  0.00     0.029 A 
ATOM     40  N   UNL A   1      44.031  28.479  28.821  1.00  0.00    -0.354 N 
ATOM     41  C   UNL A   1      42.318  24.614  27.503  1.00  0.00     0.074 A 
ATOM     42  C   UNL A   1      41.662  25.321  26.439  1.00  0.00     0.031 C 
ATOM     43  C   UNL A   1      43.921  30.650  29.289  1.00  0.00     0.029 A 
ATOM     44  C   UNL A   1      44.841  29.632  28.816  1.00  0.00     0.049 A 
ATOM     45  H   UNL A   1      44.394  27.586  28.620  1.00  0.00     0.167 HD
ATOM     46  C   UNL A   1      43.251  23.627  27.425  1.00  0.00     0.037 A 
ATOM     47  C   UNL A   1      46.171  29.736  28.497  1.00  0.00     0.037 A 
ATOM     48  C   UNL A   1      43.860  23.382  28.710  1.00  0.00     0.049 A 
ATOM     49  C   UNL A   1      46.748  28.379  28.614  1.00  0.00     0.074 A 
ATOM     50  C   UNL A   1      43.382  23.074  29.970  1.00  0.00     0.029 A 
ATOM     51  N   UNL A   1      45.136  23.855  28.909  1.00  0.00    -0.354 N 
ATOM     52  N   UNL A   1      46.899  27.750  29.741  1.00  0.00    -0.248 NA
ATOM     53  C   UNL A   1      46.750  27.554  27.419  1.00  0.00     0.031 C 
ATOM     54  C   UNL A   1      44.181  23.840  30.868  1.00  0.00     0.029 A 
ATOM     55  C   UNL A   1      45.155  24.500  30.120  1.00  0.00     0.049 A 
ATOM     56  H   UNL A   1      45.898  23.750  28.294  1.00  0.00     0.167 HD
ATOM     57  C   UNL A   1      46.532  26.449  29.451  1.00  0.00     0.074 A 
ATOM     58  C   UNL A   1      46.522  26.369  27.990  1.00  0.00     0.031 C 
ATOM     59  C   UNL A   1      45.978  25.651  30.407  1.00  0.00     0.037 A 
BRANCH  46  60
ATOM     60  C   UNL A   1      43.869  23.150  26.136  1.00  0.00     0.057 A 
ATOM     61  C   UNL A   1      43.824  21.780  25.835  1.00  0.00     0.134 A 
ATOM     62  C   UNL A   1      44.694  23.921  25.287  1.00  0.00     0.134 A 
ATOM     63  F   UNL A   1      43.099  20.937  26.586  1.00  0.00    -0.206 F 
ATOM     64  C   UNL A   1      44.573  21.215  24.796  1.00  0.00     0.040 A 
ATOM     65  C   UNL A   1      45.393  23.379  24.208  1.00  0.00     0.040 A 
ATOM     66  F   UNL A   1      44.952  25.215  25.508  1.00  0.00    -0.206 F 
ATOM     67  C   UNL A   1      45.358  22.016  23.976  1.00  0.00     0.006 A 
ENDBRANCH  46  60
BRANCH  47  68
ATOM     68  C   UNL A   1      47.009  30.824  27.896  1.00  0.00     0.057 A 
ATOM     69  C   UNL A   1      46.542  31.640  26.841  1.00  0.00     0.134 A 
ATOM     70  C   UNL A   1      48.139  31.312  28.569  1.00  0.00     0.134 A 
ATOM     71  F   UNL A   1      45.439  31.306  26.155  1.00  0.00    -0.206 F 
ATOM     72  C   UNL A   1      47.141  32.868  26.500  1.00  0.00     0.040 A 
ATOM     73  C   UNL A   1      48.745  32.539  28.241  1.00  0.00     0.040 A 
ATOM     74  F   UNL A   1      48.629  30.664  29.634  1.00  0.00    -0.206 F 
ATOM     75  C   UNL A   1      48.241  33.328  27.213  1.00  0.00     0.006 A 
ENDBRANCH  47  68
BRANCH  59  76
ATOM     76  C   UNL A   1      46.013  26.128  31.838  1.00  0.00     0.057 A 
ATOM     77  C   UNL A   1      44.937  26.746  32.497  1.00  0.00     0.134 A 
ATOM     78  C   UNL A   1      47.123  25.801  32.624  1.00  0.00     0.134 A 
ATOM     79  F   UNL A   1      43.798  27.030  31.854  1.00  0.00    -0.206 F 
ATOM     80  C   UNL A   1      44.973  27.041  33.865  1.00  0.00     0.040 A 
ATOM     81  C   UNL A   1      47.160  26.061  33.997  1.00  0.00     0.040 A 
ATOM     82  F   UNL A   1      48.175  25.173  32.076  1.00  0.00    -0.206 F 
ATOM     83  C   UNL A   1      46.085  26.687  34.621  1.00  0.00     0.006 A 
ENDBRANCH  59  76
ENDBRANCH  33  34
ENDBRANCH  26  28
ENDBRANCH  25  26
ENDBRANCH   1  25
TORSDOF 12
ENDMDL
MODEL 3
REMARK VINA RESULT:     -12.8      3.691      8.273
REMARK SMILES Cc1ccc(C)c(-c2cc(C(=O)OCCOC(=O)c3ccc(-c4c5nc(c(-c6c(F)cccc6F)c6ccc([nH]6)c(-c6c(F)cccc6F)c6nc(c(-c7c(F)cccc7F)c7ccc4[nH]7)C=C6)C=C5)cc3)c3cc(C)ccc3n2)c1
REMARK SMILES IDX 15 1 14 2 13 3 11 4 12 5 10 6 8 7 9 8 80 9 79 10 73 11 78 12
REMARK SMILES IDX 74 13 77 14 75 15 76 16 7 17 1 18 2 19 3 20 81 21 4 22 5 23
REMARK SMILES IDX 6 24 16 25 17 26 18 27 19 28 20 29 72 30 21 31 71 32 22 33
REMARK SMILES IDX 23 34 24 35 65 36 25 37 70 38 64 39 66 40 26 41 69 42 63 43
REMARK SMILES IDX 62 44 27 46 53 47 36 48 52 49 37 50 40 51 51 52 67 53 38 54
REMARK SMILES IDX 39 55 50 57 68 58 41 59 28 60 29 61 34 62 30 63 31 64 33 65
REMARK SMILES IDX 35 66 32 67 54 68 55 69 60 70 56 71 57 72 59 73 61 74 58 75
REMARK SMILES IDX 42 76 43 77 48 78 44 79 45 80 47 81 49 82 46 83
REMARK H PARENT 66 45 40 56
REMARK Flexibility Score: inf
ROOT
ATOM      1  C   UNL A   1      35.156  32.147  30.001  1.00  0.00     0.275 C 
ENDROOT
BRANCH   1   2
ATOM      2  C   UNL A   1      34.876  32.150  28.499  1.00  0.00     0.275 C 
BRANCH   2   3
ATOM      3  O   UNL A   1      34.415  30.838  28.147  1.00  0.00    -0.458 OA
BRANCH   3   4
ATOM      4  C   UNL A   1      33.276  30.736  27.167  1.00  0.00     0.339 C 
ATOM      5  O   UNL A   1      32.729  31.849  27.394  1.00  0.00    -0.246 OA
BRANCH   4   6
ATOM      6  C   UNL A   1      32.871  29.091  25.811  1.00  0.00     0.071 A 
ATOM      7  C   UNL A   1      33.165  26.464  25.291  1.00  0.00     0.072 A 
ATOM      8  C   UNL A   1      33.626  27.723  25.739  1.00  0.00     0.045 A 
ATOM      9  N   UNL A   1      32.036  26.355  24.617  1.00  0.00    -0.248 NA
ATOM     10  C   UNL A   1      31.359  27.432  24.294  1.00  0.00     0.072 A 
ATOM     11  C   UNL A   1      31.600  28.791  24.750  1.00  0.00     0.015 A 
ATOM     12  C   UNL A   1      30.330  27.018  23.445  1.00  0.00     0.029 A 
ATOM     13  C   UNL A   1      30.518  29.593  24.099  1.00  0.00     0.014 A 
ATOM     14  C   UNL A   1      29.390  27.867  22.896  1.00  0.00     0.005 A 
ATOM     15  C   UNL A   1      29.480  29.190  23.220  1.00  0.00    -0.050 A 
ATOM     16  C   UNL A   1      28.494  30.194  22.700  1.00  0.00     0.044 C 
BRANCH   7  17
ATOM     17  C   UNL A   1      33.778  25.138  25.619  1.00  0.00     0.003 A 
ATOM     18  C   UNL A   1      37.281  23.495  25.452  1.00  0.00     0.044 C 
ATOM     19  C   UNL A   1      35.816  23.718  25.710  1.00  0.00    -0.050 A 
ATOM     20  C   UNL A   1      35.092  22.705  26.333  1.00  0.00     0.004 A 
ATOM     21  C   UNL A   1      35.156  24.913  25.348  1.00  0.00     0.014 A 
ATOM     22  C   UNL A   1      33.754  22.907  26.650  1.00  0.00     0.004 A 
ATOM     23  C   UNL A   1      33.100  24.121  26.336  1.00  0.00    -0.042 A 
ATOM     24  C   UNL A   1      31.686  24.251  26.835  1.00  0.00     0.045 C 
ENDBRANCH   7  17
ENDBRANCH   4   6
ENDBRANCH   3   4
ENDBRANCH   2   3
ENDBRANCH   1   2
BRANCH   1  25
ATOM     25  O   UNL A   1      36.536  32.450  30.350  1.00  0.00    -0.458 OA
BRANCH  25  26
ATOM     26  C   UNL A   1      37.430  31.451  30.606  1.00  0.00     0.338 C 
ATOM     27  O   UNL A   1      37.575  30.901  31.683  1.00  0.00    -0.246 OA
BRANCH  26  28
ATOM     28  C   UNL A   1      38.416  31.298  29.516  1.00  0.00     0.060 A 
ATOM     29  C   UNL A   1      37.981  30.106  28.217  1.00  0.00     0.016 A 
ATOM     30  C   UNL A   1      40.131  31.479  30.036  1.00  0.00     0.016 A 
ATOM     31  C   UNL A   1      39.300  29.051  27.451  1.00  0.00     0.010 A 
ATOM     32  C   UNL A   1      41.409  30.347  29.329  1.00  0.00     0.010 A 
ATOM     33  C   UNL A   1      40.988  29.116  28.082  1.00  0.00    -0.014 A 
BRANCH  33  34
ATOM     34  C   UNL A   1      41.935  27.944  28.143  1.00  0.00     0.031 A 
ATOM     35  C   UNL A   1      42.564  27.878  29.484  1.00  0.00     0.074 A 
ATOM     36  C   UNL A   1      42.030  26.809  27.379  1.00  0.00     0.049 A 
ATOM     37  N   UNL A   1      43.706  28.381  29.815  1.00  0.00    -0.248 NA
ATOM     38  C   UNL A   1      41.764  27.411  30.629  1.00  0.00     0.031 C 
ATOM     39  C   UNL A   1      41.284  26.384  26.189  1.00  0.00     0.029 A 
ATOM     40  N   UNL A   1      42.838  25.698  27.582  1.00  0.00    -0.354 N 
ATOM     41  C   UNL A   1      43.834  28.101  31.166  1.00  0.00     0.074 A 
ATOM     42  C   UNL A   1      42.505  27.848  31.647  1.00  0.00     0.031 C 
ATOM     43  C   UNL A   1      41.516  25.073  25.908  1.00  0.00     0.029 A 
ATOM     44  C   UNL A   1      42.549  24.568  26.792  1.00  0.00     0.049 A 
ATOM     45  H   UNL A   1      43.570  25.700  28.241  1.00  0.00     0.167 HD
ATOM     46  C   UNL A   1      45.025  27.748  31.719  1.00  0.00     0.037 A 
ATOM     47  C   UNL A   1      43.143  23.332  26.825  1.00  0.00     0.037 A 
ATOM     48  C   UNL A   1      46.111  27.942  30.788  1.00  0.00     0.049 A 
ATOM     49  C   UNL A   1      44.453  23.502  27.491  1.00  0.00     0.074 A 
ATOM     50  C   UNL A   1      46.573  29.008  30.041  1.00  0.00     0.029 A 
ATOM     51  N   UNL A   1      46.648  26.821  30.197  1.00  0.00    -0.354 N 
ATOM     52  N   UNL A   1      45.452  24.151  26.971  1.00  0.00    -0.248 NA
ATOM     53  C   UNL A   1      44.493  23.320  28.931  1.00  0.00     0.031 C 
ATOM     54  C   UNL A   1      46.927  28.452  28.777  1.00  0.00     0.029 A 
ATOM     55  C   UNL A   1      46.748  27.072  28.851  1.00  0.00     0.049 A 
ATOM     56  H   UNL A   1      46.912  25.992  30.655  1.00  0.00     0.167 HD
ATOM     57  C   UNL A   1      45.980  24.862  28.032  1.00  0.00     0.074 A 
ATOM     58  C   UNL A   1      45.398  24.255  29.229  1.00  0.00     0.031 C 
ATOM     59  C   UNL A   1      46.594  26.062  27.830  1.00  0.00     0.037 A 
BRANCH  46  60
ATOM     60  C   UNL A   1      45.163  26.889  32.950  1.00  0.00     0.057 A 
ATOM     61  C   UNL A   1      44.641  25.587  32.924  1.00  0.00     0.134 A 
ATOM     62  C   UNL A   1      45.578  27.341  34.222  1.00  0.00     0.134 A 
ATOM     63  F   UNL A   1      44.186  25.054  31.780  1.00  0.00    -0.206 F 
ATOM     64  C   UNL A   1      44.505  24.810  34.081  1.00  0.00     0.040 A 
ATOM     65  C   UNL A   1      45.508  26.551  35.371  1.00  0.00     0.040 A 
ATOM     66  F   UNL A   1      45.979  28.598  34.450  1.00  0.00    -0.206 F 
ATOM     67  C   UNL A   1      44.943  25.290  35.309  1.00  0.00     0.006 A 
ENDBRANCH  46  60
BRANCH  47  68
ATOM     68  C   UNL A   1      42.658  21.943  26.538  1.00  0.00     0.057 A 
ATOM     69  C   UNL A   1      43.342  21.072  25.662  1.00  0.00     0.134 A 
ATOM     70  C   UNL A   1      41.719  21.324  27.377  1.00  0.00     0.134 A 
ATOM     71  F   UNL A   1      44.300  21.536  24.846  1.00  0.00    -0.206 F 
ATOM     72  C   UNL A   1      43.127  19.680  25.643  1.00  0.00     0.040 A 
ATOM     73  C   UNL A   1      41.496  19.935  27.371  1.00  0.00     0.040 A 
ATOM     74  F   UNL A   1      41.061  22.036  28.303  1.00  0.00    -0.206 F 
ATOM     75  C   UNL A   1      42.209  19.105  26.512  1.00  0.00     0.006 A 
ENDBRANCH  47  68
BRANCH  59  76
ATOM     76  C   UNL A   1      46.911  26.468  26.413  1.00  0.00     0.057 A 
ATOM     77  C   UNL A   1      46.077  27.259  25.605  1.00  0.00     0.134 A 
ATOM     78  C   UNL A   1      48.183  26.183  25.905  1.00  0.00     0.134 A 
ATOM     79  F   UNL A   1      44.871  27.653  26.030  1.00  0.00    -0.206 F 
ATOM     80  C   UNL A   1      46.481  27.724  24.349  1.00  0.00     0.040 A 
ATOM     81  C   UNL A   1      48.612  26.667  24.666  1.00  0.00     0.040 A 
ATOM     82  F   UNL A   1      49.054  25.466  26.633  1.00  0.00    -0.206 F 
ATOM     83  C   UNL A   1      47.759  27.437  23.881  1.00  0.00     0.006 A 
ENDBRANCH  59  76
ENDBRANCH  33  34
ENDBRANCH  26  28
ENDBRANCH  25  26
ENDBRANCH   1  25
TORSDOF 12
ENDMDL
