MODEL 1
REMARK VINA RESULT:     -10.7      0.000      0.000
REMARK SMILES CC[C@H](C)[C@@H](NC(=O)c1csc(NC(C)=O)n1)C(=O)OCCOC(=O)c1ccc(-c2c3nc(c(-c4c(F)cccc4F)c4ccc([nH]4)c(-c4c(F)cccc4F)c4nc(c(-c5c(F)cccc5F)c5ccc2[nH]5)C=C4)C=C3)cc1
REMARK SMILES IDX 21 1 20 2 18 3 19 4 5 5 3 6 4 7 2 8 1 9 6 10 7 11 8 13 9 14
REMARK SMILES IDX 10 15 17 16 11 17 12 18 13 19 14 20 15 22 16 23 22 24 23 25
REMARK SMILES IDX 24 26 25 27 26 28 27 29 79 30 28 31 78 32 29 33 30 34 31 35
REMARK SMILES IDX 72 36 32 37 77 38 71 39 73 40 33 41 76 42 70 43 69 44 34 46
REMARK SMILES IDX 60 47 43 48 59 49 44 50 47 51 58 52 74 53 45 54 46 55 57 57
REMARK SMILES IDX 75 58 48 59 35 60 36 61 41 62 37 63 38 64 40 65 42 66 39 67
REMARK SMILES IDX 61 68 62 69 67 70 63 71 64 72 66 73 68 74 65 75 49 76 50 77
REMARK SMILES IDX 55 78 51 79 52 80 54 81 56 82 53 83
REMARK H PARENT 6 12 13 21 73 45 47 56
REMARK Flexibility Score: inf
ROOT
ATOM      1  C   UNL A   1      35.170  21.995  24.618  1.00  0.00     0.274 C 
ENDROOT
BRANCH   1   2
ATOM      2  O   UNL A   1      35.539  23.370  24.372  1.00  0.00    -0.461 OA
BRANCH   2   3
ATOM      3  C   UNL A   1      34.580  24.297  24.634  1.00  0.00     0.329 C 
ATOM      4  O   UNL A   1      34.757  25.290  25.332  1.00  0.00    -0.250 OA
BRANCH   3   5
ATOM      5  C   UNL A   1      33.218  23.992  23.977  1.00  0.00     0.195 C 
BRANCH   5   6
ATOM      6  C   UNL A   1      32.037  24.459  24.906  1.00  0.00     0.019 C 
ATOM      7  C   UNL A   1      30.655  24.280  24.254  1.00  0.00     0.010 C 
BRANCH   6   8
ATOM      8  C   UNL A   1      32.027  23.807  26.310  1.00  0.00     0.002 C 
ATOM      9  C   UNL A   1      30.731  23.098  26.693  1.00  0.00     0.004 C 
ENDBRANCH   6   8
ENDBRANCH   5   6
BRANCH   5  10
ATOM     10  N   UNL A   1      33.023  24.540  22.613  1.00  0.00    -0.337 N 
ATOM     11  C   UNL A   1      33.159  25.787  22.054  1.00  0.00     0.271 C 
ATOM     12  H   UNL A   1      32.733  23.859  21.964  1.00  0.00     0.164 HD
ATOM     13  O   UNL A   1      33.310  25.842  20.833  1.00  0.00    -0.267 OA
BRANCH  11  14
ATOM     14  C   UNL A   1      32.929  26.988  22.843  1.00  0.00     0.141 A 
ATOM     15  C   UNL A   1      31.670  27.546  22.986  1.00  0.00     0.102 A 
ATOM     16  N   UNL A   1      33.927  27.680  23.505  1.00  0.00    -0.215 NA
ATOM     17  S   UNL A   1      31.721  28.829  24.116  1.00  0.00    -0.104 S 
ATOM     18  C   UNL A   1      33.388  28.561  24.318  1.00  0.00     0.190 A 
BRANCH  18  19
ATOM     19  N   UNL A   1      34.137  29.148  25.306  1.00  0.00    -0.302 N 
ATOM     20  C   UNL A   1      34.138  28.813  26.640  1.00  0.00     0.223 C 
ATOM     21  H   UNL A   1      34.733  29.883  25.034  1.00  0.00     0.172 HD
ATOM     22  C   UNL A   1      35.180  29.561  27.436  1.00  0.00     0.114 C 
ATOM     23  O   UNL A   1      33.431  27.978  27.196  1.00  0.00    -0.275 OA
ENDBRANCH  18  19
ENDBRANCH  11  14
ENDBRANCH   5  10
ENDBRANCH   3   5
ENDBRANCH   2   3
ENDBRANCH   1   2
BRANCH   1  24
ATOM     24  C   UNL A   1      36.303  21.082  25.108  1.00  0.00     0.275 C 
BRANCH  24  25
ATOM     25  O   UNL A   1      37.606  21.631  24.822  1.00  0.00    -0.458 OA
BRANCH  25  26
ATOM     26  C   UNL A   1      38.602  21.230  25.635  1.00  0.00     0.338 C 
ATOM     27  O   UNL A   1      39.079  20.098  25.726  1.00  0.00    -0.246 OA
BRANCH  26  28
ATOM     28  C   UNL A   1      39.175  22.366  26.370  1.00  0.00     0.060 A 
ATOM     29  C   UNL A   1      38.689  23.646  26.089  1.00  0.00     0.016 A 
ATOM     30  C   UNL A   1      40.290  22.209  27.190  1.00  0.00     0.016 A 
ATOM     31  C   UNL A   1      39.320  24.779  26.586  1.00  0.00     0.010 A 
ATOM     32  C   UNL A   1      40.926  23.348  27.700  1.00  0.00     0.010 A 
ATOM     33  C   UNL A   1      40.463  24.637  27.374  1.00  0.00    -0.014 A 
BRANCH  33  34
ATOM     34  C   UNL A   1      41.245  25.838  27.740  1.00  0.00     0.031 A 
ATOM     35  C   UNL A   1      40.589  26.914  28.557  1.00  0.00     0.074 A 
ATOM     36  C   UNL A   1      42.538  25.949  27.390  1.00  0.00     0.049 A 
ATOM     37  N   UNL A   1      41.024  28.110  28.856  1.00  0.00    -0.248 NA
ATOM     38  C   UNL A   1      39.264  26.595  29.115  1.00  0.00     0.031 C 
ATOM     39  C   UNL A   1      43.315  24.930  26.688  1.00  0.00     0.029 A 
ATOM     40  N   UNL A   1      43.421  26.982  27.574  1.00  0.00    -0.354 N 
ATOM     41  C   UNL A   1      40.017  28.698  29.609  1.00  0.00     0.074 A 
ATOM     42  C   UNL A   1      38.950  27.728  29.725  1.00  0.00     0.031 C 
ATOM     43  C   UNL A   1      44.558  25.397  26.482  1.00  0.00     0.029 A 
ATOM     44  C   UNL A   1      44.644  26.763  26.991  1.00  0.00     0.049 A 
ATOM     45  H   UNL A   1      43.199  27.800  28.075  1.00  0.00     0.167 HD
ATOM     46  C   UNL A   1      39.987  29.940  30.146  1.00  0.00     0.037 A 
ATOM     47  C   UNL A   1      45.695  27.591  26.844  1.00  0.00     0.037 A 
ATOM     48  C   UNL A   1      41.057  30.895  30.039  1.00  0.00     0.049 A 
ATOM     49  C   UNL A   1      45.609  28.993  27.378  1.00  0.00     0.074 A 
ATOM     50  C   UNL A   1      41.114  32.190  30.524  1.00  0.00     0.029 A 
ATOM     51  N   UNL A   1      42.266  30.650  29.406  1.00  0.00    -0.354 N 
ATOM     52  N   UNL A   1      44.627  29.571  28.029  1.00  0.00    -0.248 NA
ATOM     53  C   UNL A   1      46.769  29.865  27.144  1.00  0.00     0.031 C 
ATOM     54  C   UNL A   1      42.349  32.738  30.161  1.00  0.00     0.029 A 
ATOM     55  C   UNL A   1      43.072  31.773  29.479  1.00  0.00     0.049 A 
ATOM     56  H   UNL A   1      42.514  29.803  28.971  1.00  0.00     0.167 HD
ATOM     57  C   UNL A   1      45.054  30.866  28.291  1.00  0.00     0.074 A 
ATOM     58  C   UNL A   1      46.389  30.986  27.742  1.00  0.00     0.031 C 
ATOM     59  C   UNL A   1      44.399  31.867  28.927  1.00  0.00     0.037 A 
BRANCH  46  60
ATOM     60  C   UNL A   1      38.734  30.346  30.859  1.00  0.00     0.057 A 
ATOM     61  C   UNL A   1      37.669  30.962  30.191  1.00  0.00     0.134 A 
ATOM     62  C   UNL A   1      38.590  30.106  32.231  1.00  0.00     0.134 A 
ATOM     63  F   UNL A   1      37.756  31.236  28.880  1.00  0.00    -0.206 F 
ATOM     64  C   UNL A   1      36.507  31.339  30.867  1.00  0.00     0.040 A 
ATOM     65  C   UNL A   1      37.426  30.462  32.914  1.00  0.00     0.040 A 
ATOM     66  F   UNL A   1      39.576  29.523  32.927  1.00  0.00    -0.206 F 
ATOM     67  C   UNL A   1      36.383  31.085  32.232  1.00  0.00     0.006 A 
ENDBRANCH  46  60
BRANCH  47  68
ATOM     68  C   UNL A   1      46.899  27.133  26.109  1.00  0.00     0.057 A 
ATOM     69  C   UNL A   1      47.019  27.316  24.728  1.00  0.00     0.134 A 
ATOM     70  C   UNL A   1      47.954  26.494  26.774  1.00  0.00     0.134 A 
ATOM     71  F   UNL A   1      46.030  27.900  24.037  1.00  0.00    -0.206 F 
ATOM     72  C   UNL A   1      48.143  26.872  24.030  1.00  0.00     0.040 A 
ATOM     73  C   UNL A   1      49.092  26.064  26.091  1.00  0.00     0.040 A 
ATOM     74  F   UNL A   1      47.895  26.288  28.097  1.00  0.00    -0.206 F 
ATOM     75  C   UNL A   1      49.187  26.249  24.713  1.00  0.00     0.006 A 
ENDBRANCH  47  68
BRANCH  59  76
ATOM     76  C   UNL A   1      45.126  33.168  29.080  1.00  0.00     0.057 A 
ATOM     77  C   UNL A   1      45.964  33.414  30.173  1.00  0.00     0.134 A 
ATOM     78  C   UNL A   1      45.014  34.166  28.106  1.00  0.00     0.134 A 
ATOM     79  F   UNL A   1      46.100  32.500  31.146  1.00  0.00    -0.206 F 
ATOM     80  C   UNL A   1      46.657  34.618  30.300  1.00  0.00     0.040 A 
ATOM     81  C   UNL A   1      45.717  35.367  28.212  1.00  0.00     0.040 A 
ATOM     82  F   UNL A   1      44.231  33.986  27.032  1.00  0.00    -0.206 F 
ATOM     83  C   UNL A   1      46.539  35.597  29.313  1.00  0.00     0.006 A 
ENDBRANCH  59  76
ENDBRANCH  33  34
ENDBRANCH  26  28
ENDBRANCH  25  26
ENDBRANCH  24  25
ENDBRANCH   1  24
TORSDOF 16
ENDMDL
MODEL 2
REMARK VINA RESULT:     -10.7      1.160      2.135
REMARK SMILES CC[C@H](C)[C@@H](NC(=O)c1csc(NC(C)=O)n1)C(=O)OCCOC(=O)c1ccc(-c2c3nc(c(-c4c(F)cccc4F)c4ccc([nH]4)c(-c4c(F)cccc4F)c4nc(c(-c5c(F)cccc5F)c5ccc2[nH]5)C=C4)C=C3)cc1
REMARK SMILES IDX 21 1 20 2 18 3 19 4 5 5 3 6 4 7 2 8 1 9 6 10 7 11 8 13 9 14
REMARK SMILES IDX 10 15 17 16 11 17 12 18 13 19 14 20 15 22 16 23 22 24 23 25
REMARK SMILES IDX 24 26 25 27 26 28 27 29 79 30 28 31 78 32 29 33 30 34 31 35
REMARK SMILES IDX 72 36 32 37 77 38 71 39 73 40 33 41 76 42 70 43 69 44 34 46
REMARK SMILES IDX 60 47 43 48 59 49 44 50 47 51 58 52 74 53 45 54 46 55 57 57
REMARK SMILES IDX 75 58 48 59 35 60 36 61 41 62 37 63 38 64 40 65 42 66 39 67
REMARK SMILES IDX 61 68 62 69 67 70 63 71 64 72 66 73 68 74 65 75 49 76 50 77
REMARK SMILES IDX 55 78 51 79 52 80 54 81 56 82 53 83
REMARK H PARENT 6 12 13 21 73 45 47 56
REMARK Flexibility Score: inf
ROOT
ATOM      1  C   UNL A   1      35.045  21.599  24.498  1.00  0.00     0.274 C 
ENDROOT
BRANCH   1   2
ATOM      2  O   UNL A   1      35.328  22.719  23.630  1.00  0.00    -0.461 OA
BRANCH   2   3
ATOM      3  C   UNL A   1      34.459  23.762  23.705  1.00  0.00     0.329 C 
ATOM      4  O   UNL A   1      34.716  24.833  24.245  1.00  0.00    -0.250 OA
BRANCH   3   5
ATOM      5  C   UNL A   1      33.090  23.485  23.048  1.00  0.00     0.195 C 
BRANCH   5   6
ATOM      6  C   UNL A   1      31.918  23.890  24.018  1.00  0.00     0.019 C 
ATOM      7  C   UNL A   1      30.527  23.645  23.410  1.00  0.00     0.010 C 
BRANCH   6   8
ATOM      8  C   UNL A   1      31.986  23.232  25.418  1.00  0.00     0.002 C 
ATOM      9  C   UNL A   1      31.988  24.200  26.596  1.00  0.00     0.004 C 
ENDBRANCH   6   8
ENDBRANCH   5   6
BRANCH   5  10
ATOM     10  N   UNL A   1      32.874  24.109  21.720  1.00  0.00    -0.337 N 
ATOM     11  C   UNL A   1      32.896  25.401  21.254  1.00  0.00     0.271 C 
ATOM     12  H   UNL A   1      32.670  23.451  21.017  1.00  0.00     0.164 HD
ATOM     13  O   UNL A   1      33.071  25.559  20.046  1.00  0.00    -0.267 OA
BRANCH  11  14
ATOM     14  C   UNL A   1      32.525  26.512  22.119  1.00  0.00     0.141 A 
ATOM     15  C   UNL A   1      33.463  27.391  22.631  1.00  0.00     0.102 A 
ATOM     16  N   UNL A   1      31.227  26.784  22.512  1.00  0.00    -0.215 NA
ATOM     17  S   UNL A   1      32.679  28.674  23.448  1.00  0.00    -0.104 S 
ATOM     18  C   UNL A   1      31.177  27.969  23.077  1.00  0.00     0.190 A 
BRANCH  18  19
ATOM     19  N   UNL A   1      29.974  28.601  23.268  1.00  0.00    -0.302 N 
ATOM     20  C   UNL A   1      29.348  29.451  22.386  1.00  0.00     0.223 C 
ATOM     21  H   UNL A   1      29.513  28.429  24.120  1.00  0.00     0.172 HD
ATOM     22  C   UNL A   1      27.971  29.866  22.843  1.00  0.00     0.114 C 
ATOM     23  O   UNL A   1      29.775  29.846  21.306  1.00  0.00    -0.275 OA
ENDBRANCH  18  19
ENDBRANCH  11  14
ENDBRANCH   5  10
ENDBRANCH   3   5
ENDBRANCH   2   3
ENDBRANCH   1   2
BRANCH   1  24
ATOM     24  C   UNL A   1      36.272  20.899  25.098  1.00  0.00     0.275 C 
BRANCH  24  25
ATOM     25  O   UNL A   1      37.482  21.661  24.903  1.00  0.00    -0.458 OA
BRANCH  25  26
ATOM     26  C   UNL A   1      38.546  21.264  25.628  1.00  0.00     0.338 C 
ATOM     27  O   UNL A   1      39.065  20.147  25.639  1.00  0.00    -0.246 OA
BRANCH  26  28
ATOM     28  C   UNL A   1      39.133  22.391  26.365  1.00  0.00     0.060 A 
ATOM     29  C   UNL A   1      38.657  23.677  26.093  1.00  0.00     0.016 A 
ATOM     30  C   UNL A   1      40.251  22.220  27.179  1.00  0.00     0.016 A 
ATOM     31  C   UNL A   1      39.301  24.801  26.593  1.00  0.00     0.010 A 
ATOM     32  C   UNL A   1      40.899  23.350  27.692  1.00  0.00     0.010 A 
ATOM     33  C   UNL A   1      40.446  24.645  27.375  1.00  0.00    -0.014 A 
BRANCH  33  34
ATOM     34  C   UNL A   1      41.240  25.837  27.744  1.00  0.00     0.031 A 
ATOM     35  C   UNL A   1      40.602  26.908  28.581  1.00  0.00     0.074 A 
ATOM     36  C   UNL A   1      42.529  25.944  27.377  1.00  0.00     0.049 A 
ATOM     37  N   UNL A   1      41.050  28.098  28.887  1.00  0.00    -0.248 NA
ATOM     38  C   UNL A   1      39.284  26.591  29.154  1.00  0.00     0.031 C 
ATOM     39  C   UNL A   1      43.290  24.928  26.653  1.00  0.00     0.029 A 
ATOM     40  N   UNL A   1      43.421  26.969  27.560  1.00  0.00    -0.354 N 
ATOM     41  C   UNL A   1      40.057  28.684  29.661  1.00  0.00     0.074 A 
ATOM     42  C   UNL A   1      38.985  27.719  29.781  1.00  0.00     0.031 C 
ATOM     43  C   UNL A   1      44.533  25.389  26.435  1.00  0.00     0.029 A 
ATOM     44  C   UNL A   1      44.635  26.750  26.957  1.00  0.00     0.049 A 
ATOM     45  H   UNL A   1      43.211  27.783  28.073  1.00  0.00     0.167 HD
ATOM     46  C   UNL A   1      40.042  29.919  30.213  1.00  0.00     0.037 A 
ATOM     47  C   UNL A   1      45.689  27.572  26.806  1.00  0.00     0.037 A 
ATOM     48  C   UNL A   1      41.117  30.869  30.101  1.00  0.00     0.049 A 
ATOM     49  C   UNL A   1      45.619  28.969  27.357  1.00  0.00     0.074 A 
ATOM     50  C   UNL A   1      41.188  32.158  30.599  1.00  0.00     0.029 A 
ATOM     51  N   UNL A   1      42.315  30.623  29.449  1.00  0.00    -0.354 N 
ATOM     52  N   UNL A   1      44.650  29.545  28.027  1.00  0.00    -0.248 NA
ATOM     53  C   UNL A   1      46.781  29.836  27.116  1.00  0.00     0.031 C 
ATOM     54  C   UNL A   1      42.421  32.702  30.226  1.00  0.00     0.029 A 
ATOM     55  C   UNL A   1      43.129  31.741  29.523  1.00  0.00     0.049 A 
ATOM     56  H   UNL A   1      42.552  29.780  29.000  1.00  0.00     0.167 HD
ATOM     57  C   UNL A   1      45.088  30.835  28.298  1.00  0.00     0.074 A 
ATOM     58  C   UNL A   1      46.417  30.953  27.732  1.00  0.00     0.031 C 
ATOM     59  C   UNL A   1      44.449  31.833  28.954  1.00  0.00     0.037 A 
BRANCH  46  60
ATOM     60  C   UNL A   1      38.802  30.325  30.947  1.00  0.00     0.057 A 
ATOM     61  C   UNL A   1      38.636  30.074  32.314  1.00  0.00     0.134 A 
ATOM     62  C   UNL A   1      37.766  30.987  30.277  1.00  0.00     0.134 A 
ATOM     63  F   UNL A   1      39.584  29.425  33.007  1.00  0.00    -0.206 F 
ATOM     64  C   UNL A   1      37.473  30.455  32.987  1.00  0.00     0.040 A 
ATOM     65  C   UNL A   1      36.607  31.388  30.943  1.00  0.00     0.040 A 
ATOM     66  F   UNL A   1      37.864  31.253  28.966  1.00  0.00    -0.206 F 
ATOM     67  C   UNL A   1      36.457  31.118  32.301  1.00  0.00     0.006 A 
ENDBRANCH  46  60
BRANCH  47  68
ATOM     68  C   UNL A   1      46.880  27.115  26.049  1.00  0.00     0.057 A 
ATOM     69  C   UNL A   1      47.929  26.444  26.685  1.00  0.00     0.134 A 
ATOM     70  C   UNL A   1      46.998  27.350  24.674  1.00  0.00     0.134 A 
ATOM     71  F   UNL A   1      47.881  26.214  28.005  1.00  0.00    -0.206 F 
ATOM     72  C   UNL A   1      49.060  26.027  25.981  1.00  0.00     0.040 A 
ATOM     73  C   UNL A   1      48.113  26.920  23.954  1.00  0.00     0.040 A 
ATOM     74  F   UNL A   1      46.025  27.990  24.009  1.00  0.00    -0.206 F 
ATOM     75  C   UNL A   1      49.151  26.260  24.609  1.00  0.00     0.006 A 
ENDBRANCH  47  68
BRANCH  59  76
ATOM     76  C   UNL A   1      45.186  33.127  29.112  1.00  0.00     0.057 A 
ATOM     77  C   UNL A   1      46.069  33.342  30.176  1.00  0.00     0.134 A 
ATOM     78  C   UNL A   1      45.039  34.151  28.169  1.00  0.00     0.134 A 
ATOM     79  F   UNL A   1      46.241  32.403  31.118  1.00  0.00    -0.206 F 
ATOM     80  C   UNL A   1      46.771  34.541  30.305  1.00  0.00     0.040 A 
ATOM     81  C   UNL A   1      45.749  35.347  28.278  1.00  0.00     0.040 A 
ATOM     82  F   UNL A   1      44.212  34.002  27.123  1.00  0.00    -0.206 F 
ATOM     83  C   UNL A   1      46.616  35.546  29.351  1.00  0.00     0.006 A 
ENDBRANCH  59  76
ENDBRANCH  33  34
ENDBRANCH  26  28
ENDBRANCH  25  26
ENDBRANCH  24  25
ENDBRANCH   1  24
TORSDOF 16
ENDMDL
MODEL 3
REMARK VINA RESULT:     -10.6      1.700      2.368
REMARK SMILES CC[C@H](C)[C@@H](NC(=O)c1csc(NC(C)=O)n1)C(=O)OCCOC(=O)c1ccc(-c2c3nc(c(-c4c(F)cccc4F)c4ccc([nH]4)c(-c4c(F)cccc4F)c4nc(c(-c5c(F)cccc5F)c5ccc2[nH]5)C=C4)C=C3)cc1
REMARK SMILES IDX 21 1 20 2 18 3 19 4 5 5 3 6 4 7 2 8 1 9 6 10 7 11 8 13 9 14
REMARK SMILES IDX 10 15 17 16 11 17 12 18 13 19 14 20 15 22 16 23 22 24 23 25
REMARK SMILES IDX 24 26 25 27 26 28 27 29 79 30 28 31 78 32 29 33 30 34 31 35
REMARK SMILES IDX 72 36 32 37 77 38 71 39 73 40 33 41 76 42 70 43 69 44 34 46
REMARK SMILES IDX 60 47 43 48 59 49 44 50 47 51 58 52 74 53 45 54 46 55 57 57
REMARK SMILES IDX 75 58 48 59 35 60 36 61 41 62 37 63 38 64 40 65 42 66 39 67
REMARK SMILES IDX 61 68 62 69 67 70 63 71 64 72 66 73 68 74 65 75 49 76 50 77
REMARK SMILES IDX 55 78 51 79 52 80 54 81 56 82 53 83
REMARK H PARENT 6 12 13 21 73 45 47 56
REMARK Flexibility Score: inf
ROOT
ATOM      1  C   UNL A   1      35.869  20.433  25.018  1.00  0.00     0.274 C 
ENDROOT
BRANCH   1   2
ATOM      2  O   UNL A   1      35.023  21.603  25.076  1.00  0.00    -0.461 OA
BRANCH   2   3
ATOM      3  C   UNL A   1      34.086  21.609  26.061  1.00  0.00     0.329 C 
ATOM      4  O   UNL A   1      34.328  21.374  27.240  1.00  0.00    -0.250 OA
BRANCH   3   5
ATOM      5  C   UNL A   1      32.661  21.935  25.568  1.00  0.00     0.195 C 
BRANCH   5   6
ATOM      6  C   UNL A   1      32.089  20.749  24.705  1.00  0.00     0.019 C 
ATOM      7  C   UNL A   1      32.317  20.944  23.196  1.00  0.00     0.010 C 
BRANCH   6   8
ATOM      8  C   UNL A   1      32.598  19.348  25.121  1.00  0.00     0.002 C 
ATOM      9  C   UNL A   1      32.615  18.302  24.011  1.00  0.00     0.004 C 
ENDBRANCH   6   8
ENDBRANCH   5   6
BRANCH   5  10
ATOM     10  N   UNL A   1      31.682  22.300  26.620  1.00  0.00    -0.337 N 
ATOM     11  C   UNL A   1      30.742  23.293  26.751  1.00  0.00     0.271 C 
ATOM     12  H   UNL A   1      31.712  21.696  27.397  1.00  0.00     0.164 HD
ATOM     13  O   UNL A   1      29.825  23.097  27.549  1.00  0.00    -0.267 OA
BRANCH  11  14
ATOM     14  C   UNL A   1      30.940  24.594  26.129  1.00  0.00     0.141 A 
ATOM     15  C   UNL A   1      30.623  24.832  24.802  1.00  0.00     0.102 A 
ATOM     16  N   UNL A   1      31.464  25.693  26.785  1.00  0.00    -0.215 NA
ATOM     17  S   UNL A   1      30.804  26.496  24.445  1.00  0.00    -0.104 S 
ATOM     18  C   UNL A   1      31.296  26.768  26.050  1.00  0.00     0.190 A 
BRANCH  18  19
ATOM     19  N   UNL A   1      31.439  28.018  26.597  1.00  0.00    -0.302 N 
ATOM     20  C   UNL A   1      32.454  28.911  26.343  1.00  0.00     0.223 C 
ATOM     21  H   UNL A   1      30.748  28.305  27.236  1.00  0.00     0.172 HD
ATOM     22  C   UNL A   1      32.241  30.251  27.003  1.00  0.00     0.114 C 
ATOM     23  O   UNL A   1      33.440  28.731  25.635  1.00  0.00    -0.275 OA
ENDBRANCH  18  19
ENDBRANCH  11  14
ENDBRANCH   5  10
ENDBRANCH   3   5
ENDBRANCH   2   3
ENDBRANCH   1   2
BRANCH   1  24
ATOM     24  C   UNL A   1      37.354  20.702  24.738  1.00  0.00     0.275 C 
BRANCH  24  25
ATOM     25  O   UNL A   1      37.884  21.751  25.574  1.00  0.00    -0.458 OA
BRANCH  25  26
ATOM     26  C   UNL A   1      39.089  21.508  26.126  1.00  0.00     0.338 C 
ATOM     27  O   UNL A   1      39.741  20.465  26.060  1.00  0.00    -0.246 OA
BRANCH  26  28
ATOM     28  C   UNL A   1      39.633  22.716  26.760  1.00  0.00     0.060 A 
ATOM     29  C   UNL A   1      39.215  23.960  26.278  1.00  0.00     0.016 A 
ATOM     30  C   UNL A   1      40.668  22.641  27.690  1.00  0.00     0.016 A 
ATOM     31  C   UNL A   1      39.838  25.132  26.684  1.00  0.00     0.010 A 
ATOM     32  C   UNL A   1      41.294  23.821  28.109  1.00  0.00     0.010 A 
ATOM     33  C   UNL A   1      40.903  25.068  27.583  1.00  0.00    -0.014 A 
BRANCH  33  34
ATOM     34  C   UNL A   1      41.690  26.289  27.865  1.00  0.00     0.031 A 
ATOM     35  C   UNL A   1      41.063  27.390  28.670  1.00  0.00     0.074 A 
ATOM     36  C   UNL A   1      42.963  26.397  27.447  1.00  0.00     0.049 A 
ATOM     37  N   UNL A   1      41.501  28.600  28.902  1.00  0.00    -0.248 NA
ATOM     38  C   UNL A   1      39.771  27.082  29.304  1.00  0.00     0.031 C 
ATOM     39  C   UNL A   1      43.716  25.357  26.748  1.00  0.00     0.029 A 
ATOM     40  N   UNL A   1      43.844  27.443  27.548  1.00  0.00    -0.354 N 
ATOM     41  C   UNL A   1      40.526  29.208  29.680  1.00  0.00     0.074 A 
ATOM     42  C   UNL A   1      39.475  28.235  29.885  1.00  0.00     0.031 C 
ATOM     43  C   UNL A   1      44.943  25.826  26.464  1.00  0.00     0.029 A 
ATOM     44  C   UNL A   1      45.039  27.212  26.915  1.00  0.00     0.049 A 
ATOM     45  H   UNL A   1      43.638  28.278  28.028  1.00  0.00     0.167 HD
ATOM     46  C   UNL A   1      40.508  30.470  30.171  1.00  0.00     0.037 A 
ATOM     47  C   UNL A   1      46.073  28.042  26.685  1.00  0.00     0.037 A 
ATOM     48  C   UNL A   1      41.563  31.429  29.974  1.00  0.00     0.049 A 
ATOM     49  C   UNL A   1      45.999  29.464  27.169  1.00  0.00     0.074 A 
ATOM     50  C   UNL A   1      41.629  32.742  30.406  1.00  0.00     0.029 A 
ATOM     51  N   UNL A   1      42.741  31.169  29.293  1.00  0.00    -0.354 N 
ATOM     52  N   UNL A   1      45.044  30.058  27.845  1.00  0.00    -0.248 NA
ATOM     53  C   UNL A   1      47.137  30.335  26.845  1.00  0.00     0.031 C 
ATOM     54  C   UNL A   1      42.840  33.286  29.963  1.00  0.00     0.029 A 
ATOM     55  C   UNL A   1      43.539  32.301  29.283  1.00  0.00     0.049 A 
ATOM     56  H   UNL A   1      42.977  30.308  28.879  1.00  0.00     0.167 HD
ATOM     57  C   UNL A   1      45.469  31.366  28.036  1.00  0.00     0.074 A 
ATOM     58  C   UNL A   1      46.776  31.475  27.418  1.00  0.00     0.031 C 
ATOM     59  C   UNL A   1      44.836  32.385  28.664  1.00  0.00     0.037 A 
BRANCH  46  60
ATOM     60  C   UNL A   1      39.288  30.893  30.927  1.00  0.00     0.057 A 
ATOM     61  C   UNL A   1      38.194  31.492  30.292  1.00  0.00     0.134 A 
ATOM     62  C   UNL A   1      39.204  30.687  32.310  1.00  0.00     0.134 A 
ATOM     63  F   UNL A   1      38.222  31.734  28.973  1.00  0.00    -0.206 F 
ATOM     64  C   UNL A   1      37.062  31.885  31.009  1.00  0.00     0.040 A 
ATOM     65  C   UNL A   1      38.072  31.059  33.035  1.00  0.00     0.040 A 
ATOM     66  F   UNL A   1      40.221  30.121  32.976  1.00  0.00    -0.206 F 
ATOM     67  C   UNL A   1      36.998  31.664  32.384  1.00  0.00     0.006 A 
ENDBRANCH  46  60
BRANCH  47  68
ATOM     68  C   UNL A   1      47.245  27.566  25.911  1.00  0.00     0.057 A 
ATOM     69  C   UNL A   1      47.264  27.626  24.514  1.00  0.00     0.134 A 
ATOM     70  C   UNL A   1      48.369  27.032  26.553  1.00  0.00     0.134 A 
ATOM     71  F   UNL A   1      46.205  28.105  23.845  1.00  0.00    -0.206 F 
ATOM     72  C   UNL A   1      48.358  27.165  23.780  1.00  0.00     0.040 A 
ATOM     73  C   UNL A   1      49.477  26.586  25.832  1.00  0.00     0.040 A 
ATOM     74  F   UNL A   1      48.409  26.947  27.890  1.00  0.00    -0.206 F 
ATOM     75  C   UNL A   1      49.471  26.648  24.440  1.00  0.00     0.006 A 
ENDBRANCH  47  68
BRANCH  59  76
ATOM     76  C   UNL A   1      45.557  33.697  28.732  1.00  0.00     0.057 A 
ATOM     77  C   UNL A   1      45.374  34.685  27.758  1.00  0.00     0.134 A 
ATOM     78  C   UNL A   1      46.413  33.985  29.801  1.00  0.00     0.134 A 
ATOM     79  F   UNL A   1      44.577  34.461  26.703  1.00  0.00    -0.206 F 
ATOM     80  C   UNL A   1      46.030  35.913  27.839  1.00  0.00     0.040 A 
ATOM     81  C   UNL A   1      47.060  35.217  29.902  1.00  0.00     0.040 A 
ATOM     82  F   UNL A   1      46.624  33.080  30.769  1.00  0.00    -0.206 F 
ATOM     83  C   UNL A   1      46.872  36.184  28.917  1.00  0.00     0.006 A 
ENDBRANCH  59  76
ENDBRANCH  33  34
ENDBRANCH  26  28
ENDBRANCH  25  26
ENDBRANCH  24  25
ENDBRANCH   1  24
TORSDOF 16
ENDMDL
