MODEL 1
REMARK VINA RESULT:     -10.0      0.000      0.000
REMARK SMILES CC1=C(CCC(=O)OCCOC(=O)c2ccc(-c3c4nc(c(-c5c(F)cccc5F)c5ccc([nH]5)c(-c5c(F)cccc5F)c5nc(c(-c6c(F)cccc6F)c6ccc3[nH]6)C=C5)C=C4)cc2)N=N[C@H]1C
REMARK SMILES IDX 9 1 8 2 6 3 7 4 5 5 4 6 3 7 1 8 2 9 70 10 68 11 69 12 71 13
REMARK SMILES IDX 10 14 11 15 12 16 13 17 14 18 15 19 67 20 16 21 66 22 17 23
REMARK SMILES IDX 18 24 19 25 60 26 20 27 65 28 59 29 61 30 21 31 64 32 58 33
REMARK SMILES IDX 57 34 22 36 48 37 31 38 47 39 32 40 35 41 46 42 62 43 33 44
REMARK SMILES IDX 34 45 45 47 63 48 36 49 23 50 24 51 29 52 25 53 26 54 28 55
REMARK SMILES IDX 30 56 27 57 49 58 50 59 55 60 51 61 52 62 54 63 56 64 53 65
REMARK SMILES IDX 37 66 38 67 43 68 39 69 40 70 42 71 44 72 41 73
REMARK H PARENT 61 35 35 46
REMARK Flexibility Score: inf
ROOT
ATOM      1  C   UNL A   1      42.553  19.908  26.548  1.00  0.00     0.274 C 
ENDROOT
BRANCH   1   2
ATOM      2  O   UNL A   1      42.941  19.928  25.164  1.00  0.00    -0.462 OA
BRANCH   2   3
ATOM      3  C   UNL A   1      44.155  19.419  24.841  1.00  0.00     0.306 C 
ATOM      4  O   UNL A   1      44.425  18.224  24.801  1.00  0.00    -0.252 OA
BRANCH   3   5
ATOM      5  C   UNL A   1      45.180  20.511  24.625  1.00  0.00     0.129 C 
BRANCH   5   6
ATOM      6  C   UNL A   1      44.637  21.924  24.397  1.00  0.00     0.070 C 
BRANCH   6   7
ATOM      7  C   UNL A   1      45.115  22.940  25.391  1.00  0.00     0.064 C 
ATOM      8  C   UNL A   1      43.312  24.732  25.171  1.00  0.00     0.044 C 
ATOM      9  C   UNL A   1      44.561  24.121  25.674  1.00  0.00    -0.024 C 
ATOM     10  C   UNL A   1      45.479  24.766  26.652  1.00  0.00     0.153 C 
ATOM     11  N   UNL A   1      46.230  22.704  26.155  1.00  0.00    -0.160 NA
ATOM     12  N   UNL A   1      46.486  23.699  26.888  1.00  0.00    -0.181 NA
ATOM     13  C   UNL A   1      46.191  25.983  26.076  1.00  0.00     0.040 C 
ENDBRANCH   6   7
ENDBRANCH   5   6
ENDBRANCH   3   5
ENDBRANCH   2   3
ENDBRANCH   1   2
BRANCH   1  14
ATOM     14  C   UNL A   1      41.037  19.914  26.720  1.00  0.00     0.275 C 
BRANCH  14  15
ATOM     15  O   UNL A   1      40.587  21.027  27.501  1.00  0.00    -0.458 OA
BRANCH  15  16
ATOM     16  C   UNL A   1      39.805  21.904  26.835  1.00  0.00     0.338 C 
ATOM     17  O   UNL A   1      38.951  21.646  26.009  1.00  0.00    -0.246 OA
BRANCH  16  18
ATOM     18  C   UNL A   1      40.224  23.283  27.106  1.00  0.00     0.060 A 
ATOM     19  C   UNL A   1      41.326  23.474  27.946  1.00  0.00     0.016 A 
ATOM     20  C   UNL A   1      39.414  24.353  26.710  1.00  0.00     0.016 A 
ATOM     21  C   UNL A   1      41.564  24.734  28.464  1.00  0.00     0.010 A 
ATOM     22  C   UNL A   1      39.651  25.611  27.231  1.00  0.00     0.010 A 
ATOM     23  C   UNL A   1      40.696  25.785  28.139  1.00  0.00    -0.014 A 
BRANCH  23  24
ATOM     24  C   UNL A   1      40.979  27.098  28.697  1.00  0.00     0.031 A 
ATOM     25  C   UNL A   1      42.201  27.743  28.164  1.00  0.00     0.074 A 
ATOM     26  C   UNL A   1      40.149  27.754  29.530  1.00  0.00     0.049 A 
ATOM     27  N   UNL A   1      43.256  28.096  28.818  1.00  0.00    -0.248 NA
ATOM     28  C   UNL A   1      42.292  27.948  26.710  1.00  0.00     0.031 C 
ATOM     29  C   UNL A   1      38.781  27.379  29.898  1.00  0.00     0.029 A 
ATOM     30  N   UNL A   1      40.327  28.958  30.155  1.00  0.00    -0.354 N 
ATOM     31  C   UNL A   1      44.078  28.734  27.893  1.00  0.00     0.074 A 
ATOM     32  C   UNL A   1      43.499  28.504  26.595  1.00  0.00     0.031 C 
ATOM     33  C   UNL A   1      38.185  28.425  30.512  1.00  0.00     0.029 A 
ATOM     34  C   UNL A   1      39.168  29.479  30.709  1.00  0.00     0.049 A 
ATOM     35  H   UNL A   1      41.198  29.413  30.207  1.00  0.00     0.167 HD
ATOM     36  C   UNL A   1      45.040  29.605  28.294  1.00  0.00     0.037 A 
ATOM     37  C   UNL A   1      39.007  30.697  31.277  1.00  0.00     0.037 A 
ATOM     38  C   UNL A   1      45.301  29.511  29.703  1.00  0.00     0.049 A 
ATOM     39  C   UNL A   1      40.331  31.203  31.701  1.00  0.00     0.074 A 
ATOM     40  C   UNL A   1      46.060  28.728  30.543  1.00  0.00     0.029 A 
ATOM     41  N   UNL A   1      44.423  30.213  30.481  1.00  0.00    -0.354 N 
ATOM     42  N   UNL A   1      41.015  30.699  32.688  1.00  0.00    -0.248 NA
ATOM     43  C   UNL A   1      41.055  32.146  30.855  1.00  0.00     0.031 C 
ATOM     44  C   UNL A   1      45.508  28.884  31.851  1.00  0.00     0.029 A 
ATOM     45  C   UNL A   1      44.426  29.756  31.771  1.00  0.00     0.049 A 
ATOM     46  H   UNL A   1      43.861  30.952  30.154  1.00  0.00     0.167 HD
ATOM     47  C   UNL A   1      42.329  30.924  32.336  1.00  0.00     0.074 A 
ATOM     48  C   UNL A   1      42.292  31.972  31.329  1.00  0.00     0.031 C 
ATOM     49  C   UNL A   1      43.294  30.010  32.629  1.00  0.00     0.037 A 
BRANCH  36  50
ATOM     50  C   UNL A   1      45.430  30.846  27.532  1.00  0.00     0.057 A 
ATOM     51  C   UNL A   1      46.746  30.975  27.053  1.00  0.00     0.134 A 
ATOM     52  C   UNL A   1      44.672  32.034  27.538  1.00  0.00     0.134 A 
ATOM     53  F   UNL A   1      47.573  29.919  27.024  1.00  0.00    -0.206 F 
ATOM     54  C   UNL A   1      47.282  32.207  26.661  1.00  0.00     0.040 A 
ATOM     55  C   UNL A   1      45.181  33.260  27.101  1.00  0.00     0.040 A 
ATOM     56  F   UNL A   1      43.442  32.089  28.067  1.00  0.00    -0.206 F 
ATOM     57  C   UNL A   1      46.500  33.356  26.687  1.00  0.00     0.006 A 
ENDBRANCH  36  50
BRANCH  37  58
ATOM     58  C   UNL A   1      37.794  31.530  31.392  1.00  0.00     0.057 A 
ATOM     59  C   UNL A   1      37.250  32.181  30.277  1.00  0.00     0.134 A 
ATOM     60  C   UNL A   1      36.987  31.484  32.541  1.00  0.00     0.134 A 
ATOM     61  F   UNL A   1      37.935  32.250  29.125  1.00  0.00    -0.206 F 
ATOM     62  C   UNL A   1      35.962  32.724  30.289  1.00  0.00     0.040 A 
ATOM     63  C   UNL A   1      35.702  32.031  32.570  1.00  0.00     0.040 A 
ATOM     64  F   UNL A   1      37.389  30.830  33.642  1.00  0.00    -0.206 F 
ATOM     65  C   UNL A   1      35.178  32.637  31.434  1.00  0.00     0.006 A 
ENDBRANCH  37  58
BRANCH  49  66
ATOM     66  C   UNL A   1      43.031  29.093  33.778  1.00  0.00     0.057 A 
ATOM     67  C   UNL A   1      43.300  29.413  35.114  1.00  0.00     0.134 A 
ATOM     68  C   UNL A   1      42.455  27.845  33.519  1.00  0.00     0.134 A 
ATOM     69  F   UNL A   1      43.785  30.614  35.455  1.00  0.00    -0.206 F 
ATOM     70  C   UNL A   1      43.050  28.503  36.146  1.00  0.00     0.040 A 
ATOM     71  C   UNL A   1      42.173  26.941  34.543  1.00  0.00     0.040 A 
ATOM     72  F   UNL A   1      42.137  27.494  32.262  1.00  0.00    -0.206 F 
ATOM     73  C   UNL A   1      42.484  27.264  35.861  1.00  0.00     0.006 A 
ENDBRANCH  49  66
ENDBRANCH  23  24
ENDBRANCH  16  18
ENDBRANCH  15  16
ENDBRANCH  14  15
ENDBRANCH   1  14
TORSDOF 13
ENDMDL
MODEL 2
REMARK VINA RESULT:      -9.9      2.524      6.477
REMARK SMILES CC1=C(CCC(=O)OCCOC(=O)c2ccc(-c3c4nc(c(-c5c(F)cccc5F)c5ccc([nH]5)c(-c5c(F)cccc5F)c5nc(c(-c6c(F)cccc6F)c6ccc3[nH]6)C=C5)C=C4)cc2)N=N[C@H]1C
REMARK SMILES IDX 9 1 8 2 6 3 7 4 5 5 4 6 3 7 1 8 2 9 70 10 68 11 69 12 71 13
REMARK SMILES IDX 10 14 11 15 12 16 13 17 14 18 15 19 67 20 16 21 66 22 17 23
REMARK SMILES IDX 18 24 19 25 60 26 20 27 65 28 59 29 61 30 21 31 64 32 58 33
REMARK SMILES IDX 57 34 22 36 48 37 31 38 47 39 32 40 35 41 46 42 62 43 33 44
REMARK SMILES IDX 34 45 45 47 63 48 36 49 23 50 24 51 29 52 25 53 26 54 28 55
REMARK SMILES IDX 30 56 27 57 49 58 50 59 55 60 51 61 52 62 54 63 56 64 53 65
REMARK SMILES IDX 37 66 38 67 43 68 39 69 40 70 42 71 44 72 41 73
REMARK H PARENT 61 35 35 46
REMARK Flexibility Score: inf
ROOT
ATOM      1  C   UNL A   1      46.072  20.352  24.601  1.00  0.00     0.274 C 
ENDROOT
BRANCH   1   2
ATOM      2  O   UNL A   1      46.081  21.481  25.490  1.00  0.00    -0.462 OA
BRANCH   2   3
ATOM      3  C   UNL A   1      46.090  22.719  24.938  1.00  0.00     0.306 C 
ATOM      4  O   UNL A   1      45.828  22.966  23.767  1.00  0.00    -0.252 OA
BRANCH   3   5
ATOM      5  C   UNL A   1      46.558  23.767  25.924  1.00  0.00     0.129 C 
BRANCH   5   6
ATOM      6  C   UNL A   1      47.555  24.804  25.398  1.00  0.00     0.070 C 
BRANCH   6   7
ATOM      7  C   UNL A   1      46.937  26.108  24.993  1.00  0.00     0.064 C 
ATOM      8  C   UNL A   1      48.991  27.406  24.213  1.00  0.00     0.044 C 
ATOM      9  C   UNL A   1      47.562  27.193  24.529  1.00  0.00    -0.024 C 
ATOM     10  C   UNL A   1      46.502  28.226  24.374  1.00  0.00     0.153 C 
ATOM     11  N   UNL A   1      45.578  26.290  25.053  1.00  0.00    -0.160 NA
ATOM     12  N   UNL A   1      45.271  27.467  24.714  1.00  0.00    -0.181 NA
ATOM     13  C   UNL A   1      46.650  29.375  25.362  1.00  0.00     0.040 C 
ENDBRANCH   6   7
ENDBRANCH   5   6
ENDBRANCH   3   5
ENDBRANCH   2   3
ENDBRANCH   1   2
BRANCH   1  14
ATOM     14  C   UNL A   1      44.974  19.353  24.951  1.00  0.00     0.275 C 
BRANCH  14  15
ATOM     15  O   UNL A   1      43.678  19.812  24.550  1.00  0.00    -0.458 OA
BRANCH  15  16
ATOM     16  C   UNL A   1      42.696  19.589  25.450  1.00  0.00     0.338 C 
ATOM     17  O   UNL A   1      42.007  18.592  25.553  1.00  0.00    -0.246 OA
BRANCH  16  18
ATOM     18  C   UNL A   1      42.422  20.800  26.230  1.00  0.00     0.060 A 
ATOM     19  C   UNL A   1      42.819  22.026  25.687  1.00  0.00     0.016 A 
ATOM     20  C   UNL A   1      41.978  20.697  27.553  1.00  0.00     0.016 A 
ATOM     21  C   UNL A   1      42.856  23.141  26.505  1.00  0.00     0.010 A 
ATOM     22  C   UNL A   1      42.019  21.810  28.370  1.00  0.00     0.010 A 
ATOM     23  C   UNL A   1      42.499  23.015  27.854  1.00  0.00    -0.014 A 
BRANCH  23  24
ATOM     24  C   UNL A   1      42.545  24.208  28.684  1.00  0.00     0.031 A 
ATOM     25  C   UNL A   1      41.535  25.236  28.340  1.00  0.00     0.074 A 
ATOM     26  C   UNL A   1      43.338  24.342  29.764  1.00  0.00     0.049 A 
ATOM     27  N   UNL A   1      41.745  26.447  27.946  1.00  0.00    -0.248 NA
ATOM     28  C   UNL A   1      40.118  24.842  28.363  1.00  0.00     0.031 C 
ATOM     29  C   UNL A   1      44.156  23.304  30.399  1.00  0.00     0.029 A 
ATOM     30  N   UNL A   1      43.506  25.423  30.585  1.00  0.00    -0.354 N 
ATOM     31  C   UNL A   1      40.486  27.032  27.840  1.00  0.00     0.074 A 
ATOM     32  C   UNL A   1      39.522  25.973  27.983  1.00  0.00     0.031 C 
ATOM     33  C   UNL A   1      44.570  23.744  31.608  1.00  0.00     0.029 A 
ATOM     34  C   UNL A   1      44.172  25.134  31.765  1.00  0.00     0.049 A 
ATOM     35  H   UNL A   1      43.183  26.325  30.357  1.00  0.00     0.167 HD
ATOM     36  C   UNL A   1      40.335  28.382  27.884  1.00  0.00     0.037 A 
ATOM     37  C   UNL A   1      44.375  25.963  32.815  1.00  0.00     0.037 A 
ATOM     38  C   UNL A   1      41.584  29.071  27.711  1.00  0.00     0.049 A 
ATOM     39  C   UNL A   1      44.255  27.361  32.348  1.00  0.00     0.074 A 
ATOM     40  C   UNL A   1      42.379  29.479  26.666  1.00  0.00     0.029 A 
ATOM     41  N   UNL A   1      42.325  29.175  28.855  1.00  0.00    -0.354 N 
ATOM     42  N   UNL A   1      45.124  27.940  31.569  1.00  0.00    -0.248 NA
ATOM     43  C   UNL A   1      43.005  28.089  32.541  1.00  0.00     0.031 C 
ATOM     44  C   UNL A   1      43.680  29.702  27.211  1.00  0.00     0.029 A 
ATOM     45  C   UNL A   1      43.642  29.422  28.573  1.00  0.00     0.049 A 
ATOM     46  H   UNL A   1      41.959  29.084  29.764  1.00  0.00     0.167 HD
ATOM     47  C   UNL A   1      44.379  28.857  30.858  1.00  0.00     0.074 A 
ATOM     48  C   UNL A   1      43.156  29.046  31.621  1.00  0.00     0.031 C 
ATOM     49  C   UNL A   1      44.658  29.116  29.551  1.00  0.00     0.037 A 
BRANCH  36  50
ATOM     50  C   UNL A   1      39.163  29.083  28.524  1.00  0.00     0.057 A 
ATOM     51  C   UNL A   1      38.888  28.862  29.884  1.00  0.00     0.134 A 
ATOM     52  C   UNL A   1      38.127  29.693  27.789  1.00  0.00     0.134 A 
ATOM     53  F   UNL A   1      39.789  28.264  30.680  1.00  0.00    -0.206 F 
ATOM     54  C   UNL A   1      37.651  29.176  30.458  1.00  0.00     0.040 A 
ATOM     55  C   UNL A   1      36.906  30.057  28.364  1.00  0.00     0.040 A 
ATOM     56  F   UNL A   1      38.201  29.866  26.463  1.00  0.00    -0.206 F 
ATOM     57  C   UNL A   1      36.653  29.773  29.696  1.00  0.00     0.006 A 
ENDBRANCH  36  50
BRANCH  37  58
ATOM     58  C   UNL A   1      44.561  25.645  34.244  1.00  0.00     0.057 A 
ATOM     59  C   UNL A   1      45.811  25.787  34.864  1.00  0.00     0.134 A 
ATOM     60  C   UNL A   1      43.462  25.456  35.098  1.00  0.00     0.134 A 
ATOM     61  F   UNL A   1      46.915  26.000  34.133  1.00  0.00    -0.206 F 
ATOM     62  C   UNL A   1      45.955  25.781  36.255  1.00  0.00     0.040 A 
ATOM     63  C   UNL A   1      43.593  25.439  36.488  1.00  0.00     0.040 A 
ATOM     64  F   UNL A   1      42.215  25.373  34.609  1.00  0.00    -0.206 F 
ATOM     65  C   UNL A   1      44.842  25.620  37.072  1.00  0.00     0.006 A 
ENDBRANCH  37  58
BRANCH  49  66
ATOM     66  C   UNL A   1      46.053  28.849  29.090  1.00  0.00     0.057 A 
ATOM     67  C   UNL A   1      47.094  29.784  29.155  1.00  0.00     0.134 A 
ATOM     68  C   UNL A   1      46.360  27.581  28.586  1.00  0.00     0.134 A 
ATOM     69  F   UNL A   1      46.902  30.997  29.690  1.00  0.00    -0.206 F 
ATOM     70  C   UNL A   1      48.377  29.481  28.689  1.00  0.00     0.040 A 
ATOM     71  C   UNL A   1      47.644  27.257  28.147  1.00  0.00     0.040 A 
ATOM     72  F   UNL A   1      45.416  26.627  28.534  1.00  0.00    -0.206 F 
ATOM     73  C   UNL A   1      48.654  28.214  28.184  1.00  0.00     0.006 A 
ENDBRANCH  49  66
ENDBRANCH  23  24
ENDBRANCH  16  18
ENDBRANCH  15  16
ENDBRANCH  14  15
ENDBRANCH   1  14
TORSDOF 13
ENDMDL
MODEL 3
REMARK VINA RESULT:      -9.9      4.079     10.624
REMARK SMILES CC1=C(CCC(=O)OCCOC(=O)c2ccc(-c3c4nc(c(-c5c(F)cccc5F)c5ccc([nH]5)c(-c5c(F)cccc5F)c5nc(c(-c6c(F)cccc6F)c6ccc3[nH]6)C=C5)C=C4)cc2)N=N[C@H]1C
REMARK SMILES IDX 9 1 8 2 6 3 7 4 5 5 4 6 3 7 1 8 2 9 70 10 68 11 69 12 71 13
REMARK SMILES IDX 10 14 11 15 12 16 13 17 14 18 15 19 67 20 16 21 66 22 17 23
REMARK SMILES IDX 18 24 19 25 60 26 20 27 65 28 59 29 61 30 21 31 64 32 58 33
REMARK SMILES IDX 57 34 22 36 48 37 31 38 47 39 32 40 35 41 46 42 62 43 33 44
REMARK SMILES IDX 34 45 45 47 63 48 36 49 23 50 24 51 29 52 25 53 26 54 28 55
REMARK SMILES IDX 30 56 27 57 49 58 50 59 55 60 51 61 52 62 54 63 56 64 53 65
REMARK SMILES IDX 37 66 38 67 43 68 39 69 40 70 42 71 44 72 41 73
REMARK H PARENT 61 35 35 46
REMARK Flexibility Score: inf
ROOT
ATOM      1  C   UNL A   1      34.138  35.167  29.070  1.00  0.00     0.274 C 
ENDROOT
BRANCH   1   2
ATOM      2  O   UNL A   1      33.108  35.342  30.058  1.00  0.00    -0.462 OA
BRANCH   2   3
ATOM      3  C   UNL A   1      33.226  36.384  30.916  1.00  0.00     0.306 C 
ATOM      4  O   UNL A   1      32.873  37.532  30.675  1.00  0.00    -0.252 OA
BRANCH   3   5
ATOM      5  C   UNL A   1      33.941  35.983  32.188  1.00  0.00     0.129 C 
BRANCH   5   6
ATOM      6  C   UNL A   1      33.475  34.685  32.854  1.00  0.00     0.070 C 
BRANCH   6   7
ATOM      7  C   UNL A   1      34.457  33.556  32.767  1.00  0.00     0.064 C 
ATOM      8  C   UNL A   1      35.834  33.935  34.882  1.00  0.00     0.044 C 
ATOM      9  C   UNL A   1      35.455  33.281  33.610  1.00  0.00    -0.024 C 
ATOM     10  C   UNL A   1      36.173  32.123  33.012  1.00  0.00     0.153 C 
ATOM     11  N   UNL A   1      34.386  32.640  31.747  1.00  0.00    -0.160 NA
ATOM     12  N   UNL A   1      35.328  31.805  31.832  1.00  0.00    -0.181 NA
ATOM     13  C   UNL A   1      37.569  32.485  32.523  1.00  0.00     0.040 C 
ENDBRANCH   6   7
ENDBRANCH   5   6
ENDBRANCH   3   5
ENDBRANCH   2   3
ENDBRANCH   1   2
BRANCH   1  14
ATOM     14  C   UNL A   1      33.888  33.948  28.188  1.00  0.00     0.275 C 
BRANCH  14  15
ATOM     15  O   UNL A   1      35.079  33.181  27.977  1.00  0.00    -0.458 OA
BRANCH  15  16
ATOM     16  C   UNL A   1      34.889  31.844  27.932  1.00  0.00     0.338 C 
ATOM     17  O   UNL A   1      33.873  31.257  27.614  1.00  0.00    -0.246 OA
BRANCH  16  18
ATOM     18  C   UNL A   1      36.046  31.137  28.490  1.00  0.00     0.060 A 
ATOM     19  C   UNL A   1      37.174  31.896  28.823  1.00  0.00     0.016 A 
ATOM     20  C   UNL A   1      36.085  29.738  28.480  1.00  0.00     0.016 A 
ATOM     21  C   UNL A   1      38.372  31.247  29.061  1.00  0.00     0.010 A 
ATOM     22  C   UNL A   1      37.284  29.092  28.715  1.00  0.00     0.010 A 
ATOM     23  C   UNL A   1      38.429  29.851  28.959  1.00  0.00    -0.014 A 
BRANCH  23  24
ATOM     24  C   UNL A   1      39.704  29.201  29.220  1.00  0.00     0.031 A 
ATOM     25  C   UNL A   1      40.076  29.131  30.653  1.00  0.00     0.074 A 
ATOM     26  C   UNL A   1      40.443  28.589  28.275  1.00  0.00     0.049 A 
ATOM     27  N   UNL A   1      41.108  29.652  31.226  1.00  0.00    -0.248 NA
ATOM     28  C   UNL A   1      39.143  28.464  31.574  1.00  0.00     0.031 C 
ATOM     29  C   UNL A   1      40.058  28.314  26.889  1.00  0.00     0.029 A 
ATOM     30  N   UNL A   1      41.669  27.995  28.388  1.00  0.00    -0.354 N 
ATOM     31  C   UNL A   1      41.056  29.231  32.552  1.00  0.00     0.074 A 
ATOM     32  C   UNL A   1      39.770  28.614  32.741  1.00  0.00     0.031 C 
ATOM     33  C   UNL A   1      40.937  27.440  26.350  1.00  0.00     0.029 A 
ATOM     34  C   UNL A   1      42.016  27.211  27.299  1.00  0.00     0.049 A 
ATOM     35  H   UNL A   1      42.253  28.114  29.172  1.00  0.00     0.167 HD
ATOM     36  C   UNL A   1      42.173  29.210  33.325  1.00  0.00     0.037 A 
ATOM     37  C   UNL A   1      43.099  26.410  27.177  1.00  0.00     0.037 A 
ATOM     38  C   UNL A   1      43.251  29.955  32.737  1.00  0.00     0.049 A 
ATOM     39  C   UNL A   1      44.136  26.864  28.130  1.00  0.00     0.074 A 
ATOM     40  C   UNL A   1      43.661  31.267  32.677  1.00  0.00     0.029 A 
ATOM     41  N   UNL A   1      43.960  29.262  31.796  1.00  0.00    -0.354 N 
ATOM     42  N   UNL A   1      44.796  27.980  28.003  1.00  0.00    -0.248 NA
ATOM     43  C   UNL A   1      44.290  26.189  29.414  1.00  0.00     0.031 C 
ATOM     44  C   UNL A   1      44.550  31.363  31.563  1.00  0.00     0.029 A 
ATOM     45  C   UNL A   1      44.654  30.108  30.973  1.00  0.00     0.049 A 
ATOM     46  H   UNL A   1      43.969  28.281  31.719  1.00  0.00     0.167 HD
ATOM     47  C   UNL A   1      45.086  28.348  29.300  1.00  0.00     0.074 A 
ATOM     48  C   UNL A   1      44.937  27.139  30.094  1.00  0.00     0.031 C 
ATOM     49  C   UNL A   1      45.079  29.659  29.669  1.00  0.00     0.037 A 
BRANCH  36  50
ATOM     50  C   UNL A   1      42.457  28.166  34.375  1.00  0.00     0.057 A 
ATOM     51  C   UNL A   1      42.858  26.879  33.976  1.00  0.00     0.134 A 
ATOM     52  C   UNL A   1      42.041  28.280  35.717  1.00  0.00     0.134 A 
ATOM     53  F   UNL A   1      43.250  26.641  32.716  1.00  0.00    -0.206 F 
ATOM     54  C   UNL A   1      42.798  25.777  34.837  1.00  0.00     0.040 A 
ATOM     55  C   UNL A   1      42.025  27.196  36.599  1.00  0.00     0.040 A 
ATOM     56  F   UNL A   1      41.529  29.416  36.209  1.00  0.00    -0.206 F 
ATOM     57  C   UNL A   1      42.377  25.932  36.152  1.00  0.00     0.006 A 
ENDBRANCH  36  50
BRANCH  37  58
ATOM     58  C   UNL A   1      43.284  25.192  26.366  1.00  0.00     0.057 A 
ATOM     59  C   UNL A   1      44.232  25.141  25.335  1.00  0.00     0.134 A 
ATOM     60  C   UNL A   1      42.728  23.964  26.761  1.00  0.00     0.134 A 
ATOM     61  F   UNL A   1      44.838  26.259  24.909  1.00  0.00    -0.206 F 
ATOM     62  C   UNL A   1      44.634  23.935  24.754  1.00  0.00     0.040 A 
ATOM     63  C   UNL A   1      43.113  22.752  26.183  1.00  0.00     0.040 A 
ATOM     64  F   UNL A   1      41.859  23.895  27.781  1.00  0.00    -0.206 F 
ATOM     65  C   UNL A   1      44.084  22.733  25.187  1.00  0.00     0.006 A 
ENDBRANCH  37  58
BRANCH  49  66
ATOM     66  C   UNL A   1      45.313  30.667  28.593  1.00  0.00     0.057 A 
ATOM     67  C   UNL A   1      46.582  31.071  28.160  1.00  0.00     0.134 A 
ATOM     68  C   UNL A   1      44.205  31.229  27.951  1.00  0.00     0.134 A 
ATOM     69  F   UNL A   1      47.694  30.529  28.673  1.00  0.00    -0.206 F 
ATOM     70  C   UNL A   1      46.738  32.036  27.160  1.00  0.00     0.040 A 
ATOM     71  C   UNL A   1      44.348  32.169  26.930  1.00  0.00     0.040 A 
ATOM     72  F   UNL A   1      42.962  30.854  28.293  1.00  0.00    -0.206 F 
ATOM     73  C   UNL A   1      45.618  32.586  26.542  1.00  0.00     0.006 A 
ENDBRANCH  49  66
ENDBRANCH  23  24
ENDBRANCH  16  18
ENDBRANCH  15  16
ENDBRANCH  14  15
ENDBRANCH   1  14
TORSDOF 13
ENDMDL
