MODEL 1
REMARK VINA RESULT:     -12.4      0.000      0.000
REMARK SMILES C[C@@H](C(=O)OCCOC(=O)c1ccc(-c2c3nc(c(-c4c(F)cccc4F)c4ccc([nH]4)c(-c4c(F)cccc4F)c4nc(c(-c5c(F)cccc5F)c5ccc2[nH]5)C=C4)C=C3)cc1)c1ccc(-c2cccc(OC(=O)Nc3ccccc3)c2)c(F)c1
REMARK SMILES IDX 5 1 3 2 4 3 2 4 1 5 65 6 66 7 87 8 67 9 85 10 68 11 86 12
REMARK SMILES IDX 69 13 70 14 84 15 71 16 73 17 72 18 74 19 75 20 76 21 77 22
REMARK SMILES IDX 78 24 79 25 83 26 80 27 82 28 81 29 6 30 7 31 8 32 9 33
REMARK SMILES IDX 10 34 11 35 12 36 64 37 13 38 63 39 14 40 15 41 16 42 57 43
REMARK SMILES IDX 17 44 62 45 56 46 58 47 18 48 61 49 55 50 54 51 19 53 45 54
REMARK SMILES IDX 28 55 44 56 29 57 32 58 43 59 59 60 30 61 31 62 42 64 60 65
REMARK SMILES IDX 33 66 20 67 21 68 26 69 22 70 23 71 25 72 27 73 24 74 46 75
REMARK SMILES IDX 47 76 52 77 48 78 49 79 51 80 53 81 50 82 34 83 35 84 40 85
REMARK SMILES IDX 36 86 37 87 39 88 41 89 38 90
REMARK H PARENT 77 23 58 52 32 63
REMARK Flexibility Score: inf
ROOT
ATOM      1  O   UNL A   1      43.494  21.576  26.077  1.00  0.00    -0.462 OA
ENDROOT
BRANCH   1   2
ATOM      2  C   UNL A   1      42.522  20.623  26.077  1.00  0.00     0.313 C 
ATOM      3  O   UNL A   1      42.478  19.695  25.275  1.00  0.00    -0.252 OA
BRANCH   2   4
ATOM      4  C   UNL A   1      41.452  20.868  27.155  1.00  0.00     0.126 C 
ATOM      5  C   UNL A   1      41.171  19.617  28.000  1.00  0.00     0.025 C 
BRANCH   4   6
ATOM      6  C   UNL A   1      40.190  21.511  26.573  1.00  0.00    -0.031 A 
ATOM      7  C   UNL A   1      39.306  20.734  25.804  1.00  0.00     0.005 A 
ATOM      8  C   UNL A   1      39.846  22.851  26.793  1.00  0.00     0.044 A 
ATOM      9  C   UNL A   1      38.115  21.272  25.291  1.00  0.00     0.012 A 
ATOM     10  C   UNL A   1      38.662  23.383  26.270  1.00  0.00     0.131 A 
ATOM     11  C   UNL A   1      37.767  22.614  25.515  1.00  0.00     0.018 A 
ATOM     12  F   UNL A   1      38.384  24.667  26.549  1.00  0.00    -0.206 F 
BRANCH  11  13
ATOM     13  C   UNL A   1      36.511  23.179  24.984  1.00  0.00    -0.012 A 
ATOM     14  C   UNL A   1      36.145  23.025  23.633  1.00  0.00     0.009 A 
ATOM     15  C   UNL A   1      35.646  23.908  25.816  1.00  0.00     0.056 A 
ATOM     16  C   UNL A   1      34.950  23.557  23.139  1.00  0.00     0.004 A 
ATOM     17  C   UNL A   1      34.486  24.488  25.304  1.00  0.00     0.133 A 
ATOM     18  C   UNL A   1      34.115  24.286  23.977  1.00  0.00     0.047 A 
BRANCH  17  19
ATOM     19  O   UNL A   1      33.628  25.328  26.038  1.00  0.00    -0.410 OA
BRANCH  19  20
ATOM     20  C   UNL A   1      32.383  24.885  26.461  1.00  0.00     0.417 C 
ATOM     21  O   UNL A   1      32.103  23.742  26.809  1.00  0.00    -0.224 OA
ATOM     22  N   UNL A   1      31.435  25.869  26.592  1.00  0.00    -0.291 N 
ATOM     23  H   UNL A   1      30.563  25.554  26.927  1.00  0.00     0.173 HD
BRANCH  22  24
ATOM     24  C   UNL A   1      31.494  27.245  26.331  1.00  0.00     0.044 A 
ATOM     25  C   UNL A   1      31.715  28.080  27.434  1.00  0.00     0.026 A 
ATOM     26  C   UNL A   1      31.344  27.820  25.069  1.00  0.00     0.026 A 
ATOM     27  C   UNL A   1      31.828  29.463  27.272  1.00  0.00     0.002 A 
ATOM     28  C   UNL A   1      31.442  29.206  24.908  1.00  0.00     0.002 A 
ATOM     29  C   UNL A   1      31.693  30.025  26.007  1.00  0.00     0.000 A 
ENDBRANCH  22  24
ENDBRANCH  19  20
ENDBRANCH  17  19
ENDBRANCH  11  13
ENDBRANCH   4   6
ENDBRANCH   2   4
ENDBRANCH   1   2
BRANCH   1  30
ATOM     30  C   UNL A   1      44.474  21.511  25.022  1.00  0.00     0.274 C 
BRANCH  30  31
ATOM     31  C   UNL A   1      44.273  22.662  24.039  1.00  0.00     0.275 C 
BRANCH  31  32
ATOM     32  O   UNL A   1      43.532  23.722  24.671  1.00  0.00    -0.458 OA
BRANCH  32  33
ATOM     33  C   UNL A   1      44.254  24.800  25.049  1.00  0.00     0.338 C 
ATOM     34  O   UNL A   1      45.339  25.162  24.627  1.00  0.00    -0.246 OA
BRANCH  33  35
ATOM     35  C   UNL A   1      43.503  25.546  26.069  1.00  0.00     0.060 A 
ATOM     36  C   UNL A   1      43.732  26.910  26.202  1.00  0.00     0.016 A 
ATOM     37  C   UNL A   1      42.676  24.880  26.974  1.00  0.00     0.016 A 
ATOM     38  C   UNL A   1      43.209  27.594  27.294  1.00  0.00     0.010 A 
ATOM     39  C   UNL A   1      42.087  25.592  28.028  1.00  0.00     0.010 A 
ATOM     40  C   UNL A   1      42.384  26.951  28.228  1.00  0.00    -0.014 A 
BRANCH  40  41
ATOM     41  C   UNL A   1      41.913  27.696  29.433  1.00  0.00     0.031 A 
ATOM     42  C   UNL A   1      40.617  28.468  29.391  1.00  0.00     0.074 A 
ATOM     43  C   UNL A   1      42.592  27.621  30.597  1.00  0.00     0.049 A 
ATOM     44  N   UNL A   1      40.095  29.263  30.295  1.00  0.00    -0.248 NA
ATOM     45  C   UNL A   1      39.809  28.346  28.169  1.00  0.00     0.031 C 
ATOM     46  C   UNL A   1      43.811  26.841  30.816  1.00  0.00     0.029 A 
ATOM     47  N   UNL A   1      42.318  28.155  31.833  1.00  0.00    -0.354 N 
ATOM     48  C   UNL A   1      38.950  29.796  29.715  1.00  0.00     0.074 A 
ATOM     49  C   UNL A   1      38.837  29.219  28.394  1.00  0.00     0.031 C 
ATOM     50  C   UNL A   1      44.108  26.850  32.126  1.00  0.00     0.029 A 
ATOM     51  C   UNL A   1      43.164  27.716  32.823  1.00  0.00     0.049 A 
ATOM     52  H   UNL A   1      41.585  28.793  31.994  1.00  0.00     0.167 HD
ATOM     53  C   UNL A   1      38.083  30.700  30.233  1.00  0.00     0.037 A 
ATOM     54  C   UNL A   1      43.171  27.973  34.146  1.00  0.00     0.037 A 
ATOM     55  C   UNL A   1      38.142  31.202  31.581  1.00  0.00     0.049 A 
ATOM     56  C   UNL A   1      42.178  28.950  34.709  1.00  0.00     0.074 A 
ATOM     57  C   UNL A   1      37.331  32.147  32.188  1.00  0.00     0.029 A 
ATOM     58  N   UNL A   1      39.041  30.770  32.543  1.00  0.00    -0.354 N 
ATOM     59  N   UNL A   1      41.159  29.530  34.122  1.00  0.00    -0.248 NA
ATOM     60  C   UNL A   1      42.360  29.338  36.116  1.00  0.00     0.031 C 
ATOM     61  C   UNL A   1      37.761  32.309  33.510  1.00  0.00     0.029 A 
ATOM     62  C   UNL A   1      38.813  31.438  33.736  1.00  0.00     0.049 A 
ATOM     63  H   UNL A   1      39.738  30.091  32.400  1.00  0.00     0.167 HD
ATOM     64  C   UNL A   1      40.590  30.358  35.080  1.00  0.00     0.074 A 
ATOM     65  C   UNL A   1      41.341  30.164  36.303  1.00  0.00     0.031 C 
ATOM     66  C   UNL A   1      39.559  31.227  34.949  1.00  0.00     0.037 A 
BRANCH  53  67
ATOM     67  C   UNL A   1      37.037  31.264  29.316  1.00  0.00     0.057 A 
ATOM     68  C   UNL A   1      35.878  30.562  28.968  1.00  0.00     0.134 A 
ATOM     69  C   UNL A   1      37.185  32.560  28.803  1.00  0.00     0.134 A 
ATOM     70  F   UNL A   1      35.679  29.313  29.415  1.00  0.00    -0.206 F 
ATOM     71  C   UNL A   1      34.914  31.121  28.125  1.00  0.00     0.040 A 
ATOM     72  C   UNL A   1      36.217  33.139  27.981  1.00  0.00     0.040 A 
ATOM     73  F   UNL A   1      38.268  33.292  29.105  1.00  0.00    -0.206 F 
ATOM     74  C   UNL A   1      35.080  32.415  27.634  1.00  0.00     0.006 A 
ENDBRANCH  53  67
BRANCH  54  75
ATOM     75  C   UNL A   1      44.137  27.286  35.044  1.00  0.00     0.057 A 
ATOM     76  C   UNL A   1      45.371  27.878  35.344  1.00  0.00     0.134 A 
ATOM     77  C   UNL A   1      43.872  26.033  35.609  1.00  0.00     0.134 A 
ATOM     78  F   UNL A   1      45.693  29.067  34.814  1.00  0.00    -0.206 F 
ATOM     79  C   UNL A   1      46.309  27.245  36.160  1.00  0.00     0.040 A 
ATOM     80  C   UNL A   1      44.787  25.404  36.455  1.00  0.00     0.040 A 
ATOM     81  F   UNL A   1      42.711  25.409  35.360  1.00  0.00    -0.206 F 
ATOM     82  C   UNL A   1      46.014  26.007  36.726  1.00  0.00     0.006 A 
ENDBRANCH  54  75
BRANCH  66  83
ATOM     83  C   UNL A   1      39.182  32.035  36.155  1.00  0.00     0.057 A 
ATOM     84  C   UNL A   1      39.790  33.267  36.428  1.00  0.00     0.134 A 
ATOM     85  C   UNL A   1      38.173  31.603  37.025  1.00  0.00     0.134 A 
ATOM     86  F   UNL A   1      40.770  33.731  35.637  1.00  0.00    -0.206 F 
ATOM     87  C   UNL A   1      39.422  34.032  37.535  1.00  0.00     0.040 A 
ATOM     88  C   UNL A   1      37.781  32.370  38.123  1.00  0.00     0.040 A 
ATOM     89  F   UNL A   1      37.544  30.437  36.815  1.00  0.00    -0.206 F 
ATOM     90  C   UNL A   1      38.410  33.587  38.383  1.00  0.00     0.006 A 
ENDBRANCH  66  83
ENDBRANCH  40  41
ENDBRANCH  33  35
ENDBRANCH  32  33
ENDBRANCH  31  32
ENDBRANCH  30  31
ENDBRANCH   1  30
TORSDOF 16
ENDMDL
MODEL 2
REMARK VINA RESULT:     -12.4      0.650      6.035
REMARK SMILES C[C@@H](C(=O)OCCOC(=O)c1ccc(-c2c3nc(c(-c4c(F)cccc4F)c4ccc([nH]4)c(-c4c(F)cccc4F)c4nc(c(-c5c(F)cccc5F)c5ccc2[nH]5)C=C4)C=C3)cc1)c1ccc(-c2cccc(OC(=O)Nc3ccccc3)c2)c(F)c1
REMARK SMILES IDX 5 1 3 2 4 3 2 4 1 5 65 6 66 7 87 8 67 9 85 10 68 11 86 12
REMARK SMILES IDX 69 13 70 14 84 15 71 16 73 17 72 18 74 19 75 20 76 21 77 22
REMARK SMILES IDX 78 24 79 25 83 26 80 27 82 28 81 29 6 30 7 31 8 32 9 33
REMARK SMILES IDX 10 34 11 35 12 36 64 37 13 38 63 39 14 40 15 41 16 42 57 43
REMARK SMILES IDX 17 44 62 45 56 46 58 47 18 48 61 49 55 50 54 51 19 53 45 54
REMARK SMILES IDX 28 55 44 56 29 57 32 58 43 59 59 60 30 61 31 62 42 64 60 65
REMARK SMILES IDX 33 66 20 67 21 68 26 69 22 70 23 71 25 72 27 73 24 74 46 75
REMARK SMILES IDX 47 76 52 77 48 78 49 79 51 80 53 81 50 82 34 83 35 84 40 85
REMARK SMILES IDX 36 86 37 87 39 88 41 89 38 90
REMARK H PARENT 77 23 58 52 32 63
REMARK Flexibility Score: inf
ROOT
ATOM      1  O   UNL A   1      42.899  21.682  25.129  1.00  0.00    -0.462 OA
ENDROOT
BRANCH   1   2
ATOM      2  C   UNL A   1      42.267  20.643  25.743  1.00  0.00     0.313 C 
ATOM      3  O   UNL A   1      42.354  19.477  25.370  1.00  0.00    -0.252 OA
BRANCH   2   4
ATOM      4  C   UNL A   1      41.387  21.098  26.920  1.00  0.00     0.126 C 
ATOM      5  C   UNL A   1      41.197  19.997  27.973  1.00  0.00     0.025 C 
BRANCH   4   6
ATOM      6  C   UNL A   1      40.073  21.724  26.442  1.00  0.00    -0.031 A 
ATOM      7  C   UNL A   1      39.155  20.943  25.718  1.00  0.00     0.005 A 
ATOM      8  C   UNL A   1      39.714  23.049  26.719  1.00  0.00     0.044 A 
ATOM      9  C   UNL A   1      37.920  21.464  25.303  1.00  0.00     0.012 A 
ATOM     10  C   UNL A   1      38.485  23.565  26.293  1.00  0.00     0.131 A 
ATOM     11  C   UNL A   1      37.557  22.791  25.584  1.00  0.00     0.018 A 
ATOM     12  F   UNL A   1      38.198  24.834  26.622  1.00  0.00    -0.206 F 
BRANCH  11  13
ATOM     13  C   UNL A   1      36.254  23.337  25.155  1.00  0.00    -0.012 A 
ATOM     14  C   UNL A   1      35.906  23.435  23.794  1.00  0.00     0.009 A 
ATOM     15  C   UNL A   1      35.324  23.796  26.101  1.00  0.00     0.056 A 
ATOM     16  C   UNL A   1      34.667  23.947  23.397  1.00  0.00     0.004 A 
ATOM     17  C   UNL A   1      34.116  24.361  25.697  1.00  0.00     0.133 A 
ATOM     18  C   UNL A   1      33.767  24.406  24.349  1.00  0.00     0.047 A 
BRANCH  17  19
ATOM     19  O   UNL A   1      33.183  24.949  26.572  1.00  0.00    -0.410 OA
BRANCH  19  20
ATOM     20  C   UNL A   1      31.827  24.670  26.464  1.00  0.00     0.417 C 
ATOM     21  O   UNL A   1      31.309  23.561  26.555  1.00  0.00    -0.224 OA
ATOM     22  N   UNL A   1      31.018  25.773  26.354  1.00  0.00    -0.291 N 
ATOM     23  H   UNL A   1      30.055  25.570  26.314  1.00  0.00     0.173 HD
BRANCH  22  24
ATOM     24  C   UNL A   1      31.328  27.139  26.290  1.00  0.00     0.044 A 
ATOM     25  C   UNL A   1      31.308  27.724  25.017  1.00  0.00     0.026 A 
ATOM     26  C   UNL A   1      31.653  27.931  27.392  1.00  0.00     0.026 A 
ATOM     27  C   UNL A   1      31.565  29.086  24.853  1.00  0.00     0.002 A 
ATOM     28  C   UNL A   1      31.925  29.293  27.227  1.00  0.00     0.002 A 
ATOM     29  C   UNL A   1      31.872  29.872  25.960  1.00  0.00     0.000 A 
ENDBRANCH  22  24
ENDBRANCH  19  20
ENDBRANCH  17  19
ENDBRANCH  11  13
ENDBRANCH   4   6
ENDBRANCH   2   4
ENDBRANCH   1   2
BRANCH   1  30
ATOM     30  C   UNL A   1      44.305  21.520  24.852  1.00  0.00     0.274 C 
BRANCH  30  31
ATOM     31  C   UNL A   1      44.884  22.811  24.279  1.00  0.00     0.275 C 
BRANCH  31  32
ATOM     32  O   UNL A   1      44.057  23.928  24.653  1.00  0.00    -0.458 OA
BRANCH  32  33
ATOM     33  C   UNL A   1      44.715  25.042  25.045  1.00  0.00     0.338 C 
ATOM     34  O   UNL A   1      45.799  25.447  24.662  1.00  0.00    -0.246 OA
BRANCH  33  35
ATOM     35  C   UNL A   1      43.890  25.765  26.024  1.00  0.00     0.060 A 
ATOM     36  C   UNL A   1      43.961  27.153  26.060  1.00  0.00     0.016 A 
ATOM     37  C   UNL A   1      43.153  25.073  26.985  1.00  0.00     0.016 A 
ATOM     38  C   UNL A   1      43.371  27.846  27.111  1.00  0.00     0.010 A 
ATOM     39  C   UNL A   1      42.494  25.784  27.998  1.00  0.00     0.010 A 
ATOM     40  C   UNL A   1      42.633  27.179  28.100  1.00  0.00    -0.014 A 
BRANCH  40  41
ATOM     41  C   UNL A   1      42.088  27.947  29.258  1.00  0.00     0.031 A 
ATOM     42  C   UNL A   1      42.916  28.131  30.506  1.00  0.00     0.074 A 
ATOM     43  C   UNL A   1      40.887  28.556  29.175  1.00  0.00     0.049 A 
ATOM     44  N   UNL A   1      42.580  28.669  31.654  1.00  0.00    -0.248 NA
ATOM     45  C   UNL A   1      44.298  27.629  30.467  1.00  0.00     0.031 C 
ATOM     46  C   UNL A   1      40.012  28.545  28.002  1.00  0.00     0.029 A 
ATOM     47  N   UNL A   1      40.222  29.359  30.071  1.00  0.00    -0.354 N 
ATOM     48  C   UNL A   1      43.674  28.493  32.492  1.00  0.00     0.074 A 
ATOM     49  C   UNL A   1      44.695  27.820  31.718  1.00  0.00     0.031 C 
ATOM     50  C   UNL A   1      38.994  29.396  28.205  1.00  0.00     0.029 A 
ATOM     51  C   UNL A   1      39.086  29.935  29.557  1.00  0.00     0.049 A 
ATOM     52  H   UNL A   1      40.532  29.507  30.995  1.00  0.00     0.167 HD
ATOM     53  C   UNL A   1      43.807  28.843  33.794  1.00  0.00     0.037 A 
ATOM     54  C   UNL A   1      38.221  30.809  30.110  1.00  0.00     0.037 A 
ATOM     55  C   UNL A   1      42.830  29.596  34.537  1.00  0.00     0.049 A 
ATOM     56  C   UNL A   1      38.405  31.216  31.545  1.00  0.00     0.074 A 
ATOM     57  C   UNL A   1      42.856  29.969  35.870  1.00  0.00     0.029 A 
ATOM     58  N   UNL A   1      41.668  30.124  33.997  1.00  0.00    -0.354 N 
ATOM     59  N   UNL A   1      39.397  30.955  32.361  1.00  0.00    -0.248 NA
ATOM     60  C   UNL A   1      37.326  32.012  32.148  1.00  0.00     0.031 C 
ATOM     61  C   UNL A   1      41.693  30.697  36.144  1.00  0.00     0.029 A 
ATOM     62  C   UNL A   1      40.963  30.810  34.973  1.00  0.00     0.049 A 
ATOM     63  H   UNL A   1      41.385  30.026  33.059  1.00  0.00     0.167 HD
ATOM     64  C   UNL A   1      39.056  31.540  33.573  1.00  0.00     0.074 A 
ATOM     65  C   UNL A   1      37.793  32.219  33.371  1.00  0.00     0.031 C 
ATOM     66  C   UNL A   1      39.713  31.491  34.757  1.00  0.00     0.037 A 
BRANCH  53  67
ATOM     67  C   UNL A   1      45.023  28.353  34.525  1.00  0.00     0.057 A 
ATOM     68  C   UNL A   1      45.133  27.052  35.025  1.00  0.00     0.134 A 
ATOM     69  C   UNL A   1      46.124  29.205  34.694  1.00  0.00     0.134 A 
ATOM     70  F   UNL A   1      44.112  26.190  34.906  1.00  0.00    -0.206 F 
ATOM     71  C   UNL A   1      46.286  26.620  35.686  1.00  0.00     0.040 A 
ATOM     72  C   UNL A   1      47.291  28.778  35.330  1.00  0.00     0.040 A 
ATOM     73  F   UNL A   1      46.089  30.463  34.230  1.00  0.00    -0.206 F 
ATOM     74  C   UNL A   1      47.371  27.483  35.834  1.00  0.00     0.006 A 
ENDBRANCH  53  67
BRANCH  54  75
ATOM     75  C   UNL A   1      37.107  31.380  29.307  1.00  0.00     0.057 A 
ATOM     76  C   UNL A   1      35.970  30.612  29.025  1.00  0.00     0.134 A 
ATOM     77  C   UNL A   1      37.148  32.681  28.791  1.00  0.00     0.134 A 
ATOM     78  F   UNL A   1      35.883  29.350  29.471  1.00  0.00    -0.206 F 
ATOM     79  C   UNL A   1      34.922  31.110  28.251  1.00  0.00     0.040 A 
ATOM     80  C   UNL A   1      36.091  33.204  28.044  1.00  0.00     0.040 A 
ATOM     81  F   UNL A   1      38.208  33.469  29.021  1.00  0.00    -0.206 F 
ATOM     82  C   UNL A   1      34.977  32.414  27.765  1.00  0.00     0.006 A 
ENDBRANCH  54  75
BRANCH  66  83
ATOM     83  C   UNL A   1      39.080  32.187  35.925  1.00  0.00     0.057 A 
ATOM     84  C   UNL A   1      38.216  31.512  36.797  1.00  0.00     0.134 A 
ATOM     85  C   UNL A   1      39.371  33.527  36.210  1.00  0.00     0.134 A 
ATOM     86  F   UNL A   1      37.891  30.230  36.572  1.00  0.00    -0.206 F 
ATOM     87  C   UNL A   1      37.647  32.151  37.899  1.00  0.00     0.040 A 
ATOM     88  C   UNL A   1      38.826  34.170  37.322  1.00  0.00     0.040 A 
ATOM     89  F   UNL A   1      40.200  34.228  35.420  1.00  0.00    -0.206 F 
ATOM     90  C   UNL A   1      37.957  33.482  38.167  1.00  0.00     0.006 A 
ENDBRANCH  66  83
ENDBRANCH  40  41
ENDBRANCH  33  35
ENDBRANCH  32  33
ENDBRANCH  31  32
ENDBRANCH  30  31
ENDBRANCH   1  30
TORSDOF 16
ENDMDL
MODEL 3
REMARK VINA RESULT:     -12.4      2.026      6.859
REMARK SMILES C[C@@H](C(=O)OCCOC(=O)c1ccc(-c2c3nc(c(-c4c(F)cccc4F)c4ccc([nH]4)c(-c4c(F)cccc4F)c4nc(c(-c5c(F)cccc5F)c5ccc2[nH]5)C=C4)C=C3)cc1)c1ccc(-c2cccc(OC(=O)Nc3ccccc3)c2)c(F)c1
REMARK SMILES IDX 5 1 3 2 4 3 2 4 1 5 65 6 66 7 87 8 67 9 85 10 68 11 86 12
REMARK SMILES IDX 69 13 70 14 84 15 71 16 73 17 72 18 74 19 75 20 76 21 77 22
REMARK SMILES IDX 78 24 79 25 83 26 80 27 82 28 81 29 6 30 7 31 8 32 9 33
REMARK SMILES IDX 10 34 11 35 12 36 64 37 13 38 63 39 14 40 15 41 16 42 57 43
REMARK SMILES IDX 17 44 62 45 56 46 58 47 18 48 61 49 55 50 54 51 19 53 45 54
REMARK SMILES IDX 28 55 44 56 29 57 32 58 43 59 59 60 30 61 31 62 42 64 60 65
REMARK SMILES IDX 33 66 20 67 21 68 26 69 22 70 23 71 25 72 27 73 24 74 46 75
REMARK SMILES IDX 47 76 52 77 48 78 49 79 51 80 53 81 50 82 34 83 35 84 40 85
REMARK SMILES IDX 36 86 37 87 39 88 41 89 38 90
REMARK H PARENT 77 23 58 52 32 63
REMARK Flexibility Score: inf
ROOT
ATOM      1  O   UNL A   1      43.521  20.287  24.900  1.00  0.00    -0.462 OA
ENDROOT
BRANCH   1   2
ATOM      2  C   UNL A   1      43.089  19.269  25.694  1.00  0.00     0.313 C 
ATOM      3  O   UNL A   1      43.329  18.086  25.476  1.00  0.00    -0.252 OA
BRANCH   2   4
ATOM      4  C   UNL A   1      42.217  19.759  26.864  1.00  0.00     0.126 C 
ATOM      5  C   UNL A   1      42.093  18.716  27.983  1.00  0.00     0.025 C 
BRANCH   4   6
ATOM      6  C   UNL A   1      40.870  20.306  26.383  1.00  0.00    -0.031 A 
ATOM      7  C   UNL A   1      40.565  21.666  26.572  1.00  0.00     0.005 A 
ATOM      8  C   UNL A   1      39.918  19.518  25.724  1.00  0.00     0.044 A 
ATOM      9  C   UNL A   1      39.362  22.217  26.105  1.00  0.00     0.012 A 
ATOM     10  C   UNL A   1      38.716  20.073  25.270  1.00  0.00     0.131 A 
ATOM     11  C   UNL A   1      38.409  21.429  25.440  1.00  0.00     0.018 A 
ATOM     12  F   UNL A   1      37.866  19.262  24.621  1.00  0.00    -0.206 F 
BRANCH  11  13
ATOM     13  C   UNL A   1      37.147  22.010  24.941  1.00  0.00    -0.012 A 
ATOM     14  C   UNL A   1      37.134  23.155  24.122  1.00  0.00     0.009 A 
ATOM     15  C   UNL A   1      35.911  21.442  25.287  1.00  0.00     0.056 A 
ATOM     16  C   UNL A   1      35.935  23.696  23.648  1.00  0.00     0.004 A 
ATOM     17  C   UNL A   1      34.717  22.020  24.861  1.00  0.00     0.133 A 
ATOM     18  C   UNL A   1      34.723  23.124  24.013  1.00  0.00     0.047 A 
BRANCH  17  19
ATOM     19  O   UNL A   1      33.438  21.583  25.258  1.00  0.00    -0.410 OA
BRANCH  19  20
ATOM     20  C   UNL A   1      33.268  20.808  26.396  1.00  0.00     0.417 C 
ATOM     21  O   UNL A   1      33.119  21.228  27.540  1.00  0.00    -0.224 OA
ATOM     22  N   UNL A   1      33.154  19.460  26.164  1.00  0.00    -0.291 N 
ATOM     23  H   UNL A   1      32.998  18.919  26.973  1.00  0.00     0.173 HD
BRANCH  22  24
ATOM     24  C   UNL A   1      33.222  18.722  24.974  1.00  0.00     0.044 A 
ATOM     25  C   UNL A   1      34.240  17.764  24.892  1.00  0.00     0.026 A 
ATOM     26  C   UNL A   1      32.359  18.885  23.890  1.00  0.00     0.026 A 
ATOM     27  C   UNL A   1      34.367  16.951  23.763  1.00  0.00     0.002 A 
ATOM     28  C   UNL A   1      32.494  18.082  22.753  1.00  0.00     0.002 A 
ATOM     29  C   UNL A   1      33.491  17.110  22.694  1.00  0.00     0.000 A 
ENDBRANCH  22  24
ENDBRANCH  19  20
ENDBRANCH  17  19
ENDBRANCH  11  13
ENDBRANCH   4   6
ENDBRANCH   2   4
ENDBRANCH   1   2
BRANCH   1  30
ATOM     30  C   UNL A   1      44.928  20.599  24.945  1.00  0.00     0.274 C 
BRANCH  30  31
ATOM     31  C   UNL A   1      45.165  21.862  25.770  1.00  0.00     0.275 C 
BRANCH  31  32
ATOM     32  O   UNL A   1      43.987  22.687  25.753  1.00  0.00    -0.458 OA
BRANCH  32  33
ATOM     33  C   UNL A   1      44.182  23.986  25.435  1.00  0.00     0.338 C 
ATOM     34  O   UNL A   1      44.839  24.442  24.515  1.00  0.00    -0.246 OA
BRANCH  33  35
ATOM     35  C   UNL A   1      43.427  24.828  26.373  1.00  0.00     0.060 A 
ATOM     36  C   UNL A   1      43.604  26.206  26.325  1.00  0.00     0.016 A 
ATOM     37  C   UNL A   1      42.649  24.253  27.379  1.00  0.00     0.016 A 
ATOM     38  C   UNL A   1      43.080  27.004  27.336  1.00  0.00     0.010 A 
ATOM     39  C   UNL A   1      42.058  25.073  28.351  1.00  0.00     0.010 A 
ATOM     40  C   UNL A   1      42.305  26.457  28.368  1.00  0.00    -0.014 A 
BRANCH  40  41
ATOM     41  C   UNL A   1      41.833  27.332  29.482  1.00  0.00     0.031 A 
ATOM     42  C   UNL A   1      42.679  27.511  30.718  1.00  0.00     0.074 A 
ATOM     43  C   UNL A   1      40.689  28.038  29.363  1.00  0.00     0.049 A 
ATOM     44  N   UNL A   1      42.395  28.140  31.834  1.00  0.00    -0.248 NA
ATOM     45  C   UNL A   1      44.012  26.889  30.709  1.00  0.00     0.031 C 
ATOM     46  C   UNL A   1      39.812  28.038  28.192  1.00  0.00     0.029 A 
ATOM     47  N   UNL A   1      40.101  28.944  30.213  1.00  0.00    -0.354 N 
ATOM     48  C   UNL A   1      43.473  27.915  32.682  1.00  0.00     0.074 A 
ATOM     49  C   UNL A   1      44.428  27.114  31.947  1.00  0.00     0.031 C 
ATOM     50  C   UNL A   1      38.873  28.985  28.347  1.00  0.00     0.029 A 
ATOM     51  C   UNL A   1      39.017  29.588  29.667  1.00  0.00     0.049 A 
ATOM     52  H   UNL A   1      40.425  29.115  31.127  1.00  0.00     0.167 HD
ATOM     53  C   UNL A   1      43.640  28.324  33.963  1.00  0.00     0.037 A 
ATOM     54  C   UNL A   1      38.233  30.563  30.169  1.00  0.00     0.037 A 
ATOM     55  C   UNL A   1      42.735  29.200  34.661  1.00  0.00     0.049 A 
ATOM     56  C   UNL A   1      38.457  31.031  31.580  1.00  0.00     0.074 A 
ATOM     57  C   UNL A   1      42.800  29.642  35.972  1.00  0.00     0.029 A 
ATOM     58  N   UNL A   1      41.622  29.795  34.091  1.00  0.00    -0.354 N 
ATOM     59  N   UNL A   1      39.426  30.730  32.410  1.00  0.00    -0.248 NA
ATOM     60  C   UNL A   1      37.454  31.950  32.136  1.00  0.00     0.031 C 
ATOM     61  C   UNL A   1      41.705  30.482  36.204  1.00  0.00     0.029 A 
ATOM     62  C   UNL A   1      40.983  30.593  35.028  1.00  0.00     0.049 A 
ATOM     63  H   UNL A   1      41.328  29.671  33.161  1.00  0.00     0.167 HD
ATOM     64  C   UNL A   1      39.142  31.408  33.588  1.00  0.00     0.074 A 
ATOM     65  C   UNL A   1      37.942  32.183  33.346  1.00  0.00     0.031 C 
ATOM     66  C   UNL A   1      39.797  31.368  34.772  1.00  0.00     0.037 A 
BRANCH  53  67
ATOM     67  C   UNL A   1      44.812  27.771  34.721  1.00  0.00     0.057 A 
ATOM     68  C   UNL A   1      46.037  28.439  34.814  1.00  0.00     0.134 A 
ATOM     69  C   UNL A   1      44.686  26.553  35.404  1.00  0.00     0.134 A 
ATOM     70  F   UNL A   1      46.227  29.603  34.175  1.00  0.00    -0.206 F 
ATOM     71  C   UNL A   1      47.104  27.905  35.542  1.00  0.00     0.040 A 
ATOM     72  C   UNL A   1      45.736  26.022  36.156  1.00  0.00     0.040 A 
ATOM     73  F   UNL A   1      43.535  25.865  35.365  1.00  0.00    -0.206 F 
ATOM     74  C   UNL A   1      46.952  26.696  36.220  1.00  0.00     0.006 A 
ENDBRANCH  53  67
BRANCH  54  75
ATOM     75  C   UNL A   1      37.171  31.184  29.335  1.00  0.00     0.057 A 
ATOM     76  C   UNL A   1      37.330  32.484  28.836  1.00  0.00     0.134 A 
ATOM     77  C   UNL A   1      35.977  30.520  29.028  1.00  0.00     0.134 A 
ATOM     78  F   UNL A   1      38.441  33.181  29.116  1.00  0.00    -0.206 F 
ATOM     79  C   UNL A   1      36.339  33.104  28.074  1.00  0.00     0.040 A 
ATOM     80  C   UNL A   1      34.992  31.115  28.238  1.00  0.00     0.040 A 
ATOM     81  F   UNL A   1      35.759  29.275  29.476  1.00  0.00    -0.206 F 
ATOM     82  C   UNL A   1      35.168  32.415  27.766  1.00  0.00     0.006 A 
ENDBRANCH  54  75
BRANCH  66  83
ATOM     83  C   UNL A   1      39.232  32.181  35.900  1.00  0.00     0.057 A 
ATOM     84  C   UNL A   1      38.315  31.632  36.807  1.00  0.00     0.134 A 
ATOM     85  C   UNL A   1      39.639  33.503  36.110  1.00  0.00     0.134 A 
ATOM     86  F   UNL A   1      37.878  30.373  36.654  1.00  0.00    -0.206 F 
ATOM     87  C   UNL A   1      37.808  32.378  37.871  1.00  0.00     0.040 A 
ATOM     88  C   UNL A   1      39.156  34.252  37.184  1.00  0.00     0.040 A 
ATOM     89  F   UNL A   1      40.522  34.085  35.283  1.00  0.00    -0.206 F 
ATOM     90  C   UNL A   1      38.234  33.690  38.066  1.00  0.00     0.006 A 
ENDBRANCH  66  83
ENDBRANCH  40  41
ENDBRANCH  33  35
ENDBRANCH  32  33
ENDBRANCH  31  32
ENDBRANCH  30  31
ENDBRANCH   1  30
TORSDOF 16
ENDMDL
