MODEL 1
REMARK VINA RESULT:     -12.5      0.000      0.000
REMARK SMILES Cc1nn(C(C)C)c(C)c1S(=O)(=O)Nc1cccc(C(=O)OCCOC(=O)c2ccc(-c3c4nc(c(-c5c(F)cccc5F)c5ccc([nH]5)c(-c5c(F)cccc5F)c5nc(c(-c6c(F)cccc6F)c6ccc3[nH]6)C=C5)C=C4)cc2)c1C
REMARK SMILES IDX 23 1 22 2 20 3 21 4 19 5 15 6 16 7 82 8 17 9 83 10 18 11
REMARK SMILES IDX 14 12 11 14 12 15 13 16 10 17 1 18 2 19 3 20 4 21 8 22 9 23
REMARK SMILES IDX 5 24 6 25 7 26 24 27 25 28 26 29 27 30 28 31 29 32 81 33
REMARK SMILES IDX 30 34 80 35 31 36 32 37 33 38 74 39 34 40 79 41 73 42 75 43
REMARK SMILES IDX 35 44 78 45 72 46 71 47 36 49 62 50 45 51 61 52 46 53 49 54
REMARK SMILES IDX 60 55 76 56 47 57 48 58 59 60 77 61 50 62 37 63 38 64 43 65
REMARK SMILES IDX 39 66 40 67 42 68 44 69 41 70 63 71 64 72 69 73 65 74 66 75
REMARK SMILES IDX 68 76 70 77 67 78 51 79 52 80 57 81 53 82 54 83 56 84 58 85
REMARK SMILES IDX 55 86
REMARK H PARENT 14 13 75 48 49 59
REMARK Flexibility Score: inf
ROOT
ATOM      1  C   UNL A   1      34.006  28.896  26.129  1.00  0.00     0.275 C 
ENDROOT
BRANCH   1   2
ATOM      2  O   UNL A   1      33.476  29.123  24.817  1.00  0.00    -0.458 OA
BRANCH   2   3
ATOM      3  C   UNL A   1      32.177  28.836  24.580  1.00  0.00     0.338 C 
ATOM      4  O   UNL A   1      31.250  29.621  24.537  1.00  0.00    -0.246 OA
BRANCH   3   5
ATOM      5  C   UNL A   1      32.075  27.403  24.196  1.00  0.00     0.065 A 
ATOM      6  C   UNL A   1      31.224  25.142  24.370  1.00  0.00     0.053 A 
ATOM      7  C   UNL A   1      31.694  24.878  23.079  1.00  0.00     0.027 A 
ATOM      8  C   UNL A   1      31.389  26.421  24.951  1.00  0.00    -0.012 A 
ATOM      9  C   UNL A   1      32.384  25.848  22.360  1.00  0.00     0.003 A 
ATOM     10  C   UNL A   1      30.845  26.711  26.323  1.00  0.00     0.047 C 
ATOM     11  C   UNL A   1      32.584  27.102  22.920  1.00  0.00     0.016 A 
BRANCH   6  12
ATOM     12  N   UNL A   1      30.530  24.069  25.015  1.00  0.00    -0.279 N 
ATOM     13  H   UNL A   1      29.570  23.939  24.838  1.00  0.00     0.180 HD
BRANCH  12  14
ATOM     14  S   UNL A   1      31.332  23.016  26.080  1.00  0.00     0.265 S 
ATOM     15  O   UNL A   1      30.503  21.829  26.096  1.00  0.00    -0.201 OA
ATOM     16  O   UNL A   1      31.597  23.735  27.307  1.00  0.00    -0.201 OA
BRANCH  14  17
ATOM     17  C   UNL A   1      32.884  22.487  25.523  1.00  0.00     0.131 A 
ATOM     18  C   UNL A   1      32.210  20.237  24.313  1.00  0.00     0.070 C 
ATOM     19  C   UNL A   1      33.137  21.271  24.837  1.00  0.00     0.080 A 
ATOM     20  N   UNL A   1      34.444  21.106  24.608  1.00  0.00    -0.176 NA
ATOM     21  N   UNL A   1      35.002  22.283  24.936  1.00  0.00    -0.266 N 
ATOM     22  C   UNL A   1      34.094  23.182  25.457  1.00  0.00     0.056 A 
ATOM     23  C   UNL A   1      34.472  24.594  25.746  1.00  0.00     0.068 C 
BRANCH  21  24
ATOM     24  C   UNL A   1      36.421  22.491  24.635  1.00  0.00     0.101 C 
ATOM     25  C   UNL A   1      37.246  21.238  24.927  1.00  0.00     0.033 C 
ATOM     26  C   UNL A   1      36.634  22.960  23.192  1.00  0.00     0.033 C 
ENDBRANCH  21  24
ENDBRANCH  14  17
ENDBRANCH  12  14
ENDBRANCH   6  12
ENDBRANCH   3   5
ENDBRANCH   2   3
ENDBRANCH   1   2
BRANCH   1  27
ATOM     27  C   UNL A   1      33.891  29.961  27.241  1.00  0.00     0.275 C 
BRANCH  27  28
ATOM     28  O   UNL A   1      34.979  30.867  27.553  1.00  0.00    -0.458 OA
BRANCH  28  29
ATOM     29  C   UNL A   1      35.734  30.943  28.672  1.00  0.00     0.338 C 
ATOM     30  O   UNL A   1      35.405  31.577  29.669  1.00  0.00    -0.246 OA
BRANCH  29  31
ATOM     31  C   UNL A   1      36.943  30.128  28.690  1.00  0.00     0.060 A 
ATOM     32  C   UNL A   1      37.087  29.172  29.706  1.00  0.00     0.016 A 
ATOM     33  C   UNL A   1      37.857  30.243  27.649  1.00  0.00     0.016 A 
ATOM     34  C   UNL A   1      38.123  28.259  29.644  1.00  0.00     0.010 A 
ATOM     35  C   UNL A   1      38.813  29.272  27.514  1.00  0.00     0.010 A 
ATOM     36  C   UNL A   1      38.979  28.334  28.547  1.00  0.00    -0.014 A 
BRANCH  36  37
ATOM     37  C   UNL A   1      40.331  27.825  28.624  1.00  0.00     0.031 A 
ATOM     38  C   UNL A   1      40.707  26.509  28.114  1.00  0.00     0.074 A 
ATOM     39  C   UNL A   1      41.174  28.740  29.149  1.00  0.00     0.049 A 
ATOM     40  N   UNL A   1      41.666  25.804  28.599  1.00  0.00    -0.248 NA
ATOM     41  C   UNL A   1      39.989  25.842  27.030  1.00  0.00     0.031 C 
ATOM     42  C   UNL A   1      42.619  28.803  29.176  1.00  0.00     0.029 A 
ATOM     43  N   UNL A   1      40.769  29.823  29.939  1.00  0.00    -0.354 N 
ATOM     44  C   UNL A   1      41.924  24.799  27.693  1.00  0.00     0.074 A 
ATOM     45  C   UNL A   1      40.770  24.774  26.822  1.00  0.00     0.031 C 
ATOM     46  C   UNL A   1      42.984  29.689  30.126  1.00  0.00     0.029 A 
ATOM     47  C   UNL A   1      41.778  30.096  30.848  1.00  0.00     0.049 A 
ATOM     48  H   UNL A   1      39.916  30.306  29.862  1.00  0.00     0.167 HD
ATOM     49  C   UNL A   1      43.183  24.269  27.647  1.00  0.00     0.037 A 
ATOM     50  C   UNL A   1      41.522  29.858  32.169  1.00  0.00     0.037 A 
ATOM     51  C   UNL A   1      44.030  24.918  28.651  1.00  0.00     0.049 A 
ATOM     52  C   UNL A   1      42.372  28.725  32.681  1.00  0.00     0.074 A 
ATOM     53  C   UNL A   1      44.876  26.011  28.541  1.00  0.00     0.029 A 
ATOM     54  N   UNL A   1      43.776  24.752  30.011  1.00  0.00    -0.354 N 
ATOM     55  N   UNL A   1      42.784  27.726  31.947  1.00  0.00    -0.248 NA
ATOM     56  C   UNL A   1      42.849  28.661  34.055  1.00  0.00     0.031 C 
ATOM     57  C   UNL A   1      45.069  26.552  29.835  1.00  0.00     0.029 A 
ATOM     58  C   UNL A   1      44.356  25.779  30.735  1.00  0.00     0.049 A 
ATOM     59  H   UNL A   1      43.258  24.011  30.399  1.00  0.00     0.167 HD
ATOM     60  C   UNL A   1      43.606  26.932  32.698  1.00  0.00     0.074 A 
ATOM     61  C   UNL A   1      43.609  27.553  34.012  1.00  0.00     0.031 C 
ATOM     62  C   UNL A   1      44.247  25.840  32.185  1.00  0.00     0.037 A 
BRANCH  49  63
ATOM     63  C   UNL A   1      43.731  23.513  26.453  1.00  0.00     0.057 A 
ATOM     64  C   UNL A   1      43.577  22.115  26.350  1.00  0.00     0.134 A 
ATOM     65  C   UNL A   1      44.464  24.089  25.402  1.00  0.00     0.134 A 
ATOM     66  F   UNL A   1      42.809  21.422  27.200  1.00  0.00    -0.206 F 
ATOM     67  C   UNL A   1      44.207  21.342  25.365  1.00  0.00     0.040 A 
ATOM     68  C   UNL A   1      45.130  23.325  24.427  1.00  0.00     0.040 A 
ATOM     69  F   UNL A   1      44.536  25.417  25.248  1.00  0.00    -0.206 F 
ATOM     70  C   UNL A   1      45.019  21.943  24.418  1.00  0.00     0.006 A 
ENDBRANCH  49  63
BRANCH  50  71
ATOM     71  C   UNL A   1      40.109  30.111  32.612  1.00  0.00     0.057 A 
ATOM     72  C   UNL A   1      39.592  31.421  32.578  1.00  0.00     0.134 A 
ATOM     73  C   UNL A   1      39.185  29.087  32.853  1.00  0.00     0.134 A 
ATOM     74  F   UNL A   1      40.408  32.464  32.353  1.00  0.00    -0.206 F 
ATOM     75  C   UNL A   1      38.224  31.693  32.697  1.00  0.00     0.040 A 
ATOM     76  C   UNL A   1      37.812  29.348  32.990  1.00  0.00     0.040 A 
ATOM     77  F   UNL A   1      39.578  27.807  32.897  1.00  0.00    -0.206 F 
ATOM     78  C   UNL A   1      37.325  30.650  32.888  1.00  0.00     0.006 A 
ENDBRANCH  50  71
BRANCH  62  79
ATOM     79  C   UNL A   1      44.957  24.801  33.006  1.00  0.00     0.057 A 
ATOM     80  C   UNL A   1      44.452  23.515  33.240  1.00  0.00     0.134 A 
ATOM     81  C   UNL A   1      46.270  25.029  33.475  1.00  0.00     0.134 A 
ATOM     82  F   UNL A   1      43.275  23.119  32.735  1.00  0.00    -0.206 F 
ATOM     83  C   UNL A   1      45.162  22.553  33.965  1.00  0.00     0.040 A 
ATOM     84  C   UNL A   1      47.013  24.054  34.142  1.00  0.00     0.040 A 
ATOM     85  F   UNL A   1      46.899  26.198  33.287  1.00  0.00    -0.206 F 
ATOM     86  C   UNL A   1      46.451  22.817  34.410  1.00  0.00     0.006 A 
ENDBRANCH  62  79
ENDBRANCH  36  37
ENDBRANCH  29  31
ENDBRANCH  28  29
ENDBRANCH  27  28
ENDBRANCH   1  27
TORSDOF 15
ENDMDL
MODEL 2
REMARK VINA RESULT:     -12.5      1.362      1.905
REMARK SMILES Cc1nn(C(C)C)c(C)c1S(=O)(=O)Nc1cccc(C(=O)OCCOC(=O)c2ccc(-c3c4nc(c(-c5c(F)cccc5F)c5ccc([nH]5)c(-c5c(F)cccc5F)c5nc(c(-c6c(F)cccc6F)c6ccc3[nH]6)C=C5)C=C4)cc2)c1C
REMARK SMILES IDX 23 1 22 2 20 3 21 4 19 5 15 6 16 7 82 8 17 9 83 10 18 11
REMARK SMILES IDX 14 12 11 14 12 15 13 16 10 17 1 18 2 19 3 20 4 21 8 22 9 23
REMARK SMILES IDX 5 24 6 25 7 26 24 27 25 28 26 29 27 30 28 31 29 32 81 33
REMARK SMILES IDX 30 34 80 35 31 36 32 37 33 38 74 39 34 40 79 41 73 42 75 43
REMARK SMILES IDX 35 44 78 45 72 46 71 47 36 49 62 50 45 51 61 52 46 53 49 54
REMARK SMILES IDX 60 55 76 56 47 57 48 58 59 60 77 61 50 62 37 63 38 64 43 65
REMARK SMILES IDX 39 66 40 67 42 68 44 69 41 70 63 71 64 72 69 73 65 74 66 75
REMARK SMILES IDX 68 76 70 77 67 78 51 79 52 80 57 81 53 82 54 83 56 84 58 85
REMARK SMILES IDX 55 86
REMARK H PARENT 14 13 75 48 49 59
REMARK Flexibility Score: inf
ROOT
ATOM      1  C   UNL A   1      33.060  30.627  27.009  1.00  0.00     0.275 C 
ENDROOT
BRANCH   1   2
ATOM      2  O   UNL A   1      33.161  29.380  26.311  1.00  0.00    -0.458 OA
BRANCH   2   3
ATOM      3  C   UNL A   1      32.287  28.394  26.609  1.00  0.00     0.338 C 
ATOM      4  O   UNL A   1      31.703  28.225  27.662  1.00  0.00    -0.246 OA
BRANCH   3   5
ATOM      5  C   UNL A   1      32.003  27.627  25.366  1.00  0.00     0.065 A 
ATOM      6  C   UNL A   1      32.247  25.768  23.833  1.00  0.00     0.053 A 
ATOM      7  C   UNL A   1      31.043  26.130  23.220  1.00  0.00     0.027 A 
ATOM      8  C   UNL A   1      32.745  26.501  24.936  1.00  0.00    -0.012 A 
ATOM      9  C   UNL A   1      30.337  27.251  23.643  1.00  0.00     0.003 A 
ATOM     10  C   UNL A   1      34.020  26.083  25.616  1.00  0.00     0.047 C 
ATOM     11  C   UNL A   1      30.820  28.004  24.704  1.00  0.00     0.016 A 
BRANCH   6  12
ATOM     12  N   UNL A   1      32.887  24.598  23.314  1.00  0.00    -0.279 N 
ATOM     13  H   UNL A   1      33.563  24.691  22.604  1.00  0.00     0.180 HD
BRANCH  12  14
ATOM     14  S   UNL A   1      32.501  23.051  23.900  1.00  0.00     0.265 S 
ATOM     15  O   UNL A   1      31.887  22.386  22.769  1.00  0.00    -0.201 OA
ATOM     16  O   UNL A   1      31.768  23.208  25.136  1.00  0.00    -0.201 OA
BRANCH  14  17
ATOM     17  C   UNL A   1      33.876  22.081  24.310  1.00  0.00     0.131 A 
ATOM     18  C   UNL A   1      32.688  19.795  24.890  1.00  0.00     0.070 C 
ATOM     19  C   UNL A   1      33.826  20.739  24.766  1.00  0.00     0.080 A 
ATOM     20  N   UNL A   1      35.045  20.286  25.077  1.00  0.00    -0.176 NA
ATOM     21  N   UNL A   1      35.888  21.229  24.626  1.00  0.00    -0.266 N 
ATOM     22  C   UNL A   1      35.236  22.329  24.105  1.00  0.00     0.056 A 
ATOM     23  C   UNL A   1      35.978  23.421  23.416  1.00  0.00     0.068 C 
BRANCH  21  24
ATOM     24  C   UNL A   1      37.327  20.952  24.659  1.00  0.00     0.101 C 
ATOM     25  C   UNL A   1      38.046  21.839  25.676  1.00  0.00     0.033 C 
ATOM     26  C   UNL A   1      37.615  19.472  24.926  1.00  0.00     0.033 C 
ENDBRANCH  21  24
ENDBRANCH  14  17
ENDBRANCH  12  14
ENDBRANCH   6  12
ENDBRANCH   3   5
ENDBRANCH   2   3
ENDBRANCH   1   2
BRANCH   1  27
ATOM     27  C   UNL A   1      34.290  31.281  27.675  1.00  0.00     0.275 C 
BRANCH  27  28
ATOM     28  O   UNL A   1      35.559  30.589  27.791  1.00  0.00    -0.458 OA
BRANCH  28  29
ATOM     29  C   UNL A   1      36.606  30.855  28.604  1.00  0.00     0.338 C 
ATOM     30  O   UNL A   1      36.656  31.831  29.346  1.00  0.00    -0.246 OA
BRANCH  29  31
ATOM     31  C   UNL A   1      37.660  29.849  28.646  1.00  0.00     0.060 A 
ATOM     32  C   UNL A   1      37.677  28.947  29.719  1.00  0.00     0.016 A 
ATOM     33  C   UNL A   1      38.543  29.744  27.578  1.00  0.00     0.016 A 
ATOM     34  C   UNL A   1      38.542  27.869  29.693  1.00  0.00     0.010 A 
ATOM     35  C   UNL A   1      39.318  28.618  27.484  1.00  0.00     0.010 A 
ATOM     36  C   UNL A   1      39.360  27.731  28.572  1.00  0.00    -0.014 A 
BRANCH  36  37
ATOM     37  C   UNL A   1      40.609  27.005  28.650  1.00  0.00     0.031 A 
ATOM     38  C   UNL A   1      40.710  25.579  28.352  1.00  0.00     0.074 A 
ATOM     39  C   UNL A   1      41.638  27.824  28.955  1.00  0.00     0.049 A 
ATOM     40  N   UNL A   1      41.579  24.798  28.890  1.00  0.00    -0.248 NA
ATOM     41  C   UNL A   1      39.794  24.888  27.448  1.00  0.00     0.031 C 
ATOM     42  C   UNL A   1      43.070  27.629  28.878  1.00  0.00     0.029 A 
ATOM     43  N   UNL A   1      41.495  29.074  29.569  1.00  0.00    -0.354 N 
ATOM     44  C   UNL A   1      41.580  23.632  28.156  1.00  0.00     0.074 A 
ATOM     45  C   UNL A   1      40.362  23.678  27.378  1.00  0.00     0.031 C 
ATOM     46  C   UNL A   1      43.664  28.574  29.635  1.00  0.00     0.029 A 
ATOM     47  C   UNL A   1      42.616  29.301  30.352  1.00  0.00     0.049 A 
ATOM     48  H   UNL A   1      40.731  29.684  29.464  1.00  0.00     0.167 HD
ATOM     49  C   UNL A   1      42.723  22.883  28.122  1.00  0.00     0.037 A 
ATOM     50  C   UNL A   1      42.447  29.326  31.707  1.00  0.00     0.037 A 
ATOM     51  C   UNL A   1      43.756  23.520  28.943  1.00  0.00     0.049 A 
ATOM     52  C   UNL A   1      43.140  28.154  32.352  1.00  0.00     0.074 A 
ATOM     53  C   UNL A   1      44.759  24.411  28.592  1.00  0.00     0.029 A 
ATOM     54  N   UNL A   1      43.606  23.621  30.324  1.00  0.00    -0.354 N 
ATOM     55  N   UNL A   1      43.309  26.994  31.777  1.00  0.00    -0.248 NA
ATOM     56  C   UNL A   1      43.726  28.225  33.684  1.00  0.00     0.031 C 
ATOM     57  C   UNL A   1      45.159  25.106  29.758  1.00  0.00     0.029 A 
ATOM     58  C   UNL A   1      44.414  24.628  30.822  1.00  0.00     0.049 A 
ATOM     59  H   UNL A   1      43.010  23.056  30.867  1.00  0.00     0.167 HD
ATOM     60  C   UNL A   1      44.053  26.195  32.600  1.00  0.00     0.074 A 
ATOM     61  C   UNL A   1      44.282  27.006  33.784  1.00  0.00     0.031 C 
ATOM     62  C   UNL A   1      44.452  24.938  32.244  1.00  0.00     0.037 A 
BRANCH  49  63
ATOM     63  C   UNL A   1      43.023  21.861  27.044  1.00  0.00     0.057 A 
ATOM     64  C   UNL A   1      42.359  20.616  27.023  1.00  0.00     0.134 A 
ATOM     65  C   UNL A   1      43.988  22.014  26.035  1.00  0.00     0.134 A 
ATOM     66  F   UNL A   1      41.331  20.348  27.838  1.00  0.00    -0.206 F 
ATOM     67  C   UNL A   1      42.715  19.569  26.162  1.00  0.00     0.040 A 
ATOM     68  C   UNL A   1      44.380  20.963  25.187  1.00  0.00     0.040 A 
ATOM     69  F   UNL A   1      44.568  23.198  25.797  1.00  0.00    -0.206 F 
ATOM     70  C   UNL A   1      43.755  19.727  25.262  1.00  0.00     0.006 A 
ENDBRANCH  49  63
BRANCH  50  71
ATOM     71  C   UNL A   1      41.145  29.897  32.189  1.00  0.00     0.057 A 
ATOM     72  C   UNL A   1      40.831  31.244  31.919  1.00  0.00     0.134 A 
ATOM     73  C   UNL A   1      40.107  29.112  32.706  1.00  0.00     0.134 A 
ATOM     74  F   UNL A   1      41.767  32.069  31.421  1.00  0.00    -0.206 F 
ATOM     75  C   UNL A   1      39.540  31.762  32.077  1.00  0.00     0.040 A 
ATOM     76  C   UNL A   1      38.812  29.624  32.885  1.00  0.00     0.040 A 
ATOM     77  F   UNL A   1      40.304  27.818  32.989  1.00  0.00    -0.206 F 
ATOM     78  C   UNL A   1      38.519  30.945  32.548  1.00  0.00     0.006 A 
ENDBRANCH  50  71
BRANCH  62  79
ATOM     79  C   UNL A   1      45.052  23.931  33.185  1.00  0.00     0.057 A 
ATOM     80  C   UNL A   1      46.352  24.025  33.698  1.00  0.00     0.134 A 
ATOM     81  C   UNL A   1      44.264  22.890  33.723  1.00  0.00     0.134 A 
ATOM     82  F   UNL A   1      47.164  25.043  33.377  1.00  0.00    -0.206 F 
ATOM     83  C   UNL A   1      46.864  23.101  34.614  1.00  0.00     0.040 A 
ATOM     84  C   UNL A   1      44.743  22.001  34.687  1.00  0.00     0.040 A 
ATOM     85  F   UNL A   1      42.987  22.704  33.357  1.00  0.00    -0.206 F 
ATOM     86  C   UNL A   1      46.056  22.091  35.119  1.00  0.00     0.006 A 
ENDBRANCH  62  79
ENDBRANCH  36  37
ENDBRANCH  29  31
ENDBRANCH  28  29
ENDBRANCH  27  28
ENDBRANCH   1  27
TORSDOF 15
ENDMDL
MODEL 3
REMARK VINA RESULT:     -12.5      1.588      2.639
REMARK SMILES Cc1nn(C(C)C)c(C)c1S(=O)(=O)Nc1cccc(C(=O)OCCOC(=O)c2ccc(-c3c4nc(c(-c5c(F)cccc5F)c5ccc([nH]5)c(-c5c(F)cccc5F)c5nc(c(-c6c(F)cccc6F)c6ccc3[nH]6)C=C5)C=C4)cc2)c1C
REMARK SMILES IDX 23 1 22 2 20 3 21 4 19 5 15 6 16 7 82 8 17 9 83 10 18 11
REMARK SMILES IDX 14 12 11 14 12 15 13 16 10 17 1 18 2 19 3 20 4 21 8 22 9 23
REMARK SMILES IDX 5 24 6 25 7 26 24 27 25 28 26 29 27 30 28 31 29 32 81 33
REMARK SMILES IDX 30 34 80 35 31 36 32 37 33 38 74 39 34 40 79 41 73 42 75 43
REMARK SMILES IDX 35 44 78 45 72 46 71 47 36 49 62 50 45 51 61 52 46 53 49 54
REMARK SMILES IDX 60 55 76 56 47 57 48 58 59 60 77 61 50 62 37 63 38 64 43 65
REMARK SMILES IDX 39 66 40 67 42 68 44 69 41 70 63 71 64 72 69 73 65 74 66 75
REMARK SMILES IDX 68 76 70 77 67 78 51 79 52 80 57 81 53 82 54 83 56 84 58 85
REMARK SMILES IDX 55 86
REMARK H PARENT 14 13 75 48 49 59
REMARK Flexibility Score: inf
ROOT
ATOM      1  C   UNL A   1      33.337  29.923  27.055  1.00  0.00     0.275 C 
ENDROOT
BRANCH   1   2
ATOM      2  O   UNL A   1      32.449  28.809  26.901  1.00  0.00    -0.458 OA
BRANCH   2   3
ATOM      3  C   UNL A   1      31.727  28.703  25.764  1.00  0.00     0.338 C 
ATOM      4  O   UNL A   1      31.377  29.608  25.031  1.00  0.00    -0.246 OA
BRANCH   3   5
ATOM      5  C   UNL A   1      31.571  27.260  25.439  1.00  0.00     0.065 A 
ATOM      6  C   UNL A   1      32.307  25.110  24.601  1.00  0.00     0.053 A 
ATOM      7  C   UNL A   1      31.259  24.494  25.294  1.00  0.00     0.027 A 
ATOM      8  C   UNL A   1      32.497  26.510  24.675  1.00  0.00    -0.012 A 
ATOM      9  C   UNL A   1      30.346  25.249  26.023  1.00  0.00     0.003 A 
ATOM     10  C   UNL A   1      33.650  27.161  23.961  1.00  0.00     0.047 C 
ATOM     11  C   UNL A   1      30.495  26.628  26.086  1.00  0.00     0.016 A 
BRANCH   6  12
ATOM     12  N   UNL A   1      33.183  24.234  23.884  1.00  0.00    -0.279 N 
ATOM     13  H   UNL A   1      32.986  24.016  22.945  1.00  0.00     0.180 HD
BRANCH  12  14
ATOM     14  S   UNL A   1      34.558  23.564  24.625  1.00  0.00     0.265 S 
ATOM     15  O   UNL A   1      34.435  23.950  26.015  1.00  0.00    -0.201 OA
ATOM     16  O   UNL A   1      35.719  23.961  23.860  1.00  0.00    -0.201 OA
BRANCH  14  17
ATOM     17  C   UNL A   1      34.590  21.832  24.629  1.00  0.00     0.131 A 
ATOM     18  C   UNL A   1      36.978  21.407  25.677  1.00  0.00     0.070 C 
ATOM     19  C   UNL A   1      35.687  21.034  25.046  1.00  0.00     0.080 A 
ATOM     20  N   UNL A   1      35.440  19.734  24.858  1.00  0.00    -0.176 NA
ATOM     21  N   UNL A   1      34.137  19.674  24.539  1.00  0.00    -0.266 N 
ATOM     22  C   UNL A   1      33.552  20.919  24.429  1.00  0.00     0.056 A 
ATOM     23  C   UNL A   1      32.084  21.077  24.231  1.00  0.00     0.068 C 
BRANCH  21  24
ATOM     24  C   UNL A   1      33.503  18.356  24.437  1.00  0.00     0.101 C 
ATOM     25  C   UNL A   1      34.510  17.280  24.032  1.00  0.00     0.033 C 
ATOM     26  C   UNL A   1      32.783  17.970  25.733  1.00  0.00     0.033 C 
ENDBRANCH  21  24
ENDBRANCH  14  17
ENDBRANCH  12  14
ENDBRANCH   6  12
ENDBRANCH   3   5
ENDBRANCH   2   3
ENDBRANCH   1   2
BRANCH   1  27
ATOM     27  C   UNL A   1      34.831  29.723  27.390  1.00  0.00     0.275 C 
BRANCH  27  28
ATOM     28  O   UNL A   1      35.487  30.467  28.449  1.00  0.00    -0.458 OA
BRANCH  28  29
ATOM     29  C   UNL A   1      36.767  30.892  28.528  1.00  0.00     0.338 C 
ATOM     30  O   UNL A   1      37.083  32.071  28.651  1.00  0.00    -0.246 OA
BRANCH  29  31
ATOM     31  C   UNL A   1      37.790  29.854  28.570  1.00  0.00     0.060 A 
ATOM     32  C   UNL A   1      37.772  28.944  29.637  1.00  0.00     0.016 A 
ATOM     33  C   UNL A   1      38.676  29.728  27.506  1.00  0.00     0.016 A 
ATOM     34  C   UNL A   1      38.603  27.841  29.609  1.00  0.00     0.010 A 
ATOM     35  C   UNL A   1      39.415  28.579  27.409  1.00  0.00     0.010 A 
ATOM     36  C   UNL A   1      39.424  27.684  28.493  1.00  0.00    -0.014 A 
BRANCH  36  37
ATOM     37  C   UNL A   1      40.649  26.919  28.573  1.00  0.00     0.031 A 
ATOM     38  C   UNL A   1      40.696  25.481  28.327  1.00  0.00     0.074 A 
ATOM     39  C   UNL A   1      41.711  27.714  28.826  1.00  0.00     0.049 A 
ATOM     40  N   UNL A   1      41.549  24.692  28.877  1.00  0.00    -0.248 NA
ATOM     41  C   UNL A   1      39.739  24.789  27.468  1.00  0.00     0.031 C 
ATOM     42  C   UNL A   1      43.133  27.467  28.729  1.00  0.00     0.029 A 
ATOM     43  N   UNL A   1      41.623  28.990  29.396  1.00  0.00    -0.354 N 
ATOM     44  C   UNL A   1      41.496  23.499  28.188  1.00  0.00     0.074 A 
ATOM     45  C   UNL A   1      40.265  23.558  27.432  1.00  0.00     0.031 C 
ATOM     46  C   UNL A   1      43.774  28.419  29.438  1.00  0.00     0.029 A 
ATOM     47  C   UNL A   1      42.766  29.207  30.147  1.00  0.00     0.049 A 
ATOM     48  H   UNL A   1      40.877  29.622  29.283  1.00  0.00     0.167 HD
ATOM     49  C   UNL A   1      42.612  22.712  28.159  1.00  0.00     0.037 A 
ATOM     50  C   UNL A   1      42.627  29.288  31.504  1.00  0.00     0.037 A 
ATOM     51  C   UNL A   1      43.683  23.343  28.935  1.00  0.00     0.049 A 
ATOM     52  C   UNL A   1      43.294  28.118  32.179  1.00  0.00     0.074 A 
ATOM     53  C   UNL A   1      44.708  24.185  28.531  1.00  0.00     0.029 A 
ATOM     54  N   UNL A   1      43.566  23.499  30.314  1.00  0.00    -0.354 N 
ATOM     55  N   UNL A   1      43.412  26.933  31.644  1.00  0.00    -0.248 NA
ATOM     56  C   UNL A   1      43.909  28.218  33.495  1.00  0.00     0.031 C 
ATOM     57  C   UNL A   1      45.155  24.909  29.662  1.00  0.00     0.029 A 
ATOM     58  C   UNL A   1      44.417  24.496  30.758  1.00  0.00     0.049 A 
ATOM     59  H   UNL A   1      42.962  22.976  30.890  1.00  0.00     0.167 HD
ATOM     60  C   UNL A   1      44.146  26.139  32.482  1.00  0.00     0.074 A 
ATOM     61  C   UNL A   1      44.426  26.985  33.630  1.00  0.00     0.031 C 
ATOM     62  C   UNL A   1      44.495  24.857  32.165  1.00  0.00     0.037 A 
BRANCH  49  63
ATOM     63  C   UNL A   1      42.856  21.641  27.115  1.00  0.00     0.057 A 
ATOM     64  C   UNL A   1      42.163  20.413  27.163  1.00  0.00     0.134 A 
ATOM     65  C   UNL A   1      43.794  21.730  26.073  1.00  0.00     0.134 A 
ATOM     66  F   UNL A   1      41.153  20.202  28.017  1.00  0.00    -0.206 F 
ATOM     67  C   UNL A   1      42.467  19.324  26.334  1.00  0.00     0.040 A 
ATOM     68  C   UNL A   1      44.135  20.637  25.257  1.00  0.00     0.040 A 
ATOM     69  F   UNL A   1      44.394  22.888  25.771  1.00  0.00    -0.206 F 
ATOM     70  C   UNL A   1      43.483  19.420  25.399  1.00  0.00     0.006 A 
ENDBRANCH  49  63
BRANCH  50  71
ATOM     71  C   UNL A   1      41.355  29.921  31.989  1.00  0.00     0.057 A 
ATOM     72  C   UNL A   1      40.325  29.109  32.507  1.00  0.00     0.134 A 
ATOM     73  C   UNL A   1      41.203  31.300  32.170  1.00  0.00     0.134 A 
ATOM     74  F   UNL A   1      40.389  27.773  32.377  1.00  0.00    -0.206 F 
ATOM     75  C   UNL A   1      39.248  29.630  33.231  1.00  0.00     0.040 A 
ATOM     76  C   UNL A   1      40.118  31.838  32.882  1.00  0.00     0.040 A 
ATOM     77  F   UNL A   1      42.131  32.155  31.720  1.00  0.00    -0.206 F 
ATOM     78  C   UNL A   1      39.149  31.002  33.435  1.00  0.00     0.006 A 
ENDBRANCH  50  71
BRANCH  62  79
ATOM     79  C   UNL A   1      45.081  23.866  33.132  1.00  0.00     0.057 A 
ATOM     80  C   UNL A   1      46.372  23.971  33.667  1.00  0.00     0.134 A 
ATOM     81  C   UNL A   1      44.286  22.831  33.672  1.00  0.00     0.134 A 
ATOM     82  F   UNL A   1      47.186  24.986  33.345  1.00  0.00    -0.206 F 
ATOM     83  C   UNL A   1      46.869  23.062  34.606  1.00  0.00     0.040 A 
ATOM     84  C   UNL A   1      44.750  21.958  34.656  1.00  0.00     0.040 A 
ATOM     85  F   UNL A   1      43.017  22.635  33.286  1.00  0.00    -0.206 F 
ATOM     86  C   UNL A   1      46.055  22.057  35.111  1.00  0.00     0.006 A 
ENDBRANCH  62  79
ENDBRANCH  36  37
ENDBRANCH  29  31
ENDBRANCH  28  29
ENDBRANCH  27  28
ENDBRANCH   1  27
TORSDOF 15
ENDMDL
