MODEL 1
REMARK VINA RESULT:     -10.6      0.000      0.000
REMARK SMILES O=C(OCCOC(=O)c1c(C(F)(F)F)nn(-c2ccccc2)c1C(F)(F)Cl)c1ccc(-c2c3nc(c(-c4c(F)cccc4F)c4ccc([nH]4)c(-c4c(F)cccc4F)c4nc(c(-c5c(F)cccc5F)c5ccc2[nH]5)C=C4)C=C3)cc1
REMARK SMILES IDX 4 1 3 2 2 3 1 4 28 5 29 6 81 7 30 8 80 9 31 10 32 11 33 12
REMARK SMILES IDX 74 13 34 14 79 15 73 16 75 17 35 18 78 19 72 20 71 21 36 23
REMARK SMILES IDX 62 24 45 25 61 26 46 27 49 28 60 29 76 30 47 31 48 32 59 34
REMARK SMILES IDX 77 35 50 36 37 37 38 38 43 39 39 40 40 41 42 42 44 43 41 44
REMARK SMILES IDX 63 45 64 46 69 47 65 48 66 49 68 50 70 51 67 52 51 53 52 54
REMARK SMILES IDX 57 55 53 56 54 57 56 58 58 59 55 60 5 61 6 62 7 63 8 64 9 65
REMARK SMILES IDX 10 66 23 67 15 68 16 69 11 70 12 71 13 72 14 73 24 74 25 75
REMARK SMILES IDX 26 76 27 77 17 78 18 79 22 80 19 81 21 82 20 83
REMARK H PARENT 75 22 49 33
REMARK Flexibility Score: inf
ROOT
ATOM      1  C   UNL A   1      33.731  34.163  28.052  1.00  0.00     0.275 C 
ENDROOT
BRANCH   1   2
ATOM      2  O   UNL A   1      34.784  33.250  27.717  1.00  0.00    -0.458 OA
BRANCH   2   3
ATOM      3  C   UNL A   1      34.551  31.924  27.754  1.00  0.00     0.338 C 
ATOM      4  O   UNL A   1      33.473  31.364  27.627  1.00  0.00    -0.246 OA
BRANCH   3   5
ATOM      5  C   UNL A   1      35.805  31.267  28.186  1.00  0.00     0.060 A 
ATOM      6  C   UNL A   1      35.921  29.868  28.188  1.00  0.00     0.016 A 
ATOM      7  C   UNL A   1      36.918  32.058  28.480  1.00  0.00     0.016 A 
ATOM      8  C   UNL A   1      37.130  29.266  28.500  1.00  0.00     0.010 A 
ATOM      9  C   UNL A   1      38.137  31.451  28.771  1.00  0.00     0.010 A 
ATOM     10  C   UNL A   1      38.240  30.054  28.807  1.00  0.00    -0.014 A 
BRANCH  10  11
ATOM     11  C   UNL A   1      39.459  29.356  29.217  1.00  0.00     0.031 A 
ATOM     12  C   UNL A   1      39.853  29.338  30.657  1.00  0.00     0.074 A 
ATOM     13  C   UNL A   1      40.222  28.657  28.355  1.00  0.00     0.049 A 
ATOM     14  N   UNL A   1      40.962  29.760  31.185  1.00  0.00    -0.248 NA
ATOM     15  C   UNL A   1      38.925  28.736  31.621  1.00  0.00     0.031 C 
ATOM     16  C   UNL A   1      39.907  28.283  26.976  1.00  0.00     0.029 A 
ATOM     17  N   UNL A   1      41.424  28.048  28.586  1.00  0.00    -0.354 N 
ATOM     18  C   UNL A   1      40.958  29.316  32.506  1.00  0.00     0.074 A 
ATOM     19  C   UNL A   1      39.653  28.748  32.740  1.00  0.00     0.031 C 
ATOM     20  C   UNL A   1      40.779  27.338  26.569  1.00  0.00     0.029 A 
ATOM     21  C   UNL A   1      41.788  27.155  27.600  1.00  0.00     0.049 A 
ATOM     22  H   UNL A   1      41.977  28.229  29.381  1.00  0.00     0.167 HD
ATOM     23  C   UNL A   1      42.083  29.285  33.275  1.00  0.00     0.037 A 
ATOM     24  C   UNL A   1      42.820  26.285  27.618  1.00  0.00     0.037 A 
ATOM     25  C   UNL A   1      43.131  30.130  32.772  1.00  0.00     0.049 A 
ATOM     26  C   UNL A   1      43.829  26.750  28.591  1.00  0.00     0.074 A 
ATOM     27  C   UNL A   1      43.261  31.469  32.464  1.00  0.00     0.029 A 
ATOM     28  N   UNL A   1      44.278  29.540  32.304  1.00  0.00    -0.354 N 
ATOM     29  N   UNL A   1      44.604  27.785  28.423  1.00  0.00    -0.248 NA
ATOM     30  C   UNL A   1      43.820  26.193  29.936  1.00  0.00     0.031 C 
ATOM     31  C   UNL A   1      44.248  31.532  31.435  1.00  0.00     0.029 A 
ATOM     32  C   UNL A   1      44.630  30.218  31.168  1.00  0.00     0.049 A 
ATOM     33  H   UNL A   1      44.754  28.779  32.707  1.00  0.00     0.167 HD
ATOM     34  C   UNL A   1      44.865  28.243  29.703  1.00  0.00     0.074 A 
ATOM     35  C   UNL A   1      44.503  27.139  30.580  1.00  0.00     0.031 C 
ATOM     36  C   UNL A   1      45.064  29.570  29.952  1.00  0.00     0.037 A 
BRANCH  23  37
ATOM     37  C   UNL A   1      42.350  28.258  34.347  1.00  0.00     0.057 A 
ATOM     38  C   UNL A   1      42.703  26.942  33.993  1.00  0.00     0.134 A 
ATOM     39  C   UNL A   1      41.987  28.441  35.695  1.00  0.00     0.134 A 
ATOM     40  F   UNL A   1      43.026  26.635  32.727  1.00  0.00    -0.206 F 
ATOM     41  C   UNL A   1      42.658  25.879  34.902  1.00  0.00     0.040 A 
ATOM     42  C   UNL A   1      41.985  27.395  36.625  1.00  0.00     0.040 A 
ATOM     43  F   UNL A   1      41.529  29.616  36.149  1.00  0.00    -0.206 F 
ATOM     44  C   UNL A   1      42.297  26.103  36.226  1.00  0.00     0.006 A 
ENDBRANCH  23  37
BRANCH  24  45
ATOM     45  C   UNL A   1      42.913  24.994  26.913  1.00  0.00     0.057 A 
ATOM     46  C   UNL A   1      42.296  23.840  27.408  1.00  0.00     0.134 A 
ATOM     47  C   UNL A   1      43.450  24.907  25.616  1.00  0.00     0.134 A 
ATOM     48  F   UNL A   1      41.701  23.845  28.609  1.00  0.00    -0.206 F 
ATOM     49  C   UNL A   1      42.234  22.658  26.660  1.00  0.00     0.040 A 
ATOM     50  C   UNL A   1      43.410  23.731  24.866  1.00  0.00     0.040 A 
ATOM     51  F   UNL A   1      43.972  25.983  25.008  1.00  0.00    -0.206 F 
ATOM     52  C   UNL A   1      42.794  22.600  25.387  1.00  0.00     0.006 A 
ENDBRANCH  24  45
BRANCH  36  53
ATOM     53  C   UNL A   1      45.398  30.456  28.792  1.00  0.00     0.057 A 
ATOM     54  C   UNL A   1      44.432  30.995  27.932  1.00  0.00     0.134 A 
ATOM     55  C   UNL A   1      46.720  30.884  28.620  1.00  0.00     0.134 A 
ATOM     56  F   UNL A   1      43.131  30.719  28.095  1.00  0.00    -0.206 F 
ATOM     57  C   UNL A   1      44.776  31.883  26.910  1.00  0.00     0.040 A 
ATOM     58  C   UNL A   1      47.072  31.794  27.621  1.00  0.00     0.040 A 
ATOM     59  F   UNL A   1      47.684  30.458  29.452  1.00  0.00    -0.206 F 
ATOM     60  C   UNL A   1      46.100  32.288  26.753  1.00  0.00     0.006 A 
ENDBRANCH  36  53
ENDBRANCH  10  11
ENDBRANCH   3   5
ENDBRANCH   2   3
ENDBRANCH   1   2
BRANCH   1  61
ATOM     61  C   UNL A   1      33.665  34.583  29.522  1.00  0.00     0.275 C 
BRANCH  61  62
ATOM     62  O   UNL A   1      34.881  34.226  30.211  1.00  0.00    -0.458 OA
BRANCH  62  63
ATOM     63  C   UNL A   1      34.718  33.343  31.234  1.00  0.00     0.342 C 
ATOM     64  O   UNL A   1      34.028  32.328  31.203  1.00  0.00    -0.246 OA
BRANCH  63  65
ATOM     65  C   UNL A   1      35.360  33.788  32.449  1.00  0.00     0.121 A 
ATOM     66  C   UNL A   1      35.038  34.921  33.246  1.00  0.00     0.181 A 
ATOM     67  C   UNL A   1      36.514  33.257  33.022  1.00  0.00     0.145 A 
ATOM     68  N   UNL A   1      35.811  34.953  34.349  1.00  0.00    -0.162 NA
ATOM     69  N   UNL A   1      36.803  34.070  34.097  1.00  0.00    -0.229 N 
BRANCH  66  70
ATOM     70  C   UNL A   1      34.018  35.989  32.959  1.00  0.00     0.436 C 
ATOM     71  F   UNL A   1      32.795  35.477  32.668  1.00  0.00    -0.164 F 
ATOM     72  F   UNL A   1      33.849  36.821  34.021  1.00  0.00    -0.164 F 
ATOM     73  F   UNL A   1      34.376  36.774  31.912  1.00  0.00    -0.164 F 
ENDBRANCH  66  70
BRANCH  67  74
ATOM     74  C   UNL A   1      37.402  32.116  32.682  1.00  0.00     0.365 C 
ATOM     75  F   UNL A   1      37.640  31.366  33.790  1.00  0.00    -0.181 F 
ATOM     76  F   UNL A   1      36.805  31.291  31.781  1.00  0.00    -0.181 F 
ATOM     77  Cl  UNL A   1      38.967  32.576  31.995  1.00  0.00    -0.040 Cl
ENDBRANCH  67  74
BRANCH  69  78
ATOM     78  C   UNL A   1      37.984  34.138  34.871  1.00  0.00     0.065 A 
ATOM     79  C   UNL A   1      38.039  33.464  36.095  1.00  0.00     0.028 A 
ATOM     80  C   UNL A   1      39.076  34.892  34.424  1.00  0.00     0.028 A 
ATOM     81  C   UNL A   1      39.223  33.483  36.833  1.00  0.00     0.002 A 
ATOM     82  C   UNL A   1      40.243  34.933  35.186  1.00  0.00     0.002 A 
ATOM     83  C   UNL A   1      40.322  34.215  36.378  1.00  0.00     0.000 A 
ENDBRANCH  69  78
ENDBRANCH  63  65
ENDBRANCH  62  63
ENDBRANCH  61  62
ENDBRANCH   1  61
TORSDOF 14
ENDMDL
MODEL 2
REMARK VINA RESULT:     -10.2      4.034     11.404
REMARK SMILES O=C(OCCOC(=O)c1c(C(F)(F)F)nn(-c2ccccc2)c1C(F)(F)Cl)c1ccc(-c2c3nc(c(-c4c(F)cccc4F)c4ccc([nH]4)c(-c4c(F)cccc4F)c4nc(c(-c5c(F)cccc5F)c5ccc2[nH]5)C=C4)C=C3)cc1
REMARK SMILES IDX 4 1 3 2 2 3 1 4 28 5 29 6 81 7 30 8 80 9 31 10 32 11 33 12
REMARK SMILES IDX 74 13 34 14 79 15 73 16 75 17 35 18 78 19 72 20 71 21 36 23
REMARK SMILES IDX 62 24 45 25 61 26 46 27 49 28 60 29 76 30 47 31 48 32 59 34
REMARK SMILES IDX 77 35 50 36 37 37 38 38 43 39 39 40 40 41 42 42 44 43 41 44
REMARK SMILES IDX 63 45 64 46 69 47 65 48 66 49 68 50 70 51 67 52 51 53 52 54
REMARK SMILES IDX 57 55 53 56 54 57 56 58 58 59 55 60 5 61 6 62 7 63 8 64 9 65
REMARK SMILES IDX 10 66 23 67 15 68 16 69 11 70 12 71 13 72 14 73 24 74 25 75
REMARK SMILES IDX 26 76 27 77 17 78 18 79 22 80 19 81 21 82 20 83
REMARK H PARENT 75 22 49 33
REMARK Flexibility Score: inf
ROOT
ATOM      1  C   UNL A   1      41.318  20.023  26.782  1.00  0.00     0.275 C 
ENDROOT
BRANCH   1   2
ATOM      2  O   UNL A   1      40.873  21.216  27.440  1.00  0.00    -0.458 OA
BRANCH   2   3
ATOM      3  C   UNL A   1      40.020  22.044  26.808  1.00  0.00     0.338 C 
ATOM      4  O   UNL A   1      39.273  21.764  25.883  1.00  0.00    -0.246 OA
BRANCH   3   5
ATOM      5  C   UNL A   1      40.296  23.416  27.293  1.00  0.00     0.060 A 
ATOM      6  C   UNL A   1      39.404  24.466  27.026  1.00  0.00     0.016 A 
ATOM      7  C   UNL A   1      41.397  23.632  28.124  1.00  0.00     0.016 A 
ATOM      8  C   UNL A   1      39.621  25.724  27.567  1.00  0.00     0.010 A 
ATOM      9  C   UNL A   1      41.601  24.891  28.684  1.00  0.00     0.010 A 
ATOM     10  C   UNL A   1      40.728  25.946  28.386  1.00  0.00    -0.014 A 
BRANCH  10  11
ATOM     11  C   UNL A   1      40.950  27.317  28.849  1.00  0.00     0.031 A 
ATOM     12  C   UNL A   1      42.162  28.063  28.399  1.00  0.00     0.074 A 
ATOM     13  C   UNL A   1      40.065  27.977  29.620  1.00  0.00     0.049 A 
ATOM     14  N   UNL A   1      43.090  28.594  29.136  1.00  0.00    -0.248 NA
ATOM     15  C   UNL A   1      42.342  28.288  26.960  1.00  0.00     0.031 C 
ATOM     16  C   UNL A   1      38.695  27.584  29.952  1.00  0.00     0.029 A 
ATOM     17  N   UNL A   1      40.193  29.210  30.195  1.00  0.00    -0.354 N 
ATOM     18  C   UNL A   1      43.868  29.374  28.282  1.00  0.00     0.074 A 
ATOM     19  C   UNL A   1      43.403  29.098  26.944  1.00  0.00     0.031 C 
ATOM     20  C   UNL A   1      38.051  28.646  30.478  1.00  0.00     0.029 A 
ATOM     21  C   UNL A   1      39.001  29.733  30.651  1.00  0.00     0.049 A 
ATOM     22  H   UNL A   1      41.055  29.681  30.276  1.00  0.00     0.167 HD
ATOM     23  C   UNL A   1      44.729  30.327  28.736  1.00  0.00     0.037 A 
ATOM     24  C   UNL A   1      38.771  30.982  31.108  1.00  0.00     0.037 A 
ATOM     25  C   UNL A   1      45.079  30.156  30.119  1.00  0.00     0.049 A 
ATOM     26  C   UNL A   1      40.048  31.577  31.553  1.00  0.00     0.074 A 
ATOM     27  C   UNL A   1      45.637  29.149  30.881  1.00  0.00     0.029 A 
ATOM     28  N   UNL A   1      44.659  31.100  31.021  1.00  0.00    -0.354 N 
ATOM     29  N   UNL A   1      40.701  31.222  32.625  1.00  0.00    -0.248 NA
ATOM     30  C   UNL A   1      40.778  32.445  30.640  1.00  0.00     0.031 C 
ATOM     31  C   UNL A   1      45.114  29.329  32.196  1.00  0.00     0.029 A 
ATOM     32  C   UNL A   1      44.246  30.419  32.136  1.00  0.00     0.049 A 
ATOM     33  H   UNL A   1      44.655  32.075  30.893  1.00  0.00     0.167 HD
ATOM     34  C   UNL A   1      42.029  31.487  32.333  1.00  0.00     0.074 A 
ATOM     35  C   UNL A   1      41.992  32.383  31.187  1.00  0.00     0.031 C 
ATOM     36  C   UNL A   1      43.032  30.724  32.855  1.00  0.00     0.037 A 
BRANCH  23  37
ATOM     37  C   UNL A   1      45.045  31.606  28.000  1.00  0.00     0.057 A 
ATOM     38  C   UNL A   1      44.029  32.551  27.758  1.00  0.00     0.134 A 
ATOM     39  C   UNL A   1      46.233  31.801  27.271  1.00  0.00     0.134 A 
ATOM     40  F   UNL A   1      42.835  32.445  28.361  1.00  0.00    -0.206 F 
ATOM     41  C   UNL A   1      44.171  33.588  26.829  1.00  0.00     0.040 A 
ATOM     42  C   UNL A   1      46.405  32.863  26.376  1.00  0.00     0.040 A 
ATOM     43  F   UNL A   1      47.243  30.922  27.322  1.00  0.00    -0.206 F 
ATOM     44  C   UNL A   1      45.363  33.747  26.133  1.00  0.00     0.006 A 
ENDBRANCH  23  37
BRANCH  24  45
ATOM     45  C   UNL A   1      37.504  31.733  31.060  1.00  0.00     0.057 A 
ATOM     46  C   UNL A   1      37.029  32.297  29.873  1.00  0.00     0.134 A 
ATOM     47  C   UNL A   1      36.619  31.743  32.154  1.00  0.00     0.134 A 
ATOM     48  F   UNL A   1      37.776  32.278  28.760  1.00  0.00    -0.206 F 
ATOM     49  C   UNL A   1      35.749  32.859  29.783  1.00  0.00     0.040 A 
ATOM     50  C   UNL A   1      35.348  32.313  32.083  1.00  0.00     0.040 A 
ATOM     51  F   UNL A   1      36.937  31.136  33.308  1.00  0.00    -0.206 F 
ATOM     52  C   UNL A   1      34.906  32.870  30.890  1.00  0.00     0.006 A 
ENDBRANCH  24  45
BRANCH  36  53
ATOM     53  C   UNL A   1      42.716  29.873  34.046  1.00  0.00     0.057 A 
ATOM     54  C   UNL A   1      42.845  30.320  35.368  1.00  0.00     0.134 A 
ATOM     55  C   UNL A   1      42.138  28.613  33.850  1.00  0.00     0.134 A 
ATOM     56  F   UNL A   1      43.291  31.553  35.639  1.00  0.00    -0.206 F 
ATOM     57  C   UNL A   1      42.463  29.524  36.451  1.00  0.00     0.040 A 
ATOM     58  C   UNL A   1      41.724  27.820  34.922  1.00  0.00     0.040 A 
ATOM     59  F   UNL A   1      41.923  28.153  32.606  1.00  0.00    -0.206 F 
ATOM     60  C   UNL A   1      41.897  28.270  36.230  1.00  0.00     0.006 A 
ENDBRANCH  36  53
ENDBRANCH  10  11
ENDBRANCH   3   5
ENDBRANCH   2   3
ENDBRANCH   1   2
BRANCH   1  61
ATOM     61  C   UNL A   1      42.695  20.110  26.119  1.00  0.00     0.275 C 
BRANCH  61  62
ATOM     62  O   UNL A   1      43.330  21.370  26.421  1.00  0.00    -0.458 OA
BRANCH  62  63
ATOM     63  C   UNL A   1      43.385  22.245  25.380  1.00  0.00     0.342 C 
ATOM     64  O   UNL A   1      42.458  22.523  24.626  1.00  0.00    -0.246 OA
BRANCH  63  65
ATOM     65  C   UNL A   1      44.722  22.746  25.158  1.00  0.00     0.121 A 
ATOM     66  C   UNL A   1      45.881  22.014  24.783  1.00  0.00     0.181 A 
ATOM     67  C   UNL A   1      45.171  24.046  25.388  1.00  0.00     0.145 A 
ATOM     68  N   UNL A   1      46.921  22.849  24.589  1.00  0.00    -0.162 NA
ATOM     69  N   UNL A   1      46.526  24.020  25.139  1.00  0.00    -0.229 N 
BRANCH  66  70
ATOM     70  C   UNL A   1      46.021  20.524  24.631  1.00  0.00     0.436 C 
ATOM     71  F   UNL A   1      45.063  19.990  23.829  1.00  0.00    -0.164 F 
ATOM     72  F   UNL A   1      47.218  20.184  24.084  1.00  0.00    -0.164 F 
ATOM     73  F   UNL A   1      45.946  19.876  25.820  1.00  0.00    -0.164 F 
ENDBRANCH  66  70
BRANCH  67  74
ATOM     74  C   UNL A   1      44.513  25.297  25.841  1.00  0.00     0.365 C 
ATOM     75  F   UNL A   1      44.910  26.339  25.064  1.00  0.00    -0.181 F 
ATOM     76  F   UNL A   1      43.163  25.210  25.706  1.00  0.00    -0.181 F 
ATOM     77  Cl  UNL A   1      44.831  25.731  27.527  1.00  0.00    -0.040 Cl
ENDBRANCH  67  74
BRANCH  69  78
ATOM     78  C   UNL A   1      47.509  24.987  25.450  1.00  0.00     0.065 A 
ATOM     79  C   UNL A   1      47.971  25.839  24.442  1.00  0.00     0.028 A 
ATOM     80  C   UNL A   1      48.025  25.074  26.749  1.00  0.00     0.028 A 
ATOM     81  C   UNL A   1      48.899  26.833  24.760  1.00  0.00     0.002 A 
ATOM     82  C   UNL A   1      48.977  26.048  27.048  1.00  0.00     0.002 A 
ATOM     83  C   UNL A   1      49.398  26.937  26.060  1.00  0.00     0.000 A 
ENDBRANCH  69  78
ENDBRANCH  63  65
ENDBRANCH  62  63
ENDBRANCH  61  62
ENDBRANCH   1  61
TORSDOF 14
ENDMDL
MODEL 3
REMARK VINA RESULT:     -10.2      5.069      9.753
REMARK SMILES O=C(OCCOC(=O)c1c(C(F)(F)F)nn(-c2ccccc2)c1C(F)(F)Cl)c1ccc(-c2c3nc(c(-c4c(F)cccc4F)c4ccc([nH]4)c(-c4c(F)cccc4F)c4nc(c(-c5c(F)cccc5F)c5ccc2[nH]5)C=C4)C=C3)cc1
REMARK SMILES IDX 4 1 3 2 2 3 1 4 28 5 29 6 81 7 30 8 80 9 31 10 32 11 33 12
REMARK SMILES IDX 74 13 34 14 79 15 73 16 75 17 35 18 78 19 72 20 71 21 36 23
REMARK SMILES IDX 62 24 45 25 61 26 46 27 49 28 60 29 76 30 47 31 48 32 59 34
REMARK SMILES IDX 77 35 50 36 37 37 38 38 43 39 39 40 40 41 42 42 44 43 41 44
REMARK SMILES IDX 63 45 64 46 69 47 65 48 66 49 68 50 70 51 67 52 51 53 52 54
REMARK SMILES IDX 57 55 53 56 54 57 56 58 58 59 55 60 5 61 6 62 7 63 8 64 9 65
REMARK SMILES IDX 10 66 23 67 15 68 16 69 11 70 12 71 13 72 14 73 24 74 25 75
REMARK SMILES IDX 26 76 27 77 17 78 18 79 22 80 19 81 21 82 20 83
REMARK H PARENT 75 22 49 33
REMARK Flexibility Score: inf
ROOT
ATOM      1  C   UNL A   1      33.749  29.260  27.248  1.00  0.00     0.275 C 
ENDROOT
BRANCH   1   2
ATOM      2  O   UNL A   1      35.145  29.029  27.474  1.00  0.00    -0.458 OA
BRANCH   2   3
ATOM      3  C   UNL A   1      35.815  29.804  28.349  1.00  0.00     0.338 C 
ATOM      4  O   UNL A   1      35.380  30.771  28.956  1.00  0.00    -0.246 OA
BRANCH   3   5
ATOM      5  C   UNL A   1      37.240  29.406  28.290  1.00  0.00     0.060 A 
ATOM      6  C   UNL A   1      37.796  28.579  29.279  1.00  0.00     0.016 A 
ATOM      7  C   UNL A   1      37.999  29.767  27.175  1.00  0.00     0.016 A 
ATOM      8  C   UNL A   1      39.104  28.133  29.163  1.00  0.00     0.010 A 
ATOM      9  C   UNL A   1      39.305  29.299  27.051  1.00  0.00     0.010 A 
ATOM     10  C   UNL A   1      39.869  28.502  28.057  1.00  0.00    -0.014 A 
BRANCH  10  11
ATOM     11  C   UNL A   1      41.268  28.074  28.042  1.00  0.00     0.031 A 
ATOM     12  C   UNL A   1      41.639  26.778  27.401  1.00  0.00     0.074 A 
ATOM     13  C   UNL A   1      42.267  28.837  28.525  1.00  0.00     0.049 A 
ATOM     14  N   UNL A   1      42.246  25.766  27.943  1.00  0.00    -0.248 NA
ATOM     15  C   UNL A   1      41.344  26.602  25.974  1.00  0.00     0.031 C 
ATOM     16  C   UNL A   1      42.209  30.241  28.934  1.00  0.00     0.029 A 
ATOM     17  N   UNL A   1      43.590  28.518  28.660  1.00  0.00    -0.354 N 
ATOM     18  C   UNL A   1      42.577  24.905  26.898  1.00  0.00     0.074 A 
ATOM     19  C   UNL A   1      41.941  25.436  25.717  1.00  0.00     0.031 C 
ATOM     20  C   UNL A   1      43.466  30.712  29.059  1.00  0.00     0.029 A 
ATOM     21  C   UNL A   1      44.400  29.612  28.885  1.00  0.00     0.049 A 
ATOM     22  H   UNL A   1      43.932  27.596  28.602  1.00  0.00     0.167 HD
ATOM     23  C   UNL A   1      43.493  23.905  27.031  1.00  0.00     0.037 A 
ATOM     24  C   UNL A   1      45.750  29.648  28.894  1.00  0.00     0.037 A 
ATOM     25  C   UNL A   1      43.744  23.551  28.401  1.00  0.00     0.049 A 
ATOM     26  C   UNL A   1      46.269  28.289  29.148  1.00  0.00     0.074 A 
ATOM     27  C   UNL A   1      42.980  23.125  29.469  1.00  0.00     0.029 A 
ATOM     28  N   UNL A   1      44.985  23.809  28.926  1.00  0.00    -0.354 N 
ATOM     29  N   UNL A   1      46.202  27.669  30.294  1.00  0.00    -0.248 NA
ATOM     30  C   UNL A   1      46.669  27.464  28.017  1.00  0.00     0.031 C 
ATOM     31  C   UNL A   1      43.661  23.587  30.635  1.00  0.00     0.029 A 
ATOM     32  C   UNL A   1      44.781  24.289  30.192  1.00  0.00     0.049 A 
ATOM     33  H   UNL A   1      45.851  23.675  28.480  1.00  0.00     0.167 HD
ATOM     34  C   UNL A   1      46.161  26.324  29.965  1.00  0.00     0.074 A 
ATOM     35  C   UNL A   1      46.618  26.258  28.585  1.00  0.00     0.031 C 
ATOM     36  C   UNL A   1      45.480  25.429  30.737  1.00  0.00     0.037 A 
BRANCH  23  37
ATOM     37  C   UNL A   1      44.394  23.426  25.920  1.00  0.00     0.057 A 
ATOM     38  C   UNL A   1      44.479  22.052  25.623  1.00  0.00     0.134 A 
ATOM     39  C   UNL A   1      45.391  24.230  25.336  1.00  0.00     0.134 A 
ATOM     40  F   UNL A   1      43.610  21.179  26.157  1.00  0.00    -0.206 F 
ATOM     41  C   UNL A   1      45.505  21.513  24.838  1.00  0.00     0.040 A 
ATOM     42  C   UNL A   1      46.394  23.709  24.510  1.00  0.00     0.040 A 
ATOM     43  F   UNL A   1      45.496  25.536  25.615  1.00  0.00    -0.206 F 
ATOM     44  C   UNL A   1      46.469  22.343  24.278  1.00  0.00     0.006 A 
ENDBRANCH  23  37
BRANCH  24  45
ATOM     45  C   UNL A   1      46.615  30.795  28.565  1.00  0.00     0.057 A 
ATOM     46  C   UNL A   1      47.310  31.498  29.554  1.00  0.00     0.134 A 
ATOM     47  C   UNL A   1      46.941  31.107  27.232  1.00  0.00     0.134 A 
ATOM     48  F   UNL A   1      47.114  31.226  30.852  1.00  0.00    -0.206 F 
ATOM     49  C   UNL A   1      48.265  32.472  29.235  1.00  0.00     0.040 A 
ATOM     50  C   UNL A   1      47.877  32.086  26.900  1.00  0.00     0.040 A 
ATOM     51  F   UNL A   1      46.408  30.420  26.210  1.00  0.00    -0.206 F 
ATOM     52  C   UNL A   1      48.548  32.770  27.905  1.00  0.00     0.006 A 
ENDBRANCH  24  45
BRANCH  36  53
ATOM     53  C   UNL A   1      45.129  25.836  32.135  1.00  0.00     0.057 A 
ATOM     54  C   UNL A   1      43.990  26.588  32.455  1.00  0.00     0.134 A 
ATOM     55  C   UNL A   1      45.890  25.342  33.201  1.00  0.00     0.134 A 
ATOM     56  F   UNL A   1      43.150  27.009  31.500  1.00  0.00    -0.206 F 
ATOM     57  C   UNL A   1      43.653  26.879  33.779  1.00  0.00     0.040 A 
ATOM     58  C   UNL A   1      45.547  25.602  34.530  1.00  0.00     0.040 A 
ATOM     59  F   UNL A   1      46.956  24.560  32.966  1.00  0.00    -0.206 F 
ATOM     60  C   UNL A   1      44.431  26.383  34.822  1.00  0.00     0.006 A 
ENDBRANCH  36  53
ENDBRANCH  10  11
ENDBRANCH   3   5
ENDBRANCH   2   3
ENDBRANCH   1   2
BRANCH   1  61
ATOM     61  C   UNL A   1      32.928  28.024  26.874  1.00  0.00     0.275 C 
BRANCH  61  62
ATOM     62  O   UNL A   1      32.979  27.787  25.452  1.00  0.00    -0.458 OA
BRANCH  62  63
ATOM     63  C   UNL A   1      32.038  26.921  24.985  1.00  0.00     0.342 C 
ATOM     64  O   UNL A   1      30.823  27.058  25.084  1.00  0.00    -0.246 OA
BRANCH  63  65
ATOM     65  C   UNL A   1      32.624  25.715  24.445  1.00  0.00     0.121 A 
ATOM     66  C   UNL A   1      33.091  25.485  23.122  1.00  0.00     0.181 A 
ATOM     67  C   UNL A   1      32.737  24.485  25.091  1.00  0.00     0.145 A 
ATOM     68  N   UNL A   1      33.649  24.262  23.029  1.00  0.00    -0.162 NA
ATOM     69  N   UNL A   1      33.255  23.619  24.152  1.00  0.00    -0.229 N 
BRANCH  66  70
ATOM     70  C   UNL A   1      32.992  26.404  21.936  1.00  0.00     0.436 C 
ATOM     71  F   UNL A   1      33.165  25.753  20.757  1.00  0.00    -0.164 F 
ATOM     72  F   UNL A   1      31.776  27.011  21.870  1.00  0.00    -0.164 F 
ATOM     73  F   UNL A   1      33.913  27.399  21.977  1.00  0.00    -0.164 F 
ENDBRANCH  66  70
BRANCH  67  74
ATOM     74  C   UNL A   1      32.395  24.002  26.453  1.00  0.00     0.365 C 
ATOM     75  F   UNL A   1      33.494  23.464  27.044  1.00  0.00    -0.181 F 
ATOM     76  F   UNL A   1      31.998  25.032  27.246  1.00  0.00    -0.181 F 
ATOM     77  Cl  UNL A   1      31.106  22.790  26.505  1.00  0.00    -0.040 Cl
ENDBRANCH  67  74
BRANCH  69  78
ATOM     78  C   UNL A   1      33.341  22.209  24.191  1.00  0.00     0.065 A 
ATOM     79  C   UNL A   1      34.470  21.609  24.756  1.00  0.00     0.028 A 
ATOM     80  C   UNL A   1      32.314  21.426  23.649  1.00  0.00     0.028 A 
ATOM     81  C   UNL A   1      34.531  20.217  24.848  1.00  0.00     0.002 A 
ATOM     82  C   UNL A   1      32.400  20.036  23.715  1.00  0.00     0.002 A 
ATOM     83  C   UNL A   1      33.497  19.434  24.330  1.00  0.00     0.000 A 
ENDBRANCH  69  78
ENDBRANCH  63  65
ENDBRANCH  62  63
ENDBRANCH  61  62
ENDBRANCH   1  61
TORSDOF 14
ENDMDL
