MODEL 1
REMARK VINA RESULT:     -13.0      0.000      0.000
REMARK SMILES C[C@]12C=CC(=O)C=C1CC[C@H]1[C@H]2[C@H](O)C[C@]2(C)[C@H]1CC[C@]2(O)C(=O)COC(=O)CCC(=O)OCCOC(=O)c1ccc(-c2c3nc(c(-c4c(F)cccc4F)c4ccc([nH]4)c(-c4c(F)cccc4F)c4nc(c(-c5c(F)cccc5F)c5ccc2[nH]5)C=C4)C=C3)cc1
REMARK SMILES IDX 31 1 32 2 30 3 29 4 27 5 28 6 26 7 25 8 23 9 24 10 21 11
REMARK SMILES IDX 1 12 2 13 3 14 8 15 12 16 4 17 7 18 9 19 11 20 13 21 5 22
REMARK SMILES IDX 10 23 18 24 15 25 6 26 16 27 19 28 17 29 20 30 14 31 22 33
REMARK SMILES IDX 33 35 34 36 35 37 36 38 37 39 38 40 39 41 40 42 92 43 41 44
REMARK SMILES IDX 91 45 42 46 43 47 44 48 85 49 45 50 90 51 84 52 86 53 46 54
REMARK SMILES IDX 89 55 83 56 82 57 47 59 73 60 56 61 72 62 57 63 60 64 71 65
REMARK SMILES IDX 87 66 58 67 59 68 70 70 88 71 61 72 48 73 49 74 54 75 50 76
REMARK SMILES IDX 51 77 53 78 55 79 52 80 74 81 75 82 80 83 76 84 77 85 79 86
REMARK SMILES IDX 81 87 78 88 62 89 63 90 68 91 64 92 65 93 67 94 69 95 66 96
REMARK H PARENT 14 32 22 34 86 58 60 69
REMARK Flexibility Score: inf
ROOT
ATOM      1  C   UNL A   1      32.539  32.349  27.243  1.00  0.00     0.306 C 
ATOM      2  O   UNL A   1      31.615  33.090  26.930  1.00  0.00    -0.252 OA
ENDROOT
BRANCH   1   3
ATOM      3  C   UNL A   1      32.559  30.866  26.898  1.00  0.00     0.134 C 
BRANCH   3   4
ATOM      4  C   UNL A   1      31.603  30.383  25.810  1.00  0.00     0.134 C 
BRANCH   4   5
ATOM      5  C   UNL A   1      32.094  29.307  24.857  1.00  0.00     0.306 C 
ATOM      6  O   UNL A   1      33.209  29.333  24.348  1.00  0.00    -0.252 OA
BRANCH   5   7
ATOM      7  O   UNL A   1      31.183  28.335  24.634  1.00  0.00    -0.458 OA
BRANCH   7   8
ATOM      8  C   UNL A   1      31.616  26.978  24.520  1.00  0.00     0.311 C 
BRANCH   8   9
ATOM      9  C   UNL A   1      31.874  26.527  23.057  1.00  0.00     0.202 C 
ATOM     10  O   UNL A   1      31.093  26.862  22.163  1.00  0.00    -0.293 OA
BRANCH   9  11
ATOM     11  C   UNL A   1      33.130  25.651  22.788  1.00  0.00     0.132 C 
ATOM     12  C   UNL A   1      32.196  19.524  25.366  1.00  0.00     0.021 C 
ATOM     13  C   UNL A   1      33.224  19.876  24.253  1.00  0.00     0.013 C 
ATOM     14  C   UNL A   1      32.887  19.019  23.015  1.00  0.00    -0.012 C 
ATOM     15  C   UNL A   1      34.637  19.413  24.664  1.00  0.00    -0.056 C 
ATOM     16  C   UNL A   1      33.088  21.436  24.018  1.00  0.00     0.035 C 
ATOM     17  C   UNL A   1      32.923  17.672  23.120  1.00  0.00     0.048 C 
ATOM     18  C   UNL A   1      35.011  18.124  24.508  1.00  0.00     0.052 C 
ATOM     19  C   UNL A   1      35.731  20.380  25.002  1.00  0.00     0.032 C 
ATOM     20  C   UNL A   1      34.413  22.063  23.550  1.00  0.00    -0.000 C 
ATOM     21  C   UNL A   1      31.865  21.889  23.179  1.00  0.00     0.119 C 
ATOM     22  C   UNL A   1      34.109  17.135  23.873  1.00  0.00     0.178 C 
ATOM     23  C   UNL A   1      35.469  21.827  24.649  1.00  0.00     0.009 C 
ATOM     24  C   UNL A   1      34.321  23.577  23.275  1.00  0.00     0.002 C 
ATOM     25  C   UNL A   1      31.790  23.419  23.057  1.00  0.00     0.042 C 
ATOM     26  O   UNL A   1      34.329  15.933  23.944  1.00  0.00    -0.290 OA
ATOM     27  C   UNL A   1      33.070  24.090  22.506  1.00  0.00     0.009 C 
ATOM     28  C   UNL A   1      34.324  24.440  24.533  1.00  0.00     0.008 C 
ATOM     29  C   UNL A   1      33.248  23.756  21.000  1.00  0.00     0.015 C 
ATOM     30  C   UNL A   1      34.084  25.818  23.986  1.00  0.00     0.044 C 
BRANCH  21  31
ATOM     31  O   UNL A   1      31.862  21.346  21.867  1.00  0.00    -0.393 OA
ATOM     32  H   UNL A   1      31.206  21.813  21.325  1.00  0.00     0.210 HD
ENDBRANCH  21  31
BRANCH  11  33
ATOM     33  O   UNL A   1      33.757  26.244  21.653  1.00  0.00    -0.381 OA
ATOM     34  H   UNL A   1      33.159  26.899  21.260  1.00  0.00     0.212 HD
ENDBRANCH  11  33
ENDBRANCH   9  11
ENDBRANCH   8   9
ENDBRANCH   7   8
ENDBRANCH   5   7
ENDBRANCH   4   5
ENDBRANCH   3   4
ENDBRANCH   1   3
BRANCH   1  35
ATOM     35  O   UNL A   1      33.615  32.739  27.957  1.00  0.00    -0.462 OA
BRANCH  35  36
ATOM     36  C   UNL A   1      33.620  34.009  28.631  1.00  0.00     0.274 C 
BRANCH  36  37
ATOM     37  C   UNL A   1      34.313  33.856  29.984  1.00  0.00     0.275 C 
BRANCH  37  38
ATOM     38  O   UNL A   1      34.683  32.481  30.169  1.00  0.00    -0.458 OA
BRANCH  38  39
ATOM     39  C   UNL A   1      35.347  32.210  31.315  1.00  0.00     0.338 C 
ATOM     40  O   UNL A   1      34.956  32.331  32.458  1.00  0.00    -0.246 OA
BRANCH  39  41
ATOM     41  C   UNL A   1      36.633  31.607  30.945  1.00  0.00     0.060 A 
ATOM     42  C   UNL A   1      37.473  31.091  31.936  1.00  0.00     0.016 A 
ATOM     43  C   UNL A   1      36.990  31.559  29.601  1.00  0.00     0.016 A 
ATOM     44  C   UNL A   1      38.683  30.500  31.585  1.00  0.00     0.010 A 
ATOM     45  C   UNL A   1      38.198  30.970  29.250  1.00  0.00     0.010 A 
ATOM     46  C   UNL A   1      39.048  30.441  30.238  1.00  0.00    -0.014 A 
BRANCH  46  47
ATOM     47  C   UNL A   1      40.348  29.883  29.820  1.00  0.00     0.031 A 
ATOM     48  C   UNL A   1      41.509  30.813  29.661  1.00  0.00     0.074 A 
ATOM     49  C   UNL A   1      40.444  28.585  29.489  1.00  0.00     0.049 A 
ATOM     50  N   UNL A   1      42.648  30.618  29.055  1.00  0.00    -0.248 NA
ATOM     51  C   UNL A   1      41.350  32.155  30.246  1.00  0.00     0.031 C 
ATOM     52  C   UNL A   1      39.384  27.590  29.646  1.00  0.00     0.029 A 
ATOM     53  N   UNL A   1      41.475  27.895  28.906  1.00  0.00    -0.354 N 
ATOM     54  C   UNL A   1      43.330  31.824  29.150  1.00  0.00     0.074 A 
ATOM     55  C   UNL A   1      42.472  32.745  29.865  1.00  0.00     0.031 C 
ATOM     56  C   UNL A   1      39.806  26.421  29.137  1.00  0.00     0.029 A 
ATOM     57  C   UNL A   1      41.139  26.606  28.569  1.00  0.00     0.049 A 
ATOM     58  H   UNL A   1      42.365  28.283  28.744  1.00  0.00     0.167 HD
ATOM     59  C   UNL A   1      44.558  32.127  28.672  1.00  0.00     0.037 A 
ATOM     60  C   UNL A   1      41.813  25.700  27.837  1.00  0.00     0.037 A 
ATOM     61  C   UNL A   1      45.394  31.190  27.970  1.00  0.00     0.049 A 
ATOM     62  C   UNL A   1      43.154  26.075  27.268  1.00  0.00     0.074 A 
ATOM     63  C   UNL A   1      46.667  31.379  27.465  1.00  0.00     0.029 A 
ATOM     64  N   UNL A   1      45.031  29.885  27.670  1.00  0.00    -0.354 N 
ATOM     65  N   UNL A   1      43.801  27.212  27.361  1.00  0.00    -0.248 NA
ATOM     66  C   UNL A   1      43.856  25.046  26.489  1.00  0.00     0.031 C 
ATOM     67  C   UNL A   1      47.057  30.202  26.820  1.00  0.00     0.029 A 
ATOM     68  C   UNL A   1      46.049  29.261  26.968  1.00  0.00     0.049 A 
ATOM     69  H   UNL A   1      44.177  29.463  27.919  1.00  0.00     0.167 HD
ATOM     70  C   UNL A   1      44.999  27.027  26.682  1.00  0.00     0.074 A 
ATOM     71  C   UNL A   1      44.987  25.667  26.181  1.00  0.00     0.031 C 
ATOM     72  C   UNL A   1      46.019  27.900  26.497  1.00  0.00     0.037 A 
BRANCH  59  73
ATOM     73  C   UNL A   1      45.043  33.533  28.855  1.00  0.00     0.057 A 
ATOM     74  C   UNL A   1      44.712  34.558  27.959  1.00  0.00     0.134 A 
ATOM     75  C   UNL A   1      45.844  33.870  29.955  1.00  0.00     0.134 A 
ATOM     76  F   UNL A   1      43.964  34.299  26.876  1.00  0.00    -0.206 F 
ATOM     77  C   UNL A   1      45.182  35.861  28.137  1.00  0.00     0.040 A 
ATOM     78  C   UNL A   1      46.297  35.174  30.156  1.00  0.00     0.040 A 
ATOM     79  F   UNL A   1      46.197  32.936  30.852  1.00  0.00    -0.206 F 
ATOM     80  C   UNL A   1      45.971  36.173  29.241  1.00  0.00     0.006 A 
ENDBRANCH  59  73
BRANCH  60  81
ATOM     81  C   UNL A   1      41.215  24.367  27.583  1.00  0.00     0.057 A 
ATOM     82  C   UNL A   1      41.646  23.238  28.286  1.00  0.00     0.134 A 
ATOM     83  C   UNL A   1      40.186  24.191  26.648  1.00  0.00     0.134 A 
ATOM     84  F   UNL A   1      42.640  23.340  29.180  1.00  0.00    -0.206 F 
ATOM     85  C   UNL A   1      41.083  21.980  28.065  1.00  0.00     0.040 A 
ATOM     86  C   UNL A   1      39.598  22.944  26.433  1.00  0.00     0.040 A 
ATOM     87  F   UNL A   1      39.725  25.236  25.944  1.00  0.00    -0.206 F 
ATOM     88  C   UNL A   1      40.050  21.832  27.141  1.00  0.00     0.006 A 
ENDBRANCH  60  81
BRANCH  72  89
ATOM     89  C   UNL A   1      47.232  27.400  25.771  1.00  0.00     0.057 A 
ATOM     90  C   UNL A   1      48.264  26.724  26.432  1.00  0.00     0.134 A 
ATOM     91  C   UNL A   1      47.326  27.531  24.380  1.00  0.00     0.134 A 
ATOM     92  F   UNL A   1      48.238  26.577  27.765  1.00  0.00    -0.206 F 
ATOM     93  C   UNL A   1      49.354  26.202  25.733  1.00  0.00     0.040 A 
ATOM     94  C   UNL A   1      48.397  26.993  23.668  1.00  0.00     0.040 A 
ATOM     95  F   UNL A   1      46.364  28.161  23.689  1.00  0.00    -0.206 F 
ATOM     96  C   UNL A   1      49.417  26.327  24.345  1.00  0.00     0.006 A 
ENDBRANCH  72  89
ENDBRANCH  46  47
ENDBRANCH  39  41
ENDBRANCH  38  39
ENDBRANCH  37  38
ENDBRANCH  36  37
ENDBRANCH  35  36
ENDBRANCH   1  35
TORSDOF 19
ENDMDL
MODEL 2
REMARK VINA RESULT:     -13.0      4.466      9.944
REMARK SMILES C[C@]12C=CC(=O)C=C1CC[C@H]1[C@H]2[C@H](O)C[C@]2(C)[C@H]1CC[C@]2(O)C(=O)COC(=O)CCC(=O)OCCOC(=O)c1ccc(-c2c3nc(c(-c4c(F)cccc4F)c4ccc([nH]4)c(-c4c(F)cccc4F)c4nc(c(-c5c(F)cccc5F)c5ccc2[nH]5)C=C4)C=C3)cc1
REMARK SMILES IDX 31 1 32 2 30 3 29 4 27 5 28 6 26 7 25 8 23 9 24 10 21 11
REMARK SMILES IDX 1 12 2 13 3 14 8 15 12 16 4 17 7 18 9 19 11 20 13 21 5 22
REMARK SMILES IDX 10 23 18 24 15 25 6 26 16 27 19 28 17 29 20 30 14 31 22 33
REMARK SMILES IDX 33 35 34 36 35 37 36 38 37 39 38 40 39 41 40 42 92 43 41 44
REMARK SMILES IDX 91 45 42 46 43 47 44 48 85 49 45 50 90 51 84 52 86 53 46 54
REMARK SMILES IDX 89 55 83 56 82 57 47 59 73 60 56 61 72 62 57 63 60 64 71 65
REMARK SMILES IDX 87 66 58 67 59 68 70 70 88 71 61 72 48 73 49 74 54 75 50 76
REMARK SMILES IDX 51 77 53 78 55 79 52 80 74 81 75 82 80 83 76 84 77 85 79 86
REMARK SMILES IDX 81 87 78 88 62 89 63 90 68 91 64 92 65 93 67 94 69 95 66 96
REMARK H PARENT 14 32 22 34 86 58 60 69
REMARK Flexibility Score: inf
ROOT
ATOM      1  C   UNL A   1      40.651  20.658  26.680  1.00  0.00     0.306 C 
ATOM      2  O   UNL A   1      40.829  20.510  27.883  1.00  0.00    -0.252 OA
ENDROOT
BRANCH   1   3
ATOM      3  C   UNL A   1      39.427  21.359  26.108  1.00  0.00     0.134 C 
BRANCH   3   4
ATOM      4  C   UNL A   1      38.382  20.492  25.408  1.00  0.00     0.134 C 
BRANCH   4   5
ATOM      5  C   UNL A   1      37.166  21.181  24.815  1.00  0.00     0.306 C 
ATOM      6  O   UNL A   1      37.236  22.254  24.227  1.00  0.00    -0.252 OA
BRANCH   5   7
ATOM      7  O   UNL A   1      36.018  20.495  25.005  1.00  0.00    -0.458 OA
BRANCH   7   8
ATOM      8  C   UNL A   1      34.777  21.075  24.595  1.00  0.00     0.311 C 
BRANCH   8   9
ATOM      9  C   UNL A   1      33.638  20.910  25.636  1.00  0.00     0.202 C 
ATOM     10  O   UNL A   1      33.100  19.810  25.791  1.00  0.00    -0.293 OA
BRANCH   9  11
ATOM     11  C   UNL A   1      33.219  22.168  26.446  1.00  0.00     0.132 C 
ATOM     12  C   UNL A   1      31.899  27.223  22.230  1.00  0.00     0.021 C 
ATOM     13  C   UNL A   1      31.389  27.128  23.697  1.00  0.00     0.013 C 
ATOM     14  C   UNL A   1      29.846  27.164  23.659  1.00  0.00    -0.012 C 
ATOM     15  C   UNL A   1      31.781  28.396  24.483  1.00  0.00    -0.056 C 
ATOM     16  C   UNL A   1      31.992  25.785  24.278  1.00  0.00     0.035 C 
ATOM     17  C   UNL A   1      29.228  28.246  23.136  1.00  0.00     0.048 C 
ATOM     18  C   UNL A   1      31.050  29.527  24.373  1.00  0.00     0.052 C 
ATOM     19  C   UNL A   1      32.801  28.376  25.581  1.00  0.00     0.032 C 
ATOM     20  C   UNL A   1      32.219  25.868  25.797  1.00  0.00    -0.000 C 
ATOM     21  C   UNL A   1      31.283  24.478  23.834  1.00  0.00     0.119 C 
ATOM     22  C   UNL A   1      29.813  29.565  23.556  1.00  0.00     0.178 C 
ATOM     23  C   UNL A   1      33.221  27.007  26.070  1.00  0.00     0.009 C 
ATOM     24  C   UNL A   1      32.774  24.569  26.415  1.00  0.00     0.002 C 
ATOM     25  C   UNL A   1      31.976  23.230  24.402  1.00  0.00     0.042 C 
ATOM     26  O   UNL A   1      29.283  30.625  23.252  1.00  0.00    -0.290 OA
ATOM     27  C   UNL A   1      32.149  23.225  25.939  1.00  0.00     0.009 C 
ATOM     28  C   UNL A   1      34.265  24.353  26.174  1.00  0.00     0.008 C 
ATOM     29  C   UNL A   1      30.772  23.052  26.636  1.00  0.00     0.015 C 
ATOM     30  C   UNL A   1      34.494  22.981  26.742  1.00  0.00     0.044 C 
BRANCH  21  31
ATOM     31  O   UNL A   1      29.917  24.431  24.218  1.00  0.00    -0.393 OA
ATOM     32  H   UNL A   1      29.399  24.000  23.520  1.00  0.00     0.210 HD
ENDBRANCH  21  31
BRANCH  11  33
ATOM     33  O   UNL A   1      32.733  21.663  27.688  1.00  0.00    -0.381 OA
ATOM     34  H   UNL A   1      33.263  22.027  28.413  1.00  0.00     0.212 HD
ENDBRANCH  11  33
ENDBRANCH   9  11
ENDBRANCH   8   9
ENDBRANCH   7   8
ENDBRANCH   5   7
ENDBRANCH   4   5
ENDBRANCH   3   4
ENDBRANCH   1   3
BRANCH   1  35
ATOM     35  O   UNL A   1      41.483  20.188  25.727  1.00  0.00    -0.462 OA
BRANCH  35  36
ATOM     36  C   UNL A   1      42.851  19.879  26.044  1.00  0.00     0.274 C 
BRANCH  36  37
ATOM     37  C   UNL A   1      43.746  21.020  25.563  1.00  0.00     0.275 C 
BRANCH  37  38
ATOM     38  O   UNL A   1      43.448  22.203  26.320  1.00  0.00    -0.458 OA
BRANCH  38  39
ATOM     39  C   UNL A   1      43.092  23.283  25.589  1.00  0.00     0.338 C 
ATOM     40  O   UNL A   1      42.933  23.359  24.387  1.00  0.00    -0.246 OA
BRANCH  39  41
ATOM     41  C   UNL A   1      42.799  24.371  26.528  1.00  0.00     0.060 A 
ATOM     42  C   UNL A   1      43.419  25.616  26.369  1.00  0.00     0.016 A 
ATOM     43  C   UNL A   1      41.900  24.142  27.564  1.00  0.00     0.016 A 
ATOM     44  C   UNL A   1      43.127  26.656  27.246  1.00  0.00     0.010 A 
ATOM     45  C   UNL A   1      41.609  25.180  28.441  1.00  0.00     0.010 A 
ATOM     46  C   UNL A   1      42.221  26.437  28.287  1.00  0.00    -0.014 A 
BRANCH  46  47
ATOM     47  C   UNL A   1      41.927  27.487  29.280  1.00  0.00     0.031 A 
ATOM     48  C   UNL A   1      42.682  27.483  30.571  1.00  0.00     0.074 A 
ATOM     49  C   UNL A   1      40.925  28.354  29.061  1.00  0.00     0.049 A 
ATOM     50  N   UNL A   1      42.421  28.112  31.684  1.00  0.00    -0.248 NA
ATOM     51  C   UNL A   1      43.884  26.634  30.617  1.00  0.00     0.031 C 
ATOM     52  C   UNL A   1      40.157  28.465  27.822  1.00  0.00     0.029 A 
ATOM     53  N   UNL A   1      40.354  29.276  29.899  1.00  0.00    -0.354 N 
ATOM     54  C   UNL A   1      43.402  27.706  32.579  1.00  0.00     0.074 A 
ATOM     55  C   UNL A   1      44.259  26.771  31.880  1.00  0.00     0.031 C 
ATOM     56  C   UNL A   1      39.187  29.379  27.992  1.00  0.00     0.029 A 
ATOM     57  C   UNL A   1      39.235  29.870  29.366  1.00  0.00     0.049 A 
ATOM     58  H   UNL A   1      40.708  29.491  30.792  1.00  0.00     0.167 HD
ATOM     59  C   UNL A   1      43.560  28.079  33.869  1.00  0.00     0.037 A 
ATOM     60  C   UNL A   1      38.325  30.675  29.945  1.00  0.00     0.037 A 
ATOM     61  C   UNL A   1      42.698  29.016  34.540  1.00  0.00     0.049 A 
ATOM     62  C   UNL A   1      38.489  31.035  31.396  1.00  0.00     0.074 A 
ATOM     63  C   UNL A   1      42.780  29.489  35.836  1.00  0.00     0.029 A 
ATOM     64  N   UNL A   1      41.590  29.617  33.960  1.00  0.00    -0.354 N 
ATOM     65  N   UNL A   1      39.418  30.656  32.241  1.00  0.00    -0.248 NA
ATOM     66  C   UNL A   1      37.477  31.929  31.977  1.00  0.00     0.031 C 
ATOM     67  C   UNL A   1      41.695  30.342  36.055  1.00  0.00     0.029 A 
ATOM     68  C   UNL A   1      40.966  30.443  34.880  1.00  0.00     0.049 A 
ATOM     69  H   UNL A   1      41.291  29.479  33.032  1.00  0.00     0.167 HD
ATOM     70  C   UNL A   1      39.124  31.288  33.442  1.00  0.00     0.074 A 
ATOM     71  C   UNL A   1      37.927  32.075  33.216  1.00  0.00     0.031 C 
ATOM     72  C   UNL A   1      39.786  31.230  34.623  1.00  0.00     0.037 A 
BRANCH  59  73
ATOM     73  C   UNL A   1      44.674  27.441  34.641  1.00  0.00     0.057 A 
ATOM     74  C   UNL A   1      44.516  26.216  35.304  1.00  0.00     0.134 A 
ATOM     75  C   UNL A   1      45.931  28.056  34.713  1.00  0.00     0.134 A 
ATOM     76  F   UNL A   1      43.332  25.585  35.290  1.00  0.00    -0.206 F 
ATOM     77  C   UNL A   1      45.560  25.639  36.030  1.00  0.00     0.040 A 
ATOM     78  C   UNL A   1      46.990  27.475  35.413  1.00  0.00     0.040 A 
ATOM     79  F   UNL A   1      46.152  29.229  34.101  1.00  0.00    -0.206 F 
ATOM     80  C   UNL A   1      46.803  26.266  36.080  1.00  0.00     0.006 A 
ENDBRANCH  59  73
BRANCH  60  81
ATOM     81  C   UNL A   1      37.171  31.168  29.156  1.00  0.00     0.057 A 
ATOM     82  C   UNL A   1      36.075  30.341  28.886  1.00  0.00     0.134 A 
ATOM     83  C   UNL A   1      37.123  32.481  28.669  1.00  0.00     0.134 A 
ATOM     84  F   UNL A   1      36.072  29.069  29.311  1.00  0.00    -0.206 F 
ATOM     85  C   UNL A   1      34.977  30.797  28.155  1.00  0.00     0.040 A 
ATOM     86  C   UNL A   1      36.022  32.957  27.956  1.00  0.00     0.040 A 
ATOM     87  F   UNL A   1      38.140  33.325  28.898  1.00  0.00    -0.206 F 
ATOM     88  C   UNL A   1      34.946  32.112  27.694  1.00  0.00     0.006 A 
ENDBRANCH  60  81
BRANCH  72  89
ATOM     89  C   UNL A   1      39.272  32.080  35.746  1.00  0.00     0.057 A 
ATOM     90  C   UNL A   1      39.648  33.420  35.893  1.00  0.00     0.134 A 
ATOM     91  C   UNL A   1      38.329  31.566  36.644  1.00  0.00     0.134 A 
ATOM     92  F   UNL A   1      40.557  33.967  35.072  1.00  0.00    -0.206 F 
ATOM     93  C   UNL A   1      39.107  34.219  36.902  1.00  0.00     0.040 A 
ATOM     94  C   UNL A   1      37.763  32.360  37.641  1.00  0.00     0.040 A 
ATOM     95  F   UNL A   1      37.921  30.291  36.550  1.00  0.00    -0.206 F 
ATOM     96  C   UNL A   1      38.153  33.691  37.773  1.00  0.00     0.006 A 
ENDBRANCH  72  89
ENDBRANCH  46  47
ENDBRANCH  39  41
ENDBRANCH  38  39
ENDBRANCH  37  38
ENDBRANCH  36  37
ENDBRANCH  35  36
ENDBRANCH   1  35
TORSDOF 19
ENDMDL
MODEL 3
REMARK VINA RESULT:     -12.8      4.747      7.223
REMARK SMILES C[C@]12C=CC(=O)C=C1CC[C@H]1[C@H]2[C@H](O)C[C@]2(C)[C@H]1CC[C@]2(O)C(=O)COC(=O)CCC(=O)OCCOC(=O)c1ccc(-c2c3nc(c(-c4c(F)cccc4F)c4ccc([nH]4)c(-c4c(F)cccc4F)c4nc(c(-c5c(F)cccc5F)c5ccc2[nH]5)C=C4)C=C3)cc1
REMARK SMILES IDX 31 1 32 2 30 3 29 4 27 5 28 6 26 7 25 8 23 9 24 10 21 11
REMARK SMILES IDX 1 12 2 13 3 14 8 15 12 16 4 17 7 18 9 19 11 20 13 21 5 22
REMARK SMILES IDX 10 23 18 24 15 25 6 26 16 27 19 28 17 29 20 30 14 31 22 33
REMARK SMILES IDX 33 35 34 36 35 37 36 38 37 39 38 40 39 41 40 42 92 43 41 44
REMARK SMILES IDX 91 45 42 46 43 47 44 48 85 49 45 50 90 51 84 52 86 53 46 54
REMARK SMILES IDX 89 55 83 56 82 57 47 59 73 60 56 61 72 62 57 63 60 64 71 65
REMARK SMILES IDX 87 66 58 67 59 68 70 70 88 71 61 72 48 73 49 74 54 75 50 76
REMARK SMILES IDX 51 77 53 78 55 79 52 80 74 81 75 82 80 83 76 84 77 85 79 86
REMARK SMILES IDX 81 87 78 88 62 89 63 90 68 91 64 92 65 93 67 94 69 95 66 96
REMARK H PARENT 14 32 22 34 86 58 60 69
REMARK Flexibility Score: inf
ROOT
ATOM      1  C   UNL A   1      34.438  34.645  28.270  1.00  0.00     0.306 C 
ATOM      2  O   UNL A   1      34.872  34.662  27.125  1.00  0.00    -0.252 OA
ENDROOT
BRANCH   1   3
ATOM      3  C   UNL A   1      35.055  33.795  29.372  1.00  0.00     0.134 C 
BRANCH   3   4
ATOM      4  C   UNL A   1      34.571  32.352  29.504  1.00  0.00     0.134 C 
BRANCH   4   5
ATOM      5  C   UNL A   1      34.706  31.443  28.295  1.00  0.00     0.306 C 
ATOM      6  O   UNL A   1      35.787  31.020  27.903  1.00  0.00    -0.252 OA
BRANCH   5   7
ATOM      7  O   UNL A   1      33.524  31.157  27.707  1.00  0.00    -0.458 OA
BRANCH   7   8
ATOM      8  C   UNL A   1      33.471  30.161  26.683  1.00  0.00     0.311 C 
BRANCH   8   9
ATOM      9  C   UNL A   1      32.197  30.243  25.800  1.00  0.00     0.202 C 
ATOM     10  O   UNL A   1      31.330  31.085  26.047  1.00  0.00    -0.293 OA
BRANCH   9  11
ATOM     11  C   UNL A   1      32.073  29.234  24.625  1.00  0.00     0.132 C 
ATOM     12  C   UNL A   1      33.680  23.077  26.768  1.00  0.00     0.021 C 
ATOM     13  C   UNL A   1      32.836  23.388  25.498  1.00  0.00     0.013 C 
ATOM     14  C   UNL A   1      31.464  22.703  25.668  1.00  0.00    -0.012 C 
ATOM     15  C   UNL A   1      33.455  22.701  24.263  1.00  0.00    -0.056 C 
ATOM     16  C   UNL A   1      32.765  24.967  25.402  1.00  0.00     0.035 C 
ATOM     17  C   UNL A   1      31.414  21.360  25.809  1.00  0.00     0.048 C 
ATOM     18  C   UNL A   1      33.222  21.393  24.015  1.00  0.00     0.052 C 
ATOM     19  C   UNL A   1      34.109  23.474  23.158  1.00  0.00     0.032 C 
ATOM     20  C   UNL A   1      32.640  25.448  23.947  1.00  0.00    -0.000 C 
ATOM     21  C   UNL A   1      31.766  25.658  26.365  1.00  0.00     0.119 C 
ATOM     22  C   UNL A   1      32.312  20.600  24.874  1.00  0.00     0.178 C 
ATOM     23  C   UNL A   1      33.886  24.970  23.174  1.00  0.00     0.009 C 
ATOM     24  C   UNL A   1      32.533  26.980  23.805  1.00  0.00     0.002 C 
ATOM     25  C   UNL A   1      31.813  27.189  26.237  1.00  0.00     0.042 C 
ATOM     26  O   UNL A   1      32.282  19.378  24.812  1.00  0.00    -0.290 OA
ATOM     27  C   UNL A   1      31.603  27.728  24.804  1.00  0.00     0.009 C 
ATOM     28  C   UNL A   1      33.861  27.714  23.963  1.00  0.00     0.008 C 
ATOM     29  C   UNL A   1      30.131  27.513  24.358  1.00  0.00     0.015 C 
ATOM     30  C   UNL A   1      33.445  29.157  23.926  1.00  0.00     0.044 C 
BRANCH  21  31
ATOM     31  O   UNL A   1      30.423  25.245  26.160  1.00  0.00    -0.393 OA
ATOM     32  H   UNL A   1      29.828  26.000  26.295  1.00  0.00     0.210 HD
ENDBRANCH  21  31
BRANCH  11  33
ATOM     33  O   UNL A   1      31.160  29.838  23.713  1.00  0.00    -0.381 OA
ATOM     34  H   UNL A   1      30.784  29.158  23.133  1.00  0.00     0.212 HD
ENDBRANCH  11  33
ENDBRANCH   9  11
ENDBRANCH   8   9
ENDBRANCH   7   8
ENDBRANCH   5   7
ENDBRANCH   4   5
ENDBRANCH   3   4
ENDBRANCH   1   3
BRANCH   1  35
ATOM     35  O   UNL A   1      33.352  35.333  28.680  1.00  0.00    -0.462 OA
BRANCH  35  36
ATOM     36  C   UNL A   1      33.391  36.767  28.772  1.00  0.00     0.274 C 
BRANCH  36  37
ATOM     37  C   UNL A   1      33.120  37.184  30.216  1.00  0.00     0.275 C 
BRANCH  37  38
ATOM     38  O   UNL A   1      32.670  36.041  30.959  1.00  0.00    -0.458 OA
BRANCH  38  39
ATOM     39  C   UNL A   1      32.829  36.122  32.299  1.00  0.00     0.338 C 
ATOM     40  O   UNL A   1      32.161  36.745  33.099  1.00  0.00    -0.246 OA
BRANCH  39  41
ATOM     41  C   UNL A   1      33.914  35.206  32.669  1.00  0.00     0.060 A 
ATOM     42  C   UNL A   1      33.616  33.905  33.089  1.00  0.00     0.016 A 
ATOM     43  C   UNL A   1      35.228  35.654  32.590  1.00  0.00     0.016 A 
ATOM     44  C   UNL A   1      34.644  33.028  33.421  1.00  0.00     0.010 A 
ATOM     45  C   UNL A   1      36.255  34.779  32.921  1.00  0.00     0.010 A 
ATOM     46  C   UNL A   1      35.968  33.466  33.338  1.00  0.00    -0.014 A 
BRANCH  46  47
ATOM     47  C   UNL A   1      37.089  32.596  33.739  1.00  0.00     0.031 A 
ATOM     48  C   UNL A   1      37.796  32.885  35.025  1.00  0.00     0.074 A 
ATOM     49  C   UNL A   1      37.523  31.636  32.906  1.00  0.00     0.049 A 
ATOM     50  N   UNL A   1      38.951  32.451  35.450  1.00  0.00    -0.248 NA
ATOM     51  C   UNL A   1      37.114  33.809  35.946  1.00  0.00     0.031 C 
ATOM     52  C   UNL A   1      36.880  31.250  31.651  1.00  0.00     0.029 A 
ATOM     53  N   UNL A   1      38.640  30.845  32.973  1.00  0.00    -0.354 N 
ATOM     54  C   UNL A   1      39.157  33.080  36.671  1.00  0.00     0.074 A 
ATOM     55  C   UNL A   1      38.010  33.929  36.915  1.00  0.00     0.031 C 
ATOM     56  C   UNL A   1      37.634  30.318  31.045  1.00  0.00     0.029 A 
ATOM     57  C   UNL A   1      38.835  30.089  31.843  1.00  0.00     0.049 A 
ATOM     58  H   UNL A   1      39.241  30.820  33.752  1.00  0.00     0.167 HD
ATOM     59  C   UNL A   1      40.216  32.958  37.503  1.00  0.00     0.037 A 
ATOM     60  C   UNL A   1      39.892  29.341  31.474  1.00  0.00     0.037 A 
ATOM     61  C   UNL A   1      41.341  32.101  37.242  1.00  0.00     0.049 A 
ATOM     62  C   UNL A   1      41.083  29.262  32.389  1.00  0.00     0.074 A 
ATOM     63  C   UNL A   1      42.456  31.878  38.027  1.00  0.00     0.029 A 
ATOM     64  N   UNL A   1      41.492  31.330  36.098  1.00  0.00    -0.354 N 
ATOM     65  N   UNL A   1      41.276  29.851  33.545  1.00  0.00    -0.248 NA
ATOM     66  C   UNL A   1      42.204  28.421  31.948  1.00  0.00     0.031 C 
ATOM     67  C   UNL A   1      43.304  31.005  37.338  1.00  0.00     0.029 A 
ATOM     68  C   UNL A   1      42.694  30.644  36.147  1.00  0.00     0.049 A 
ATOM     69  H   UNL A   1      40.842  31.277  35.361  1.00  0.00     0.167 HD
ATOM     70  C   UNL A   1      42.523  29.427  33.986  1.00  0.00     0.074 A 
ATOM     71  C   UNL A   1      43.042  28.532  32.970  1.00  0.00     0.031 C 
ATOM     72  C   UNL A   1      43.177  29.744  35.130  1.00  0.00     0.037 A 
BRANCH  59  73
ATOM     73  C   UNL A   1      40.221  33.801  38.743  1.00  0.00     0.057 A 
ATOM     74  C   UNL A   1      39.559  33.408  39.913  1.00  0.00     0.134 A 
ATOM     75  C   UNL A   1      40.911  35.020  38.769  1.00  0.00     0.134 A 
ATOM     76  F   UNL A   1      38.864  32.261  39.949  1.00  0.00    -0.206 F 
ATOM     77  C   UNL A   1      39.562  34.209  41.057  1.00  0.00     0.040 A 
ATOM     78  C   UNL A   1      40.944  35.816  39.915  1.00  0.00     0.040 A 
ATOM     79  F   UNL A   1      41.567  35.455  37.683  1.00  0.00    -0.206 F 
ATOM     80  C   UNL A   1      40.262  35.414  41.061  1.00  0.00     0.006 A 
ENDBRANCH  59  73
BRANCH  60  81
ATOM     81  C   UNL A   1      39.875  28.635  30.170  1.00  0.00     0.057 A 
ATOM     82  C   UNL A   1      40.478  29.195  29.039  1.00  0.00     0.134 A 
ATOM     83  C   UNL A   1      39.276  27.377  30.026  1.00  0.00     0.134 A 
ATOM     84  F   UNL A   1      41.051  30.405  29.111  1.00  0.00    -0.206 F 
ATOM     85  C   UNL A   1      40.480  28.536  27.809  1.00  0.00     0.040 A 
ATOM     86  C   UNL A   1      39.291  26.695  28.808  1.00  0.00     0.040 A 
ATOM     87  F   UNL A   1      38.686  26.784  31.074  1.00  0.00    -0.206 F 
ATOM     88  C   UNL A   1      39.891  27.277  27.694  1.00  0.00     0.006 A 
ENDBRANCH  60  81
BRANCH  72  89
ATOM     89  C   UNL A   1      44.498  29.079  35.377  1.00  0.00     0.057 A 
ATOM     90  C   UNL A   1      45.708  29.664  34.986  1.00  0.00     0.134 A 
ATOM     91  C   UNL A   1      44.558  27.873  36.087  1.00  0.00     0.134 A 
ATOM     92  F   UNL A   1      45.716  30.812  34.292  1.00  0.00    -0.206 F 
ATOM     93  C   UNL A   1      46.933  29.067  35.286  1.00  0.00     0.040 A 
ATOM     94  C   UNL A   1      45.777  27.280  36.414  1.00  0.00     0.040 A 
ATOM     95  F   UNL A   1      43.434  27.267  36.498  1.00  0.00    -0.206 F 
ATOM     96  C   UNL A   1      46.970  27.876  36.012  1.00  0.00     0.006 A 
ENDBRANCH  72  89
ENDBRANCH  46  47
ENDBRANCH  39  41
ENDBRANCH  38  39
ENDBRANCH  37  38
ENDBRANCH  36  37
ENDBRANCH  35  36
ENDBRANCH   1  35
TORSDOF 19
ENDMDL
