MODEL 1
REMARK VINA RESULT:     -11.1      0.000      0.000
REMARK SMILES O=C(OCCOC(=O)c1cc(Cl)nc(I)c1C(F)(F)F)c1ccc(-c2c3nc(c(-c4c(F)cccc4F)c4ccc([nH]4)c(-c4c(F)cccc4F)c4nc(c(-c5c(F)cccc5F)c5ccc2[nH]5)C=C4)C=C3)cc1
REMARK SMILES IDX 4 1 3 2 2 3 1 4 21 5 22 6 74 7 23 8 73 9 24 10 25 11 26 12
REMARK SMILES IDX 67 13 27 14 72 15 66 16 68 17 28 18 71 19 65 20 64 21 29 23
REMARK SMILES IDX 55 24 38 25 54 26 39 27 42 28 53 29 69 30 40 31 41 32 52 34
REMARK SMILES IDX 70 35 43 36 30 37 31 38 36 39 32 40 33 41 35 42 37 43 34 44
REMARK SMILES IDX 56 45 57 46 62 47 58 48 59 49 61 50 63 51 60 52 44 53 45 54
REMARK SMILES IDX 50 55 46 56 47 57 49 58 51 59 48 60 5 61 6 62 7 63 8 64 9 65
REMARK SMILES IDX 10 66 16 67 11 68 14 69 12 70 13 71 15 72 17 73 18 74 19 75
REMARK SMILES IDX 20 76
REMARK H PARENT 68 22 42 33
REMARK Flexibility Score: inf
ROOT
ATOM      1  C   UNL A   1      32.116  33.075  26.769  1.00  0.00     0.275 C 
ENDROOT
BRANCH   1   2
ATOM      2  O   UNL A   1      32.317  33.833  27.975  1.00  0.00    -0.458 OA
BRANCH   2   3
ATOM      3  C   UNL A   1      33.480  34.326  28.465  1.00  0.00     0.338 C 
ATOM      4  O   UNL A   1      33.684  35.537  28.420  1.00  0.00    -0.246 OA
BRANCH   3   5
ATOM      5  C   UNL A   1      34.627  33.446  28.858  1.00  0.00     0.060 A 
ATOM      6  C   UNL A   1      34.530  32.235  29.545  1.00  0.00     0.016 A 
ATOM      7  C   UNL A   1      35.914  33.901  28.502  1.00  0.00     0.016 A 
ATOM      8  C   UNL A   1      35.662  31.468  29.817  1.00  0.00     0.010 A 
ATOM      9  C   UNL A   1      37.058  33.152  28.797  1.00  0.00     0.010 A 
ATOM     10  C   UNL A   1      36.929  31.939  29.474  1.00  0.00    -0.014 A 
BRANCH  10  11
ATOM     11  C   UNL A   1      38.095  31.265  30.078  1.00  0.00     0.031 A 
ATOM     12  C   UNL A   1      38.420  31.598  31.498  1.00  0.00     0.074 A 
ATOM     13  C   UNL A   1      38.764  30.302  29.427  1.00  0.00     0.049 A 
ATOM     14  N   UNL A   1      39.279  31.034  32.302  1.00  0.00    -0.248 NA
ATOM     15  C   UNL A   1      37.635  32.685  32.106  1.00  0.00     0.031 C 
ATOM     16  C   UNL A   1      38.461  29.843  28.079  1.00  0.00     0.029 A 
ATOM     17  N   UNL A   1      39.824  29.529  29.818  1.00  0.00    -0.354 N 
ATOM     18  C   UNL A   1      39.102  31.660  33.524  1.00  0.00     0.074 A 
ATOM     19  C   UNL A   1      38.085  32.675  33.349  1.00  0.00     0.031 C 
ATOM     20  C   UNL A   1      39.333  28.879  27.742  1.00  0.00     0.029 A 
ATOM     21  C   UNL A   1      40.267  28.675  28.841  1.00  0.00     0.049 A 
ATOM     22  H   UNL A   1      40.230  29.582  30.714  1.00  0.00     0.167 HD
ATOM     23  C   UNL A   1      39.732  31.407  34.693  1.00  0.00     0.037 A 
ATOM     24  C   UNL A   1      41.320  27.838  28.829  1.00  0.00     0.037 A 
ATOM     25  C   UNL A   1      40.817  30.477  34.825  1.00  0.00     0.049 A 
ATOM     26  C   UNL A   1      42.137  27.710  30.083  1.00  0.00     0.074 A 
ATOM     27  C   UNL A   1      41.587  30.192  35.935  1.00  0.00     0.029 A 
ATOM     28  N   UNL A   1      41.315  29.708  33.779  1.00  0.00    -0.354 N 
ATOM     29  N   UNL A   1      41.946  28.281  31.248  1.00  0.00    -0.248 NA
ATOM     30  C   UNL A   1      43.305  26.822  30.029  1.00  0.00     0.031 C 
ATOM     31  C   UNL A   1      42.592  29.298  35.545  1.00  0.00     0.029 A 
ATOM     32  C   UNL A   1      42.413  28.983  34.206  1.00  0.00     0.049 A 
ATOM     33  H   UNL A   1      40.941  29.684  32.869  1.00  0.00     0.167 HD
ATOM     34  C   UNL A   1      42.952  27.806  32.076  1.00  0.00     0.074 A 
ATOM     35  C   UNL A   1      43.748  26.894  31.277  1.00  0.00     0.031 C 
ATOM     36  C   UNL A   1      43.191  28.091  33.380  1.00  0.00     0.037 A 
BRANCH  23  37
ATOM     37  C   UNL A   1      39.290  32.234  35.861  1.00  0.00     0.057 A 
ATOM     38  C   UNL A   1      39.775  33.535  36.032  1.00  0.00     0.134 A 
ATOM     39  C   UNL A   1      38.290  31.791  36.739  1.00  0.00     0.134 A 
ATOM     40  F   UNL A   1      40.719  34.023  35.213  1.00  0.00    -0.206 F 
ATOM     41  C   UNL A   1      39.265  34.376  37.021  1.00  0.00     0.040 A 
ATOM     42  C   UNL A   1      37.757  32.631  37.719  1.00  0.00     0.040 A 
ATOM     43  F   UNL A   1      37.755  30.568  36.600  1.00  0.00    -0.206 F 
ATOM     44  C   UNL A   1      38.243  33.929  37.858  1.00  0.00     0.006 A 
ENDBRANCH  23  37
BRANCH  24  45
ATOM     45  C   UNL A   1      41.668  27.097  27.590  1.00  0.00     0.057 A 
ATOM     46  C   UNL A   1      42.451  27.694  26.591  1.00  0.00     0.134 A 
ATOM     47  C   UNL A   1      41.224  25.791  27.360  1.00  0.00     0.134 A 
ATOM     48  F   UNL A   1      42.910  28.944  26.748  1.00  0.00    -0.206 F 
ATOM     49  C   UNL A   1      42.769  27.026  25.407  1.00  0.00     0.040 A 
ATOM     50  C   UNL A   1      41.552  25.101  26.189  1.00  0.00     0.040 A 
ATOM     51  F   UNL A   1      40.485  25.157  28.281  1.00  0.00    -0.206 F 
ATOM     52  C   UNL A   1      42.322  25.722  25.205  1.00  0.00     0.006 A 
ENDBRANCH  24  45
BRANCH  36  53
ATOM     53  C   UNL A   1      44.350  27.393  34.022  1.00  0.00     0.057 A 
ATOM     54  C   UNL A   1      45.623  27.977  34.013  1.00  0.00     0.134 A 
ATOM     55  C   UNL A   1      44.218  26.127  34.605  1.00  0.00     0.134 A 
ATOM     56  F   UNL A   1      45.814  29.185  33.463  1.00  0.00    -0.206 F 
ATOM     57  C   UNL A   1      46.729  27.320  34.551  1.00  0.00     0.040 A 
ATOM     58  C   UNL A   1      45.312  25.472  35.171  1.00  0.00     0.040 A 
ATOM     59  F   UNL A   1      43.021  25.525  34.659  1.00  0.00    -0.206 F 
ATOM     60  C   UNL A   1      46.573  26.065  35.136  1.00  0.00     0.006 A 
ENDBRANCH  36  53
ENDBRANCH  10  11
ENDBRANCH   3   5
ENDBRANCH   2   3
ENDBRANCH   1   2
BRANCH   1  61
ATOM     61  C   UNL A   1      31.841  31.590  27.026  1.00  0.00     0.275 C 
BRANCH  61  62
ATOM     62  O   UNL A   1      32.216  30.754  25.916  1.00  0.00    -0.458 OA
BRANCH  62  63
ATOM     63  C   UNL A   1      31.725  29.495  25.970  1.00  0.00     0.339 C 
ATOM     64  O   UNL A   1      31.449  28.843  26.959  1.00  0.00    -0.246 OA
BRANCH  63  65
ATOM     65  C   UNL A   1      31.432  29.000  24.615  1.00  0.00     0.078 A 
ATOM     66  C   UNL A   1      30.302  29.563  24.019  1.00  0.00     0.057 A 
ATOM     67  C   UNL A   1      32.155  27.962  23.999  1.00  0.00     0.102 A 
ATOM     68  C   UNL A   1      29.944  29.090  22.785  1.00  0.00     0.131 A 
ATOM     69  C   UNL A   1      31.630  27.503  22.792  1.00  0.00     0.116 A 
ATOM     70  Cl  UNL A   1      28.654  29.784  21.903  1.00  0.00    -0.062 Cl
ATOM     71  N   UNL A   1      30.565  28.073  22.174  1.00  0.00    -0.229 NA
ATOM     72  I   UNL A   1      32.323  25.786  21.775  1.00  0.00    -0.021 I 
BRANCH  67  73
ATOM     73  C   UNL A   1      33.452  27.473  24.569  1.00  0.00     0.419 C 
ATOM     74  F   UNL A   1      34.225  28.431  25.145  1.00  0.00    -0.166 F 
ATOM     75  F   UNL A   1      33.241  26.533  25.532  1.00  0.00    -0.166 F 
ATOM     76  F   UNL A   1      34.277  26.884  23.662  1.00  0.00    -0.166 F 
ENDBRANCH  67  73
ENDBRANCH  63  65
ENDBRANCH  62  63
ENDBRANCH  61  62
ENDBRANCH   1  61
TORSDOF 12
ENDMDL
MODEL 2
REMARK VINA RESULT:     -10.9      5.576     10.219
REMARK SMILES O=C(OCCOC(=O)c1cc(Cl)nc(I)c1C(F)(F)F)c1ccc(-c2c3nc(c(-c4c(F)cccc4F)c4ccc([nH]4)c(-c4c(F)cccc4F)c4nc(c(-c5c(F)cccc5F)c5ccc2[nH]5)C=C4)C=C3)cc1
REMARK SMILES IDX 4 1 3 2 2 3 1 4 21 5 22 6 74 7 23 8 73 9 24 10 25 11 26 12
REMARK SMILES IDX 67 13 27 14 72 15 66 16 68 17 28 18 71 19 65 20 64 21 29 23
REMARK SMILES IDX 55 24 38 25 54 26 39 27 42 28 53 29 69 30 40 31 41 32 52 34
REMARK SMILES IDX 70 35 43 36 30 37 31 38 36 39 32 40 33 41 35 42 37 43 34 44
REMARK SMILES IDX 56 45 57 46 62 47 58 48 59 49 61 50 63 51 60 52 44 53 45 54
REMARK SMILES IDX 50 55 46 56 47 57 49 58 51 59 48 60 5 61 6 62 7 63 8 64 9 65
REMARK SMILES IDX 10 66 16 67 11 68 14 69 12 70 13 71 15 72 17 73 18 74 19 75
REMARK SMILES IDX 20 76
REMARK H PARENT 68 22 42 33
REMARK Flexibility Score: inf
ROOT
ATOM      1  C   UNL A   1      38.925  19.197  25.782  1.00  0.00     0.275 C 
ENDROOT
BRANCH   1   2
ATOM      2  O   UNL A   1      40.331  19.218  25.475  1.00  0.00    -0.458 OA
BRANCH   2   3
ATOM      3  C   UNL A   1      41.344  19.692  26.238  1.00  0.00     0.338 C 
ATOM      4  O   UNL A   1      42.093  18.896  26.801  1.00  0.00    -0.246 OA
BRANCH   3   5
ATOM      5  C   UNL A   1      41.464  21.138  26.612  1.00  0.00     0.060 A 
ATOM      6  C   UNL A   1      41.113  22.222  25.807  1.00  0.00     0.016 A 
ATOM      7  C   UNL A   1      41.989  21.409  27.893  1.00  0.00     0.016 A 
ATOM      8  C   UNL A   1      41.219  23.531  26.275  1.00  0.00     0.010 A 
ATOM      9  C   UNL A   1      42.127  22.721  28.360  1.00  0.00     0.010 A 
ATOM     10  C   UNL A   1      41.755  23.785  27.537  1.00  0.00    -0.014 A 
BRANCH  10  11
ATOM     11  C   UNL A   1      42.157  25.172  27.842  1.00  0.00     0.031 A 
ATOM     12  C   UNL A   1      43.518  25.605  27.401  1.00  0.00     0.074 A 
ATOM     13  C   UNL A   1      41.297  26.049  28.381  1.00  0.00     0.049 A 
ATOM     14  N   UNL A   1      44.043  26.799  27.401  1.00  0.00    -0.248 NA
ATOM     15  C   UNL A   1      44.384  24.555  26.842  1.00  0.00     0.031 C 
ATOM     16  C   UNL A   1      39.923  25.746  28.754  1.00  0.00     0.029 A 
ATOM     17  N   UNL A   1      41.449  27.374  28.692  1.00  0.00    -0.354 N 
ATOM     18  C   UNL A   1      45.280  26.654  26.795  1.00  0.00     0.074 A 
ATOM     19  C   UNL A   1      45.446  25.252  26.478  1.00  0.00     0.031 C 
ATOM     20  C   UNL A   1      39.358  26.851  29.268  1.00  0.00     0.029 A 
ATOM     21  C   UNL A   1      40.341  27.926  29.282  1.00  0.00     0.049 A 
ATOM     22  H   UNL A   1      42.274  27.881  28.511  1.00  0.00     0.167 HD
ATOM     23  C   UNL A   1      46.197  27.609  26.523  1.00  0.00     0.037 A 
ATOM     24  C   UNL A   1      40.149  29.156  29.793  1.00  0.00     0.037 A 
ATOM     25  C   UNL A   1      46.067  28.975  26.946  1.00  0.00     0.049 A 
ATOM     26  C   UNL A   1      41.258  30.160  29.657  1.00  0.00     0.074 A 
ATOM     27  C   UNL A   1      46.963  30.016  26.802  1.00  0.00     0.029 A 
ATOM     28  N   UNL A   1      44.975  29.474  27.645  1.00  0.00    -0.354 N 
ATOM     29  N   UNL A   1      42.415  30.028  29.054  1.00  0.00    -0.248 NA
ATOM     30  C   UNL A   1      41.039  31.480  30.261  1.00  0.00     0.031 C 
ATOM     31  C   UNL A   1      46.439  31.131  27.470  1.00  0.00     0.029 A 
ATOM     32  C   UNL A   1      45.192  30.799  27.981  1.00  0.00     0.049 A 
ATOM     33  H   UNL A   1      44.165  28.961  27.867  1.00  0.00     0.167 HD
ATOM     34  C   UNL A   1      43.055  31.250  29.181  1.00  0.00     0.074 A 
ATOM     35  C   UNL A   1      42.151  32.115  29.916  1.00  0.00     0.031 C 
ATOM     36  C   UNL A   1      44.275  31.628  28.725  1.00  0.00     0.037 A 
BRANCH  23  37
ATOM     37  C   UNL A   1      47.432  27.143  25.818  1.00  0.00     0.057 A 
ATOM     38  C   UNL A   1      47.568  27.318  24.437  1.00  0.00     0.134 A 
ATOM     39  C   UNL A   1      48.536  26.640  26.522  1.00  0.00     0.134 A 
ATOM     40  F   UNL A   1      46.554  27.813  23.710  1.00  0.00    -0.206 F 
ATOM     41  C   UNL A   1      48.767  27.033  23.782  1.00  0.00     0.040 A 
ATOM     42  C   UNL A   1      49.747  26.370  25.881  1.00  0.00     0.040 A 
ATOM     43  F   UNL A   1      48.482  26.487  27.854  1.00  0.00    -0.206 F 
ATOM     44  C   UNL A   1      49.865  26.571  24.508  1.00  0.00     0.006 A 
ENDBRANCH  23  37
BRANCH  24  45
ATOM     45  C   UNL A   1      38.882  29.480  30.498  1.00  0.00     0.057 A 
ATOM     46  C   UNL A   1      38.718  29.176  31.857  1.00  0.00     0.134 A 
ATOM     47  C   UNL A   1      37.805  30.084  29.841  1.00  0.00     0.134 A 
ATOM     48  F   UNL A   1      39.712  28.597  32.545  1.00  0.00    -0.206 F 
ATOM     49  C   UNL A   1      37.527  29.448  32.532  1.00  0.00     0.040 A 
ATOM     50  C   UNL A   1      36.614  30.382  30.510  1.00  0.00     0.040 A 
ATOM     51  F   UNL A   1      37.903  30.415  28.546  1.00  0.00    -0.206 F 
ATOM     52  C   UNL A   1      36.471  30.058  31.859  1.00  0.00     0.006 A 
ENDBRANCH  24  45
BRANCH  36  53
ATOM     53  C   UNL A   1      44.689  33.042  28.995  1.00  0.00     0.057 A 
ATOM     54  C   UNL A   1      44.451  34.044  28.046  1.00  0.00     0.134 A 
ATOM     55  C   UNL A   1      45.363  33.402  30.168  1.00  0.00     0.134 A 
ATOM     56  F   UNL A   1      43.814  33.759  26.900  1.00  0.00    -0.206 F 
ATOM     57  C   UNL A   1      44.880  35.355  28.249  1.00  0.00     0.040 A 
ATOM     58  C   UNL A   1      45.774  34.716  30.393  1.00  0.00     0.040 A 
ATOM     59  F   UNL A   1      45.606  32.490  31.121  1.00  0.00    -0.206 F 
ATOM     60  C   UNL A   1      45.540  35.694  29.428  1.00  0.00     0.006 A 
ENDBRANCH  36  53
ENDBRANCH  10  11
ENDBRANCH   3   5
ENDBRANCH   2   3
ENDBRANCH   1   2
BRANCH   1  61
ATOM     61  C   UNL A   1      38.079  20.021  24.806  1.00  0.00     0.275 C 
BRANCH  61  62
ATOM     62  O   UNL A   1      37.089  20.826  25.471  1.00  0.00    -0.458 OA
BRANCH  62  63
ATOM     63  C   UNL A   1      36.248  21.482  24.638  1.00  0.00     0.339 C 
ATOM     64  O   UNL A   1      36.534  22.152  23.664  1.00  0.00    -0.246 OA
BRANCH  63  65
ATOM     65  C   UNL A   1      34.848  21.192  24.990  1.00  0.00     0.078 A 
ATOM     66  C   UNL A   1      34.425  19.897  24.685  1.00  0.00     0.057 A 
ATOM     67  C   UNL A   1      33.960  22.163  25.489  1.00  0.00     0.102 A 
ATOM     68  C   UNL A   1      33.113  19.593  24.929  1.00  0.00     0.131 A 
ATOM     69  C   UNL A   1      32.632  21.756  25.599  1.00  0.00     0.116 A 
ATOM     70  Cl  UNL A   1      32.509  18.008  24.711  1.00  0.00    -0.062 Cl
ATOM     71  N   UNL A   1      32.214  20.489  25.357  1.00  0.00    -0.229 NA
ATOM     72  I   UNL A   1      31.028  23.056  26.050  1.00  0.00    -0.021 I 
BRANCH  67  73
ATOM     73  C   UNL A   1      34.453  23.498  25.961  1.00  0.00     0.419 C 
ATOM     74  F   UNL A   1      35.655  23.477  26.592  1.00  0.00    -0.166 F 
ATOM     75  F   UNL A   1      34.590  24.365  24.920  1.00  0.00    -0.166 F 
ATOM     76  F   UNL A   1      33.626  24.120  26.845  1.00  0.00    -0.166 F 
ENDBRANCH  67  73
ENDBRANCH  63  65
ENDBRANCH  62  63
ENDBRANCH  61  62
ENDBRANCH   1  61
TORSDOF 12
ENDMDL
MODEL 3
REMARK VINA RESULT:     -10.9      0.881      2.055
REMARK SMILES O=C(OCCOC(=O)c1cc(Cl)nc(I)c1C(F)(F)F)c1ccc(-c2c3nc(c(-c4c(F)cccc4F)c4ccc([nH]4)c(-c4c(F)cccc4F)c4nc(c(-c5c(F)cccc5F)c5ccc2[nH]5)C=C4)C=C3)cc1
REMARK SMILES IDX 4 1 3 2 2 3 1 4 21 5 22 6 74 7 23 8 73 9 24 10 25 11 26 12
REMARK SMILES IDX 67 13 27 14 72 15 66 16 68 17 28 18 71 19 65 20 64 21 29 23
REMARK SMILES IDX 55 24 38 25 54 26 39 27 42 28 53 29 69 30 40 31 41 32 52 34
REMARK SMILES IDX 70 35 43 36 30 37 31 38 36 39 32 40 33 41 35 42 37 43 34 44
REMARK SMILES IDX 56 45 57 46 62 47 58 48 59 49 61 50 63 51 60 52 44 53 45 54
REMARK SMILES IDX 50 55 46 56 47 57 49 58 51 59 48 60 5 61 6 62 7 63 8 64 9 65
REMARK SMILES IDX 10 66 16 67 11 68 14 69 12 70 13 71 15 72 17 73 18 74 19 75
REMARK SMILES IDX 20 76
REMARK H PARENT 68 22 42 33
REMARK Flexibility Score: inf
ROOT
ATOM      1  C   UNL A   1      31.723  32.530  27.156  1.00  0.00     0.275 C 
ENDROOT
BRANCH   1   2
ATOM      2  O   UNL A   1      32.500  33.737  27.246  1.00  0.00    -0.458 OA
BRANCH   2   3
ATOM      3  C   UNL A   1      33.012  34.319  28.357  1.00  0.00     0.338 C 
ATOM      4  O   UNL A   1      32.545  35.388  28.743  1.00  0.00    -0.246 OA
BRANCH   3   5
ATOM      5  C   UNL A   1      34.270  33.837  29.013  1.00  0.00     0.060 A 
ATOM      6  C   UNL A   1      35.568  34.222  28.674  1.00  0.00     0.016 A 
ATOM      7  C   UNL A   1      34.110  32.903  30.058  1.00  0.00     0.016 A 
ATOM      8  C   UNL A   1      36.669  33.748  29.386  1.00  0.00     0.010 A 
ATOM      9  C   UNL A   1      35.211  32.400  30.759  1.00  0.00     0.010 A 
ATOM     10  C   UNL A   1      36.497  32.813  30.407  1.00  0.00    -0.014 A 
BRANCH  10  11
ATOM     11  C   UNL A   1      37.695  32.099  30.888  1.00  0.00     0.031 A 
ATOM     12  C   UNL A   1      38.211  32.462  32.243  1.00  0.00     0.074 A 
ATOM     13  C   UNL A   1      38.230  31.081  30.199  1.00  0.00     0.049 A 
ATOM     14  N   UNL A   1      39.136  31.881  32.956  1.00  0.00    -0.248 NA
ATOM     15  C   UNL A   1      37.563  33.609  32.899  1.00  0.00     0.031 C 
ATOM     16  C   UNL A   1      37.738  30.593  28.919  1.00  0.00     0.029 A 
ATOM     17  N   UNL A   1      39.292  30.266  30.487  1.00  0.00    -0.354 N 
ATOM     18  C   UNL A   1      39.144  32.557  34.165  1.00  0.00     0.074 A 
ATOM     19  C   UNL A   1      38.164  33.617  34.077  1.00  0.00     0.031 C 
ATOM     20  C   UNL A   1      38.513  29.573  28.515  1.00  0.00     0.029 A 
ATOM     21  C   UNL A   1      39.567  29.357  29.498  1.00  0.00     0.049 A 
ATOM     22  H   UNL A   1      39.809  30.327  31.323  1.00  0.00     0.167 HD
ATOM     23  C   UNL A   1      39.903  32.311  35.257  1.00  0.00     0.037 A 
ATOM     24  C   UNL A   1      40.568  28.465  29.389  1.00  0.00     0.037 A 
ATOM     25  C   UNL A   1      40.949  31.328  35.290  1.00  0.00     0.049 A 
ATOM     26  C   UNL A   1      41.529  28.337  30.537  1.00  0.00     0.074 A 
ATOM     27  C   UNL A   1      41.837  31.042  36.308  1.00  0.00     0.029 A 
ATOM     28  N   UNL A   1      41.274  30.500  34.223  1.00  0.00    -0.354 N 
ATOM     29  N   UNL A   1      41.514  28.956  31.693  1.00  0.00    -0.248 NA
ATOM     30  C   UNL A   1      42.636  27.386  30.374  1.00  0.00     0.031 C 
ATOM     31  C   UNL A   1      42.741  30.082  35.833  1.00  0.00     0.029 A 
ATOM     32  C   UNL A   1      42.381  29.732  34.540  1.00  0.00     0.049 A 
ATOM     33  H   UNL A   1      40.789  30.464  33.368  1.00  0.00     0.167 HD
ATOM     34  C   UNL A   1      42.591  28.457  32.408  1.00  0.00     0.074 A 
ATOM     35  C   UNL A   1      43.236  27.477  31.554  1.00  0.00     0.031 C 
ATOM     36  C   UNL A   1      43.005  28.773  33.660  1.00  0.00     0.037 A 
BRANCH  23  37
ATOM     37  C   UNL A   1      39.651  33.198  36.436  1.00  0.00     0.057 A 
ATOM     38  C   UNL A   1      38.771  32.800  37.448  1.00  0.00     0.134 A 
ATOM     39  C   UNL A   1      40.376  34.383  36.633  1.00  0.00     0.134 A 
ATOM     40  F   UNL A   1      38.064  31.667  37.327  1.00  0.00    -0.206 F 
ATOM     41  C   UNL A   1      38.637  33.536  38.625  1.00  0.00     0.040 A 
ATOM     42  C   UNL A   1      40.265  35.117  37.815  1.00  0.00     0.040 A 
ATOM     43  F   UNL A   1      41.266  34.797  35.717  1.00  0.00    -0.206 F 
ATOM     44  C   UNL A   1      39.397  34.690  38.818  1.00  0.00     0.006 A 
ENDBRANCH  23  37
BRANCH  24  45
ATOM     45  C   UNL A   1      40.722  27.665  28.147  1.00  0.00     0.057 A 
ATOM     46  C   UNL A   1      40.112  26.408  28.021  1.00  0.00     0.134 A 
ATOM     47  C   UNL A   1      41.483  28.119  27.065  1.00  0.00     0.134 A 
ATOM     48  F   UNL A   1      39.369  25.914  29.022  1.00  0.00    -0.206 F 
ATOM     49  C   UNL A   1      40.264  25.629  26.874  1.00  0.00     0.040 A 
ATOM     50  C   UNL A   1      41.625  27.359  25.901  1.00  0.00     0.040 A 
ATOM     51  F   UNL A   1      42.078  29.319  27.114  1.00  0.00    -0.206 F 
ATOM     52  C   UNL A   1      41.019  26.106  25.806  1.00  0.00     0.006 A 
ENDBRANCH  24  45
BRANCH  36  53
ATOM     53  C   UNL A   1      44.200  28.037  34.182  1.00  0.00     0.057 A 
ATOM     54  C   UNL A   1      44.045  26.813  34.846  1.00  0.00     0.134 A 
ATOM     55  C   UNL A   1      45.495  28.558  34.070  1.00  0.00     0.134 A 
ATOM     56  F   UNL A   1      42.829  26.266  34.990  1.00  0.00    -0.206 F 
ATOM     57  C   UNL A   1      45.137  26.138  35.392  1.00  0.00     0.040 A 
ATOM     58  C   UNL A   1      46.598  27.879  34.590  1.00  0.00     0.040 A 
ATOM     59  F   UNL A   1      45.709  29.717  33.430  1.00  0.00    -0.206 F 
ATOM     60  C   UNL A   1      46.418  26.670  35.261  1.00  0.00     0.006 A 
ENDBRANCH  36  53
ENDBRANCH  10  11
ENDBRANCH   3   5
ENDBRANCH   2   3
ENDBRANCH   1   2
BRANCH   1  61
ATOM     61  C   UNL A   1      32.578  31.262  27.080  1.00  0.00     0.275 C 
BRANCH  61  62
ATOM     62  O   UNL A   1      32.450  30.578  25.820  1.00  0.00    -0.458 OA
BRANCH  62  63
ATOM     63  C   UNL A   1      31.840  29.374  25.895  1.00  0.00     0.339 C 
ATOM     64  O   UNL A   1      31.509  28.765  26.894  1.00  0.00    -0.246 OA
BRANCH  63  65
ATOM     65  C   UNL A   1      31.493  28.890  24.548  1.00  0.00     0.078 A 
ATOM     66  C   UNL A   1      30.328  29.442  24.012  1.00  0.00     0.057 A 
ATOM     67  C   UNL A   1      32.203  27.872  23.886  1.00  0.00     0.102 A 
ATOM     68  C   UNL A   1      29.921  28.979  22.790  1.00  0.00     0.131 A 
ATOM     69  C   UNL A   1      31.630  27.419  22.699  1.00  0.00     0.116 A 
ATOM     70  Cl  UNL A   1      28.580  29.663  21.977  1.00  0.00    -0.062 Cl
ATOM     71  N   UNL A   1      30.529  27.979  22.138  1.00  0.00    -0.229 NA
ATOM     72  I   UNL A   1      32.302  25.726  21.628  1.00  0.00    -0.021 I 
BRANCH  67  73
ATOM     73  C   UNL A   1      33.533  27.397  24.390  1.00  0.00     0.419 C 
ATOM     74  F   UNL A   1      34.211  26.582  23.542  1.00  0.00    -0.166 F 
ATOM     75  F   UNL A   1      34.363  28.447  24.645  1.00  0.00    -0.166 F 
ATOM     76  F   UNL A   1      33.473  26.691  25.551  1.00  0.00    -0.166 F 
ENDBRANCH  67  73
ENDBRANCH  63  65
ENDBRANCH  62  63
ENDBRANCH  61  62
ENDBRANCH   1  61
TORSDOF 12
ENDMDL
