MODEL 1
REMARK VINA RESULT:     -10.6      0.000      0.000
REMARK SMILES C[C@H](NC(=O)OC(C)(C)C)C(=O)N[C@@H](C)C(=O)N1CCC[C@H]1C(=O)OCCOC(=O)c1ccc(-c2c3nc(c(-c4c(F)cccc4F)c4ccc([nH]4)c(-c4c(F)cccc4F)c4nc(c(-c5c(F)cccc5F)c5ccc2[nH]5)C=C4)C=C3)cc1
REMARK SMILES IDX 23 1 24 2 22 3 18 4 19 5 20 6 21 7 16 8 17 9 14 10 15 11
REMARK SMILES IDX 13 12 11 13 12 14 2 16 1 17 3 18 4 19 5 21 6 22 7 23 8 24
REMARK SMILES IDX 9 25 10 26 25 27 26 28 27 29 28 30 29 31 30 32 31 33 32 34
REMARK SMILES IDX 84 35 33 36 83 37 34 38 35 39 36 40 77 41 37 42 82 43 76 44
REMARK SMILES IDX 78 45 38 46 81 47 75 48 74 49 39 51 65 52 48 53 64 54 49 55
REMARK SMILES IDX 52 56 63 57 79 58 50 59 51 60 62 62 80 63 53 64 40 65 41 66
REMARK SMILES IDX 46 67 42 68 43 69 45 70 47 71 44 72 66 73 67 74 72 75 68 76
REMARK SMILES IDX 69 77 71 78 73 79 70 80 54 81 55 82 60 83 56 84 57 85 59 86
REMARK SMILES IDX 61 87 58 88
REMARK H PARENT 13 15 3 20 78 50 52 61
REMARK Flexibility Score: inf
ROOT
ATOM      1  C   UNL A   1      31.292  29.327  24.750  1.00  0.00     0.328 C 
ATOM      2  O   UNL A   1      30.416  29.839  24.053  1.00  0.00    -0.250 OA
ENDROOT
BRANCH   1   3
ATOM      3  C   UNL A   1      32.056  28.075  24.294  1.00  0.00     0.195 C 
ATOM      4  N   UNL A   1      31.450  27.059  23.437  1.00  0.00    -0.327 N 
ATOM      5  C   UNL A   1      32.086  27.048  22.139  1.00  0.00     0.120 C 
ATOM      6  C   UNL A   1      33.507  27.490  22.433  1.00  0.00     0.024 C 
ATOM      7  C   UNL A   1      33.346  28.489  23.570  1.00  0.00     0.039 C 
BRANCH   4   8
ATOM      8  C   UNL A   1      30.652  26.109  24.034  1.00  0.00     0.245 C 
ATOM      9  O   UNL A   1      29.549  26.419  24.488  1.00  0.00    -0.272 OA
BRANCH   8  10
ATOM     10  C   UNL A   1      31.195  24.695  24.314  1.00  0.00     0.168 C 
ATOM     11  C   UNL A   1      30.730  23.688  23.265  1.00  0.00     0.041 C 
BRANCH  10  12
ATOM     12  N   UNL A   1      31.001  24.207  25.667  1.00  0.00    -0.343 N 
ATOM     13  C   UNL A   1      31.922  23.737  26.551  1.00  0.00     0.243 C 
ATOM     14  O   UNL A   1      31.515  23.494  27.694  1.00  0.00    -0.273 OA
ATOM     15  H   UNL A   1      30.072  24.218  25.991  1.00  0.00     0.164 HD
BRANCH  13  16
ATOM     16  C   UNL A   1      33.422  23.568  26.206  1.00  0.00     0.171 C 
ATOM     17  C   UNL A   1      34.004  24.850  25.623  1.00  0.00     0.042 C 
BRANCH  16  18
ATOM     18  N   UNL A   1      33.724  22.305  25.524  1.00  0.00    -0.310 N 
ATOM     19  C   UNL A   1      34.877  21.597  25.367  1.00  0.00     0.408 C 
ATOM     20  H   UNL A   1      32.941  21.889  25.096  1.00  0.00     0.167 HD
ATOM     21  O   UNL A   1      34.885  20.586  24.676  1.00  0.00    -0.225 OA
BRANCH  19  22
ATOM     22  O   UNL A   1      35.943  22.133  25.994  1.00  0.00    -0.444 OA
BRANCH  22  23
ATOM     23  C   UNL A   1      37.142  22.515  25.266  1.00  0.00     0.106 C 
ATOM     24  C   UNL A   1      38.183  21.394  25.296  1.00  0.00     0.056 C 
ATOM     25  C   UNL A   1      36.819  22.957  23.832  1.00  0.00     0.056 C 
ATOM     26  C   UNL A   1      37.705  23.725  26.028  1.00  0.00     0.056 C 
ENDBRANCH  22  23
ENDBRANCH  19  22
ENDBRANCH  16  18
ENDBRANCH  13  16
ENDBRANCH  10  12
ENDBRANCH   8  10
ENDBRANCH   4   8
ENDBRANCH   1   3
BRANCH   1  27
ATOM     27  O   UNL A   1      31.772  29.876  25.891  1.00  0.00    -0.461 OA
BRANCH  27  28
ATOM     28  C   UNL A   1      31.886  28.976  27.010  1.00  0.00     0.274 C 
BRANCH  28  29
ATOM     29  C   UNL A   1      33.347  28.768  27.429  1.00  0.00     0.275 C 
BRANCH  29  30
ATOM     30  O   UNL A   1      34.192  29.854  26.992  1.00  0.00    -0.458 OA
BRANCH  30  31
ATOM     31  C   UNL A   1      34.789  30.567  27.973  1.00  0.00     0.338 C 
ATOM     32  O   UNL A   1      34.334  31.498  28.612  1.00  0.00    -0.246 OA
BRANCH  31  33
ATOM     33  C   UNL A   1      36.125  30.027  28.252  1.00  0.00     0.060 A 
ATOM     34  C   UNL A   1      36.400  29.535  29.531  1.00  0.00     0.016 A 
ATOM     35  C   UNL A   1      37.138  30.134  27.303  1.00  0.00     0.016 A 
ATOM     36  C   UNL A   1      37.690  29.153  29.874  1.00  0.00     0.010 A 
ATOM     37  C   UNL A   1      38.430  29.721  27.637  1.00  0.00     0.010 A 
ATOM     38  C   UNL A   1      38.712  29.232  28.925  1.00  0.00    -0.014 A 
BRANCH  38  39
ATOM     39  C   UNL A   1      40.076  28.779  29.272  1.00  0.00     0.031 A 
ATOM     40  C   UNL A   1      41.017  29.699  29.989  1.00  0.00     0.074 A 
ATOM     41  C   UNL A   1      40.464  27.539  28.918  1.00  0.00     0.049 A 
ATOM     42  N   UNL A   1      42.291  29.545  30.238  1.00  0.00    -0.248 NA
ATOM     43  C   UNL A   1      40.449  30.960  30.490  1.00  0.00     0.031 C 
ATOM     44  C   UNL A   1      39.612  26.544  28.264  1.00  0.00     0.029 A 
ATOM     45  N   UNL A   1      41.678  26.914  29.038  1.00  0.00    -0.354 N 
ATOM     46  C   UNL A   1      42.687  30.698  30.902  1.00  0.00     0.074 A 
ATOM     47  C   UNL A   1      41.520  31.549  31.007  1.00  0.00     0.031 C 
ATOM     48  C   UNL A   1      40.333  25.437  28.030  1.00  0.00     0.029 A 
ATOM     49  C   UNL A   1      41.708  25.672  28.453  1.00  0.00     0.049 A 
ATOM     50  H   UNL A   1      42.450  27.316  29.498  1.00  0.00     0.167 HD
ATOM     51  C   UNL A   1      43.916  31.011  31.376  1.00  0.00     0.037 A 
ATOM     52  C   UNL A   1      42.743  24.839  28.235  1.00  0.00     0.037 A 
ATOM     53  C   UNL A   1      45.064  30.148  31.266  1.00  0.00     0.049 A 
ATOM     54  C   UNL A   1      44.116  25.254  28.680  1.00  0.00     0.074 A 
ATOM     55  C   UNL A   1      46.349  30.357  31.736  1.00  0.00     0.029 A 
ATOM     56  N   UNL A   1      45.066  28.914  30.630  1.00  0.00    -0.354 N 
ATOM     57  N   UNL A   1      44.484  26.341  29.316  1.00  0.00    -0.248 NA
ATOM     58  C   UNL A   1      45.221  24.340  28.364  1.00  0.00     0.031 C 
ATOM     59  C   UNL A   1      47.142  29.277  31.334  1.00  0.00     0.029 A 
ATOM     60  C   UNL A   1      46.340  28.370  30.660  1.00  0.00     0.049 A 
ATOM     61  H   UNL A   1      44.280  28.489  30.218  1.00  0.00     0.167 HD
ATOM     62  C   UNL A   1      45.857  26.233  29.489  1.00  0.00     0.074 A 
ATOM     63  C   UNL A   1      46.253  24.967  28.910  1.00  0.00     0.031 C 
ATOM     64  C   UNL A   1      46.714  27.107  30.074  1.00  0.00     0.037 A 
BRANCH  51  65
ATOM     65  C   UNL A   1      44.094  32.354  32.021  1.00  0.00     0.057 A 
ATOM     66  C   UNL A   1      44.447  33.493  31.285  1.00  0.00     0.134 A 
ATOM     67  C   UNL A   1      43.872  32.518  33.394  1.00  0.00     0.134 A 
ATOM     68  F   UNL A   1      44.685  33.404  29.968  1.00  0.00    -0.206 F 
ATOM     69  C   UNL A   1      44.592  34.740  31.895  1.00  0.00     0.040 A 
ATOM     70  C   UNL A   1      43.988  33.764  34.012  1.00  0.00     0.040 A 
ATOM     71  F   UNL A   1      43.526  31.470  34.158  1.00  0.00    -0.206 F 
ATOM     72  C   UNL A   1      44.354  34.880  33.262  1.00  0.00     0.006 A 
ENDBRANCH  51  65
BRANCH  52  73
ATOM     73  C   UNL A   1      42.524  23.558  27.517  1.00  0.00     0.057 A 
ATOM     74  C   UNL A   1      42.604  23.488  26.122  1.00  0.00     0.134 A 
ATOM     75  C   UNL A   1      42.230  22.375  28.207  1.00  0.00     0.134 A 
ATOM     76  F   UNL A   1      42.862  24.591  25.405  1.00  0.00    -0.206 F 
ATOM     77  C   UNL A   1      42.387  22.291  25.438  1.00  0.00     0.040 A 
ATOM     78  C   UNL A   1      42.038  21.165  27.538  1.00  0.00     0.040 A 
ATOM     79  F   UNL A   1      42.142  22.374  29.546  1.00  0.00    -0.206 F 
ATOM     80  C   UNL A   1      42.110  21.124  26.148  1.00  0.00     0.006 A 
ENDBRANCH  52  73
BRANCH  64  81
ATOM     81  C   UNL A   1      48.160  26.715  30.127  1.00  0.00     0.057 A 
ATOM     82  C   UNL A   1      48.659  25.880  31.134  1.00  0.00     0.134 A 
ATOM     83  C   UNL A   1      49.051  27.131  29.128  1.00  0.00     0.134 A 
ATOM     84  F   UNL A   1      47.861  25.462  32.128  1.00  0.00    -0.206 F 
ATOM     85  C   UNL A   1      49.996  25.482  31.154  1.00  0.00     0.040 A 
ATOM     86  C   UNL A   1      50.384  26.718  29.122  1.00  0.00     0.040 A 
ATOM     87  F   UNL A   1      48.634  27.927  28.131  1.00  0.00    -0.206 F 
ATOM     88  C   UNL A   1      50.860  25.894  30.140  1.00  0.00     0.006 A 
ENDBRANCH  64  81
ENDBRANCH  38  39
ENDBRANCH  31  33
ENDBRANCH  30  31
ENDBRANCH  29  30
ENDBRANCH  28  29
ENDBRANCH  27  28
ENDBRANCH   1  27
TORSDOF 18
ENDMDL
MODEL 2
REMARK VINA RESULT:     -10.5      2.876      7.192
REMARK SMILES C[C@H](NC(=O)OC(C)(C)C)C(=O)N[C@@H](C)C(=O)N1CCC[C@H]1C(=O)OCCOC(=O)c1ccc(-c2c3nc(c(-c4c(F)cccc4F)c4ccc([nH]4)c(-c4c(F)cccc4F)c4nc(c(-c5c(F)cccc5F)c5ccc2[nH]5)C=C4)C=C3)cc1
REMARK SMILES IDX 23 1 24 2 22 3 18 4 19 5 20 6 21 7 16 8 17 9 14 10 15 11
REMARK SMILES IDX 13 12 11 13 12 14 2 16 1 17 3 18 4 19 5 21 6 22 7 23 8 24
REMARK SMILES IDX 9 25 10 26 25 27 26 28 27 29 28 30 29 31 30 32 31 33 32 34
REMARK SMILES IDX 84 35 33 36 83 37 34 38 35 39 36 40 77 41 37 42 82 43 76 44
REMARK SMILES IDX 78 45 38 46 81 47 75 48 74 49 39 51 65 52 48 53 64 54 49 55
REMARK SMILES IDX 52 56 63 57 79 58 50 59 51 60 62 62 80 63 53 64 40 65 41 66
REMARK SMILES IDX 46 67 42 68 43 69 45 70 47 71 44 72 66 73 67 74 72 75 68 76
REMARK SMILES IDX 69 77 71 78 73 79 70 80 54 81 55 82 60 83 56 84 57 85 59 86
REMARK SMILES IDX 61 87 58 88
REMARK H PARENT 13 15 3 20 78 50 52 61
REMARK Flexibility Score: inf
ROOT
ATOM      1  C   UNL A   1      31.719  28.745  26.206  1.00  0.00     0.328 C 
ATOM      2  O   UNL A   1      31.446  28.183  27.266  1.00  0.00    -0.250 OA
ENDROOT
BRANCH   1   3
ATOM      3  C   UNL A   1      32.035  27.952  24.930  1.00  0.00     0.195 C 
ATOM      4  N   UNL A   1      31.013  27.632  23.936  1.00  0.00    -0.327 N 
ATOM      5  C   UNL A   1      31.269  28.344  22.703  1.00  0.00     0.120 C 
ATOM      6  C   UNL A   1      32.778  28.484  22.677  1.00  0.00     0.024 C 
ATOM      7  C   UNL A   1      33.150  28.657  24.143  1.00  0.00     0.039 C 
BRANCH   4   8
ATOM      8  C   UNL A   1      30.206  26.543  24.172  1.00  0.00     0.245 C 
ATOM      9  O   UNL A   1      28.990  26.687  24.311  1.00  0.00    -0.272 OA
BRANCH   8  10
ATOM     10  C   UNL A   1      30.822  25.159  24.454  1.00  0.00     0.168 C 
ATOM     11  C   UNL A   1      30.872  24.291  23.198  1.00  0.00     0.041 C 
BRANCH  10  12
ATOM     12  N   UNL A   1      30.271  24.448  25.591  1.00  0.00    -0.343 N 
ATOM     13  C   UNL A   1      30.906  23.674  26.512  1.00  0.00     0.243 C 
ATOM     14  O   UNL A   1      30.223  23.275  27.463  1.00  0.00    -0.273 OA
ATOM     15  H   UNL A   1      29.298  24.539  25.715  1.00  0.00     0.164 HD
BRANCH  13  16
ATOM     16  C   UNL A   1      32.419  23.347  26.448  1.00  0.00     0.171 C 
ATOM     17  C   UNL A   1      32.837  22.433  27.593  1.00  0.00     0.042 C 
BRANCH  16  18
ATOM     18  N   UNL A   1      33.256  24.517  26.164  1.00  0.00    -0.310 N 
ATOM     19  C   UNL A   1      34.263  24.733  25.274  1.00  0.00     0.408 C 
ATOM     20  H   UNL A   1      33.049  25.298  26.726  1.00  0.00     0.167 HD
ATOM     21  O   UNL A   1      34.869  25.798  25.281  1.00  0.00    -0.225 OA
BRANCH  19  22
ATOM     22  O   UNL A   1      34.519  23.686  24.465  1.00  0.00    -0.444 OA
BRANCH  22  23
ATOM     23  C   UNL A   1      35.719  22.881  24.616  1.00  0.00     0.106 C 
ATOM     24  C   UNL A   1      36.587  22.947  23.357  1.00  0.00     0.056 C 
ATOM     25  C   UNL A   1      36.507  23.267  25.875  1.00  0.00     0.056 C 
ATOM     26  C   UNL A   1      35.216  21.439  24.787  1.00  0.00     0.056 C 
ENDBRANCH  22  23
ENDBRANCH  19  22
ENDBRANCH  16  18
ENDBRANCH  13  16
ENDBRANCH  10  12
ENDBRANCH   8  10
ENDBRANCH   4   8
ENDBRANCH   1   3
BRANCH   1  27
ATOM     27  O   UNL A   1      31.630  30.083  26.010  1.00  0.00    -0.461 OA
BRANCH  27  28
ATOM     28  C   UNL A   1      32.407  30.893  26.912  1.00  0.00     0.274 C 
BRANCH  28  29
ATOM     29  C   UNL A   1      31.699  32.212  27.250  1.00  0.00     0.275 C 
BRANCH  29  30
ATOM     30  O   UNL A   1      32.553  33.353  27.025  1.00  0.00    -0.458 OA
BRANCH  30  31
ATOM     31  C   UNL A   1      32.997  33.985  28.135  1.00  0.00     0.338 C 
ATOM     32  O   UNL A   1      32.445  34.864  28.772  1.00  0.00    -0.246 OA
BRANCH  31  33
ATOM     33  C   UNL A   1      34.283  33.423  28.561  1.00  0.00     0.060 A 
ATOM     34  C   UNL A   1      34.326  32.634  29.713  1.00  0.00     0.016 A 
ATOM     35  C   UNL A   1      35.459  33.785  27.907  1.00  0.00     0.016 A 
ATOM     36  C   UNL A   1      35.543  32.206  30.227  1.00  0.00     0.010 A 
ATOM     37  C   UNL A   1      36.682  33.330  28.406  1.00  0.00     0.010 A 
ATOM     38  C   UNL A   1      36.729  32.541  29.569  1.00  0.00    -0.014 A 
BRANCH  38  39
ATOM     39  C   UNL A   1      38.023  32.046  30.087  1.00  0.00     0.031 A 
ATOM     40  C   UNL A   1      38.624  30.789  29.537  1.00  0.00     0.074 A 
ATOM     41  C   UNL A   1      38.638  32.730  31.070  1.00  0.00     0.049 A 
ATOM     42  N   UNL A   1      39.659  30.115  29.964  1.00  0.00    -0.248 NA
ATOM     43  C   UNL A   1      37.973  30.213  28.350  1.00  0.00     0.031 C 
ATOM     44  C   UNL A   1      38.168  33.993  31.641  1.00  0.00     0.029 A 
ATOM     45  N   UNL A   1      39.780  32.447  31.775  1.00  0.00    -0.354 N 
ATOM     46  C   UNL A   1      39.772  29.021  29.116  1.00  0.00     0.074 A 
ATOM     47  C   UNL A   1      38.692  29.115  28.157  1.00  0.00     0.031 C 
ATOM     48  C   UNL A   1      39.006  34.371  32.618  1.00  0.00     0.029 A 
ATOM     49  C   UNL A   1      40.029  33.345  32.785  1.00  0.00     0.049 A 
ATOM     50  H   UNL A   1      40.362  31.679  31.577  1.00  0.00     0.167 HD
ATOM     51  C   UNL A   1      40.696  28.031  29.145  1.00  0.00     0.037 A 
ATOM     52  C   UNL A   1      40.947  33.313  33.768  1.00  0.00     0.037 A 
ATOM     53  C   UNL A   1      41.767  27.958  30.106  1.00  0.00     0.049 A 
ATOM     54  C   UNL A   1      41.897  32.151  33.839  1.00  0.00     0.074 A 
ATOM     55  C   UNL A   1      42.772  27.013  30.207  1.00  0.00     0.029 A 
ATOM     56  N   UNL A   1      41.962  28.863  31.140  1.00  0.00    -0.354 N 
ATOM     57  N   UNL A   1      42.006  31.124  33.030  1.00  0.00    -0.248 NA
ATOM     58  C   UNL A   1      42.839  32.132  34.965  1.00  0.00     0.031 C 
ATOM     59  C   UNL A   1      43.541  27.313  31.336  1.00  0.00     0.029 A 
ATOM     60  C   UNL A   1      43.048  28.475  31.908  1.00  0.00     0.049 A 
ATOM     61  H   UNL A   1      41.412  29.662  31.304  1.00  0.00     0.167 HD
ATOM     62  C   UNL A   1      43.036  30.347  33.540  1.00  0.00     0.074 A 
ATOM     63  C   UNL A   1      43.532  31.030  34.716  1.00  0.00     0.031 C 
ATOM     64  C   UNL A   1      43.525  29.169  33.077  1.00  0.00     0.037 A 
BRANCH  51  65
ATOM     65  C   UNL A   1      40.568  26.928  28.136  1.00  0.00     0.057 A 
ATOM     66  C   UNL A   1      39.756  25.808  28.356  1.00  0.00     0.134 A 
ATOM     67  C   UNL A   1      41.239  27.007  26.909  1.00  0.00     0.134 A 
ATOM     68  F   UNL A   1      39.094  25.665  29.513  1.00  0.00    -0.206 F 
ATOM     69  C   UNL A   1      39.632  24.798  27.400  1.00  0.00     0.040 A 
ATOM     70  C   UNL A   1      41.104  26.016  25.935  1.00  0.00     0.040 A 
ATOM     71  F   UNL A   1      42.030  28.055  26.631  1.00  0.00    -0.206 F 
ATOM     72  C   UNL A   1      40.302  24.904  26.181  1.00  0.00     0.006 A 
ENDBRANCH  51  65
BRANCH  52  73
ATOM     73  C   UNL A   1      40.975  34.389  34.790  1.00  0.00     0.057 A 
ATOM     74  C   UNL A   1      41.699  35.568  34.580  1.00  0.00     0.134 A 
ATOM     75  C   UNL A   1      40.281  34.266  36.001  1.00  0.00     0.134 A 
ATOM     76  F   UNL A   1      42.401  35.736  33.450  1.00  0.00    -0.206 F 
ATOM     77  C   UNL A   1      41.742  36.580  35.541  1.00  0.00     0.040 A 
ATOM     78  C   UNL A   1      40.292  35.281  36.958  1.00  0.00     0.040 A 
ATOM     79  F   UNL A   1      39.565  33.162  36.263  1.00  0.00    -0.206 F 
ATOM     80  C   UNL A   1      41.031  36.440  36.731  1.00  0.00     0.006 A 
ENDBRANCH  52  73
BRANCH  64  81
ATOM     81  C   UNL A   1      44.663  28.555  33.837  1.00  0.00     0.057 A 
ATOM     82  C   UNL A   1      45.993  28.908  33.580  1.00  0.00     0.134 A 
ATOM     83  C   UNL A   1      44.422  27.646  34.875  1.00  0.00     0.134 A 
ATOM     84  F   UNL A   1      46.291  29.761  32.588  1.00  0.00    -0.206 F 
ATOM     85  C   UNL A   1      47.046  28.367  34.320  1.00  0.00     0.040 A 
ATOM     86  C   UNL A   1      45.464  27.118  35.639  1.00  0.00     0.040 A 
ATOM     87  F   UNL A   1      43.169  27.271  35.176  1.00  0.00    -0.206 F 
ATOM     88  C   UNL A   1      46.780  27.477  35.359  1.00  0.00     0.006 A 
ENDBRANCH  64  81
ENDBRANCH  38  39
ENDBRANCH  31  33
ENDBRANCH  30  31
ENDBRANCH  29  30
ENDBRANCH  28  29
ENDBRANCH  27  28
ENDBRANCH   1  27
TORSDOF 18
ENDMDL
MODEL 3
REMARK VINA RESULT:     -10.4      2.815      5.908
REMARK SMILES C[C@H](NC(=O)OC(C)(C)C)C(=O)N[C@@H](C)C(=O)N1CCC[C@H]1C(=O)OCCOC(=O)c1ccc(-c2c3nc(c(-c4c(F)cccc4F)c4ccc([nH]4)c(-c4c(F)cccc4F)c4nc(c(-c5c(F)cccc5F)c5ccc2[nH]5)C=C4)C=C3)cc1
REMARK SMILES IDX 23 1 24 2 22 3 18 4 19 5 20 6 21 7 16 8 17 9 14 10 15 11
REMARK SMILES IDX 13 12 11 13 12 14 2 16 1 17 3 18 4 19 5 21 6 22 7 23 8 24
REMARK SMILES IDX 9 25 10 26 25 27 26 28 27 29 28 30 29 31 30 32 31 33 32 34
REMARK SMILES IDX 84 35 33 36 83 37 34 38 35 39 36 40 77 41 37 42 82 43 76 44
REMARK SMILES IDX 78 45 38 46 81 47 75 48 74 49 39 51 65 52 48 53 64 54 49 55
REMARK SMILES IDX 52 56 63 57 79 58 50 59 51 60 62 62 80 63 53 64 40 65 41 66
REMARK SMILES IDX 46 67 42 68 43 69 45 70 47 71 44 72 66 73 67 74 72 75 68 76
REMARK SMILES IDX 69 77 71 78 73 79 70 80 54 81 55 82 60 83 56 84 57 85 59 86
REMARK SMILES IDX 61 87 58 88
REMARK H PARENT 13 15 3 20 78 50 52 61
REMARK Flexibility Score: inf
ROOT
ATOM      1  C   UNL A   1      33.872  24.187  22.838  1.00  0.00     0.328 C 
ATOM      2  O   UNL A   1      33.812  23.538  21.795  1.00  0.00    -0.250 OA
ENDROOT
BRANCH   1   3
ATOM      3  C   UNL A   1      33.118  25.515  23.006  1.00  0.00     0.195 C 
ATOM      4  N   UNL A   1      33.071  26.230  24.280  1.00  0.00    -0.327 N 
ATOM      5  C   UNL A   1      33.799  27.476  24.186  1.00  0.00     0.120 C 
ATOM      6  C   UNL A   1      33.643  27.873  22.731  1.00  0.00     0.024 C 
ATOM      7  C   UNL A   1      33.643  26.542  21.991  1.00  0.00     0.039 C 
BRANCH   4   8
ATOM      8  C   UNL A   1      32.147  25.818  25.212  1.00  0.00     0.245 C 
ATOM      9  O   UNL A   1      32.299  26.095  26.404  1.00  0.00    -0.272 OA
BRANCH   8  10
ATOM     10  C   UNL A   1      31.013  24.853  24.818  1.00  0.00     0.168 C 
ATOM     11  C   UNL A   1      30.044  25.488  23.824  1.00  0.00     0.041 C 
BRANCH  10  12
ATOM     12  N   UNL A   1      30.325  24.211  25.922  1.00  0.00    -0.343 N 
ATOM     13  C   UNL A   1      30.674  23.097  26.622  1.00  0.00     0.243 C 
ATOM     14  O   UNL A   1      29.976  22.823  27.605  1.00  0.00    -0.273 OA
ATOM     15  H   UNL A   1      29.487  24.643  26.206  1.00  0.00     0.164 HD
BRANCH  13  16
ATOM     16  C   UNL A   1      31.914  22.234  26.281  1.00  0.00     0.171 C 
ATOM     17  C   UNL A   1      33.135  22.680  27.074  1.00  0.00     0.042 C 
BRANCH  16  18
ATOM     18  N   UNL A   1      32.079  21.995  24.843  1.00  0.00    -0.310 N 
ATOM     19  C   UNL A   1      32.168  20.855  24.104  1.00  0.00     0.408 C 
ATOM     20  H   UNL A   1      32.139  22.820  24.309  1.00  0.00     0.167 HD
ATOM     21  O   UNL A   1      32.382  20.921  22.900  1.00  0.00    -0.225 OA
BRANCH  19  22
ATOM     22  O   UNL A   1      32.035  19.721  24.821  1.00  0.00    -0.444 OA
BRANCH  22  23
ATOM     23  C   UNL A   1      32.891  18.569  24.589  1.00  0.00     0.106 C 
ATOM     24  C   UNL A   1      32.521  17.865  23.281  1.00  0.00     0.056 C 
ATOM     25  C   UNL A   1      34.377  18.948  24.633  1.00  0.00     0.056 C 
ATOM     26  C   UNL A   1      32.602  17.614  25.757  1.00  0.00     0.056 C 
ENDBRANCH  22  23
ENDBRANCH  19  22
ENDBRANCH  16  18
ENDBRANCH  13  16
ENDBRANCH  10  12
ENDBRANCH   8  10
ENDBRANCH   4   8
ENDBRANCH   1   3
BRANCH   1  27
ATOM     27  O   UNL A   1      34.469  23.749  23.973  1.00  0.00    -0.461 OA
BRANCH  27  28
ATOM     28  C   UNL A   1      35.843  23.345  23.833  1.00  0.00     0.274 C 
BRANCH  28  29
ATOM     29  C   UNL A   1      36.086  21.938  24.396  1.00  0.00     0.275 C 
BRANCH  29  30
ATOM     30  O   UNL A   1      36.694  21.980  25.704  1.00  0.00    -0.458 OA
BRANCH  30  31
ATOM     31  C   UNL A   1      38.006  21.661  25.754  1.00  0.00     0.338 C 
ATOM     32  O   UNL A   1      38.550  20.646  25.358  1.00  0.00    -0.246 OA
BRANCH  31  33
ATOM     33  C   UNL A   1      38.778  22.769  26.327  1.00  0.00     0.060 A 
ATOM     34  C   UNL A   1      38.358  24.079  26.087  1.00  0.00     0.016 A 
ATOM     35  C   UNL A   1      39.984  22.522  26.980  1.00  0.00     0.016 A 
ATOM     36  C   UNL A   1      39.141  25.154  26.487  1.00  0.00     0.010 A 
ATOM     37  C   UNL A   1      40.758  23.602  27.411  1.00  0.00     0.010 A 
ATOM     38  C   UNL A   1      40.341  24.922  27.164  1.00  0.00    -0.014 A 
BRANCH  38  39
ATOM     39  C   UNL A   1      41.152  26.065  27.636  1.00  0.00     0.031 A 
ATOM     40  C   UNL A   1      40.526  27.142  28.468  1.00  0.00     0.074 A 
ATOM     41  C   UNL A   1      42.452  26.131  27.290  1.00  0.00     0.049 A 
ATOM     42  N   UNL A   1      41.026  28.291  28.840  1.00  0.00    -0.248 NA
ATOM     43  C   UNL A   1      39.156  26.895  28.941  1.00  0.00     0.031 C 
ATOM     44  C   UNL A   1      43.174  25.111  26.528  1.00  0.00     0.029 A 
ATOM     45  N   UNL A   1      43.388  27.106  27.517  1.00  0.00    -0.354 N 
ATOM     46  C   UNL A   1      40.025  28.919  29.571  1.00  0.00     0.074 A 
ATOM     47  C   UNL A   1      38.885  28.026  29.579  1.00  0.00     0.031 C 
ATOM     48  C   UNL A   1      44.438  25.519  26.340  1.00  0.00     0.029 A 
ATOM     49  C   UNL A   1      44.592  26.854  26.906  1.00  0.00     0.049 A 
ATOM     50  H   UNL A   1      43.214  27.907  28.063  1.00  0.00     0.167 HD
ATOM     51  C   UNL A   1      40.063  30.130  30.175  1.00  0.00     0.037 A 
ATOM     52  C   UNL A   1      45.679  27.636  26.772  1.00  0.00     0.037 A 
ATOM     53  C   UNL A   1      41.211  31.000  30.159  1.00  0.00     0.049 A 
ATOM     54  C   UNL A   1      45.659  29.017  27.364  1.00  0.00     0.074 A 
ATOM     55  C   UNL A   1      41.364  32.236  30.762  1.00  0.00     0.029 A 
ATOM     56  N   UNL A   1      42.399  30.729  29.494  1.00  0.00    -0.354 N 
ATOM     57  N   UNL A   1      44.714  29.601  28.062  1.00  0.00    -0.248 NA
ATOM     58  C   UNL A   1      46.845  29.853  27.138  1.00  0.00     0.031 C 
ATOM     59  C   UNL A   1      42.622  32.739  30.414  1.00  0.00     0.029 A 
ATOM     60  C   UNL A   1      43.274  31.793  29.639  1.00  0.00     0.049 A 
ATOM     61  H   UNL A   1      42.591  29.903  28.995  1.00  0.00     0.167 HD
ATOM     62  C   UNL A   1      45.197  30.865  28.371  1.00  0.00     0.074 A 
ATOM     63  C   UNL A   1      46.526  30.955  27.802  1.00  0.00     0.031 C 
ATOM     64  C   UNL A   1      44.593  31.863  29.061  1.00  0.00     0.037 A 
BRANCH  51  65
ATOM     65  C   UNL A   1      38.820  30.602  30.869  1.00  0.00     0.057 A 
ATOM     66  C   UNL A   1      37.838  31.353  30.209  1.00  0.00     0.134 A 
ATOM     67  C   UNL A   1      38.584  30.269  32.209  1.00  0.00     0.134 A 
ATOM     68  F   UNL A   1      38.006  31.716  28.929  1.00  0.00    -0.206 F 
ATOM     69  C   UNL A   1      36.677  31.771  30.862  1.00  0.00     0.040 A 
ATOM     70  C   UNL A   1      37.416  30.658  32.866  1.00  0.00     0.040 A 
ATOM     71  F   UNL A   1      39.480  29.547  32.899  1.00  0.00    -0.206 F 
ATOM     72  C   UNL A   1      36.460  31.417  32.193  1.00  0.00     0.006 A 
ENDBRANCH  51  65
BRANCH  52  73
ATOM     73  C   UNL A   1      46.852  27.149  26.003  1.00  0.00     0.057 A 
ATOM     74  C   UNL A   1      46.978  27.409  24.634  1.00  0.00     0.134 A 
ATOM     75  C   UNL A   1      47.874  26.413  26.616  1.00  0.00     0.134 A 
ATOM     76  F   UNL A   1      46.022  28.091  23.986  1.00  0.00    -0.206 F 
ATOM     77  C   UNL A   1      48.070  26.944  23.900  1.00  0.00     0.040 A 
ATOM     78  C   UNL A   1      48.986  25.966  25.901  1.00  0.00     0.040 A 
ATOM     79  F   UNL A   1      47.815  26.133  27.927  1.00  0.00    -0.206 F 
ATOM     80  C   UNL A   1      49.081  26.226  24.536  1.00  0.00     0.006 A 
ENDBRANCH  52  73
BRANCH  64  81
ATOM     81  C   UNL A   1      45.370  33.132  29.250  1.00  0.00     0.057 A 
ATOM     82  C   UNL A   1      46.269  33.292  30.311  1.00  0.00     0.134 A 
ATOM     83  C   UNL A   1      45.259  34.182  28.330  1.00  0.00     0.134 A 
ATOM     84  F   UNL A   1      46.408  32.330  31.236  1.00  0.00    -0.206 F 
ATOM     85  C   UNL A   1      47.023  34.457  30.458  1.00  0.00     0.040 A 
ATOM     86  C   UNL A   1      46.027  35.341  28.450  1.00  0.00     0.040 A 
ATOM     87  F   UNL A   1      44.420  34.089  27.287  1.00  0.00    -0.206 F 
ATOM     88  C   UNL A   1      46.909  35.482  29.519  1.00  0.00     0.006 A 
ENDBRANCH  64  81
ENDBRANCH  38  39
ENDBRANCH  31  33
ENDBRANCH  30  31
ENDBRANCH  29  30
ENDBRANCH  28  29
ENDBRANCH  27  28
ENDBRANCH   1  27
TORSDOF 18
ENDMDL
