MODEL 1
REMARK VINA RESULT:     -11.7      0.000      0.000
REMARK SMILES CC(C)c1ccc2c(c1)c(SC(C)(C)C)c(CC(C)(C)C(=O)OCCOC(=O)c1ccc(-c3c4nc(c(-c5c(F)cccc5F)c5ccc([nH]5)c(-c5c(F)cccc5F)c5nc(c(-c6c(F)cccc6F)c6ccc3[nH]6)C=C5)C=C4)cc1)n2Cc1ccc(Cl)cc1
REMARK SMILES IDX 24 1 23 2 21 3 22 4 18 5 19 6 20 7 17 8 16 9 4 10 5 11 9 12
REMARK SMILES IDX 6 13 8 14 7 15 10 16 83 17 2 18 1 19 3 20 11 21 12 22 13 23
REMARK SMILES IDX 14 24 15 25 84 26 85 27 86 28 91 29 87 30 90 31 88 32 89 33
REMARK SMILES IDX 25 34 26 35 27 36 28 37 29 38 30 39 82 40 31 41 81 42 32 43
REMARK SMILES IDX 33 44 34 45 75 46 35 47 80 48 74 49 76 50 36 51 79 52 73 53
REMARK SMILES IDX 72 54 37 56 63 57 46 58 62 59 47 60 50 61 61 62 77 63 48 64
REMARK SMILES IDX 49 65 60 67 78 68 51 69 38 70 39 71 44 72 40 73 41 74 43 75
REMARK SMILES IDX 45 76 42 77 64 78 65 79 70 80 66 81 67 82 69 83 71 84 68 85
REMARK SMILES IDX 52 86 53 87 58 88 54 89 55 90 57 91 59 92 56 93
REMARK H PARENT 76 55 50 66
REMARK Flexibility Score: inf
ROOT
ATOM      1  C   UNL A   1      43.278  41.270  26.005  1.00  0.00     0.274 C 
ENDROOT
BRANCH   1   2
ATOM      2  O   UNL A   1      43.535  41.514  24.614  1.00  0.00    -0.462 OA
BRANCH   2   3
ATOM      3  C   UNL A   1      42.504  42.072  23.941  1.00  0.00     0.312 C 
ATOM      4  O   UNL A   1      41.327  41.877  24.227  1.00  0.00    -0.252 OA
BRANCH   3   5
ATOM      5  C   UNL A   1      42.930  42.913  22.745  1.00  0.00     0.068 C 
ATOM      6  C   UNL A   1      42.716  44.321  23.330  1.00  0.00     0.024 C 
ATOM      7  C   UNL A   1      42.047  42.756  21.474  1.00  0.00     0.024 C 
BRANCH   5   8
ATOM      8  C   UNL A   1      44.401  42.638  22.346  1.00  0.00     0.073 C 
BRANCH   8   9
ATOM      9  C   UNL A   1      45.295  43.791  22.233  1.00  0.00     0.034 A 
ATOM     10  C   UNL A   1      48.127  47.513  21.727  1.00  0.00    -0.045 A 
ATOM     11  C   UNL A   1      47.111  47.850  20.855  1.00  0.00     0.006 A 
ATOM     12  C   UNL A   1      47.933  46.400  22.668  1.00  0.00     0.015 A 
ATOM     13  C   UNL A   1      46.055  46.989  20.712  1.00  0.00     0.027 A 
ATOM     14  C   UNL A   1      46.847  45.464  22.533  1.00  0.00     0.014 A 
ATOM     15  C   UNL A   1      46.021  45.784  21.453  1.00  0.00     0.050 A 
ATOM     16  C   UNL A   1      46.188  44.248  23.173  1.00  0.00     0.037 A 
ATOM     17  N   UNL A   1      45.371  44.609  21.134  1.00  0.00    -0.339 N 
BRANCH  10  18
ATOM     18  C   UNL A   1      49.450  48.270  21.580  1.00  0.00     0.013 C 
ATOM     19  C   UNL A   1      49.723  49.112  22.821  1.00  0.00     0.012 C 
ATOM     20  C   UNL A   1      50.776  47.537  21.238  1.00  0.00     0.012 C 
ENDBRANCH  10  18
BRANCH  16  21
ATOM     21  S   UNL A   1      46.311  43.441  24.849  1.00  0.00    -0.118 SA
BRANCH  21  22
ATOM     22  C   UNL A   1      46.867  44.714  26.398  1.00  0.00     0.012 C 
ATOM     23  C   UNL A   1      48.175  45.560  26.310  1.00  0.00     0.023 C 
ATOM     24  C   UNL A   1      45.763  45.678  26.937  1.00  0.00     0.023 C 
ATOM     25  C   UNL A   1      47.026  43.769  27.620  1.00  0.00     0.023 C 
ENDBRANCH  21  22
ENDBRANCH  16  21
BRANCH  17  26
ATOM     26  C   UNL A   1      45.306  44.273  19.725  1.00  0.00     0.158 C 
BRANCH  26  27
ATOM     27  C   UNL A   1      44.297  44.949  18.895  1.00  0.00    -0.028 A 
ATOM     28  C   UNL A   1      42.466  44.811  18.824  1.00  0.00     0.007 A 
ATOM     29  C   UNL A   1      45.115  46.156  17.759  1.00  0.00     0.007 A 
ATOM     30  C   UNL A   1      41.488  46.045  17.899  1.00  0.00     0.021 A 
ATOM     31  C   UNL A   1      44.112  47.327  16.834  1.00  0.00     0.021 A 
ATOM     32  C   UNL A   1      42.331  47.322  16.963  1.00  0.00     0.041 A 
ATOM     33  Cl  UNL A   1      41.424  48.170  15.753  1.00  0.00    -0.084 Cl
ENDBRANCH  26  27
ENDBRANCH  17  26
ENDBRANCH   8   9
ENDBRANCH   5   8
ENDBRANCH   3   5
ENDBRANCH   2   3
ENDBRANCH   1   2
BRANCH   1  34
ATOM     34  C   UNL A   1      43.857  39.905  26.412  1.00  0.00     0.275 C 
BRANCH  34  35
ATOM     35  O   UNL A   1      45.245  39.778  25.962  1.00  0.00    -0.458 OA
BRANCH  35  36
ATOM     36  C   UNL A   1      46.158  38.570  26.336  1.00  0.00     0.338 C 
ATOM     37  O   UNL A   1      47.140  38.810  25.611  1.00  0.00    -0.246 OA
BRANCH  36  38
ATOM     38  C   UNL A   1      45.689  37.086  27.883  1.00  0.00     0.060 A 
ATOM     39  C   UNL A   1      45.091  35.719  27.809  1.00  0.00     0.016 A 
ATOM     40  C   UNL A   1      45.284  37.296  29.374  1.00  0.00     0.016 A 
ATOM     41  C   UNL A   1      43.943  35.140  28.628  1.00  0.00     0.010 A 
ATOM     42  C   UNL A   1      44.134  36.725  30.198  1.00  0.00     0.010 A 
ATOM     43  C   UNL A   1      43.278  35.739  29.740  1.00  0.00    -0.014 A 
BRANCH  43  44
ATOM     44  C   UNL A   1      41.991  35.057  30.497  1.00  0.00     0.031 A 
ATOM     45  C   UNL A   1      42.461  34.732  31.838  1.00  0.00     0.074 A 
ATOM     46  C   UNL A   1      40.642  34.637  30.368  1.00  0.00     0.049 A 
ATOM     47  N   UNL A   1      42.853  33.564  32.217  1.00  0.00    -0.248 NA
ATOM     48  C   UNL A   1      42.733  35.826  32.773  1.00  0.00     0.031 C 
ATOM     49  C   UNL A   1      39.846  34.707  29.181  1.00  0.00     0.029 A 
ATOM     50  N   UNL A   1      39.633  33.952  31.176  1.00  0.00    -0.354 N 
ATOM     51  C   UNL A   1      43.053  33.725  33.567  1.00  0.00     0.074 A 
ATOM     52  C   UNL A   1      43.243  35.136  33.796  1.00  0.00     0.031 C 
ATOM     53  C   UNL A   1      38.519  34.511  29.297  1.00  0.00     0.029 A 
ATOM     54  C   UNL A   1      38.281  33.952  30.596  1.00  0.00     0.049 A 
ATOM     55  H   UNL A   1      39.842  33.524  32.038  1.00  0.00     0.167 HD
ATOM     56  C   UNL A   1      42.563  32.771  34.392  1.00  0.00     0.037 A 
ATOM     57  C   UNL A   1      37.055  33.356  30.852  1.00  0.00     0.037 A 
ATOM     58  C   UNL A   1      42.279  31.535  33.709  1.00  0.00     0.049 A 
ATOM     59  C   UNL A   1      37.247  32.225  31.758  1.00  0.00     0.074 A 
ATOM     60  C   UNL A   1      43.015  30.523  33.139  1.00  0.00     0.029 A 
ATOM     61  N   UNL A   1      41.002  31.406  33.233  1.00  0.00    -0.354 N 
ATOM     62  N   UNL A   1      37.514  31.020  31.358  1.00  0.00    -0.248 NA
ATOM     63  C   UNL A   1      37.430  32.485  33.171  1.00  0.00     0.031 C 
ATOM     64  C   UNL A   1      42.110  29.747  32.366  1.00  0.00     0.029 A 
ATOM     65  C   UNL A   1      40.829  30.261  32.489  1.00  0.00     0.049 A 
ATOM     66  H   UNL A   1      40.286  32.060  33.404  1.00  0.00     0.167 HD
ATOM     67  C   UNL A   1      38.421  30.598  32.297  1.00  0.00     0.074 A 
ATOM     68  C   UNL A   1      38.190  31.433  33.468  1.00  0.00     0.031 C 
ATOM     69  C   UNL A   1      39.549  29.965  31.877  1.00  0.00     0.037 A 
BRANCH  56  70
ATOM     70  C   UNL A   1      41.868  33.112  35.672  1.00  0.00     0.057 A 
ATOM     71  C   UNL A   1      40.590  33.707  35.726  1.00  0.00     0.134 A 
ATOM     72  C   UNL A   1      42.343  32.561  36.865  1.00  0.00     0.134 A 
ATOM     73  F   UNL A   1      39.961  34.154  34.631  1.00  0.00    -0.206 F 
ATOM     74  C   UNL A   1      39.842  33.772  36.899  1.00  0.00     0.040 A 
ATOM     75  C   UNL A   1      41.578  32.571  38.034  1.00  0.00     0.040 A 
ATOM     76  F   UNL A   1      43.529  31.937  36.903  1.00  0.00    -0.206 F 
ATOM     77  C   UNL A   1      40.325  33.178  38.054  1.00  0.00     0.006 A 
ENDBRANCH  56  70
BRANCH  57  78
ATOM     78  C   UNL A   1      35.631  33.573  30.338  1.00  0.00     0.057 A 
ATOM     79  C   UNL A   1      35.243  33.148  29.060  1.00  0.00     0.134 A 
ATOM     80  C   UNL A   1      34.711  34.471  30.948  1.00  0.00     0.134 A 
ATOM     81  F   UNL A   1      35.996  32.287  28.368  1.00  0.00    -0.206 F 
ATOM     82  C   UNL A   1      34.112  33.654  28.390  1.00  0.00     0.040 A 
ATOM     83  C   UNL A   1      33.584  34.998  30.281  1.00  0.00     0.040 A 
ATOM     84  F   UNL A   1      34.901  34.931  32.193  1.00  0.00    -0.206 F 
ATOM     85  C   UNL A   1      33.305  34.618  28.978  1.00  0.00     0.006 A 
ENDBRANCH  57  78
BRANCH  69  86
ATOM     86  C   UNL A   1      39.390  29.018  30.713  1.00  0.00     0.057 A 
ATOM     87  C   UNL A   1      39.060  27.683  30.989  1.00  0.00     0.134 A 
ATOM     88  C   UNL A   1      39.520  29.352  29.348  1.00  0.00     0.134 A 
ATOM     89  F   UNL A   1      38.905  27.273  32.258  1.00  0.00    -0.206 F 
ATOM     90  C   UNL A   1      38.908  26.719  29.984  1.00  0.00     0.040 A 
ATOM     91  C   UNL A   1      39.322  28.404  28.327  1.00  0.00     0.040 A 
ATOM     92  F   UNL A   1      39.951  30.563  28.961  1.00  0.00    -0.206 F 
ATOM     93  C   UNL A   1      39.039  27.077  28.645  1.00  0.00     0.006 A 
ENDBRANCH  69  86
ENDBRANCH  43  44
ENDBRANCH  36  38
ENDBRANCH  35  36
ENDBRANCH  34  35
ENDBRANCH   1  34
TORSDOF 18
ENDMDL
MODEL 2
REMARK VINA RESULT:     -11.5      2.035      4.910
REMARK SMILES CC(C)c1ccc2c(c1)c(SC(C)(C)C)c(CC(C)(C)C(=O)OCCOC(=O)c1ccc(-c3c4nc(c(-c5c(F)cccc5F)c5ccc([nH]5)c(-c5c(F)cccc5F)c5nc(c(-c6c(F)cccc6F)c6ccc3[nH]6)C=C5)C=C4)cc1)n2Cc1ccc(Cl)cc1
REMARK SMILES IDX 24 1 23 2 21 3 22 4 18 5 19 6 20 7 17 8 16 9 4 10 5 11 9 12
REMARK SMILES IDX 6 13 8 14 7 15 10 16 83 17 2 18 1 19 3 20 11 21 12 22 13 23
REMARK SMILES IDX 14 24 15 25 84 26 85 27 86 28 91 29 87 30 90 31 88 32 89 33
REMARK SMILES IDX 25 34 26 35 27 36 28 37 29 38 30 39 82 40 31 41 81 42 32 43
REMARK SMILES IDX 33 44 34 45 75 46 35 47 80 48 74 49 76 50 36 51 79 52 73 53
REMARK SMILES IDX 72 54 37 56 63 57 46 58 62 59 47 60 50 61 61 62 77 63 48 64
REMARK SMILES IDX 49 65 60 67 78 68 51 69 38 70 39 71 44 72 40 73 41 74 43 75
REMARK SMILES IDX 45 76 42 77 64 78 65 79 70 80 66 81 67 82 69 83 71 84 68 85
REMARK SMILES IDX 52 86 53 87 58 88 54 89 55 90 57 91 59 92 56 93
REMARK H PARENT 76 55 50 66
REMARK Flexibility Score: inf
ROOT
ATOM      1  C   UNL A   1      43.521  40.928  25.786  1.00  0.00     0.274 C 
ENDROOT
BRANCH   1   2
ATOM      2  O   UNL A   1      43.808  41.634  24.570  1.00  0.00    -0.462 OA
BRANCH   2   3
ATOM      3  C   UNL A   1      42.722  42.134  23.941  1.00  0.00     0.312 C 
ATOM      4  O   UNL A   1      41.572  41.945  24.326  1.00  0.00    -0.252 OA
BRANCH   3   5
ATOM      5  C   UNL A   1      43.044  42.896  22.662  1.00  0.00     0.068 C 
ATOM      6  C   UNL A   1      42.772  44.333  23.143  1.00  0.00     0.024 C 
ATOM      7  C   UNL A   1      42.118  42.586  21.452  1.00  0.00     0.024 C 
BRANCH   5   8
ATOM      8  C   UNL A   1      44.511  42.671  22.216  1.00  0.00     0.073 C 
BRANCH   8   9
ATOM      9  C   UNL A   1      45.370  43.851  22.109  1.00  0.00     0.034 A 
ATOM     10  C   UNL A   1      48.089  47.660  21.628  1.00  0.00    -0.045 A 
ATOM     11  C   UNL A   1      47.051  47.983  20.777  1.00  0.00     0.006 A 
ATOM     12  C   UNL A   1      47.940  46.526  22.552  1.00  0.00     0.015 A 
ATOM     13  C   UNL A   1      46.017  47.094  20.634  1.00  0.00     0.027 A 
ATOM     14  C   UNL A   1      46.879  45.562  22.417  1.00  0.00     0.014 A 
ATOM     15  C   UNL A   1      46.028  45.877  21.354  1.00  0.00     0.050 A 
ATOM     16  C   UNL A   1      46.264  44.317  23.044  1.00  0.00     0.037 A 
ATOM     17  N   UNL A   1      45.406  44.690  21.025  1.00  0.00    -0.339 N 
BRANCH  10  18
ATOM     18  C   UNL A   1      49.388  48.456  21.475  1.00  0.00     0.013 C 
ATOM     19  C   UNL A   1      49.503  49.021  20.064  1.00  0.00     0.012 C 
ATOM     20  C   UNL A   1      49.758  49.608  22.448  1.00  0.00     0.012 C 
ENDBRANCH  10  18
BRANCH  16  21
ATOM     21  S   UNL A   1      46.435  43.485  24.705  1.00  0.00    -0.118 SA
BRANCH  21  22
ATOM     22  C   UNL A   1      46.859  44.766  26.288  1.00  0.00     0.012 C 
ATOM     23  C   UNL A   1      47.005  44.220  27.743  1.00  0.00     0.023 C 
ATOM     24  C   UNL A   1      48.042  45.764  26.078  1.00  0.00     0.023 C 
ATOM     25  C   UNL A   1      45.664  45.756  26.299  1.00  0.00     0.023 C 
ENDBRANCH  21  22
ENDBRANCH  16  21
BRANCH  17  26
ATOM     26  C   UNL A   1      45.330  44.376  19.611  1.00  0.00     0.158 C 
BRANCH  26  27
ATOM     27  C   UNL A   1      44.296  45.044  18.805  1.00  0.00    -0.028 A 
ATOM     28  C   UNL A   1      42.466  44.885  18.771  1.00  0.00     0.007 A 
ATOM     29  C   UNL A   1      45.076  46.267  17.660  1.00  0.00     0.007 A 
ATOM     30  C   UNL A   1      41.454  46.112  17.873  1.00  0.00     0.021 A 
ATOM     31  C   UNL A   1      44.040  47.431  16.762  1.00  0.00     0.021 A 
ATOM     32  C   UNL A   1      42.262  47.405  16.928  1.00  0.00     0.041 A 
ATOM     33  Cl  UNL A   1      41.321  48.248  15.742  1.00  0.00    -0.084 Cl
ENDBRANCH  26  27
ENDBRANCH  17  26
ENDBRANCH   8   9
ENDBRANCH   5   8
ENDBRANCH   3   5
ENDBRANCH   2   3
ENDBRANCH   1   2
BRANCH   1  34
ATOM     34  C   UNL A   1      44.727  41.012  26.736  1.00  0.00     0.275 C 
BRANCH  34  35
ATOM     35  O   UNL A   1      44.284  41.078  28.130  1.00  0.00    -0.458 OA
BRANCH  35  36
ATOM     36  C   UNL A   1      43.301  40.046  28.765  1.00  0.00     0.338 C 
ATOM     37  O   UNL A   1      42.395  40.813  29.137  1.00  0.00    -0.246 OA
BRANCH  36  38
ATOM     38  C   UNL A   1      43.583  37.870  28.726  1.00  0.00     0.060 A 
ATOM     39  C   UNL A   1      42.986  36.799  27.873  1.00  0.00     0.016 A 
ATOM     40  C   UNL A   1      43.941  36.892  29.886  1.00  0.00     0.016 A 
ATOM     41  C   UNL A   1      42.349  35.484  28.308  1.00  0.00     0.010 A 
ATOM     42  C   UNL A   1      43.305  35.578  30.330  1.00  0.00     0.010 A 
ATOM     43  C   UNL A   1      42.308  34.930  29.623  1.00  0.00    -0.014 A 
BRANCH  43  44
ATOM     44  C   UNL A   1      41.517  33.539  29.993  1.00  0.00     0.031 A 
ATOM     45  C   UNL A   1      40.362  33.952  30.780  1.00  0.00     0.074 A 
ATOM     46  C   UNL A   1      41.517  32.125  29.882  1.00  0.00     0.049 A 
ATOM     47  N   UNL A   1      40.298  33.913  32.067  1.00  0.00    -0.248 NA
ATOM     48  C   UNL A   1      39.276  34.673  30.113  1.00  0.00     0.031 C 
ATOM     49  C   UNL A   1      42.526  31.329  29.252  1.00  0.00     0.029 A 
ATOM     50  N   UNL A   1      40.720  30.996  30.361  1.00  0.00    -0.354 N 
ATOM     51  C   UNL A   1      38.991  34.254  32.325  1.00  0.00     0.074 A 
ATOM     52  C   UNL A   1      38.509  34.965  31.167  1.00  0.00     0.031 C 
ATOM     53  C   UNL A   1      42.247  30.034  29.008  1.00  0.00     0.029 A 
ATOM     54  C   UNL A   1      41.070  29.701  29.756  1.00  0.00     0.049 A 
ATOM     55  H   UNL A   1      40.008  31.094  31.034  1.00  0.00     0.167 HD
ATOM     56  C   UNL A   1      38.315  33.508  33.228  1.00  0.00     0.037 A 
ATOM     57  C   UNL A   1      40.754  28.363  29.943  1.00  0.00     0.037 A 
ATOM     58  C   UNL A   1      39.184  32.741  34.083  1.00  0.00     0.049 A 
ATOM     59  C   UNL A   1      40.142  28.190  31.259  1.00  0.00     0.074 A 
ATOM     60  C   UNL A   1      40.058  33.011  35.109  1.00  0.00     0.029 A 
ATOM     61  N   UNL A   1      39.472  31.476  33.647  1.00  0.00    -0.354 N 
ATOM     62  N   UNL A   1      40.818  27.966  32.344  1.00  0.00    -0.248 NA
ATOM     63  C   UNL A   1      38.752  28.556  31.437  1.00  0.00     0.031 C 
ATOM     64  C   UNL A   1      40.824  31.831  35.313  1.00  0.00     0.029 A 
ATOM     65  C   UNL A   1      40.399  30.841  34.441  1.00  0.00     0.049 A 
ATOM     66  H   UNL A   1      39.061  31.065  32.852  1.00  0.00     0.167 HD
ATOM     67  C   UNL A   1      40.140  28.719  33.268  1.00  0.00     0.074 A 
ATOM     68  C   UNL A   1      38.800  28.896  32.723  1.00  0.00     0.031 C 
ATOM     69  C   UNL A   1      40.852  29.502  34.121  1.00  0.00     0.037 A 
BRANCH  56  70
ATOM     70  C   UNL A   1      36.899  33.080  33.000  1.00  0.00     0.057 A 
ATOM     71  C   UNL A   1      35.798  33.654  33.668  1.00  0.00     0.134 A 
ATOM     72  C   UNL A   1      36.603  32.303  31.876  1.00  0.00     0.134 A 
ATOM     73  F   UNL A   1      35.946  34.524  34.675  1.00  0.00    -0.206 F 
ATOM     74  C   UNL A   1      34.482  33.448  33.261  1.00  0.00     0.040 A 
ATOM     75  C   UNL A   1      35.291  32.135  31.426  1.00  0.00     0.040 A 
ATOM     76  F   UNL A   1      37.585  31.751  31.150  1.00  0.00    -0.206 F 
ATOM     77  C   UNL A   1      34.227  32.707  32.119  1.00  0.00     0.006 A 
ENDBRANCH  56  70
BRANCH  57  78
ATOM     78  C   UNL A   1      40.984  27.086  29.133  1.00  0.00     0.057 A 
ATOM     79  C   UNL A   1      42.250  26.492  29.049  1.00  0.00     0.134 A 
ATOM     80  C   UNL A   1      40.054  26.593  28.175  1.00  0.00     0.134 A 
ATOM     81  F   UNL A   1      43.225  26.838  29.897  1.00  0.00    -0.206 F 
ATOM     82  C   UNL A   1      42.610  25.583  28.035  1.00  0.00     0.040 A 
ATOM     83  C   UNL A   1      40.406  25.695  27.145  1.00  0.00     0.040 A 
ATOM     84  F   UNL A   1      38.781  27.013  28.153  1.00  0.00    -0.206 F 
ATOM     85  C   UNL A   1      41.703  25.218  27.049  1.00  0.00     0.006 A 
ENDBRANCH  57  78
BRANCH  69  86
ATOM     86  C   UNL A   1      42.147  28.923  34.637  1.00  0.00     0.057 A 
ATOM     87  C   UNL A   1      43.322  29.196  33.921  1.00  0.00     0.134 A 
ATOM     88  C   UNL A   1      42.301  28.139  35.799  1.00  0.00     0.134 A 
ATOM     89  F   UNL A   1      43.277  29.944  32.806  1.00  0.00    -0.206 F 
ATOM     90  C   UNL A   1      44.572  28.693  34.302  1.00  0.00     0.040 A 
ATOM     91  C   UNL A   1      43.558  27.667  36.219  1.00  0.00     0.040 A 
ATOM     92  F   UNL A   1      41.240  27.707  36.499  1.00  0.00    -0.206 F 
ATOM     93  C   UNL A   1      44.696  27.924  35.456  1.00  0.00     0.006 A 
ENDBRANCH  69  86
ENDBRANCH  43  44
ENDBRANCH  36  38
ENDBRANCH  35  36
ENDBRANCH  34  35
ENDBRANCH   1  34
TORSDOF 18
ENDMDL
MODEL 3
REMARK VINA RESULT:     -11.2      7.586     12.322
REMARK SMILES CC(C)c1ccc2c(c1)c(SC(C)(C)C)c(CC(C)(C)C(=O)OCCOC(=O)c1ccc(-c3c4nc(c(-c5c(F)cccc5F)c5ccc([nH]5)c(-c5c(F)cccc5F)c5nc(c(-c6c(F)cccc6F)c6ccc3[nH]6)C=C5)C=C4)cc1)n2Cc1ccc(Cl)cc1
REMARK SMILES IDX 24 1 23 2 21 3 22 4 18 5 19 6 20 7 17 8 16 9 4 10 5 11 9 12
REMARK SMILES IDX 6 13 8 14 7 15 10 16 83 17 2 18 1 19 3 20 11 21 12 22 13 23
REMARK SMILES IDX 14 24 15 25 84 26 85 27 86 28 91 29 87 30 90 31 88 32 89 33
REMARK SMILES IDX 25 34 26 35 27 36 28 37 29 38 30 39 82 40 31 41 81 42 32 43
REMARK SMILES IDX 33 44 34 45 75 46 35 47 80 48 74 49 76 50 36 51 79 52 73 53
REMARK SMILES IDX 72 54 37 56 63 57 46 58 62 59 47 60 50 61 61 62 77 63 48 64
REMARK SMILES IDX 49 65 60 67 78 68 51 69 38 70 39 71 44 72 40 73 41 74 43 75
REMARK SMILES IDX 45 76 42 77 64 78 65 79 70 80 66 81 67 82 69 83 71 84 68 85
REMARK SMILES IDX 52 86 53 87 58 88 54 89 55 90 57 91 59 92 56 93
REMARK H PARENT 76 55 50 66
REMARK Flexibility Score: inf
ROOT
ATOM      1  C   UNL A   1      46.790  33.743  27.072  1.00  0.00     0.274 C 
ENDROOT
BRANCH   1   2
ATOM      2  O   UNL A   1      46.577  32.420  27.586  1.00  0.00    -0.462 OA
BRANCH   2   3
ATOM      3  C   UNL A   1      45.634  31.708  26.930  1.00  0.00     0.312 C 
ATOM      4  O   UNL A   1      45.500  31.727  25.710  1.00  0.00    -0.252 OA
BRANCH   3   5
ATOM      5  C   UNL A   1      44.700  30.928  27.846  1.00  0.00     0.068 C 
ATOM      6  C   UNL A   1      43.540  30.665  26.867  1.00  0.00     0.024 C 
ATOM      7  C   UNL A   1      44.156  31.719  29.070  1.00  0.00     0.024 C 
BRANCH   5   8
ATOM      8  C   UNL A   1      45.362  29.628  28.367  1.00  0.00     0.073 C 
BRANCH   8   9
ATOM      9  C   UNL A   1      45.099  28.395  27.624  1.00  0.00     0.034 A 
ATOM     10  C   UNL A   1      44.128  24.417  25.309  1.00  0.00    -0.045 A 
ATOM     11  C   UNL A   1      42.856  24.924  25.481  1.00  0.00     0.006 A 
ATOM     12  C   UNL A   1      45.292  25.274  25.580  1.00  0.00     0.015 A 
ATOM     13  C   UNL A   1      42.708  26.118  26.137  1.00  0.00     0.027 A 
ATOM     14  C   UNL A   1      45.174  26.523  26.286  1.00  0.00     0.014 A 
ATOM     15  C   UNL A   1      43.846  26.805  26.619  1.00  0.00     0.050 A 
ATOM     16  C   UNL A   1      45.958  27.734  26.778  1.00  0.00     0.037 A 
ATOM     17  N   UNL A   1      43.919  27.698  27.669  1.00  0.00    -0.339 N 
BRANCH  10  18
ATOM     18  C   UNL A   1      44.242  22.935  24.940  1.00  0.00     0.013 C 
ATOM     19  C   UNL A   1      42.973  22.189  25.333  1.00  0.00     0.012 C 
ATOM     20  C   UNL A   1      44.600  22.478  23.499  1.00  0.00     0.012 C 
ENDBRANCH  10  18
BRANCH  16  21
ATOM     21  S   UNL A   1      47.643  28.430  26.388  1.00  0.00    -0.118 SA
BRANCH  21  22
ATOM     22  C   UNL A   1      49.210  27.599  27.476  1.00  0.00     0.012 C 
ATOM     23  C   UNL A   1      48.939  26.531  28.581  1.00  0.00     0.023 C 
ATOM     24  C   UNL A   1      50.427  27.072  26.652  1.00  0.00     0.023 C 
ATOM     25  C   UNL A   1      49.863  28.818  28.182  1.00  0.00     0.023 C 
ENDBRANCH  21  22
ENDBRANCH  16  21
BRANCH  17  26
ATOM     26  C   UNL A   1      43.040  27.439  28.793  1.00  0.00     0.158 C 
BRANCH  26  27
ATOM     27  C   UNL A   1      43.586  26.712  29.950  1.00  0.00    -0.028 A 
ATOM     28  C   UNL A   1      44.027  27.252  31.650  1.00  0.00     0.007 A 
ATOM     29  C   UNL A   1      43.818  24.928  29.525  1.00  0.00     0.007 A 
ATOM     30  C   UNL A   1      44.374  26.014  32.946  1.00  0.00     0.021 A 
ATOM     31  C   UNL A   1      44.200  23.747  30.826  1.00  0.00     0.021 A 
ATOM     32  C   UNL A   1      44.396  24.271  32.522  1.00  0.00     0.041 A 
ATOM     33  Cl  UNL A   1      45.163  23.179  33.628  1.00  0.00    -0.084 Cl
ENDBRANCH  26  27
ENDBRANCH  17  26
ENDBRANCH   8   9
ENDBRANCH   5   8
ENDBRANCH   3   5
ENDBRANCH   2   3
ENDBRANCH   1   2
BRANCH   1  34
ATOM     34  C   UNL A   1      48.289  34.083  27.111  1.00  0.00     0.275 C 
BRANCH  34  35
ATOM     35  O   UNL A   1      48.491  35.533  27.127  1.00  0.00    -0.458 OA
BRANCH  35  36
ATOM     36  C   UNL A   1      47.368  36.548  27.504  1.00  0.00     0.338 C 
ATOM     37  O   UNL A   1      47.356  37.247  26.475  1.00  0.00    -0.246 OA
BRANCH  36  38
ATOM     38  C   UNL A   1      46.164  36.451  29.336  1.00  0.00     0.060 A 
ATOM     39  C   UNL A   1      45.872  35.332  30.283  1.00  0.00     0.016 A 
ATOM     40  C   UNL A   1      44.894  37.260  29.736  1.00  0.00     0.016 A 
ATOM     41  C   UNL A   1      44.522  34.877  30.826  1.00  0.00     0.010 A 
ATOM     42  C   UNL A   1      43.539  36.811  30.275  1.00  0.00     0.010 A 
ATOM     43  C   UNL A   1      43.255  35.510  30.650  1.00  0.00    -0.014 A 
BRANCH  43  44
ATOM     44  C   UNL A   1      41.847  34.881  31.213  1.00  0.00     0.031 A 
ATOM     45  C   UNL A   1      42.091  34.588  32.620  1.00  0.00     0.074 A 
ATOM     46  C   UNL A   1      40.524  34.489  30.885  1.00  0.00     0.049 A 
ATOM     47  N   UNL A   1      42.387  33.424  33.088  1.00  0.00    -0.248 NA
ATOM     48  C   UNL A   1      42.244  35.704  33.556  1.00  0.00     0.031 C 
ATOM     49  C   UNL A   1      39.927  34.540  29.585  1.00  0.00     0.029 A 
ATOM     50  N   UNL A   1      39.382  33.852  31.542  1.00  0.00    -0.354 N 
ATOM     51  C   UNL A   1      42.376  33.622  34.448  1.00  0.00     0.074 A 
ATOM     52  C   UNL A   1      42.567  35.035  34.665  1.00  0.00     0.031 C 
ATOM     53  C   UNL A   1      38.593  34.377  29.496  1.00  0.00     0.029 A 
ATOM     54  C   UNL A   1      38.138  33.866  30.755  1.00  0.00     0.049 A 
ATOM     55  H   UNL A   1      39.442  33.448  32.438  1.00  0.00     0.167 HD
ATOM     56  C   UNL A   1      41.737  32.706  35.211  1.00  0.00     0.037 A 
ATOM     57  C   UNL A   1      36.872  33.306  30.831  1.00  0.00     0.037 A 
ATOM     58  C   UNL A   1      41.530  31.456  34.526  1.00  0.00     0.049 A 
ATOM     59  C   UNL A   1      36.888  32.200  31.787  1.00  0.00     0.074 A 
ATOM     60  C   UNL A   1      42.317  30.411  34.107  1.00  0.00     0.029 A 
ATOM     61  N   UNL A   1      40.340  31.342  33.858  1.00  0.00    -0.354 N 
ATOM     62  N   UNL A   1      37.181  30.977  31.467  1.00  0.00    -0.248 NA
ATOM     63  C   UNL A   1      36.853  32.500  33.203  1.00  0.00     0.031 C 
ATOM     64  C   UNL A   1      41.524  29.631  33.223  1.00  0.00     0.029 A 
ATOM     65  C   UNL A   1      40.254  30.179  33.128  1.00  0.00     0.049 A 
ATOM     66  H   UNL A   1      39.625  32.018  33.895  1.00  0.00     0.167 HD
ATOM     67  C   UNL A   1      37.916  30.564  32.549  1.00  0.00     0.074 A 
ATOM     68  C   UNL A   1      37.528  31.441  33.646  1.00  0.00     0.031 C 
ATOM     69  C   UNL A   1      39.079  29.893  32.330  1.00  0.00     0.037 A 
BRANCH  56  70
ATOM     70  C   UNL A   1      40.859  33.104  36.355  1.00  0.00     0.057 A 
ATOM     71  C   UNL A   1      41.249  32.995  37.706  1.00  0.00     0.134 A 
ATOM     72  C   UNL A   1      39.733  33.892  36.099  1.00  0.00     0.134 A 
ATOM     73  F   UNL A   1      42.381  32.383  38.078  1.00  0.00    -0.206 F 
ATOM     74  C   UNL A   1      40.548  33.610  38.741  1.00  0.00     0.040 A 
ATOM     75  C   UNL A   1      39.056  34.559  37.123  1.00  0.00     0.040 A 
ATOM     76  F   UNL A   1      39.310  34.089  34.842  1.00  0.00    -0.206 F 
ATOM     77  C   UNL A   1      39.462  34.418  38.448  1.00  0.00     0.006 A 
ENDBRANCH  56  70
BRANCH  57  78
ATOM     78  C   UNL A   1      35.552  33.539  30.093  1.00  0.00     0.057 A 
ATOM     79  C   UNL A   1      35.389  33.163  28.753  1.00  0.00     0.134 A 
ATOM     80  C   UNL A   1      34.535  34.411  30.573  1.00  0.00     0.134 A 
ATOM     81  F   UNL A   1      36.256  32.332  28.166  1.00  0.00    -0.206 F 
ATOM     82  C   UNL A   1      34.383  33.693  27.921  1.00  0.00     0.040 A 
ATOM     83  C   UNL A   1      33.532  34.960  29.746  1.00  0.00     0.040 A 
ATOM     84  F   UNL A   1      34.508  34.822  31.849  1.00  0.00    -0.206 F 
ATOM     85  C   UNL A   1      33.479  34.631  28.401  1.00  0.00     0.006 A 
ENDBRANCH  57  78
BRANCH  69  86
ATOM     86  C   UNL A   1      39.078  28.914  31.181  1.00  0.00     0.057 A 
ATOM     87  C   UNL A   1      39.476  29.378  29.919  1.00  0.00     0.134 A 
ATOM     88  C   UNL A   1      38.733  27.548  31.255  1.00  0.00     0.134 A 
ATOM     89  F   UNL A   1      39.833  30.662  29.752  1.00  0.00    -0.206 F 
ATOM     90  C   UNL A   1      39.493  28.558  28.783  1.00  0.00     0.040 A 
ATOM     91  C   UNL A   1      38.793  26.701  30.133  1.00  0.00     0.040 A 
ATOM     92  F   UNL A   1      38.220  27.014  32.375  1.00  0.00    -0.206 F 
ATOM     93  C   UNL A   1      39.151  27.212  28.886  1.00  0.00     0.006 A 
ENDBRANCH  69  86
ENDBRANCH  43  44
ENDBRANCH  36  38
ENDBRANCH  35  36
ENDBRANCH  34  35
ENDBRANCH   1  34
TORSDOF 18
ENDMDL
