MODEL 1
REMARK VINA RESULT:     -11.1      0.000      0.000
REMARK SMILES CC[C@@](C)(NC(=O)c1cccc(Br)c1C)C(=O)OCCOC(=O)c1ccc(-c2c3nc(c(-c4c(F)cccc4F)c4ccc([nH]4)c(-c4c(F)cccc4F)c4nc(c(-c5c(F)cccc5F)c5ccc2[nH]5)C=C4)C=C3)cc1
REMARK SMILES IDX 19 1 18 2 16 3 17 4 3 5 4 6 2 7 1 8 5 9 6 10 7 12 8 13 9 14
REMARK SMILES IDX 14 15 10 16 12 17 15 18 11 19 13 20 20 21 21 22 22 23 23 24
REMARK SMILES IDX 24 25 25 26 77 27 26 28 76 29 27 30 28 31 29 32 70 33 30 34
REMARK SMILES IDX 75 35 69 36 71 37 31 38 74 39 68 40 67 41 32 43 58 44 41 45
REMARK SMILES IDX 57 46 42 47 45 48 56 49 72 50 43 51 44 52 55 54 73 55 46 56
REMARK SMILES IDX 33 57 34 58 39 59 35 60 36 61 38 62 40 63 37 64 59 65 60 66
REMARK SMILES IDX 65 67 61 68 62 69 64 70 66 71 63 72 47 73 48 74 53 75 49 76
REMARK SMILES IDX 50 77 52 78 54 79 51 80
REMARK H PARENT 5 11 71 42 45 53
REMARK Flexibility Score: inf
ROOT
ATOM      1  C   UNL A   1      36.227  22.661  23.667  1.00  0.00     0.274 C 
ENDROOT
BRANCH   1   2
ATOM      2  O   UNL A   1      35.069  23.456  24.010  1.00  0.00    -0.460 OA
BRANCH   2   3
ATOM      3  C   UNL A   1      33.981  23.284  23.222  1.00  0.00     0.331 C 
ATOM      4  O   UNL A   1      34.014  23.402  22.001  1.00  0.00    -0.249 OA
BRANCH   3   5
ATOM      5  C   UNL A   1      32.667  22.983  24.002  1.00  0.00     0.135 C 
ATOM      6  C   UNL A   1      31.513  23.516  23.131  1.00  0.00     0.047 C 
BRANCH   5   7
ATOM      7  C   UNL A   1      32.480  21.424  24.130  1.00  0.00     0.037 C 
ATOM      8  C   UNL A   1      32.644  20.768  25.494  1.00  0.00     0.007 C 
ENDBRANCH   5   7
BRANCH   5   9
ATOM      9  N   UNL A   1      32.477  23.461  25.415  1.00  0.00    -0.336 N 
ATOM     10  C   UNL A   1      31.952  24.544  26.061  1.00  0.00     0.252 C 
ATOM     11  H   UNL A   1      32.833  22.806  26.058  1.00  0.00     0.165 HD
ATOM     12  O   UNL A   1      31.404  24.351  27.147  1.00  0.00    -0.269 OA
BRANCH  10  13
ATOM     13  C   UNL A   1      32.209  25.943  25.676  1.00  0.00     0.043 A 
ATOM     14  C   UNL A   1      33.437  26.460  26.126  1.00  0.00     0.014 A 
ATOM     15  C   UNL A   1      31.260  26.791  25.079  1.00  0.00    -0.024 A 
ATOM     16  C   UNL A   1      33.767  27.797  25.924  1.00  0.00     0.002 A 
ATOM     17  C   UNL A   1      31.642  28.125  24.824  1.00  0.00     0.021 A 
ATOM     18  C   UNL A   1      29.897  26.290  24.713  1.00  0.00     0.046 C 
ATOM     19  C   UNL A   1      32.878  28.625  25.252  1.00  0.00     0.016 A 
ATOM     20  Br  UNL A   1      30.528  29.327  23.856  1.00  0.00    -0.051 Br
ENDBRANCH  10  13
ENDBRANCH   5   9
ENDBRANCH   3   5
ENDBRANCH   2   3
ENDBRANCH   1   2
BRANCH   1  21
ATOM     21  C   UNL A   1      36.285  21.418  24.546  1.00  0.00     0.275 C 
BRANCH  21  22
ATOM     22  O   UNL A   1      36.969  21.777  25.754  1.00  0.00    -0.458 OA
BRANCH  22  23
ATOM     23  C   UNL A   1      38.265  21.403  25.822  1.00  0.00     0.338 C 
ATOM     24  O   UNL A   1      38.784  20.358  25.483  1.00  0.00    -0.246 OA
BRANCH  23  25
ATOM     25  C   UNL A   1      39.011  22.559  26.309  1.00  0.00     0.060 A 
ATOM     26  C   UNL A   1      40.167  22.332  27.058  1.00  0.00     0.016 A 
ATOM     27  C   UNL A   1      38.560  23.845  26.042  1.00  0.00     0.016 A 
ATOM     28  C   UNL A   1      40.882  23.405  27.570  1.00  0.00     0.010 A 
ATOM     29  C   UNL A   1      39.310  24.922  26.502  1.00  0.00     0.010 A 
ATOM     30  C   UNL A   1      40.471  24.708  27.268  1.00  0.00    -0.014 A 
BRANCH  30  31
ATOM     31  C   UNL A   1      41.262  25.867  27.731  1.00  0.00     0.031 A 
ATOM     32  C   UNL A   1      40.602  26.919  28.567  1.00  0.00     0.074 A 
ATOM     33  C   UNL A   1      42.546  25.982  27.346  1.00  0.00     0.049 A 
ATOM     34  N   UNL A   1      41.026  28.116  28.875  1.00  0.00    -0.248 NA
ATOM     35  C   UNL A   1      39.280  26.584  29.117  1.00  0.00     0.031 C 
ATOM     36  C   UNL A   1      43.288  24.986  26.569  1.00  0.00     0.029 A 
ATOM     37  N   UNL A   1      43.450  26.992  27.542  1.00  0.00    -0.354 N 
ATOM     38  C   UNL A   1      40.004  28.696  29.612  1.00  0.00     0.074 A 
ATOM     39  C   UNL A   1      38.940  27.720  29.709  1.00  0.00     0.031 C 
ATOM     40  C   UNL A   1      44.534  25.434  26.356  1.00  0.00     0.029 A 
ATOM     41  C   UNL A   1      44.653  26.775  26.914  1.00  0.00     0.049 A 
ATOM     42  H   UNL A   1      43.256  27.794  28.079  1.00  0.00     0.167 HD
ATOM     43  C   UNL A   1      39.963  29.940  30.145  1.00  0.00     0.037 A 
ATOM     44  C   UNL A   1      45.710  27.592  26.764  1.00  0.00     0.037 A 
ATOM     45  C   UNL A   1      41.046  30.883  30.044  1.00  0.00     0.049 A 
ATOM     46  C   UNL A   1      45.632  28.975  27.342  1.00  0.00     0.074 A 
ATOM     47  C   UNL A   1      41.120  32.175  30.530  1.00  0.00     0.029 A 
ATOM     48  N   UNL A   1      42.255  30.622  29.412  1.00  0.00    -0.354 N 
ATOM     49  N   UNL A   1      44.643  29.538  27.998  1.00  0.00    -0.248 NA
ATOM     50  C   UNL A   1      46.800  29.841  27.149  1.00  0.00     0.031 C 
ATOM     51  C   UNL A   1      42.363  32.706  30.166  1.00  0.00     0.029 A 
ATOM     52  C   UNL A   1      43.080  31.731  29.490  1.00  0.00     0.049 A 
ATOM     53  H   UNL A   1      42.491  29.773  28.972  1.00  0.00     0.167 HD
ATOM     54  C   UNL A   1      45.074  30.819  28.307  1.00  0.00     0.074 A 
ATOM     55  C   UNL A   1      46.421  30.943  27.784  1.00  0.00     0.031 C 
ATOM     56  C   UNL A   1      44.418  31.811  28.959  1.00  0.00     0.037 A 
BRANCH  43  57
ATOM     57  C   UNL A   1      38.696  30.354  30.834  1.00  0.00     0.057 A 
ATOM     58  C   UNL A   1      38.485  30.136  32.200  1.00  0.00     0.134 A 
ATOM     59  C   UNL A   1      37.667  30.977  30.114  1.00  0.00     0.134 A 
ATOM     60  F   UNL A   1      39.420  29.526  32.944  1.00  0.00    -0.206 F 
ATOM     61  C   UNL A   1      37.286  30.498  32.822  1.00  0.00     0.040 A 
ATOM     62  C   UNL A   1      36.475  31.365  30.729  1.00  0.00     0.040 A 
ATOM     63  F   UNL A   1      37.803  31.216  28.801  1.00  0.00    -0.206 F 
ATOM     64  C   UNL A   1      36.280  31.120  32.086  1.00  0.00     0.006 A 
ENDBRANCH  43  57
BRANCH  44  65
ATOM     65  C   UNL A   1      46.904  27.130  26.010  1.00  0.00     0.057 A 
ATOM     66  C   UNL A   1      47.017  27.350  24.633  1.00  0.00     0.134 A 
ATOM     67  C   UNL A   1      47.969  26.482  26.649  1.00  0.00     0.134 A 
ATOM     68  F   UNL A   1      46.024  27.950  23.962  1.00  0.00    -0.206 F 
ATOM     69  C   UNL A   1      48.142  26.936  23.917  1.00  0.00     0.040 A 
ATOM     70  C   UNL A   1      49.110  26.087  25.951  1.00  0.00     0.040 A 
ATOM     71  F   UNL A   1      47.925  26.246  27.969  1.00  0.00    -0.206 F 
ATOM     72  C   UNL A   1      49.198  26.309  24.578  1.00  0.00     0.006 A 
ENDBRANCH  44  65
BRANCH  56  73
ATOM     73  C   UNL A   1      45.168  33.091  29.161  1.00  0.00     0.057 A 
ATOM     74  C   UNL A   1      45.989  33.294  30.277  1.00  0.00     0.134 A 
ATOM     75  C   UNL A   1      45.086  34.118  28.214  1.00  0.00     0.134 A 
ATOM     76  F   UNL A   1      46.093  32.352  31.225  1.00  0.00    -0.206 F 
ATOM     77  C   UNL A   1      46.690  34.488  30.453  1.00  0.00     0.040 A 
ATOM     78  C   UNL A   1      45.800  35.307  28.369  1.00  0.00     0.040 A 
ATOM     79  F   UNL A   1      44.320  33.979  27.122  1.00  0.00    -0.206 F 
ATOM     80  C   UNL A   1      46.601  35.495  29.494  1.00  0.00     0.006 A 
ENDBRANCH  56  73
ENDBRANCH  30  31
ENDBRANCH  23  25
ENDBRANCH  22  23
ENDBRANCH  21  22
ENDBRANCH   1  21
TORSDOF 14
ENDMDL
MODEL 2
REMARK VINA RESULT:     -11.1      0.963      2.197
REMARK SMILES CC[C@@](C)(NC(=O)c1cccc(Br)c1C)C(=O)OCCOC(=O)c1ccc(-c2c3nc(c(-c4c(F)cccc4F)c4ccc([nH]4)c(-c4c(F)cccc4F)c4nc(c(-c5c(F)cccc5F)c5ccc2[nH]5)C=C4)C=C3)cc1
REMARK SMILES IDX 19 1 18 2 16 3 17 4 3 5 4 6 2 7 1 8 5 9 6 10 7 12 8 13 9 14
REMARK SMILES IDX 14 15 10 16 12 17 15 18 11 19 13 20 20 21 21 22 22 23 23 24
REMARK SMILES IDX 24 25 25 26 77 27 26 28 76 29 27 30 28 31 29 32 70 33 30 34
REMARK SMILES IDX 75 35 69 36 71 37 31 38 74 39 68 40 67 41 32 43 58 44 41 45
REMARK SMILES IDX 57 46 42 47 45 48 56 49 72 50 43 51 44 52 55 54 73 55 46 56
REMARK SMILES IDX 33 57 34 58 39 59 35 60 36 61 38 62 40 63 37 64 59 65 60 66
REMARK SMILES IDX 65 67 61 68 62 69 64 70 66 71 63 72 47 73 48 74 53 75 49 76
REMARK SMILES IDX 50 77 52 78 54 79 51 80
REMARK H PARENT 5 11 71 42 45 53
REMARK Flexibility Score: inf
ROOT
ATOM      1  C   UNL A   1      35.042  21.324  24.892  1.00  0.00     0.274 C 
ENDROOT
BRANCH   1   2
ATOM      2  O   UNL A   1      35.061  22.767  25.002  1.00  0.00    -0.460 OA
BRANCH   2   3
ATOM      3  C   UNL A   1      34.268  23.296  25.962  1.00  0.00     0.331 C 
ATOM      4  O   UNL A   1      34.270  22.901  27.125  1.00  0.00    -0.249 OA
BRANCH   3   5
ATOM      5  C   UNL A   1      33.305  24.410  25.456  1.00  0.00     0.135 C 
ATOM      6  C   UNL A   1      34.170  25.667  25.242  1.00  0.00     0.047 C 
BRANCH   5   7
ATOM      7  C   UNL A   1      32.718  23.997  24.054  1.00  0.00     0.037 C 
ATOM      8  C   UNL A   1      33.164  24.755  22.812  1.00  0.00     0.007 C 
ENDBRANCH   5   7
BRANCH   5   9
ATOM      9  N   UNL A   1      32.076  24.787  26.237  1.00  0.00    -0.336 N 
ATOM     10  C   UNL A   1      30.954  25.547  26.066  1.00  0.00     0.252 C 
ATOM     11  H   UNL A   1      32.083  24.364  27.127  1.00  0.00     0.165 HD
ATOM     12  O   UNL A   1      29.914  25.155  26.598  1.00  0.00    -0.269 OA
BRANCH  10  13
ATOM     13  C   UNL A   1      30.954  26.910  25.508  1.00  0.00     0.043 A 
ATOM     14  C   UNL A   1      30.603  26.987  24.148  1.00  0.00     0.014 A 
ATOM     15  C   UNL A   1      31.440  28.045  26.180  1.00  0.00    -0.024 A 
ATOM     16  C   UNL A   1      30.659  28.198  23.463  1.00  0.00     0.002 A 
ATOM     17  C   UNL A   1      31.424  29.273  25.486  1.00  0.00     0.021 A 
ATOM     18  C   UNL A   1      31.942  27.954  27.588  1.00  0.00     0.046 C 
ATOM     19  C   UNL A   1      31.049  29.346  24.140  1.00  0.00     0.016 A 
ATOM     20  Br  UNL A   1      31.877  30.916  26.333  1.00  0.00    -0.051 Br
ENDBRANCH  10  13
ENDBRANCH   5   9
ENDBRANCH   3   5
ENDBRANCH   2   3
ENDBRANCH   1   2
BRANCH   1  21
ATOM     21  C   UNL A   1      36.466  20.783  24.899  1.00  0.00     0.275 C 
BRANCH  21  22
ATOM     22  O   UNL A   1      37.244  21.632  25.754  1.00  0.00    -0.458 OA
BRANCH  22  23
ATOM     23  C   UNL A   1      38.535  21.270  25.916  1.00  0.00     0.338 C 
ATOM     24  O   UNL A   1      39.077  20.214  25.659  1.00  0.00    -0.246 OA
BRANCH  23  25
ATOM     25  C   UNL A   1      39.246  22.453  26.391  1.00  0.00     0.060 A 
ATOM     26  C   UNL A   1      40.368  22.269  27.200  1.00  0.00     0.016 A 
ATOM     27  C   UNL A   1      38.794  23.722  26.054  1.00  0.00     0.016 A 
ATOM     28  C   UNL A   1      41.048  23.370  27.701  1.00  0.00     0.010 A 
ATOM     29  C   UNL A   1      39.511  24.825  26.505  1.00  0.00     0.010 A 
ATOM     30  C   UNL A   1      40.639  24.655  27.330  1.00  0.00    -0.014 A 
BRANCH  30  31
ATOM     31  C   UNL A   1      41.395  25.840  27.783  1.00  0.00     0.031 A 
ATOM     32  C   UNL A   1      40.704  26.881  28.608  1.00  0.00     0.074 A 
ATOM     33  C   UNL A   1      42.677  25.987  27.400  1.00  0.00     0.049 A 
ATOM     34  N   UNL A   1      41.094  28.093  28.904  1.00  0.00    -0.248 NA
ATOM     35  C   UNL A   1      39.391  26.515  29.158  1.00  0.00     0.031 C 
ATOM     36  C   UNL A   1      43.448  25.005  26.634  1.00  0.00     0.029 A 
ATOM     37  N   UNL A   1      43.551  27.025  27.588  1.00  0.00    -0.354 N 
ATOM     38  C   UNL A   1      40.054  28.652  29.633  1.00  0.00     0.074 A 
ATOM     39  C   UNL A   1      39.018  27.647  29.738  1.00  0.00     0.031 C 
ATOM     40  C   UNL A   1      44.682  25.486  26.420  1.00  0.00     0.029 A 
ATOM     41  C   UNL A   1      44.761  26.835  26.964  1.00  0.00     0.049 A 
ATOM     42  H   UNL A   1      43.334  27.826  28.116  1.00  0.00     0.167 HD
ATOM     43  C   UNL A   1      39.976  29.899  30.154  1.00  0.00     0.037 A 
ATOM     44  C   UNL A   1      45.796  27.680  26.808  1.00  0.00     0.037 A 
ATOM     45  C   UNL A   1      41.033  30.871  30.045  1.00  0.00     0.049 A 
ATOM     46  C   UNL A   1      45.677  29.066  27.372  1.00  0.00     0.074 A 
ATOM     47  C   UNL A   1      41.069  32.170  30.519  1.00  0.00     0.029 A 
ATOM     48  N   UNL A   1      42.250  30.638  29.418  1.00  0.00    -0.354 N 
ATOM     49  N   UNL A   1      44.672  29.608  28.020  1.00  0.00    -0.248 NA
ATOM     50  C   UNL A   1      46.821  29.962  27.172  1.00  0.00     0.031 C 
ATOM     51  C   UNL A   1      42.298  32.732  30.152  1.00  0.00     0.029 A 
ATOM     52  C   UNL A   1      43.044  31.770  29.487  1.00  0.00     0.049 A 
ATOM     53  H   UNL A   1      42.511  29.792  28.987  1.00  0.00     0.167 HD
ATOM     54  C   UNL A   1      45.065  30.903  28.317  1.00  0.00     0.074 A 
ATOM     55  C   UNL A   1      46.410  31.059  27.795  1.00  0.00     0.031 C 
ATOM     56  C   UNL A   1      44.380  31.882  28.957  1.00  0.00     0.037 A 
BRANCH  43  57
ATOM     57  C   UNL A   1      38.697  30.284  30.835  1.00  0.00     0.057 A 
ATOM     58  C   UNL A   1      37.643  30.899  30.151  1.00  0.00     0.134 A 
ATOM     59  C   UNL A   1      38.520  30.039  32.205  1.00  0.00     0.134 A 
ATOM     60  F   UNL A   1      37.754  31.180  28.844  1.00  0.00    -0.206 F 
ATOM     61  C   UNL A   1      36.469  31.280  30.807  1.00  0.00     0.040 A 
ATOM     62  C   UNL A   1      37.343  30.394  32.865  1.00  0.00     0.040 A 
ATOM     63  F   UNL A   1      39.491  29.454  32.922  1.00  0.00    -0.206 F 
ATOM     64  C   UNL A   1      36.316  31.023  32.167  1.00  0.00     0.006 A 
ENDBRANCH  43  57
BRANCH  44  65
ATOM     65  C   UNL A   1      47.003  27.244  26.061  1.00  0.00     0.057 A 
ATOM     66  C   UNL A   1      48.070  26.619  26.716  1.00  0.00     0.134 A 
ATOM     67  C   UNL A   1      47.111  27.417  24.676  1.00  0.00     0.134 A 
ATOM     68  F   UNL A   1      48.035  26.440  28.044  1.00  0.00    -0.206 F 
ATOM     69  C   UNL A   1      49.203  26.189  26.022  1.00  0.00     0.040 A 
ATOM     70  C   UNL A   1      48.225  26.969  23.965  1.00  0.00     0.040 A 
ATOM     71  F   UNL A   1      46.120  28.004  23.987  1.00  0.00    -0.206 F 
ATOM     72  C   UNL A   1      49.279  26.356  24.640  1.00  0.00     0.006 A 
ENDBRANCH  44  65
BRANCH  56  73
ATOM     73  C   UNL A   1      45.093  33.185  29.148  1.00  0.00     0.057 A 
ATOM     74  C   UNL A   1      44.971  34.233  28.228  1.00  0.00     0.134 A 
ATOM     75  C   UNL A   1      45.887  33.400  30.281  1.00  0.00     0.134 A 
ATOM     76  F   UNL A   1      44.237  34.080  27.116  1.00  0.00    -0.206 F 
ATOM     77  C   UNL A   1      45.634  35.446  28.419  1.00  0.00     0.040 A 
ATOM     78  C   UNL A   1      46.535  34.616  30.494  1.00  0.00     0.040 A 
ATOM     79  F   UNL A   1      46.036  32.435  31.201  1.00  0.00    -0.206 F 
ATOM     80  C   UNL A   1      46.413  35.642  29.558  1.00  0.00     0.006 A 
ENDBRANCH  56  73
ENDBRANCH  30  31
ENDBRANCH  23  25
ENDBRANCH  22  23
ENDBRANCH  21  22
ENDBRANCH   1  21
TORSDOF 14
ENDMDL
MODEL 3
REMARK VINA RESULT:     -11.1      3.960      8.763
REMARK SMILES CC[C@@](C)(NC(=O)c1cccc(Br)c1C)C(=O)OCCOC(=O)c1ccc(-c2c3nc(c(-c4c(F)cccc4F)c4ccc([nH]4)c(-c4c(F)cccc4F)c4nc(c(-c5c(F)cccc5F)c5ccc2[nH]5)C=C4)C=C3)cc1
REMARK SMILES IDX 19 1 18 2 16 3 17 4 3 5 4 6 2 7 1 8 5 9 6 10 7 12 8 13 9 14
REMARK SMILES IDX 14 15 10 16 12 17 15 18 11 19 13 20 20 21 21 22 22 23 23 24
REMARK SMILES IDX 24 25 25 26 77 27 26 28 76 29 27 30 28 31 29 32 70 33 30 34
REMARK SMILES IDX 75 35 69 36 71 37 31 38 74 39 68 40 67 41 32 43 58 44 41 45
REMARK SMILES IDX 57 46 42 47 45 48 56 49 72 50 43 51 44 52 55 54 73 55 46 56
REMARK SMILES IDX 33 57 34 58 39 59 35 60 36 61 38 62 40 63 37 64 59 65 60 66
REMARK SMILES IDX 65 67 61 68 62 69 64 70 66 71 63 72 47 73 48 74 53 75 49 76
REMARK SMILES IDX 50 77 52 78 54 79 51 80
REMARK H PARENT 5 11 71 42 45 53
REMARK Flexibility Score: inf
ROOT
ATOM      1  C   UNL A   1      31.529  29.238  24.641  1.00  0.00     0.274 C 
ENDROOT
BRANCH   1   2
ATOM      2  O   UNL A   1      32.476  28.203  24.995  1.00  0.00    -0.460 OA
BRANCH   2   3
ATOM      3  C   UNL A   1      33.123  27.617  23.960  1.00  0.00     0.331 C 
ATOM      4  O   UNL A   1      33.549  28.244  22.994  1.00  0.00    -0.249 OA
BRANCH   3   5
ATOM      5  C   UNL A   1      33.228  26.066  24.066  1.00  0.00     0.135 C 
ATOM      6  C   UNL A   1      34.120  25.774  25.287  1.00  0.00     0.047 C 
BRANCH   5   7
ATOM      7  C   UNL A   1      31.804  25.465  24.367  1.00  0.00     0.037 C 
ATOM      8  C   UNL A   1      31.539  24.836  25.729  1.00  0.00     0.007 C 
ENDBRANCH   5   7
BRANCH   5   9
ATOM      9  N   UNL A   1      33.702  25.240  22.902  1.00  0.00    -0.336 N 
ATOM     10  C   UNL A   1      33.760  23.923  22.545  1.00  0.00     0.252 C 
ATOM     11  H   UNL A   1      34.079  25.813  22.196  1.00  0.00     0.165 HD
ATOM     12  O   UNL A   1      33.616  23.648  21.352  1.00  0.00    -0.269 OA
BRANCH  10  13
ATOM     13  C   UNL A   1      34.223  22.843  23.434  1.00  0.00     0.043 A 
ATOM     14  C   UNL A   1      35.609  22.832  23.672  1.00  0.00     0.014 A 
ATOM     15  C   UNL A   1      33.419  21.777  23.876  1.00  0.00    -0.024 A 
ATOM     16  C   UNL A   1      36.199  21.809  24.409  1.00  0.00     0.002 A 
ATOM     17  C   UNL A   1      34.027  20.788  24.678  1.00  0.00     0.021 A 
ATOM     18  C   UNL A   1      31.967  21.705  23.519  1.00  0.00     0.046 C 
ATOM     19  C   UNL A   1      35.404  20.798  24.931  1.00  0.00     0.016 A 
ATOM     20  Br  UNL A   1      33.022  19.394  25.495  1.00  0.00    -0.051 Br
ENDBRANCH  10  13
ENDBRANCH   5   9
ENDBRANCH   3   5
ENDBRANCH   2   3
ENDBRANCH   1   2
BRANCH   1  21
ATOM     21  C   UNL A   1      31.542  30.337  25.697  1.00  0.00     0.275 C 
BRANCH  21  22
ATOM     22  O   UNL A   1      32.892  30.475  26.157  1.00  0.00    -0.458 OA
BRANCH  22  23
ATOM     23  C   UNL A   1      33.123  31.520  26.981  1.00  0.00     0.338 C 
ATOM     24  O   UNL A   1      32.426  32.487  27.212  1.00  0.00    -0.246 OA
BRANCH  23  25
ATOM     25  C   UNL A   1      34.379  31.242  27.670  1.00  0.00     0.060 A 
ATOM     26  C   UNL A   1      35.239  32.309  27.933  1.00  0.00     0.016 A 
ATOM     27  C   UNL A   1      34.705  29.941  28.032  1.00  0.00     0.016 A 
ATOM     28  C   UNL A   1      36.459  32.079  28.552  1.00  0.00     0.010 A 
ATOM     29  C   UNL A   1      35.900  29.718  28.708  1.00  0.00     0.010 A 
ATOM     30  C   UNL A   1      36.782  30.783  28.970  1.00  0.00    -0.014 A 
BRANCH  30  31
ATOM     31  C   UNL A   1      38.037  30.526  29.705  1.00  0.00     0.031 A 
ATOM     32  C   UNL A   1      39.087  29.659  29.083  1.00  0.00     0.074 A 
ATOM     33  C   UNL A   1      38.189  31.032  30.942  1.00  0.00     0.049 A 
ATOM     34  N   UNL A   1      40.138  29.111  29.633  1.00  0.00    -0.248 NA
ATOM     35  C   UNL A   1      38.922  29.353  27.654  1.00  0.00     0.031 C 
ATOM     36  C   UNL A   1      37.241  31.924  31.613  1.00  0.00     0.029 A 
ATOM     37  N   UNL A   1      39.189  30.855  31.861  1.00  0.00    -0.354 N 
ATOM     38  C   UNL A   1      40.733  28.356  28.632  1.00  0.00     0.074 A 
ATOM     39  C   UNL A   1      39.929  28.518  27.440  1.00  0.00     0.031 C 
ATOM     40  C   UNL A   1      37.705  32.219  32.836  1.00  0.00     0.029 A 
ATOM     41  C   UNL A   1      38.940  31.479  33.061  1.00  0.00     0.049 A 
ATOM     42  H   UNL A   1      40.004  30.334  31.681  1.00  0.00     0.167 HD
ATOM     43  C   UNL A   1      41.846  27.589  28.716  1.00  0.00     0.037 A 
ATOM     44  C   UNL A   1      39.610  31.414  34.225  1.00  0.00     0.037 A 
ATOM     45  C   UNL A   1      42.634  27.461  29.915  1.00  0.00     0.049 A 
ATOM     46  C   UNL A   1      40.826  30.537  34.301  1.00  0.00     0.074 A 
ATOM     47  C   UNL A   1      43.772  26.707  30.128  1.00  0.00     0.029 A 
ATOM     48  N   UNL A   1      42.358  28.120  31.106  1.00  0.00    -0.354 N 
ATOM     49  N   UNL A   1      41.359  29.786  33.365  1.00  0.00    -0.248 NA
ATOM     50  C   UNL A   1      41.524  30.484  35.590  1.00  0.00     0.031 C 
ATOM     51  C   UNL A   1      44.169  26.886  31.459  1.00  0.00     0.029 A 
ATOM     52  C   UNL A   1      43.301  27.785  32.062  1.00  0.00     0.049 A 
ATOM     53  H   UNL A   1      41.602  28.734  31.251  1.00  0.00     0.167 HD
ATOM     54  C   UNL A   1      42.462  29.180  33.947  1.00  0.00     0.074 A 
ATOM     55  C   UNL A   1      42.532  29.667  35.312  1.00  0.00     0.031 C 
ATOM     56  C   UNL A   1      43.338  28.296  33.409  1.00  0.00     0.037 A 
BRANCH  43  57
ATOM     57  C   UNL A   1      42.236  26.805  27.499  1.00  0.00     0.057 A 
ATOM     58  C   UNL A   1      43.030  27.349  26.483  1.00  0.00     0.134 A 
ATOM     59  C   UNL A   1      41.804  25.480  27.339  1.00  0.00     0.134 A 
ATOM     60  F   UNL A   1      43.460  28.617  26.563  1.00  0.00    -0.206 F 
ATOM     61  C   UNL A   1      43.359  26.615  25.339  1.00  0.00     0.040 A 
ATOM     62  C   UNL A   1      42.146  24.730  26.212  1.00  0.00     0.040 A 
ATOM     63  F   UNL A   1      41.039  24.896  28.274  1.00  0.00    -0.206 F 
ATOM     64  C   UNL A   1      42.920  25.300  25.205  1.00  0.00     0.006 A 
ENDBRANCH  43  57
BRANCH  44  65
ATOM     65  C   UNL A   1      39.121  32.171  35.406  1.00  0.00     0.057 A 
ATOM     66  C   UNL A   1      38.318  31.558  36.374  1.00  0.00     0.134 A 
ATOM     67  C   UNL A   1      39.463  33.514  35.608  1.00  0.00     0.134 A 
ATOM     68  F   UNL A   1      37.943  30.279  36.229  1.00  0.00    -0.206 F 
ATOM     69  C   UNL A   1      37.868  32.255  37.498  1.00  0.00     0.040 A 
ATOM     70  C   UNL A   1      39.041  34.215  36.739  1.00  0.00     0.040 A 
ATOM     71  F   UNL A   1      40.235  34.158  34.720  1.00  0.00    -0.206 F 
ATOM     72  C   UNL A   1      38.236  33.586  37.687  1.00  0.00     0.006 A 
ENDBRANCH  44  65
BRANCH  56  73
ATOM     73  C   UNL A   1      44.453  27.833  34.295  1.00  0.00     0.057 A 
ATOM     74  C   UNL A   1      44.342  26.676  35.075  1.00  0.00     0.134 A 
ATOM     75  C   UNL A   1      45.660  28.541  34.344  1.00  0.00     0.134 A 
ATOM     76  F   UNL A   1      43.204  25.967  35.082  1.00  0.00    -0.206 F 
ATOM     77  C   UNL A   1      45.390  26.250  35.892  1.00  0.00     0.040 A 
ATOM     78  C   UNL A   1      46.722  28.111  35.139  1.00  0.00     0.040 A 
ATOM     79  F   UNL A   1      45.827  29.654  33.614  1.00  0.00    -0.206 F 
ATOM     80  C   UNL A   1      46.586  26.965  35.920  1.00  0.00     0.006 A 
ENDBRANCH  56  73
ENDBRANCH  30  31
ENDBRANCH  23  25
ENDBRANCH  22  23
ENDBRANCH  21  22
ENDBRANCH   1  21
TORSDOF 14
ENDMDL
