MODEL 1
REMARK VINA RESULT:     -12.3      0.000      0.000
REMARK SMILES Cc1cccc(C)c1NC(=O)/C(C#N)=C/c1ccc(C(=O)OCCOC(=O)c2ccc(-c3c4nc(c(-c5c(F)cccc5F)c5ccc([nH]5)c(-c5c(F)cccc5F)c5nc(c(-c6c(F)cccc6F)c6ccc3[nH]6)C=C5)C=C4)cc2)cc1
REMARK SMILES IDX 23 1 22 2 20 3 21 4 19 5 16 6 17 7 83 8 18 9 82 10 15 11
REMARK SMILES IDX 12 12 10 13 9 14 11 16 8 17 1 18 2 19 3 20 4 21 6 22 5 23
REMARK SMILES IDX 7 24 13 25 14 26 24 27 25 28 26 29 27 30 28 31 29 32 81 33
REMARK SMILES IDX 30 34 80 35 31 36 32 37 33 38 74 39 34 40 79 41 73 42 75 43
REMARK SMILES IDX 35 44 78 45 72 46 71 47 36 49 62 50 45 51 61 52 46 53 49 54
REMARK SMILES IDX 60 55 76 56 47 57 48 58 59 60 77 61 50 62 37 63 38 64 43 65
REMARK SMILES IDX 39 66 40 67 42 68 44 69 41 70 63 71 64 72 69 73 65 74 66 75
REMARK SMILES IDX 68 76 70 77 67 78 51 79 52 80 57 81 53 82 54 83 56 84 58 85
REMARK SMILES IDX 55 86
REMARK H PARENT 9 15 75 48 49 59
REMARK Flexibility Score: inf
ROOT
ATOM      1  C   UNL A   1      42.787  21.065  25.858  1.00  0.00     0.275 C 
ENDROOT
BRANCH   1   2
ATOM      2  O   UNL A   1      41.454  21.522  25.552  1.00  0.00    -0.458 OA
BRANCH   2   3
ATOM      3  C   UNL A   1      40.507  21.266  26.485  1.00  0.00     0.338 C 
ATOM      4  O   UNL A   1      40.663  20.632  27.517  1.00  0.00    -0.246 OA
BRANCH   3   5
ATOM      5  C   UNL A   1      39.225  21.942  26.148  1.00  0.00     0.060 A 
ATOM      6  C   UNL A   1      36.773  23.268  25.724  1.00  0.00    -0.024 A 
ATOM      7  C   UNL A   1      37.876  23.955  26.251  1.00  0.00     0.009 A 
ATOM      8  C   UNL A   1      36.947  21.942  25.312  1.00  0.00     0.009 A 
ATOM      9  C   UNL A   1      39.073  23.287  26.499  1.00  0.00     0.016 A 
ATOM     10  C   UNL A   1      38.164  21.279  25.527  1.00  0.00     0.016 A 
BRANCH   6  11
ATOM     11  C   UNL A   1      35.484  23.982  25.819  1.00  0.00     0.033 C 
ATOM     12  C   UNL A   1      34.491  23.963  24.904  1.00  0.00     0.118 C 
BRANCH  12  13
ATOM     13  C   UNL A   1      33.135  24.251  25.455  1.00  0.00     0.266 C 
ATOM     14  N   UNL A   1      32.506  25.454  25.244  1.00  0.00    -0.321 N 
ATOM     15  H   UNL A   1      31.650  25.544  25.722  1.00  0.00     0.170 HD
ATOM     16  O   UNL A   1      32.559  23.405  26.144  1.00  0.00    -0.268 OA
BRANCH  14  17
ATOM     17  C   UNL A   1      32.850  26.588  24.471  1.00  0.00     0.047 A 
ATOM     18  C   UNL A   1      33.292  27.830  26.667  1.00  0.00     0.046 C 
ATOM     19  C   UNL A   1      33.360  27.710  25.166  1.00  0.00    -0.027 A 
ATOM     20  C   UNL A   1      33.969  28.752  24.450  1.00  0.00     0.005 A 
ATOM     21  C   UNL A   1      34.016  28.726  23.062  1.00  0.00     0.001 A 
ATOM     22  C   UNL A   1      32.713  26.670  23.070  1.00  0.00    -0.027 A 
ATOM     23  C   UNL A   1      33.355  27.714  22.378  1.00  0.00     0.005 A 
ATOM     24  C   UNL A   1      31.713  25.862  22.285  1.00  0.00     0.046 C 
ENDBRANCH  14  17
ENDBRANCH  12  13
BRANCH  12  25
ATOM     25  C   UNL A   1      34.640  23.589  23.544  1.00  0.00     0.105 C 
ATOM     26  N   UNL A   1      34.746  23.330  22.414  1.00  0.00    -0.192 NA
ENDBRANCH  12  25
ENDBRANCH   6  11
ENDBRANCH   3   5
ENDBRANCH   2   3
ENDBRANCH   1   2
BRANCH   1  27
ATOM     27  C   UNL A   1      43.835  21.924  25.147  1.00  0.00     0.275 C 
BRANCH  27  28
ATOM     28  O   UNL A   1      43.269  23.166  24.685  1.00  0.00    -0.458 OA
BRANCH  28  29
ATOM     29  C   UNL A   1      43.967  24.268  25.039  1.00  0.00     0.338 C 
ATOM     30  O   UNL A   1      45.058  24.623  24.626  1.00  0.00    -0.246 OA
BRANCH  29  31
ATOM     31  C   UNL A   1      43.179  25.109  25.950  1.00  0.00     0.060 A 
ATOM     32  C   UNL A   1      43.439  26.473  25.937  1.00  0.00     0.016 A 
ATOM     33  C   UNL A   1      42.382  24.559  26.948  1.00  0.00     0.016 A 
ATOM     34  C   UNL A   1      43.021  27.282  26.984  1.00  0.00     0.010 A 
ATOM     35  C   UNL A   1      41.860  25.398  27.945  1.00  0.00     0.010 A 
ATOM     36  C   UNL A   1      42.214  26.761  28.002  1.00  0.00    -0.014 A 
BRANCH  36  37
ATOM     37  C   UNL A   1      41.788  27.634  29.134  1.00  0.00     0.031 A 
ATOM     38  C   UNL A   1      42.552  27.623  30.434  1.00  0.00     0.074 A 
ATOM     39  C   UNL A   1      40.732  28.463  28.993  1.00  0.00     0.049 A 
ATOM     40  N   UNL A   1      42.251  28.186  31.578  1.00  0.00    -0.248 NA
ATOM     41  C   UNL A   1      43.814  26.867  30.456  1.00  0.00     0.031 C 
ATOM     42  C   UNL A   1      39.931  28.619  27.777  1.00  0.00     0.029 A 
ATOM     43  N   UNL A   1      40.152  29.337  29.880  1.00  0.00    -0.354 N 
ATOM     44  C   UNL A   1      43.253  27.807  32.465  1.00  0.00     0.074 A 
ATOM     45  C   UNL A   1      44.161  26.952  31.732  1.00  0.00     0.031 C 
ATOM     46  C   UNL A   1      38.991  29.553  27.981  1.00  0.00     0.029 A 
ATOM     47  C   UNL A   1      39.054  29.989  29.370  1.00  0.00     0.049 A 
ATOM     48  H   UNL A   1      40.489  29.482  30.793  1.00  0.00     0.167 HD
ATOM     49  C   UNL A   1      43.401  28.145  33.770  1.00  0.00     0.037 A 
ATOM     50  C   UNL A   1      38.161  30.805  29.960  1.00  0.00     0.037 A 
ATOM     51  C   UNL A   1      42.515  29.030  34.481  1.00  0.00     0.049 A 
ATOM     52  C   UNL A   1      38.314  31.115  31.422  1.00  0.00     0.074 A 
ATOM     53  C   UNL A   1      42.587  29.448  35.800  1.00  0.00     0.029 A 
ATOM     54  N   UNL A   1      41.397  29.642  33.931  1.00  0.00    -0.354 N 
ATOM     55  N   UNL A   1      39.243  30.721  32.258  1.00  0.00    -0.248 NA
ATOM     56  C   UNL A   1      37.287  31.974  32.024  1.00  0.00     0.031 C 
ATOM     57  C   UNL A   1      41.483  30.264  36.063  1.00  0.00     0.029 A 
ATOM     58  C   UNL A   1      40.760  30.415  34.890  1.00  0.00     0.049 A 
ATOM     59  H   UNL A   1      41.100  29.542  32.998  1.00  0.00     0.167 HD
ATOM     60  C   UNL A   1      38.933  31.311  33.476  1.00  0.00     0.074 A 
ATOM     61  C   UNL A   1      37.737  32.100  33.263  1.00  0.00     0.031 C 
ATOM     62  C   UNL A   1      39.579  31.207  34.663  1.00  0.00     0.037 A 
BRANCH  49  63
ATOM     63  C   UNL A   1      44.543  27.524  34.528  1.00  0.00     0.057 A 
ATOM     64  C   UNL A   1      45.812  28.113  34.593  1.00  0.00     0.134 A 
ATOM     65  C   UNL A   1      44.354  26.329  35.238  1.00  0.00     0.134 A 
ATOM     66  F   UNL A   1      46.068  29.251  33.931  1.00  0.00    -0.206 F 
ATOM     67  C   UNL A   1      46.857  27.524  35.310  1.00  0.00     0.040 A 
ATOM     68  C   UNL A   1      45.380  25.748  35.984  1.00  0.00     0.040 A 
ATOM     69  F   UNL A   1      43.162  25.712  35.229  1.00  0.00    -0.206 F 
ATOM     70  C   UNL A   1      46.640  26.341  36.015  1.00  0.00     0.006 A 
ENDBRANCH  49  63
BRANCH  50  71
ATOM     71  C   UNL A   1      37.017  31.348  29.182  1.00  0.00     0.057 A 
ATOM     72  C   UNL A   1      35.914  30.549  28.858  1.00  0.00     0.134 A 
ATOM     73  C   UNL A   1      37.003  32.675  28.730  1.00  0.00     0.134 A 
ATOM     74  F   UNL A   1      35.875  29.265  29.243  1.00  0.00    -0.206 F 
ATOM     75  C   UNL A   1      34.851  31.041  28.098  1.00  0.00     0.040 A 
ATOM     76  C   UNL A   1      35.931  33.190  28.001  1.00  0.00     0.040 A 
ATOM     77  F   UNL A   1      38.026  33.497  29.009  1.00  0.00    -0.206 F 
ATOM     78  C   UNL A   1      34.856  32.369  27.673  1.00  0.00     0.006 A 
ENDBRANCH  50  71
BRANCH  62  79
ATOM     79  C   UNL A   1      39.042  32.020  35.807  1.00  0.00     0.057 A 
ATOM     80  C   UNL A   1      39.383  33.365  35.994  1.00  0.00     0.134 A 
ATOM     81  C   UNL A   1      38.153  31.446  36.726  1.00  0.00     0.134 A 
ATOM     82  F   UNL A   1      40.240  33.973  35.158  1.00  0.00    -0.206 F 
ATOM     83  C   UNL A   1      38.887  34.101  37.072  1.00  0.00     0.040 A 
ATOM     84  C   UNL A   1      37.624  32.180  37.787  1.00  0.00     0.040 A 
ATOM     85  F   UNL A   1      37.777  30.164  36.602  1.00  0.00    -0.206 F 
ATOM     86  C   UNL A   1      37.999  33.509  37.968  1.00  0.00     0.006 A 
ENDBRANCH  62  79
ENDBRANCH  36  37
ENDBRANCH  29  31
ENDBRANCH  28  29
ENDBRANCH  27  28
ENDBRANCH   1  27
TORSDOF 15
ENDMDL
MODEL 2
REMARK VINA RESULT:     -12.1      4.537      9.781
REMARK SMILES Cc1cccc(C)c1NC(=O)/C(C#N)=C/c1ccc(C(=O)OCCOC(=O)c2ccc(-c3c4nc(c(-c5c(F)cccc5F)c5ccc([nH]5)c(-c5c(F)cccc5F)c5nc(c(-c6c(F)cccc6F)c6ccc3[nH]6)C=C5)C=C4)cc2)cc1
REMARK SMILES IDX 23 1 22 2 20 3 21 4 19 5 16 6 17 7 83 8 18 9 82 10 15 11
REMARK SMILES IDX 12 12 10 13 9 14 11 16 8 17 1 18 2 19 3 20 4 21 6 22 5 23
REMARK SMILES IDX 7 24 13 25 14 26 24 27 25 28 26 29 27 30 28 31 29 32 81 33
REMARK SMILES IDX 30 34 80 35 31 36 32 37 33 38 74 39 34 40 79 41 73 42 75 43
REMARK SMILES IDX 35 44 78 45 72 46 71 47 36 49 62 50 45 51 61 52 46 53 49 54
REMARK SMILES IDX 60 55 76 56 47 57 48 58 59 60 77 61 50 62 37 63 38 64 43 65
REMARK SMILES IDX 39 66 40 67 42 68 44 69 41 70 63 71 64 72 69 73 65 74 66 75
REMARK SMILES IDX 68 76 70 77 67 78 51 79 52 80 57 81 53 82 54 83 56 84 58 85
REMARK SMILES IDX 55 86
REMARK H PARENT 9 15 75 48 49 59
REMARK Flexibility Score: inf
ROOT
ATOM      1  C   UNL A   1      34.201  34.234  30.205  1.00  0.00     0.275 C 
ENDROOT
BRANCH   1   2
ATOM      2  O   UNL A   1      33.873  33.015  29.511  1.00  0.00    -0.458 OA
BRANCH   2   3
ATOM      3  C   UNL A   1      34.374  32.886  28.259  1.00  0.00     0.338 C 
ATOM      4  O   UNL A   1      35.007  33.731  27.645  1.00  0.00    -0.246 OA
BRANCH   3   5
ATOM      5  C   UNL A   1      34.136  31.520  27.723  1.00  0.00     0.060 A 
ATOM      6  C   UNL A   1      33.851  28.965  26.564  1.00  0.00    -0.024 A 
ATOM      7  C   UNL A   1      35.044  29.331  27.201  1.00  0.00     0.009 A 
ATOM      8  C   UNL A   1      32.769  29.851  26.611  1.00  0.00     0.009 A 
ATOM      9  C   UNL A   1      35.198  30.609  27.736  1.00  0.00     0.016 A 
ATOM     10  C   UNL A   1      32.910  31.124  27.183  1.00  0.00     0.016 A 
BRANCH   6  11
ATOM     11  C   UNL A   1      33.923  27.732  25.755  1.00  0.00     0.033 C 
ATOM     12  C   UNL A   1      32.909  26.872  25.517  1.00  0.00     0.118 C 
BRANCH  12  13
ATOM     13  C   UNL A   1      33.054  26.076  24.264  1.00  0.00     0.266 C 
ATOM     14  N   UNL A   1      33.353  24.736  24.285  1.00  0.00    -0.321 N 
ATOM     15  H   UNL A   1      33.493  24.345  23.393  1.00  0.00     0.170 HD
ATOM     16  O   UNL A   1      32.930  26.628  23.166  1.00  0.00    -0.268 OA
BRANCH  14  17
ATOM     17  C   UNL A   1      33.496  23.807  25.343  1.00  0.00     0.047 A 
ATOM     18  C   UNL A   1      36.023  23.876  24.933  1.00  0.00     0.046 C 
ATOM     19  C   UNL A   1      34.814  23.487  25.744  1.00  0.00    -0.027 A 
ATOM     20  C   UNL A   1      35.025  22.795  26.947  1.00  0.00     0.005 A 
ATOM     21  C   UNL A   1      33.951  22.363  27.714  1.00  0.00     0.001 A 
ATOM     22  C   UNL A   1      32.420  23.184  26.010  1.00  0.00    -0.027 A 
ATOM     23  C   UNL A   1      32.660  22.519  27.227  1.00  0.00     0.005 A 
ATOM     24  C   UNL A   1      31.070  22.963  25.380  1.00  0.00     0.046 C 
ENDBRANCH  14  17
ENDBRANCH  12  13
BRANCH  12  25
ATOM     25  C   UNL A   1      31.722  26.775  26.287  1.00  0.00     0.105 C 
ATOM     26  N   UNL A   1      30.774  26.717  26.961  1.00  0.00    -0.192 NA
ENDBRANCH  12  25
ENDBRANCH   6  11
ENDBRANCH   3   5
ENDBRANCH   2   3
ENDBRANCH   1   2
BRANCH   1  27
ATOM     27  C   UNL A   1      34.595  33.949  31.656  1.00  0.00     0.275 C 
BRANCH  27  28
ATOM     28  O   UNL A   1      34.739  32.533  31.891  1.00  0.00    -0.458 OA
BRANCH  28  29
ATOM     29  C   UNL A   1      35.812  32.194  32.637  1.00  0.00     0.338 C 
ATOM     30  O   UNL A   1      35.978  32.380  33.831  1.00  0.00    -0.246 OA
BRANCH  29  31
ATOM     31  C   UNL A   1      36.778  31.430  31.837  1.00  0.00     0.060 A 
ATOM     32  C   UNL A   1      37.646  30.590  32.524  1.00  0.00     0.016 A 
ATOM     33  C   UNL A   1      36.989  31.699  30.490  1.00  0.00     0.016 A 
ATOM     34  C   UNL A   1      38.800  30.116  31.917  1.00  0.00     0.010 A 
ATOM     35  C   UNL A   1      38.092  31.124  29.842  1.00  0.00     0.010 A 
ATOM     36  C   UNL A   1      39.039  30.366  30.560  1.00  0.00    -0.014 A 
BRANCH  36  37
ATOM     37  C   UNL A   1      40.293  29.869  29.922  1.00  0.00     0.031 A 
ATOM     38  C   UNL A   1      41.484  30.782  29.773  1.00  0.00     0.074 A 
ATOM     39  C   UNL A   1      40.381  28.590  29.500  1.00  0.00     0.049 A 
ATOM     40  N   UNL A   1      42.598  30.588  29.112  1.00  0.00    -0.248 NA
ATOM     41  C   UNL A   1      41.407  32.090  30.442  1.00  0.00     0.031 C 
ATOM     42  C   UNL A   1      39.327  27.580  29.627  1.00  0.00     0.029 A 
ATOM     43  N   UNL A   1      41.406  27.917  28.882  1.00  0.00    -0.354 N 
ATOM     44  C   UNL A   1      43.326  31.767  29.240  1.00  0.00     0.074 A 
ATOM     45  C   UNL A   1      42.520  32.676  30.026  1.00  0.00     0.031 C 
ATOM     46  C   UNL A   1      39.771  26.412  29.138  1.00  0.00     0.029 A 
ATOM     47  C   UNL A   1      41.098  26.614  28.570  1.00  0.00     0.049 A 
ATOM     48  H   UNL A   1      42.277  28.328  28.682  1.00  0.00     0.167 HD
ATOM     49  C   UNL A   1      44.555  32.062  28.748  1.00  0.00     0.037 A 
ATOM     50  C   UNL A   1      41.777  25.694  27.861  1.00  0.00     0.037 A 
ATOM     51  C   UNL A   1      45.369  31.137  28.001  1.00  0.00     0.049 A 
ATOM     52  C   UNL A   1      43.110  26.065  27.276  1.00  0.00     0.074 A 
ATOM     53  C   UNL A   1      46.635  31.333  27.473  1.00  0.00     0.029 A 
ATOM     54  N   UNL A   1      45.002  29.836  27.682  1.00  0.00    -0.354 N 
ATOM     55  N   UNL A   1      43.770  27.193  27.372  1.00  0.00    -0.248 NA
ATOM     56  C   UNL A   1      43.787  25.038  26.474  1.00  0.00     0.031 C 
ATOM     57  C   UNL A   1      47.007  30.173  26.786  1.00  0.00     0.029 A 
ATOM     58  C   UNL A   1      46.007  29.228  26.946  1.00  0.00     0.049 A 
ATOM     59  H   UNL A   1      44.153  29.410  27.941  1.00  0.00     0.167 HD
ATOM     60  C   UNL A   1      44.954  27.001  26.672  1.00  0.00     0.074 A 
ATOM     61  C   UNL A   1      44.926  25.642  26.171  1.00  0.00     0.031 C 
ATOM     62  C   UNL A   1      45.973  27.871  26.464  1.00  0.00     0.037 A 
BRANCH  49  63
ATOM     63  C   UNL A   1      45.082  33.454  28.966  1.00  0.00     0.057 A 
ATOM     64  C   UNL A   1      45.885  33.791  30.063  1.00  0.00     0.134 A 
ATOM     65  C   UNL A   1      44.807  34.468  28.038  1.00  0.00     0.134 A 
ATOM     66  F   UNL A   1      46.181  32.875  30.998  1.00  0.00    -0.206 F 
ATOM     67  C   UNL A   1      46.371  35.089  30.243  1.00  0.00     0.040 A 
ATOM     68  C   UNL A   1      45.313  35.759  28.189  1.00  0.00     0.040 A 
ATOM     69  F   UNL A   1      44.052  34.216  26.957  1.00  0.00    -0.206 F 
ATOM     70  C   UNL A   1      46.091  36.076  29.300  1.00  0.00     0.006 A 
ENDBRANCH  49  63
BRANCH  50  71
ATOM     71  C   UNL A   1      41.189  24.349  27.624  1.00  0.00     0.057 A 
ATOM     72  C   UNL A   1      41.645  23.223  28.319  1.00  0.00     0.134 A 
ATOM     73  C   UNL A   1      40.164  24.154  26.688  1.00  0.00     0.134 A 
ATOM     74  F   UNL A   1      42.638  23.340  29.214  1.00  0.00    -0.206 F 
ATOM     75  C   UNL A   1      41.122  21.952  28.078  1.00  0.00     0.040 A 
ATOM     76  C   UNL A   1      39.607  22.895  26.463  1.00  0.00     0.040 A 
ATOM     77  F   UNL A   1      39.675  25.190  25.990  1.00  0.00    -0.206 F 
ATOM     78  C   UNL A   1      40.093  21.787  27.152  1.00  0.00     0.006 A 
ENDBRANCH  50  71
BRANCH  62  79
ATOM     79  C   UNL A   1      47.169  27.357  25.714  1.00  0.00     0.057 A 
ATOM     80  C   UNL A   1      47.319  27.533  24.333  1.00  0.00     0.134 A 
ATOM     81  C   UNL A   1      48.196  26.690  26.395  1.00  0.00     0.134 A 
ATOM     82  F   UNL A   1      46.366  28.151  23.618  1.00  0.00    -0.206 F 
ATOM     83  C   UNL A   1      48.431  27.034  23.651  1.00  0.00     0.040 A 
ATOM     84  C   UNL A   1      49.327  26.217  25.731  1.00  0.00     0.040 A 
ATOM     85  F   UNL A   1      48.121  26.494  27.721  1.00  0.00    -0.206 F 
ATOM     86  C   UNL A   1      49.442  26.380  24.352  1.00  0.00     0.006 A 
ENDBRANCH  62  79
ENDBRANCH  36  37
ENDBRANCH  29  31
ENDBRANCH  28  29
ENDBRANCH  27  28
ENDBRANCH   1  27
TORSDOF 15
ENDMDL
MODEL 3
REMARK VINA RESULT:     -11.8      4.572      9.734
REMARK SMILES Cc1cccc(C)c1NC(=O)/C(C#N)=C/c1ccc(C(=O)OCCOC(=O)c2ccc(-c3c4nc(c(-c5c(F)cccc5F)c5ccc([nH]5)c(-c5c(F)cccc5F)c5nc(c(-c6c(F)cccc6F)c6ccc3[nH]6)C=C5)C=C4)cc2)cc1
REMARK SMILES IDX 23 1 22 2 20 3 21 4 19 5 16 6 17 7 83 8 18 9 82 10 15 11
REMARK SMILES IDX 12 12 10 13 9 14 11 16 8 17 1 18 2 19 3 20 4 21 6 22 5 23
REMARK SMILES IDX 7 24 13 25 14 26 24 27 25 28 26 29 27 30 28 31 29 32 81 33
REMARK SMILES IDX 30 34 80 35 31 36 32 37 33 38 74 39 34 40 79 41 73 42 75 43
REMARK SMILES IDX 35 44 78 45 72 46 71 47 36 49 62 50 45 51 61 52 46 53 49 54
REMARK SMILES IDX 60 55 76 56 47 57 48 58 59 60 77 61 50 62 37 63 38 64 43 65
REMARK SMILES IDX 39 66 40 67 42 68 44 69 41 70 63 71 64 72 69 73 65 74 66 75
REMARK SMILES IDX 68 76 70 77 67 78 51 79 52 80 57 81 53 82 54 83 56 84 58 85
REMARK SMILES IDX 55 86
REMARK H PARENT 9 15 75 48 49 59
REMARK Flexibility Score: inf
ROOT
ATOM      1  C   UNL A   1      34.214  34.164  30.359  1.00  0.00     0.275 C 
ENDROOT
BRANCH   1   2
ATOM      2  O   UNL A   1      34.038  32.960  29.587  1.00  0.00    -0.458 OA
BRANCH   2   3
ATOM      3  C   UNL A   1      34.376  33.034  28.278  1.00  0.00     0.338 C 
ATOM      4  O   UNL A   1      34.684  34.047  27.669  1.00  0.00    -0.246 OA
BRANCH   3   5
ATOM      5  C   UNL A   1      34.419  31.684  27.656  1.00  0.00     0.060 A 
ATOM      6  C   UNL A   1      34.321  29.073  26.595  1.00  0.00    -0.024 A 
ATOM      7  C   UNL A   1      33.265  29.970  26.385  1.00  0.00     0.009 A 
ATOM      8  C   UNL A   1      35.470  29.535  27.247  1.00  0.00     0.009 A 
ATOM      9  C   UNL A   1      33.297  31.245  26.946  1.00  0.00     0.016 A 
ATOM     10  C   UNL A   1      35.519  30.831  27.779  1.00  0.00     0.016 A 
BRANCH   6  11
ATOM     11  C   UNL A   1      34.031  27.668  26.245  1.00  0.00     0.033 C 
ATOM     12  C   UNL A   1      32.849  27.034  26.404  1.00  0.00     0.118 C 
BRANCH  12  13
ATOM     13  C   UNL A   1      32.639  25.878  25.485  1.00  0.00     0.266 C 
ATOM     14  N   UNL A   1      31.987  26.014  24.284  1.00  0.00    -0.321 N 
ATOM     15  H   UNL A   1      31.851  25.163  23.807  1.00  0.00     0.170 HD
ATOM     16  O   UNL A   1      33.035  24.754  25.809  1.00  0.00    -0.268 OA
BRANCH  14  17
ATOM     17  C   UNL A   1      31.475  27.141  23.598  1.00  0.00     0.047 A 
ATOM     18  C   UNL A   1      29.129  26.192  23.990  1.00  0.00     0.046 C 
ATOM     19  C   UNL A   1      30.069  27.291  23.569  1.00  0.00    -0.027 A 
ATOM     20  C   UNL A   1      29.510  28.509  23.151  1.00  0.00     0.005 A 
ATOM     21  C   UNL A   1      30.320  29.544  22.701  1.00  0.00     0.001 A 
ATOM     22  C   UNL A   1      32.269  28.107  22.946  1.00  0.00    -0.027 A 
ATOM     23  C   UNL A   1      31.685  29.328  22.560  1.00  0.00     0.005 A 
ATOM     24  C   UNL A   1      33.645  27.821  22.403  1.00  0.00     0.046 C 
ENDBRANCH  14  17
ENDBRANCH  12  13
BRANCH  12  25
ATOM     25  C   UNL A   1      31.805  27.454  27.266  1.00  0.00     0.105 C 
ATOM     26  N   UNL A   1      30.983  27.831  28.001  1.00  0.00    -0.192 NA
ENDBRANCH  12  25
ENDBRANCH   6  11
ENDBRANCH   3   5
ENDBRANCH   2   3
ENDBRANCH   1   2
BRANCH   1  27
ATOM     27  C   UNL A   1      34.482  33.837  31.829  1.00  0.00     0.275 C 
BRANCH  27  28
ATOM     28  O   UNL A   1      34.761  32.434  32.012  1.00  0.00    -0.458 OA
BRANCH  28  29
ATOM     29  C   UNL A   1      35.903  32.171  32.684  1.00  0.00     0.338 C 
ATOM     30  O   UNL A   1      36.142  32.390  33.860  1.00  0.00    -0.246 OA
BRANCH  29  31
ATOM     31  C   UNL A   1      36.852  31.446  31.829  1.00  0.00     0.060 A 
ATOM     32  C   UNL A   1      37.619  30.457  32.431  1.00  0.00     0.016 A 
ATOM     33  C   UNL A   1      37.151  31.875  30.541  1.00  0.00     0.016 A 
ATOM     34  C   UNL A   1      38.766  29.979  31.813  1.00  0.00     0.010 A 
ATOM     35  C   UNL A   1      38.243  31.306  29.868  1.00  0.00     0.010 A 
ATOM     36  C   UNL A   1      39.093  30.387  30.515  1.00  0.00    -0.014 A 
BRANCH  36  37
ATOM     37  C   UNL A   1      40.340  29.882  29.869  1.00  0.00     0.031 A 
ATOM     38  C   UNL A   1      41.531  30.792  29.699  1.00  0.00     0.074 A 
ATOM     39  C   UNL A   1      40.422  28.599  29.458  1.00  0.00     0.049 A 
ATOM     40  N   UNL A   1      42.638  30.591  29.028  1.00  0.00    -0.248 NA
ATOM     41  C   UNL A   1      41.462  32.106  30.356  1.00  0.00     0.031 C 
ATOM     42  C   UNL A   1      39.368  27.591  29.605  1.00  0.00     0.029 A 
ATOM     43  N   UNL A   1      41.439  27.919  28.836  1.00  0.00    -0.354 N 
ATOM     44  C   UNL A   1      43.369  31.769  29.137  1.00  0.00     0.074 A 
ATOM     45  C   UNL A   1      42.572  32.686  29.922  1.00  0.00     0.031 C 
ATOM     46  C   UNL A   1      39.805  26.419  29.124  1.00  0.00     0.029 A 
ATOM     47  C   UNL A   1      41.127  26.613  28.540  1.00  0.00     0.049 A 
ATOM     48  H   UNL A   1      42.309  28.327  28.623  1.00  0.00     0.167 HD
ATOM     49  C   UNL A   1      44.593  32.057  28.630  1.00  0.00     0.037 A 
ATOM     50  C   UNL A   1      41.797  25.685  27.832  1.00  0.00     0.037 A 
ATOM     51  C   UNL A   1      45.398  31.124  27.883  1.00  0.00     0.049 A 
ATOM     52  C   UNL A   1      43.124  26.049  27.230  1.00  0.00     0.074 A 
ATOM     53  C   UNL A   1      46.658  31.313  27.340  1.00  0.00     0.029 A 
ATOM     54  N   UNL A   1      45.026  29.821  27.580  1.00  0.00    -0.354 N 
ATOM     55  N   UNL A   1      43.787  27.177  27.308  1.00  0.00    -0.248 NA
ATOM     56  C   UNL A   1      43.791  25.013  26.431  1.00  0.00     0.031 C 
ATOM     57  C   UNL A   1      47.022  30.147  26.660  1.00  0.00     0.029 A 
ATOM     58  C   UNL A   1      46.021  29.204  26.839  1.00  0.00     0.049 A 
ATOM     59  H   UNL A   1      44.179  29.399  27.852  1.00  0.00     0.167 HD
ATOM     60  C   UNL A   1      44.963  26.976  26.598  1.00  0.00     0.074 A 
ATOM     61  C   UNL A   1      44.928  25.613  26.110  1.00  0.00     0.031 C 
ATOM     62  C   UNL A   1      45.981  27.843  26.371  1.00  0.00     0.037 A 
BRANCH  49  63
ATOM     63  C   UNL A   1      45.123  33.451  28.829  1.00  0.00     0.057 A 
ATOM     64  C   UNL A   1      45.945  33.796  29.910  1.00  0.00     0.134 A 
ATOM     65  C   UNL A   1      44.834  34.458  27.898  1.00  0.00     0.134 A 
ATOM     66  F   UNL A   1      46.255  32.886  30.846  1.00  0.00    -0.206 F 
ATOM     67  C   UNL A   1      46.434  35.094  30.073  1.00  0.00     0.040 A 
ATOM     68  C   UNL A   1      45.343  35.750  28.031  1.00  0.00     0.040 A 
ATOM     69  F   UNL A   1      44.061  34.199  26.831  1.00  0.00    -0.206 F 
ATOM     70  C   UNL A   1      46.139  36.075  29.127  1.00  0.00     0.006 A 
ENDBRANCH  49  63
BRANCH  50  71
ATOM     71  C   UNL A   1      41.205  24.340  27.615  1.00  0.00     0.057 A 
ATOM     72  C   UNL A   1      41.680  23.216  28.301  1.00  0.00     0.134 A 
ATOM     73  C   UNL A   1      40.156  24.140  26.706  1.00  0.00     0.134 A 
ATOM     74  F   UNL A   1      42.695  23.336  29.169  1.00  0.00    -0.206 F 
ATOM     75  C   UNL A   1      41.152  21.943  28.077  1.00  0.00     0.040 A 
ATOM     76  C   UNL A   1      39.595  22.880  26.499  1.00  0.00     0.040 A 
ATOM     77  F   UNL A   1      39.649  25.174  26.017  1.00  0.00    -0.206 F 
ATOM     78  C   UNL A   1      40.100  21.775  27.178  1.00  0.00     0.006 A 
ENDBRANCH  50  71
BRANCH  62  79
ATOM     79  C   UNL A   1      47.168  27.320  25.614  1.00  0.00     0.057 A 
ATOM     80  C   UNL A   1      47.334  27.534  24.240  1.00  0.00     0.134 A 
ATOM     81  C   UNL A   1      48.172  26.605  26.281  1.00  0.00     0.134 A 
ATOM     82  F   UNL A   1      46.403  28.200  23.538  1.00  0.00    -0.206 F 
ATOM     83  C   UNL A   1      48.437  27.027  23.550  1.00  0.00     0.040 A 
ATOM     84  C   UNL A   1      49.295  26.122  25.610  1.00  0.00     0.040 A 
ATOM     85  F   UNL A   1      48.082  26.370  27.599  1.00  0.00    -0.206 F 
ATOM     86  C   UNL A   1      49.425  26.324  24.237  1.00  0.00     0.006 A 
ENDBRANCH  62  79
ENDBRANCH  36  37
ENDBRANCH  29  31
ENDBRANCH  28  29
ENDBRANCH  27  28
ENDBRANCH   1  27
TORSDOF 15
ENDMDL
