MODEL 1
REMARK VINA RESULT:      -9.6      0.000      0.000
REMARK SMILES C[C@H](Cc1ccco1)[NH2+]Cc1cc(C(=O)OCCOC(=O)c2ccc(-c3c4nc(c(-c5c(F)cccc5F)c5ccc([nH]5)c(-c5c(F)cccc5F)c5nc(c(-c6c(F)cccc6F)c6ccc3[nH]6)C=C5)C=C4)cc2)cs1
REMARK SMILES IDX 16 1 14 2 15 3 13 4 11 5 12 6 77 7 76 8 10 9 9 10 2 13 1 14
REMARK SMILES IDX 3 15 4 16 5 17 8 18 6 19 7 20 17 21 18 22 19 23 20 24 21 25
REMARK SMILES IDX 22 26 23 27 75 28 24 29 74 30 25 31 26 32 27 33 68 34 28 35
REMARK SMILES IDX 73 36 67 37 69 38 29 39 72 40 66 41 65 42 30 44 56 45 39 46
REMARK SMILES IDX 55 47 40 48 43 49 54 50 70 51 41 52 42 53 53 55 71 56 44 57
REMARK SMILES IDX 31 58 32 59 37 60 33 61 34 62 36 63 38 64 35 65 57 66 58 67
REMARK SMILES IDX 63 68 59 69 60 70 62 71 64 72 61 73 45 74 46 75 51 76 47 77
REMARK SMILES IDX 48 78 50 79 52 80 49 81
REMARK H PARENT 9 11 9 12 69 43 43 54
REMARK Flexibility Score: inf
ROOT
ATOM      1  O   UNL A   1      32.520  34.634  29.094  1.00  0.00    -0.458 OA
ENDROOT
BRANCH   1   2
ATOM      2  C   UNL A   1      33.007  35.833  29.535  1.00  0.00     0.339 C 
ATOM      3  O   UNL A   1      33.067  36.843  28.850  1.00  0.00    -0.246 OA
BRANCH   2   4
ATOM      4  C   UNL A   1      33.450  35.810  30.928  1.00  0.00     0.071 A 
ATOM      5  C   UNL A   1      34.341  35.079  32.990  1.00  0.00     0.060 A 
ATOM      6  C   UNL A   1      34.057  34.741  31.675  1.00  0.00     0.037 A 
ATOM      7  S   UNL A   1      33.922  36.717  33.292  1.00  0.00    -0.142 S 
ATOM      8  C   UNL A   1      33.293  36.925  31.732  1.00  0.00     0.081 A 
BRANCH   5   9
ATOM      9  C   UNL A   1      34.992  34.221  34.054  1.00  0.00     0.308 C 
BRANCH   9  10
ATOM     10  N   UNL A   1      36.426  34.462  34.235  1.00  0.00    -0.339 N 
ATOM     11  H   UNL A   1      36.684  35.255  33.648  1.00  0.00     0.346 HD
ATOM     12  H   UNL A   1      36.547  34.617  35.236  1.00  0.00     0.346 HD
BRANCH  10  13
ATOM     13  C   UNL A   1      37.330  33.348  33.903  1.00  0.00     0.187 C 
ATOM     14  C   UNL A   1      37.844  32.523  35.088  1.00  0.00     0.075 C 
BRANCH  13  15
ATOM     15  C   UNL A   1      38.498  33.839  33.005  1.00  0.00     0.140 C 
BRANCH  15  16
ATOM     16  C   UNL A   1      38.241  33.857  31.532  1.00  0.00     0.109 A 
ATOM     17  C   UNL A   1      37.421  33.154  30.672  1.00  0.00     0.046 A 
ATOM     18  O   UNL A   1      39.011  34.726  30.810  1.00  0.00    -0.469 OA
ATOM     19  C   UNL A   1      37.676  33.645  29.368  1.00  0.00     0.042 A 
ATOM     20  C   UNL A   1      38.666  34.586  29.504  1.00  0.00     0.195 A 
ENDBRANCH  15  16
ENDBRANCH  13  15
ENDBRANCH  10  13
ENDBRANCH   9  10
ENDBRANCH   5   9
ENDBRANCH   2   4
ENDBRANCH   1   2
BRANCH   1  21
ATOM     21  C   UNL A   1      33.273  34.035  28.023  1.00  0.00     0.275 C 
BRANCH  21  22
ATOM     22  C   UNL A   1      34.108  32.841  28.495  1.00  0.00     0.275 C 
BRANCH  22  23
ATOM     23  O   UNL A   1      34.601  32.044  27.401  1.00  0.00    -0.458 OA
BRANCH  23  24
ATOM     24  C   UNL A   1      34.622  30.710  27.631  1.00  0.00     0.338 C 
ATOM     25  O   UNL A   1      33.788  29.889  27.283  1.00  0.00    -0.246 OA
BRANCH  24  26
ATOM     26  C   UNL A   1      35.883  30.323  28.285  1.00  0.00     0.060 A 
ATOM     27  C   UNL A   1      37.069  30.500  27.571  1.00  0.00     0.016 A 
ATOM     28  C   UNL A   1      35.894  29.684  29.527  1.00  0.00     0.016 A 
ATOM     29  C   UNL A   1      38.273  30.027  28.088  1.00  0.00     0.010 A 
ATOM     30  C   UNL A   1      37.109  29.217  30.049  1.00  0.00     0.010 A 
ATOM     31  C   UNL A   1      38.306  29.370  29.326  1.00  0.00    -0.014 A 
BRANCH  31  32
ATOM     32  C   UNL A   1      39.586  28.800  29.826  1.00  0.00     0.031 A 
ATOM     33  C   UNL A   1      40.228  29.354  31.068  1.00  0.00     0.074 A 
ATOM     34  C   UNL A   1      40.158  27.758  29.192  1.00  0.00     0.049 A 
ATOM     35  N   UNL A   1      41.381  29.053  31.610  1.00  0.00    -0.248 NA
ATOM     36  C   UNL A   1      39.474  30.387  31.794  1.00  0.00     0.031 C 
ATOM     37  C   UNL A   1      39.619  27.092  28.007  1.00  0.00     0.029 A 
ATOM     38  N   UNL A   1      41.316  27.073  29.464  1.00  0.00    -0.354 N 
ATOM     39  C   UNL A   1      41.507  29.879  32.721  1.00  0.00     0.074 A 
ATOM     40  C   UNL A   1      40.315  30.700  32.769  1.00  0.00     0.031 C 
ATOM     41  C   UNL A   1      40.436  26.083  27.664  1.00  0.00     0.029 A 
ATOM     42  C   UNL A   1      41.580  26.064  28.570  1.00  0.00     0.049 A 
ATOM     43  H   UNL A   1      41.901  27.284  30.227  1.00  0.00     0.167 HD
ATOM     44  C   UNL A   1      42.519  29.944  33.618  1.00  0.00     0.037 A 
ATOM     45  C   UNL A   1      42.639  25.236  28.472  1.00  0.00     0.037 A 
ATOM     46  C   UNL A   1      43.689  29.103  33.596  1.00  0.00     0.049 A 
ATOM     47  C   UNL A   1      43.768  25.355  29.457  1.00  0.00     0.074 A 
ATOM     48  C   UNL A   1      44.761  29.091  34.472  1.00  0.00     0.029 A 
ATOM     49  N   UNL A   1      43.934  28.118  32.651  1.00  0.00    -0.354 N 
ATOM     50  N   UNL A   1      43.889  26.162  30.482  1.00  0.00    -0.248 NA
ATOM     51  C   UNL A   1      44.916  24.457  29.261  1.00  0.00     0.031 C 
ATOM     52  C   UNL A   1      45.672  28.121  34.039  1.00  0.00     0.029 A 
ATOM     53  C   UNL A   1      45.147  27.503  32.916  1.00  0.00     0.049 A 
ATOM     54  H   UNL A   1      43.336  27.890  31.903  1.00  0.00     0.167 HD
ATOM     55  C   UNL A   1      45.116  25.861  31.060  1.00  0.00     0.074 A 
ATOM     56  C   UNL A   1      45.694  24.786  30.282  1.00  0.00     0.031 C 
ATOM     57  C   UNL A   1      45.712  26.431  32.136  1.00  0.00     0.037 A 
BRANCH  44  58
ATOM     58  C   UNL A   1      42.423  30.987  34.692  1.00  0.00     0.057 A 
ATOM     59  C   UNL A   1      41.889  30.707  35.956  1.00  0.00     0.134 A 
ATOM     60  C   UNL A   1      42.906  32.283  34.468  1.00  0.00     0.134 A 
ATOM     61  F   UNL A   1      41.399  29.489  36.231  1.00  0.00    -0.206 F 
ATOM     62  C   UNL A   1      41.820  31.684  36.951  1.00  0.00     0.040 A 
ATOM     63  C   UNL A   1      42.864  33.262  35.462  1.00  0.00     0.040 A 
ATOM     64  F   UNL A   1      43.437  32.616  33.281  1.00  0.00    -0.206 F 
ATOM     65  C   UNL A   1      42.315  32.964  36.707  1.00  0.00     0.006 A 
ENDBRANCH  44  58
BRANCH  45  66
ATOM     66  C   UNL A   1      42.694  24.235  27.378  1.00  0.00     0.057 A 
ATOM     67  C   UNL A   1      42.209  22.935  27.560  1.00  0.00     0.134 A 
ATOM     68  C   UNL A   1      43.240  24.552  26.129  1.00  0.00     0.134 A 
ATOM     69  F   UNL A   1      41.700  22.564  28.743  1.00  0.00    -0.206 F 
ATOM     70  C   UNL A   1      42.272  21.983  26.541  1.00  0.00     0.040 A 
ATOM     71  C   UNL A   1      43.286  23.619  25.092  1.00  0.00     0.040 A 
ATOM     72  F   UNL A   1      43.725  25.780  25.893  1.00  0.00    -0.206 F 
ATOM     73  C   UNL A   1      42.805  22.328  25.300  1.00  0.00     0.006 A 
ENDBRANCH  45  66
BRANCH  57  74
ATOM     74  C   UNL A   1      47.046  25.884  32.550  1.00  0.00     0.057 A 
ATOM     75  C   UNL A   1      48.238  26.342  31.975  1.00  0.00     0.134 A 
ATOM     76  C   UNL A   1      47.140  24.914  33.553  1.00  0.00     0.134 A 
ATOM     77  F   UNL A   1      48.215  27.262  30.999  1.00  0.00    -0.206 F 
ATOM     78  C   UNL A   1      49.478  25.837  32.372  1.00  0.00     0.040 A 
ATOM     79  C   UNL A   1      48.374  24.416  33.973  1.00  0.00     0.040 A 
ATOM     80  F   UNL A   1      46.035  24.438  34.147  1.00  0.00    -0.206 F 
ATOM     81  C   UNL A   1      49.548  24.875  33.379  1.00  0.00     0.006 A 
ENDBRANCH  57  74
ENDBRANCH  31  32
ENDBRANCH  24  26
ENDBRANCH  23  24
ENDBRANCH  22  23
ENDBRANCH  21  22
ENDBRANCH   1  21
TORSDOF 16
ENDMDL
MODEL 2
REMARK VINA RESULT:      -9.5      3.671      7.002
REMARK SMILES C[C@H](Cc1ccco1)[NH2+]Cc1cc(C(=O)OCCOC(=O)c2ccc(-c3c4nc(c(-c5c(F)cccc5F)c5ccc([nH]5)c(-c5c(F)cccc5F)c5nc(c(-c6c(F)cccc6F)c6ccc3[nH]6)C=C5)C=C4)cc2)cs1
REMARK SMILES IDX 16 1 14 2 15 3 13 4 11 5 12 6 77 7 76 8 10 9 9 10 2 13 1 14
REMARK SMILES IDX 3 15 4 16 5 17 8 18 6 19 7 20 17 21 18 22 19 23 20 24 21 25
REMARK SMILES IDX 22 26 23 27 75 28 24 29 74 30 25 31 26 32 27 33 68 34 28 35
REMARK SMILES IDX 73 36 67 37 69 38 29 39 72 40 66 41 65 42 30 44 56 45 39 46
REMARK SMILES IDX 55 47 40 48 43 49 54 50 70 51 41 52 42 53 53 55 71 56 44 57
REMARK SMILES IDX 31 58 32 59 37 60 33 61 34 62 36 63 38 64 35 65 57 66 58 67
REMARK SMILES IDX 63 68 59 69 60 70 62 71 64 72 61 73 45 74 46 75 51 76 47 77
REMARK SMILES IDX 48 78 50 79 52 80 49 81
REMARK H PARENT 9 11 9 12 69 43 43 54
REMARK Flexibility Score: inf
ROOT
ATOM      1  O   UNL A   1      33.516  33.807  28.799  1.00  0.00    -0.458 OA
ENDROOT
BRANCH   1   2
ATOM      2  C   UNL A   1      34.559  32.979  28.494  1.00  0.00     0.339 C 
ATOM      3  O   UNL A   1      35.731  33.233  28.730  1.00  0.00    -0.246 OA
BRANCH   2   4
ATOM      4  C   UNL A   1      34.148  31.728  27.857  1.00  0.00     0.071 A 
ATOM      5  C   UNL A   1      32.863  30.098  26.730  1.00  0.00     0.060 A 
ATOM      6  C   UNL A   1      32.900  31.394  27.225  1.00  0.00     0.037 A 
ATOM      7  S   UNL A   1      34.370  29.314  26.984  1.00  0.00    -0.142 S 
ATOM      8  C   UNL A   1      35.009  30.646  27.816  1.00  0.00     0.081 A 
BRANCH   5   9
ATOM      9  C   UNL A   1      31.730  29.413  25.995  1.00  0.00     0.308 C 
BRANCH   9  10
ATOM     10  N   UNL A   1      31.615  29.779  24.580  1.00  0.00    -0.339 N 
ATOM     11  H   UNL A   1      30.632  29.972  24.390  1.00  0.00     0.346 HD
ATOM     12  H   UNL A   1      32.237  30.579  24.459  1.00  0.00     0.346 HD
BRANCH  10  13
ATOM     13  C   UNL A   1      32.072  28.780  23.601  1.00  0.00     0.187 C 
ATOM     14  C   UNL A   1      33.521  28.922  23.122  1.00  0.00     0.075 C 
BRANCH  13  15
ATOM     15  C   UNL A   1      31.086  28.694  22.404  1.00  0.00     0.140 C 
BRANCH  15  16
ATOM     16  C   UNL A   1      29.699  29.198  22.650  1.00  0.00     0.109 A 
ATOM     17  C   UNL A   1      28.497  28.623  23.012  1.00  0.00     0.046 A 
ATOM     18  O   UNL A   1      29.511  30.534  22.429  1.00  0.00    -0.469 OA
ATOM     19  C   UNL A   1      27.539  29.665  23.052  1.00  0.00     0.042 A 
ATOM     20  C   UNL A   1      28.202  30.805  22.669  1.00  0.00     0.195 A 
ENDBRANCH  15  16
ENDBRANCH  13  15
ENDBRANCH  10  13
ENDBRANCH   9  10
ENDBRANCH   5   9
ENDBRANCH   2   4
ENDBRANCH   1   2
BRANCH   1  21
ATOM     21  C   UNL A   1      33.816  35.212  28.708  1.00  0.00     0.275 C 
BRANCH  21  22
ATOM     22  C   UNL A   1      32.937  36.056  29.637  1.00  0.00     0.275 C 
BRANCH  22  23
ATOM     23  O   UNL A   1      32.372  35.285  30.715  1.00  0.00    -0.458 OA
BRANCH  23  24
ATOM     24  C   UNL A   1      32.669  35.736  31.957  1.00  0.00     0.338 C 
ATOM     25  O   UNL A   1      32.044  36.554  32.612  1.00  0.00    -0.246 OA
BRANCH  24  26
ATOM     26  C   UNL A   1      33.829  35.011  32.501  1.00  0.00     0.060 A 
ATOM     27  C   UNL A   1      35.087  35.598  32.364  1.00  0.00     0.016 A 
ATOM     28  C   UNL A   1      33.703  33.722  33.025  1.00  0.00     0.016 A 
ATOM     29  C   UNL A   1      36.231  34.896  32.738  1.00  0.00     0.010 A 
ATOM     30  C   UNL A   1      34.855  33.021  33.409  1.00  0.00     0.010 A 
ATOM     31  C   UNL A   1      36.130  33.596  33.254  1.00  0.00    -0.014 A 
BRANCH  31  32
ATOM     32  C   UNL A   1      37.365  32.829  33.573  1.00  0.00     0.031 A 
ATOM     33  C   UNL A   1      38.083  33.059  34.874  1.00  0.00     0.074 A 
ATOM     34  C   UNL A   1      37.825  31.898  32.716  1.00  0.00     0.049 A 
ATOM     35  N   UNL A   1      39.217  32.558  35.294  1.00  0.00    -0.248 NA
ATOM     36  C   UNL A   1      37.442  33.979  35.827  1.00  0.00     0.031 C 
ATOM     37  C   UNL A   1      37.201  31.539  31.443  1.00  0.00     0.029 A 
ATOM     38  N   UNL A   1      38.923  31.077  32.793  1.00  0.00    -0.354 N 
ATOM     39  C   UNL A   1      39.442  33.121  36.545  1.00  0.00     0.074 A 
ATOM     40  C   UNL A   1      38.331  34.011  36.809  1.00  0.00     0.031 C 
ATOM     41  C   UNL A   1      37.915  30.558  30.868  1.00  0.00     0.029 A 
ATOM     42  C   UNL A   1      39.074  30.257  31.702  1.00  0.00     0.049 A 
ATOM     43  H   UNL A   1      39.543  31.077  33.559  1.00  0.00     0.167 HD
ATOM     44  C   UNL A   1      40.477  32.915  37.393  1.00  0.00     0.037 A 
ATOM     45  C   UNL A   1      40.051  29.382  31.393  1.00  0.00     0.037 A 
ATOM     46  C   UNL A   1      41.566  32.003  37.151  1.00  0.00     0.049 A 
ATOM     47  C   UNL A   1      41.209  29.199  32.333  1.00  0.00     0.074 A 
ATOM     48  C   UNL A   1      42.653  31.720  37.960  1.00  0.00     0.029 A 
ATOM     49  N   UNL A   1      41.699  31.217  36.015  1.00  0.00    -0.354 N 
ATOM     50  N   UNL A   1      41.427  29.764  33.496  1.00  0.00    -0.248 NA
ATOM     51  C   UNL A   1      42.267  28.270  31.911  1.00  0.00     0.031 C 
ATOM     52  C   UNL A   1      43.462  30.788  37.300  1.00  0.00     0.029 A 
ATOM     53  C   UNL A   1      42.858  30.462  36.098  1.00  0.00     0.049 A 
ATOM     54  H   UNL A   1      41.065  31.200  35.262  1.00  0.00     0.167 HD
ATOM     55  C   UNL A   1      42.635  29.249  33.949  1.00  0.00     0.074 A 
ATOM     56  C   UNL A   1      43.095  28.314  32.944  1.00  0.00     0.031 C 
ATOM     57  C   UNL A   1      43.305  29.532  35.093  1.00  0.00     0.037 A 
BRANCH  44  58
ATOM     58  C   UNL A   1      40.501  33.717  38.661  1.00  0.00     0.057 A 
ATOM     59  C   UNL A   1      39.777  33.335  39.797  1.00  0.00     0.134 A 
ATOM     60  C   UNL A   1      41.291  34.871  38.756  1.00  0.00     0.134 A 
ATOM     61  F   UNL A   1      38.992  32.248  39.768  1.00  0.00    -0.206 F 
ATOM     62  C   UNL A   1      39.820  34.084  40.975  1.00  0.00     0.040 A 
ATOM     63  C   UNL A   1      41.361  35.614  39.935  1.00  0.00     0.040 A 
ATOM     64  F   UNL A   1      42.016  35.287  37.706  1.00  0.00    -0.206 F 
ATOM     65  C   UNL A   1      40.620  35.223  41.048  1.00  0.00     0.006 A 
ENDBRANCH  44  58
BRANCH  45  66
ATOM     66  C   UNL A   1      39.990  28.628  30.117  1.00  0.00     0.057 A 
ATOM     67  C   UNL A   1      40.626  29.102  28.963  1.00  0.00     0.134 A 
ATOM     68  C   UNL A   1      39.289  27.420  30.019  1.00  0.00     0.134 A 
ATOM     69  F   UNL A   1      41.289  30.266  28.988  1.00  0.00    -0.206 F 
ATOM     70  C   UNL A   1      40.559  28.406  27.755  1.00  0.00     0.040 A 
ATOM     71  C   UNL A   1      39.235  26.700  28.825  1.00  0.00     0.040 A 
ATOM     72  F   UNL A   1      38.656  26.915  31.088  1.00  0.00    -0.206 F 
ATOM     73  C   UNL A   1      39.868  27.196  27.687  1.00  0.00     0.006 A 
ENDBRANCH  45  66
BRANCH  57  74
ATOM     74  C   UNL A   1      44.594  28.802  35.330  1.00  0.00     0.057 A 
ATOM     75  C   UNL A   1      45.827  29.347  34.954  1.00  0.00     0.134 A 
ATOM     76  C   UNL A   1      44.602  27.557  35.968  1.00  0.00     0.134 A 
ATOM     77  F   UNL A   1      45.886  30.532  34.326  1.00  0.00    -0.206 F 
ATOM     78  C   UNL A   1      47.025  28.668  35.187  1.00  0.00     0.040 A 
ATOM     79  C   UNL A   1      45.794  26.877  36.225  1.00  0.00     0.040 A 
ATOM     80  F   UNL A   1      43.454  26.983  36.358  1.00  0.00    -0.206 F 
ATOM     81  C   UNL A   1      47.009  27.431  35.831  1.00  0.00     0.006 A 
ENDBRANCH  57  74
ENDBRANCH  31  32
ENDBRANCH  24  26
ENDBRANCH  23  24
ENDBRANCH  22  23
ENDBRANCH  21  22
ENDBRANCH   1  21
TORSDOF 16
ENDMDL
MODEL 3
REMARK VINA RESULT:      -9.4      4.775      7.025
REMARK SMILES C[C@H](Cc1ccco1)[NH2+]Cc1cc(C(=O)OCCOC(=O)c2ccc(-c3c4nc(c(-c5c(F)cccc5F)c5ccc([nH]5)c(-c5c(F)cccc5F)c5nc(c(-c6c(F)cccc6F)c6ccc3[nH]6)C=C5)C=C4)cc2)cs1
REMARK SMILES IDX 16 1 14 2 15 3 13 4 11 5 12 6 77 7 76 8 10 9 9 10 2 13 1 14
REMARK SMILES IDX 3 15 4 16 5 17 8 18 6 19 7 20 17 21 18 22 19 23 20 24 21 25
REMARK SMILES IDX 22 26 23 27 75 28 24 29 74 30 25 31 26 32 27 33 68 34 28 35
REMARK SMILES IDX 73 36 67 37 69 38 29 39 72 40 66 41 65 42 30 44 56 45 39 46
REMARK SMILES IDX 55 47 40 48 43 49 54 50 70 51 41 52 42 53 53 55 71 56 44 57
REMARK SMILES IDX 31 58 32 59 37 60 33 61 34 62 36 63 38 64 35 65 57 66 58 67
REMARK SMILES IDX 63 68 59 69 60 70 62 71 64 72 61 73 45 74 46 75 51 76 47 77
REMARK SMILES IDX 48 78 50 79 52 80 49 81
REMARK H PARENT 9 11 9 12 69 43 43 54
REMARK Flexibility Score: inf
ROOT
ATOM      1  O   UNL A   1      34.070  32.852  29.599  1.00  0.00    -0.458 OA
ENDROOT
BRANCH   1   2
ATOM      2  C   UNL A   1      34.369  32.755  28.269  1.00  0.00     0.339 C 
ATOM      3  O   UNL A   1      34.875  33.652  27.612  1.00  0.00    -0.246 OA
BRANCH   2   4
ATOM      4  C   UNL A   1      34.036  31.456  27.686  1.00  0.00     0.071 A 
ATOM      5  C   UNL A   1      32.859  29.708  26.620  1.00  0.00     0.060 A 
ATOM      6  C   UNL A   1      32.818  31.025  27.054  1.00  0.00     0.037 A 
ATOM      7  S   UNL A   1      34.402  29.021  26.929  1.00  0.00    -0.142 S 
ATOM      8  C   UNL A   1      34.956  30.423  27.706  1.00  0.00     0.081 A 
BRANCH   5   9
ATOM      9  C   UNL A   1      31.777  28.928  25.903  1.00  0.00     0.308 C 
BRANCH   9  10
ATOM     10  N   UNL A   1      31.137  29.651  24.800  1.00  0.00    -0.339 N 
ATOM     11  H   UNL A   1      30.310  30.117  25.173  1.00  0.00     0.346 HD
ATOM     12  H   UNL A   1      31.855  30.282  24.441  1.00  0.00     0.346 HD
BRANCH  10  13
ATOM     13  C   UNL A   1      30.714  28.847  23.642  1.00  0.00     0.187 C 
ATOM     14  C   UNL A   1      31.599  28.947  22.394  1.00  0.00     0.075 C 
BRANCH  13  15
ATOM     15  C   UNL A   1      29.222  29.119  23.302  1.00  0.00     0.140 C 
BRANCH  15  16
ATOM     16  C   UNL A   1      28.905  30.468  22.740  1.00  0.00     0.109 A 
ATOM     17  C   UNL A   1      28.506  30.947  21.508  1.00  0.00     0.046 A 
ATOM     18  O   UNL A   1      29.083  31.520  23.596  1.00  0.00    -0.469 OA
ATOM     19  C   UNL A   1      28.399  32.354  21.629  1.00  0.00     0.042 A 
ATOM     20  C   UNL A   1      28.781  32.654  22.914  1.00  0.00     0.195 A 
ENDBRANCH  15  16
ENDBRANCH  13  15
ENDBRANCH  10  13
ENDBRANCH   9  10
ENDBRANCH   5   9
ENDBRANCH   2   4
ENDBRANCH   1   2
BRANCH   1  21
ATOM     21  C   UNL A   1      34.102  34.191  30.128  1.00  0.00     0.275 C 
BRANCH  21  22
ATOM     22  C   UNL A   1      34.599  34.232  31.576  1.00  0.00     0.275 C 
BRANCH  22  23
ATOM     23  O   UNL A   1      35.998  33.908  31.691  1.00  0.00    -0.458 OA
BRANCH  23  24
ATOM     24  C   UNL A   1      36.263  32.730  32.301  1.00  0.00     0.338 C 
ATOM     25  O   UNL A   1      35.676  32.245  33.254  1.00  0.00    -0.246 OA
BRANCH  24  26
ATOM     26  C   UNL A   1      37.325  32.008  31.580  1.00  0.00     0.060 A 
ATOM     27  C   UNL A   1      38.313  31.376  32.337  1.00  0.00     0.016 A 
ATOM     28  C   UNL A   1      37.422  32.054  30.187  1.00  0.00     0.016 A 
ATOM     29  C   UNL A   1      39.412  30.795  31.707  1.00  0.00     0.010 A 
ATOM     30  C   UNL A   1      38.525  31.461  29.555  1.00  0.00     0.010 A 
ATOM     31  C   UNL A   1      39.537  30.841  30.311  1.00  0.00    -0.014 A 
BRANCH  31  32
ATOM     32  C   UNL A   1      40.755  30.289  29.660  1.00  0.00     0.031 A 
ATOM     33  C   UNL A   1      41.969  31.156  29.467  1.00  0.00     0.074 A 
ATOM     34  C   UNL A   1      40.794  28.999  29.276  1.00  0.00     0.049 A 
ATOM     35  N   UNL A   1      43.090  30.887  28.846  1.00  0.00    -0.248 NA
ATOM     36  C   UNL A   1      41.912  32.507  30.046  1.00  0.00     0.031 C 
ATOM     37  C   UNL A   1      39.708  28.034  29.447  1.00  0.00     0.029 A 
ATOM     38  N   UNL A   1      41.791  28.276  28.669  1.00  0.00    -0.354 N 
ATOM     39  C   UNL A   1      43.859  32.041  28.932  1.00  0.00     0.074 A 
ATOM     40  C   UNL A   1      43.071  33.016  29.657  1.00  0.00     0.031 C 
ATOM     41  C   UNL A   1      40.105  26.842  28.972  1.00  0.00     0.029 A 
ATOM     42  C   UNL A   1      41.448  26.970  28.417  1.00  0.00     0.049 A 
ATOM     43  H   UNL A   1      42.669  28.658  28.437  1.00  0.00     0.167 HD
ATOM     44  C   UNL A   1      45.106  32.266  28.453  1.00  0.00     0.037 A 
ATOM     45  C   UNL A   1      42.127  25.994  27.783  1.00  0.00     0.037 A 
ATOM     46  C   UNL A   1      45.907  31.287  27.764  1.00  0.00     0.049 A 
ATOM     47  C   UNL A   1      43.494  26.280  27.226  1.00  0.00     0.074 A 
ATOM     48  C   UNL A   1      47.187  31.423  27.253  1.00  0.00     0.029 A 
ATOM     49  N   UNL A   1      45.508  29.986  27.498  1.00  0.00    -0.354 N 
ATOM     50  N   UNL A   1      44.195  27.385  27.285  1.00  0.00    -0.248 NA
ATOM     51  C   UNL A   1      44.156  25.186  26.501  1.00  0.00     0.031 C 
ATOM     52  C   UNL A   1      47.550  30.214  26.649  1.00  0.00     0.029 A 
ATOM     53  C   UNL A   1      46.511  29.314  26.818  1.00  0.00     0.049 A 
ATOM     54  H   UNL A   1      44.640  29.597  27.753  1.00  0.00     0.167 HD
ATOM     55  C   UNL A   1      45.384  27.117  26.618  1.00  0.00     0.074 A 
ATOM     56  C   UNL A   1      45.317  25.739  26.179  1.00  0.00     0.031 C 
ATOM     57  C   UNL A   1      46.434  27.942  26.387  1.00  0.00     0.037 A 
BRANCH  44  58
ATOM     58  C   UNL A   1      45.675  33.643  28.631  1.00  0.00     0.057 A 
ATOM     59  C   UNL A   1      46.460  33.986  29.739  1.00  0.00     0.134 A 
ATOM     60  C   UNL A   1      45.464  34.629  27.658  1.00  0.00     0.134 A 
ATOM     61  F   UNL A   1      46.690  33.091  30.711  1.00  0.00    -0.206 F 
ATOM     62  C   UNL A   1      46.996  35.267  29.883  1.00  0.00     0.040 A 
ATOM     63  C   UNL A   1      46.014  35.906  27.780  1.00  0.00     0.040 A 
ATOM     64  F   UNL A   1      44.728  34.363  26.568  1.00  0.00    -0.206 F 
ATOM     65  C   UNL A   1      46.779  36.229  28.898  1.00  0.00     0.006 A 
ENDBRANCH  44  58
BRANCH  45  66
ATOM     66  C   UNL A   1      41.510  24.655  27.617  1.00  0.00     0.057 A 
ATOM     67  C   UNL A   1      40.512  24.430  26.661  1.00  0.00     0.134 A 
ATOM     68  C   UNL A   1      41.898  23.571  28.413  1.00  0.00     0.134 A 
ATOM     69  F   UNL A   1      40.079  25.435  25.888  1.00  0.00    -0.206 F 
ATOM     70  C   UNL A   1      39.916  23.177  26.510  1.00  0.00     0.040 A 
ATOM     71  C   UNL A   1      41.330  22.307  28.256  1.00  0.00     0.040 A 
ATOM     72  F   UNL A   1      42.848  23.723  29.348  1.00  0.00    -0.206 F 
ATOM     73  C   UNL A   1      40.331  22.108  27.304  1.00  0.00     0.006 A 
ENDBRANCH  45  66
BRANCH  57  74
ATOM     74  C   UNL A   1      47.605  27.368  25.646  1.00  0.00     0.057 A 
ATOM     75  C   UNL A   1      47.696  27.434  24.250  1.00  0.00     0.134 A 
ATOM     76  C   UNL A   1      48.666  26.773  26.338  1.00  0.00     0.134 A 
ATOM     77  F   UNL A   1      46.706  27.980  23.528  1.00  0.00    -0.206 F 
ATOM     78  C   UNL A   1      48.794  26.907  23.567  1.00  0.00     0.040 A 
ATOM     79  C   UNL A   1      49.779  26.262  25.668  1.00  0.00     0.040 A 
ATOM     80  F   UNL A   1      48.642  26.685  27.676  1.00  0.00    -0.206 F 
ATOM     81  C   UNL A   1      49.842  26.325  24.278  1.00  0.00     0.006 A 
ENDBRANCH  57  74
ENDBRANCH  31  32
ENDBRANCH  24  26
ENDBRANCH  23  24
ENDBRANCH  22  23
ENDBRANCH  21  22
ENDBRANCH   1  21
TORSDOF 16
ENDMDL
