MODEL 1
REMARK VINA RESULT:     -11.7      0.000      0.000
REMARK SMILES O=C(C[C@@H]1C(=O)NCC[N@@H+]1Cc1ccc(F)c(F)c1)OCCOC(=O)c1ccc(-c2c3nc(c(-c4c(F)cccc4F)c4ccc([nH]4)c(-c4c(F)cccc4F)c4nc(c(-c5c(F)cccc5F)c5ccc2[nH]5)C=C4)C=C3)cc1
REMARK SMILES IDX 21 1 20 2 2 3 1 4 3 5 4 6 5 7 10 8 6 9 7 10 9 11 8 13 11 15
REMARK SMILES IDX 12 16 13 17 19 18 14 19 17 20 15 21 18 22 16 23 22 24 23 25
REMARK SMILES IDX 24 26 25 27 26 28 27 29 79 30 28 31 78 32 29 33 30 34 31 35
REMARK SMILES IDX 72 36 32 37 77 38 71 39 73 40 33 41 76 42 70 43 69 44 34 46
REMARK SMILES IDX 60 47 43 48 59 49 44 50 47 51 58 52 74 53 45 54 46 55 57 57
REMARK SMILES IDX 75 58 48 59 35 60 36 61 41 62 37 63 38 64 40 65 42 66 39 67
REMARK SMILES IDX 61 68 62 69 67 70 63 71 64 72 66 73 68 74 65 75 49 76 50 77
REMARK SMILES IDX 55 78 51 79 52 80 54 81 56 82 53 83
REMARK H PARENT 10 12 7 14 73 45 47 56
REMARK Flexibility Score: inf
ROOT
ATOM      1  C   UNL A   1      31.759  30.874  26.306  1.00  0.00     0.274 C 
ENDROOT
BRANCH   1   2
ATOM      2  O   UNL A   1      31.932  29.832  27.288  1.00  0.00    -0.462 OA
BRANCH   2   3
ATOM      3  C   UNL A   1      31.703  28.517  27.086  1.00  0.00     0.312 C 
ATOM      4  O   UNL A   1      31.090  27.854  27.920  1.00  0.00    -0.252 OA
BRANCH   3   5
ATOM      5  C   UNL A   1      32.308  27.842  25.883  1.00  0.00     0.198 C 
BRANCH   5   6
ATOM      6  C   UNL A   1      32.056  26.355  25.665  1.00  0.00     0.285 C 
ATOM      7  C   UNL A   1      33.268  25.425  25.465  1.00  0.00     0.279 C 
ATOM      8  N   UNL A   1      30.943  26.083  24.712  1.00  0.00    -0.319 N 
ATOM      9  O   UNL A   1      34.413  25.707  25.802  1.00  0.00    -0.268 OA
ATOM     10  N   UNL A   1      33.000  24.144  25.058  1.00  0.00    -0.345 N 
ATOM     11  C   UNL A   1      30.561  24.669  24.750  1.00  0.00     0.284 C 
ATOM     12  H   UNL A   1      30.165  26.632  25.076  1.00  0.00     0.349 HD
ATOM     13  C   UNL A   1      31.712  23.665  24.606  1.00  0.00     0.177 C 
ATOM     14  H   UNL A   1      33.743  23.498  25.075  1.00  0.00     0.163 HD
BRANCH   8  15
ATOM     15  C   UNL A   1      30.994  26.692  23.377  1.00  0.00     0.299 C 
BRANCH  15  16
ATOM     16  C   UNL A   1      30.016  27.793  23.040  1.00  0.00     0.009 A 
ATOM     17  C   UNL A   1      30.439  28.956  22.377  1.00  0.00     0.013 A 
ATOM     18  C   UNL A   1      28.649  27.661  23.342  1.00  0.00     0.052 A 
ATOM     19  C   UNL A   1      29.541  29.990  22.100  1.00  0.00     0.043 A 
ATOM     20  C   UNL A   1      27.755  28.687  23.049  1.00  0.00     0.159 A 
ATOM     21  C   UNL A   1      28.203  29.853  22.448  1.00  0.00     0.158 A 
ATOM     22  F   UNL A   1      26.455  28.530  23.335  1.00  0.00    -0.204 F 
ATOM     23  F   UNL A   1      27.347  30.846  22.173  1.00  0.00    -0.204 F 
ENDBRANCH  15  16
ENDBRANCH   8  15
ENDBRANCH   5   6
ENDBRANCH   3   5
ENDBRANCH   2   3
ENDBRANCH   1   2
BRANCH   1  24
ATOM     24  C   UNL A   1      31.552  32.239  26.970  1.00  0.00     0.275 C 
BRANCH  24  25
ATOM     25  O   UNL A   1      32.714  33.073  26.784  1.00  0.00    -0.458 OA
BRANCH  25  26
ATOM     26  C   UNL A   1      33.184  33.699  27.894  1.00  0.00     0.338 C 
ATOM     27  O   UNL A   1      32.615  34.560  28.537  1.00  0.00    -0.246 OA
BRANCH  26  28
ATOM     28  C   UNL A   1      34.448  33.053  28.329  1.00  0.00     0.060 A 
ATOM     29  C   UNL A   1      34.440  31.667  28.537  1.00  0.00     0.016 A 
ATOM     30  C   UNL A   1      35.634  33.775  28.511  1.00  0.00     0.016 A 
ATOM     31  C   UNL A   1      35.598  31.010  28.962  1.00  0.00     0.010 A 
ATOM     32  C   UNL A   1      36.792  33.118  28.943  1.00  0.00     0.010 A 
ATOM     33  C   UNL A   1      36.773  31.737  29.199  1.00  0.00    -0.014 A 
BRANCH  33  34
ATOM     34  C   UNL A   1      37.923  31.084  29.874  1.00  0.00     0.031 A 
ATOM     35  C   UNL A   1      38.200  31.420  31.313  1.00  0.00     0.074 A 
ATOM     36  C   UNL A   1      38.704  30.193  29.236  1.00  0.00     0.049 A 
ATOM     37  N   UNL A   1      39.131  30.958  32.109  1.00  0.00    -0.248 NA
ATOM     38  C   UNL A   1      37.310  32.413  31.935  1.00  0.00     0.031 C 
ATOM     39  C   UNL A   1      38.545  29.770  27.850  1.00  0.00     0.029 A 
ATOM     40  N   UNL A   1      39.796  29.487  29.679  1.00  0.00    -0.354 N 
ATOM     41  C   UNL A   1      38.923  31.585  33.331  1.00  0.00     0.074 A 
ATOM     42  C   UNL A   1      37.811  32.495  33.157  1.00  0.00     0.031 C 
ATOM     43  C   UNL A   1      39.505  28.877  27.549  1.00  0.00     0.029 A 
ATOM     44  C   UNL A   1      40.358  28.680  28.721  1.00  0.00     0.049 A 
ATOM     45  H   UNL A   1      40.143  29.553  30.598  1.00  0.00     0.167 HD
ATOM     46  C   UNL A   1      39.586  31.408  34.498  1.00  0.00     0.037 A 
ATOM     47  C   UNL A   1      41.442  27.881  28.781  1.00  0.00     0.037 A 
ATOM     48  C   UNL A   1      40.707  30.528  34.676  1.00  0.00     0.049 A 
ATOM     49  C   UNL A   1      42.211  27.762  30.069  1.00  0.00     0.074 A 
ATOM     50  C   UNL A   1      41.444  30.288  35.824  1.00  0.00     0.029 A 
ATOM     51  N   UNL A   1      41.263  29.748  33.674  1.00  0.00    -0.354 N 
ATOM     52  N   UNL A   1      41.977  28.325  31.230  1.00  0.00    -0.248 NA
ATOM     53  C   UNL A   1      43.396  26.888  30.058  1.00  0.00     0.031 C 
ATOM     54  C   UNL A   1      42.469  29.389  35.507  1.00  0.00     0.029 A 
ATOM     55  C   UNL A   1      42.345  29.042  34.171  1.00  0.00     0.049 A 
ATOM     56  H   UNL A   1      40.937  29.703  32.746  1.00  0.00     0.167 HD
ATOM     57  C   UNL A   1      42.961  27.851  32.090  1.00  0.00     0.074 A 
ATOM     58  C   UNL A   1      43.791  26.949  31.322  1.00  0.00     0.031 C 
ATOM     59  C   UNL A   1      43.156  28.136  33.401  1.00  0.00     0.037 A 
BRANCH  46  60
ATOM     60  C   UNL A   1      39.107  32.201  35.676  1.00  0.00     0.057 A 
ATOM     61  C   UNL A   1      38.233  31.646  36.620  1.00  0.00     0.134 A 
ATOM     62  C   UNL A   1      39.532  33.518  35.877  1.00  0.00     0.134 A 
ATOM     63  F   UNL A   1      37.777  30.394  36.470  1.00  0.00    -0.206 F 
ATOM     64  C   UNL A   1      37.781  32.384  37.714  1.00  0.00     0.040 A 
ATOM     65  C   UNL A   1      39.103  34.260  36.979  1.00  0.00     0.040 A 
ATOM     66  F   UNL A   1      40.368  34.106  35.007  1.00  0.00    -0.206 F 
ATOM     67  C   UNL A   1      38.221  33.694  37.898  1.00  0.00     0.006 A 
ENDBRANCH  46  60
BRANCH  47  68
ATOM     68  C   UNL A   1      41.880  27.121  27.583  1.00  0.00     0.057 A 
ATOM     69  C   UNL A   1      42.690  27.713  26.607  1.00  0.00     0.134 A 
ATOM     70  C   UNL A   1      41.453  25.808  27.358  1.00  0.00     0.134 A 
ATOM     71  F   UNL A   1      43.107  28.980  26.754  1.00  0.00    -0.206 F 
ATOM     72  C   UNL A   1      43.042  27.034  25.439  1.00  0.00     0.040 A 
ATOM     73  C   UNL A   1      41.813  25.109  26.205  1.00  0.00     0.040 A 
ATOM     74  F   UNL A   1      40.674  25.186  28.256  1.00  0.00    -0.206 F 
ATOM     75  C   UNL A   1      42.603  25.727  25.236  1.00  0.00     0.006 A 
ENDBRANCH  47  68
BRANCH  59  76
ATOM     76  C   UNL A   1      44.285  27.437  34.098  1.00  0.00     0.057 A 
ATOM     77  C   UNL A   1      44.134  26.161  34.654  1.00  0.00     0.134 A 
ATOM     78  C   UNL A   1      45.551  28.033  34.177  1.00  0.00     0.134 A 
ATOM     79  F   UNL A   1      42.944  25.543  34.623  1.00  0.00    -0.206 F 
ATOM     80  C   UNL A   1      45.198  25.510  35.282  1.00  0.00     0.040 A 
ATOM     81  C   UNL A   1      46.627  27.382  34.781  1.00  0.00     0.040 A 
ATOM     82  F   UNL A   1      45.765  29.251  33.657  1.00  0.00    -0.206 F 
ATOM     83  C   UNL A   1      46.451  26.118  35.341  1.00  0.00     0.006 A 
ENDBRANCH  59  76
ENDBRANCH  33  34
ENDBRANCH  26  28
ENDBRANCH  25  26
ENDBRANCH  24  25
ENDBRANCH   1  24
TORSDOF 14
ENDMDL
MODEL 2
REMARK VINA RESULT:     -11.6      4.725      9.540
REMARK SMILES O=C(C[C@@H]1C(=O)NCC[N@@H+]1Cc1ccc(F)c(F)c1)OCCOC(=O)c1ccc(-c2c3nc(c(-c4c(F)cccc4F)c4ccc([nH]4)c(-c4c(F)cccc4F)c4nc(c(-c5c(F)cccc5F)c5ccc2[nH]5)C=C4)C=C3)cc1
REMARK SMILES IDX 21 1 20 2 2 3 1 4 3 5 4 6 5 7 10 8 6 9 7 10 9 11 8 13 11 15
REMARK SMILES IDX 12 16 13 17 19 18 14 19 17 20 15 21 18 22 16 23 22 24 23 25
REMARK SMILES IDX 24 26 25 27 26 28 27 29 79 30 28 31 78 32 29 33 30 34 31 35
REMARK SMILES IDX 72 36 32 37 77 38 71 39 73 40 33 41 76 42 70 43 69 44 34 46
REMARK SMILES IDX 60 47 43 48 59 49 44 50 47 51 58 52 74 53 45 54 46 55 57 57
REMARK SMILES IDX 75 58 48 59 35 60 36 61 41 62 37 63 38 64 40 65 42 66 39 67
REMARK SMILES IDX 61 68 62 69 67 70 63 71 64 72 66 73 68 74 65 75 49 76 50 77
REMARK SMILES IDX 55 78 51 79 52 80 54 81 56 82 53 83
REMARK H PARENT 10 12 7 14 73 45 47 56
REMARK Flexibility Score: inf
ROOT
ATOM      1  C   UNL A   1      37.696  20.650  24.997  1.00  0.00     0.274 C 
ENDROOT
BRANCH   1   2
ATOM      2  O   UNL A   1      36.736  21.569  25.556  1.00  0.00    -0.462 OA
BRANCH   2   3
ATOM      3  C   UNL A   1      35.800  22.247  24.858  1.00  0.00     0.312 C 
ATOM      4  O   UNL A   1      35.972  22.506  23.668  1.00  0.00    -0.252 OA
BRANCH   3   5
ATOM      5  C   UNL A   1      34.593  22.787  25.580  1.00  0.00     0.198 C 
BRANCH   5   6
ATOM      6  C   UNL A   1      33.418  23.313  24.764  1.00  0.00     0.285 C 
ATOM      7  C   UNL A   1      32.411  24.256  25.449  1.00  0.00     0.279 C 
ATOM      8  N   UNL A   1      32.767  22.264  23.930  1.00  0.00    -0.319 N 
ATOM      9  O   UNL A   1      32.648  24.889  26.472  1.00  0.00    -0.268 OA
ATOM     10  N   UNL A   1      31.259  24.533  24.759  1.00  0.00    -0.345 N 
ATOM     11  C   UNL A   1      31.839  22.865  22.969  1.00  0.00     0.284 C 
ATOM     12  H   UNL A   1      33.538  21.847  23.408  1.00  0.00     0.349 HD
ATOM     13  C   UNL A   1      30.826  23.857  23.555  1.00  0.00     0.177 C 
ATOM     14  H   UNL A   1      30.681  25.248  25.110  1.00  0.00     0.163 HD
BRANCH   8  15
ATOM     15  C   UNL A   1      32.297  21.035  24.584  1.00  0.00     0.299 C 
BRANCH  15  16
ATOM     16  C   UNL A   1      32.850  19.707  24.122  1.00  0.00     0.009 A 
ATOM     17  C   UNL A   1      32.232  18.988  23.087  1.00  0.00     0.013 A 
ATOM     18  C   UNL A   1      34.025  19.179  24.688  1.00  0.00     0.052 A 
ATOM     19  C   UNL A   1      32.722  17.741  22.688  1.00  0.00     0.043 A 
ATOM     20  C   UNL A   1      34.519  17.944  24.275  1.00  0.00     0.159 A 
ATOM     21  C   UNL A   1      33.860  17.222  23.293  1.00  0.00     0.158 A 
ATOM     22  F   UNL A   1      35.647  17.470  24.821  1.00  0.00    -0.204 F 
ATOM     23  F   UNL A   1      34.327  16.030  22.900  1.00  0.00    -0.204 F 
ENDBRANCH  15  16
ENDBRANCH   8  15
ENDBRANCH   5   6
ENDBRANCH   3   5
ENDBRANCH   2   3
ENDBRANCH   1   2
BRANCH   1  24
ATOM     24  C   UNL A   1      39.096  20.887  25.571  1.00  0.00     0.275 C 
BRANCH  24  25
ATOM     25  O   UNL A   1      39.700  19.637  25.963  1.00  0.00    -0.458 OA
BRANCH  25  26
ATOM     26  C   UNL A   1      41.058  19.622  26.021  1.00  0.00     0.338 C 
ATOM     27  O   UNL A   1      41.793  18.757  25.585  1.00  0.00    -0.246 OA
BRANCH  26  28
ATOM     28  C   UNL A   1      41.545  20.921  26.551  1.00  0.00     0.060 A 
ATOM     29  C   UNL A   1      41.386  21.172  27.921  1.00  0.00     0.016 A 
ATOM     30  C   UNL A   1      42.170  21.874  25.739  1.00  0.00     0.016 A 
ATOM     31  C   UNL A   1      41.812  22.384  28.471  1.00  0.00     0.010 A 
ATOM     32  C   UNL A   1      42.591  23.091  26.288  1.00  0.00     0.010 A 
ATOM     33  C   UNL A   1      42.388  23.365  27.651  1.00  0.00    -0.014 A 
BRANCH  33  34
ATOM     34  C   UNL A   1      42.618  24.732  28.183  1.00  0.00     0.031 A 
ATOM     35  C   UNL A   1      44.011  25.123  28.589  1.00  0.00     0.074 A 
ATOM     36  C   UNL A   1      41.617  25.625  28.293  1.00  0.00     0.049 A 
ATOM     37  N   UNL A   1      44.451  26.265  29.056  1.00  0.00    -0.248 NA
ATOM     38  C   UNL A   1      45.047  24.087  28.452  1.00  0.00     0.031 C 
ATOM     39  C   UNL A   1      40.225  25.383  27.930  1.00  0.00     0.029 A 
ATOM     40  N   UNL A   1      41.625  26.921  28.750  1.00  0.00    -0.354 N 
ATOM     41  C   UNL A   1      45.816  26.091  29.246  1.00  0.00     0.074 A 
ATOM     42  C   UNL A   1      46.123  24.722  28.890  1.00  0.00     0.031 C 
ATOM     43  C   UNL A   1      39.507  26.492  28.179  1.00  0.00     0.029 A 
ATOM     44  C   UNL A   1      40.388  27.518  28.736  1.00  0.00     0.049 A 
ATOM     45  H   UNL A   1      42.440  27.378  29.057  1.00  0.00     0.167 HD
ATOM     46  C   UNL A   1      46.735  26.992  29.661  1.00  0.00     0.037 A 
ATOM     47  C   UNL A   1      40.012  28.749  29.136  1.00  0.00     0.037 A 
ATOM     48  C   UNL A   1      46.439  28.346  30.042  1.00  0.00     0.049 A 
ATOM     49  C   UNL A   1      41.041  29.708  29.670  1.00  0.00     0.074 A 
ATOM     50  C   UNL A   1      47.309  29.331  30.479  1.00  0.00     0.029 A 
ATOM     51  N   UNL A   1      45.171  28.905  30.040  1.00  0.00    -0.354 N 
ATOM     52  N   UNL A   1      42.335  29.547  29.801  1.00  0.00    -0.248 NA
ATOM     53  C   UNL A   1      40.556  31.028  30.108  1.00  0.00     0.031 C 
ATOM     54  C   UNL A   1      46.561  30.475  30.777  1.00  0.00     0.029 A 
ATOM     55  C   UNL A   1      45.231  30.214  30.487  1.00  0.00     0.049 A 
ATOM     56  H   UNL A   1      44.349  28.440  29.761  1.00  0.00     0.167 HD
ATOM     57  C   UNL A   1      42.821  30.749  30.303  1.00  0.00     0.074 A 
ATOM     58  C   UNL A   1      41.685  31.634  30.447  1.00  0.00     0.031 C 
ATOM     59  C   UNL A   1      44.096  31.090  30.614  1.00  0.00     0.037 A 
BRANCH  46  60
ATOM     60  C   UNL A   1      48.158  26.527  29.731  1.00  0.00     0.057 A 
ATOM     61  C   UNL A   1      48.658  25.882  30.869  1.00  0.00     0.134 A 
ATOM     62  C   UNL A   1      49.028  26.712  28.651  1.00  0.00     0.134 A 
ATOM     63  F   UNL A   1      47.876  25.693  31.942  1.00  0.00    -0.206 F 
ATOM     64  C   UNL A   1      49.984  25.454  30.938  1.00  0.00     0.040 A 
ATOM     65  C   UNL A   1      50.351  26.269  28.701  1.00  0.00     0.040 A 
ATOM     66  F   UNL A   1      48.608  27.324  27.533  1.00  0.00    -0.206 F 
ATOM     67  C   UNL A   1      50.833  25.642  29.848  1.00  0.00     0.006 A 
ENDBRANCH  46  60
BRANCH  47  68
ATOM     68  C   UNL A   1      38.587  29.160  29.053  1.00  0.00     0.057 A 
ATOM     69  C   UNL A   1      38.047  29.663  27.865  1.00  0.00     0.134 A 
ATOM     70  C   UNL A   1      37.751  29.113  30.174  1.00  0.00     0.134 A 
ATOM     71  F   UNL A   1      38.808  29.758  26.764  1.00  0.00    -0.206 F 
ATOM     72  C   UNL A   1      36.731  30.126  27.799  1.00  0.00     0.040 A 
ATOM     73  C   UNL A   1      36.428  29.554  30.118  1.00  0.00     0.040 A 
ATOM     74  F   UNL A   1      38.211  28.643  31.344  1.00  0.00    -0.206 F 
ATOM     75  C   UNL A   1      35.918  30.072  28.928  1.00  0.00     0.006 A 
ENDBRANCH  47  68
BRANCH  59  76
ATOM     76  C   UNL A   1      44.337  32.487  31.102  1.00  0.00     0.057 A 
ATOM     77  C   UNL A   1      44.588  33.545  30.220  1.00  0.00     0.134 A 
ATOM     78  C   UNL A   1      44.278  32.784  32.470  1.00  0.00     0.134 A 
ATOM     79  F   UNL A   1      44.670  33.324  28.899  1.00  0.00    -0.206 F 
ATOM     80  C   UNL A   1      44.790  34.847  30.683  1.00  0.00     0.040 A 
ATOM     81  C   UNL A   1      44.455  34.085  32.943  1.00  0.00     0.040 A 
ATOM     82  F   UNL A   1      44.035  31.817  33.367  1.00  0.00    -0.206 F 
ATOM     83  C   UNL A   1      44.716  35.121  32.048  1.00  0.00     0.006 A 
ENDBRANCH  59  76
ENDBRANCH  33  34
ENDBRANCH  26  28
ENDBRANCH  25  26
ENDBRANCH  24  25
ENDBRANCH   1  24
TORSDOF 14
ENDMDL
MODEL 3
REMARK VINA RESULT:     -11.6      4.027      8.339
REMARK SMILES O=C(C[C@@H]1C(=O)NCC[N@@H+]1Cc1ccc(F)c(F)c1)OCCOC(=O)c1ccc(-c2c3nc(c(-c4c(F)cccc4F)c4ccc([nH]4)c(-c4c(F)cccc4F)c4nc(c(-c5c(F)cccc5F)c5ccc2[nH]5)C=C4)C=C3)cc1
REMARK SMILES IDX 21 1 20 2 2 3 1 4 3 5 4 6 5 7 10 8 6 9 7 10 9 11 8 13 11 15
REMARK SMILES IDX 12 16 13 17 19 18 14 19 17 20 15 21 18 22 16 23 22 24 23 25
REMARK SMILES IDX 24 26 25 27 26 28 27 29 79 30 28 31 78 32 29 33 30 34 31 35
REMARK SMILES IDX 72 36 32 37 77 38 71 39 73 40 33 41 76 42 70 43 69 44 34 46
REMARK SMILES IDX 60 47 43 48 59 49 44 50 47 51 58 52 74 53 45 54 46 55 57 57
REMARK SMILES IDX 75 58 48 59 35 60 36 61 41 62 37 63 38 64 40 65 42 66 39 67
REMARK SMILES IDX 61 68 62 69 67 70 63 71 64 72 66 73 68 74 65 75 49 76 50 77
REMARK SMILES IDX 55 78 51 79 52 80 54 81 56 82 53 83
REMARK H PARENT 10 12 7 14 73 45 47 56
REMARK Flexibility Score: inf
ROOT
ATOM      1  C   UNL A   1      42.578  20.874  26.195  1.00  0.00     0.274 C 
ENDROOT
BRANCH   1   2
ATOM      2  O   UNL A   1      41.277  21.247  25.698  1.00  0.00    -0.462 OA
BRANCH   2   3
ATOM      3  C   UNL A   1      40.205  21.560  26.457  1.00  0.00     0.312 C 
ATOM      4  O   UNL A   1      40.136  21.184  27.626  1.00  0.00    -0.252 OA
BRANCH   3   5
ATOM      5  C   UNL A   1      39.040  22.275  25.824  1.00  0.00     0.198 C 
BRANCH   5   6
ATOM      6  C   UNL A   1      37.650  21.657  25.926  1.00  0.00     0.285 C 
ATOM      7  C   UNL A   1      37.324  20.434  25.048  1.00  0.00     0.279 C 
ATOM      8  N   UNL A   1      36.559  22.671  25.951  1.00  0.00    -0.319 N 
ATOM      9  O   UNL A   1      38.171  19.710  24.536  1.00  0.00    -0.268 OA
ATOM     10  N   UNL A   1      36.011  20.041  25.002  1.00  0.00    -0.345 N 
ATOM     11  C   UNL A   1      35.284  22.053  26.324  1.00  0.00     0.284 C 
ATOM     12  H   UNL A   1      36.831  23.312  26.695  1.00  0.00     0.349 HD
ATOM     13  C   UNL A   1      34.897  20.796  25.533  1.00  0.00     0.177 C 
ATOM     14  H   UNL A   1      35.811  19.178  24.574  1.00  0.00     0.163 HD
BRANCH   8  15
ATOM     15  C   UNL A   1      36.491  23.660  24.867  1.00  0.00     0.299 C 
BRANCH  15  16
ATOM     16  C   UNL A   1      35.144  23.997  24.270  1.00  0.00     0.009 A 
ATOM     17  C   UNL A   1      34.348  25.016  24.815  1.00  0.00     0.013 A 
ATOM     18  C   UNL A   1      34.676  23.327  23.125  1.00  0.00     0.052 A 
ATOM     19  C   UNL A   1      33.086  25.299  24.285  1.00  0.00     0.043 A 
ATOM     20  C   UNL A   1      33.425  23.625  22.591  1.00  0.00     0.159 A 
ATOM     21  C   UNL A   1      32.628  24.594  23.180  1.00  0.00     0.158 A 
ATOM     22  F   UNL A   1      33.008  22.981  21.492  1.00  0.00    -0.204 F 
ATOM     23  F   UNL A   1      31.420  24.877  22.673  1.00  0.00    -0.204 F 
ENDBRANCH  15  16
ENDBRANCH   8  15
ENDBRANCH   5   6
ENDBRANCH   3   5
ENDBRANCH   2   3
ENDBRANCH   1   2
BRANCH   1  24
ATOM     24  C   UNL A   1      43.691  21.664  25.500  1.00  0.00     0.275 C 
BRANCH  24  25
ATOM     25  O   UNL A   1      43.154  22.845  24.870  1.00  0.00    -0.458 OA
BRANCH  25  26
ATOM     26  C   UNL A   1      43.889  23.980  25.003  1.00  0.00     0.338 C 
ATOM     27  O   UNL A   1      44.867  24.291  24.350  1.00  0.00    -0.246 OA
BRANCH  26  28
ATOM     28  C   UNL A   1      43.221  24.893  25.964  1.00  0.00     0.060 A 
ATOM     29  C   UNL A   1      43.862  26.100  26.276  1.00  0.00     0.016 A 
ATOM     30  C   UNL A   1      41.978  24.598  26.537  1.00  0.00     0.016 A 
ATOM     31  C   UNL A   1      43.286  26.990  27.187  1.00  0.00     0.010 A 
ATOM     32  C   UNL A   1      41.404  25.487  27.454  1.00  0.00     0.010 A 
ATOM     33  C   UNL A   1      42.068  26.674  27.806  1.00  0.00    -0.014 A 
BRANCH  33  34
ATOM     34  C   UNL A   1      41.580  27.498  28.941  1.00  0.00     0.031 A 
ATOM     35  C   UNL A   1      42.284  27.391  30.264  1.00  0.00     0.074 A 
ATOM     36  C   UNL A   1      40.540  28.341  28.806  1.00  0.00     0.049 A 
ATOM     37  N   UNL A   1      42.049  28.028  31.384  1.00  0.00    -0.248 NA
ATOM     38  C   UNL A   1      43.402  26.437  30.336  1.00  0.00     0.031 C 
ATOM     39  C   UNL A   1      39.774  28.549  27.582  1.00  0.00     0.029 A 
ATOM     40  N   UNL A   1      39.948  29.180  29.719  1.00  0.00    -0.354 N 
ATOM     41  C   UNL A   1      43.003  27.569  32.283  1.00  0.00     0.074 A 
ATOM     42  C   UNL A   1      43.788  26.567  31.595  1.00  0.00     0.031 C 
ATOM     43  C   UNL A   1      38.809  29.455  27.817  1.00  0.00     0.029 A 
ATOM     44  C   UNL A   1      38.879  29.879  29.215  1.00  0.00     0.049 A 
ATOM     45  H   UNL A   1      40.262  29.271  30.648  1.00  0.00     0.167 HD
ATOM     46  C   UNL A   1      43.219  27.958  33.561  1.00  0.00     0.037 A 
ATOM     47  C   UNL A   1      38.049  30.753  29.817  1.00  0.00     0.037 A 
ATOM     48  C   UNL A   1      42.431  28.933  34.264  1.00  0.00     0.049 A 
ATOM     49  C   UNL A   1      38.261  31.110  31.263  1.00  0.00     0.074 A 
ATOM     50  C   UNL A   1      42.576  29.387  35.564  1.00  0.00     0.029 A 
ATOM     51  N   UNL A   1      41.340  29.598  33.727  1.00  0.00    -0.354 N 
ATOM     52  N   UNL A   1      39.195  30.704  32.089  1.00  0.00    -0.248 NA
ATOM     53  C   UNL A   1      37.304  32.056  31.862  1.00  0.00     0.031 C 
ATOM     54  C   UNL A   1      41.550  30.301  35.825  1.00  0.00     0.029 A 
ATOM     55  C   UNL A   1      40.791  30.445  34.676  1.00  0.00     0.049 A 
ATOM     56  H   UNL A   1      41.006  29.487  32.807  1.00  0.00     0.167 HD
ATOM     57  C   UNL A   1      38.958  31.366  33.289  1.00  0.00     0.074 A 
ATOM     58  C   UNL A   1      37.798  32.206  33.083  1.00  0.00     0.031 C 
ATOM     59  C   UNL A   1      39.644  31.286  34.456  1.00  0.00     0.037 A 
BRANCH  46  60
ATOM     60  C   UNL A   1      44.361  27.311  34.283  1.00  0.00     0.057 A 
ATOM     61  C   UNL A   1      45.628  27.907  34.325  1.00  0.00     0.134 A 
ATOM     62  C   UNL A   1      44.193  26.093  34.951  1.00  0.00     0.134 A 
ATOM     63  F   UNL A   1      45.855  29.065  33.687  1.00  0.00    -0.206 F 
ATOM     64  C   UNL A   1      46.695  27.303  34.990  1.00  0.00     0.040 A 
ATOM     65  C   UNL A   1      45.247  25.489  35.638  1.00  0.00     0.040 A 
ATOM     66  F   UNL A   1      43.004  25.472  34.946  1.00  0.00    -0.206 F 
ATOM     67  C   UNL A   1      46.504  26.092  35.655  1.00  0.00     0.006 A 
ENDBRANCH  46  60
BRANCH  47  68
ATOM     68  C   UNL A   1      36.926  31.363  29.060  1.00  0.00     0.057 A 
ATOM     69  C   UNL A   1      36.975  32.698  28.643  1.00  0.00     0.134 A 
ATOM     70  C   UNL A   1      35.758  30.643  28.786  1.00  0.00     0.134 A 
ATOM     71  F   UNL A   1      38.058  33.446  28.901  1.00  0.00    -0.206 F 
ATOM     72  C   UNL A   1      35.893  33.303  28.001  1.00  0.00     0.040 A 
ATOM     73  C   UNL A   1      34.676  31.229  28.127  1.00  0.00     0.040 A 
ATOM     74  F   UNL A   1      35.650  29.360  29.162  1.00  0.00    -0.206 F 
ATOM     75  C   UNL A   1      34.739  32.567  27.741  1.00  0.00     0.006 A 
ENDBRANCH  47  68
BRANCH  59  76
ATOM     76  C   UNL A   1      39.183  32.156  35.587  1.00  0.00     0.057 A 
ATOM     77  C   UNL A   1      38.292  31.690  36.561  1.00  0.00     0.134 A 
ATOM     78  C   UNL A   1      39.670  33.463  35.725  1.00  0.00     0.134 A 
ATOM     79  F   UNL A   1      37.779  30.453  36.479  1.00  0.00    -0.206 F 
ATOM     80  C   UNL A   1      37.886  32.501  37.624  1.00  0.00     0.040 A 
ATOM     81  C   UNL A   1      39.289  34.274  36.795  1.00  0.00     0.040 A 
ATOM     82  F   UNL A   1      40.532  33.966  34.830  1.00  0.00    -0.206 F 
ATOM     83  C   UNL A   1      38.391  33.795  37.746  1.00  0.00     0.006 A 
ENDBRANCH  59  76
ENDBRANCH  33  34
ENDBRANCH  26  28
ENDBRANCH  25  26
ENDBRANCH  24  25
ENDBRANCH   1  24
TORSDOF 14
ENDMDL
