MODEL 1
REMARK VINA RESULT:     -12.0      0.000      0.000
REMARK SMILES O=C(CSc1nnc(-c2ccncc2)s1)Nc1cccc(C(=O)OCCOC(=O)c2ccc(-c3c4nc(c(-c5c(F)cccc5F)c5ccc([nH]5)c(-c5c(F)cccc5F)c5nc(c(-c6c(F)cccc6F)c6ccc3[nH]6)C=C5)C=C4)cc2)c1
REMARK SMILES IDX 24 1 22 2 23 3 21 4 17 5 18 6 84 7 19 8 20 9 16 10 1 11 2 12
REMARK SMILES IDX 3 14 4 15 5 16 6 17 15 18 7 19 8 20 9 21 10 22 14 23 11 24
REMARK SMILES IDX 13 25 12 26 25 27 26 28 27 29 28 30 29 31 30 32 31 33 83 34
REMARK SMILES IDX 32 35 82 36 33 37 34 38 35 39 76 40 36 41 81 42 75 43 77 44
REMARK SMILES IDX 37 45 80 46 74 47 73 48 38 50 64 51 47 52 63 53 48 54 51 55
REMARK SMILES IDX 62 56 78 57 49 58 50 59 61 61 79 62 52 63 39 64 40 65 45 66
REMARK SMILES IDX 41 67 42 68 44 69 46 70 43 71 65 72 66 73 71 74 67 75 68 76
REMARK SMILES IDX 70 77 72 78 69 79 53 80 54 81 59 82 55 83 56 84 58 85 60 86
REMARK SMILES IDX 57 87
REMARK H PARENT 16 13 77 49 51 60
REMARK Flexibility Score: inf
ROOT
ATOM      1  O   UNL A   1      41.590  21.814  25.741  1.00  0.00    -0.458 OA
ENDROOT
BRANCH   1   2
ATOM      2  C   UNL A   1      40.511  21.138  26.216  1.00  0.00     0.338 C 
ATOM      3  O   UNL A   1      40.518  20.055  26.766  1.00  0.00    -0.246 OA
BRANCH   2   4
ATOM      4  C   UNL A   1      39.287  21.973  26.088  1.00  0.00     0.062 A 
ATOM      5  C   UNL A   1      37.063  22.391  25.228  1.00  0.00     0.042 A 
ATOM      6  C   UNL A   1      37.112  23.686  25.759  1.00  0.00     0.026 A 
ATOM      7  C   UNL A   1      38.176  21.555  25.349  1.00  0.00     0.041 A 
ATOM      8  C   UNL A   1      38.200  24.093  26.528  1.00  0.00     0.003 A 
ATOM      9  C   UNL A   1      39.263  23.217  26.733  1.00  0.00     0.016 A 
BRANCH   5  10
ATOM     10  N   UNL A   1      35.853  21.990  24.635  1.00  0.00    -0.325 N 
ATOM     11  O   UNL A   1      34.695  21.216  26.497  1.00  0.00    -0.274 OA
ATOM     12  C   UNL A   1      34.752  21.477  25.297  1.00  0.00     0.234 C 
ATOM     13  H   UNL A   1      35.781  22.084  23.657  1.00  0.00     0.169 HD
BRANCH  12  14
ATOM     14  C   UNL A   1      33.557  21.179  24.409  1.00  0.00     0.177 C 
BRANCH  14  15
ATOM     15  S   UNL A   1      31.971  21.135  25.283  1.00  0.00    -0.084 SA
BRANCH  15  16
ATOM     16  C   UNL A   1      31.813  22.801  25.783  1.00  0.00     0.175 A 
ATOM     17  N   UNL A   1      31.428  23.115  26.999  1.00  0.00    -0.131 NA
ATOM     18  S   UNL A   1      32.259  24.136  24.810  1.00  0.00    -0.086 S 
ATOM     19  N   UNL A   1      31.525  24.474  27.235  1.00  0.00    -0.137 NA
ATOM     20  C   UNL A   1      31.957  25.138  26.180  1.00  0.00     0.148 A 
BRANCH  20  21
ATOM     21  C   UNL A   1      32.281  26.566  26.158  1.00  0.00     0.015 A 
ATOM     22  C   UNL A   1      31.465  27.524  26.765  1.00  0.00     0.031 A 
ATOM     23  C   UNL A   1      33.442  26.994  25.507  1.00  0.00     0.031 A 
ATOM     24  C   UNL A   1      31.835  28.857  26.677  1.00  0.00     0.111 A 
ATOM     25  C   UNL A   1      33.721  28.349  25.464  1.00  0.00     0.111 A 
ATOM     26  N   UNL A   1      32.938  29.290  26.032  1.00  0.00    -0.265 NA
ENDBRANCH  20  21
ENDBRANCH  15  16
ENDBRANCH  14  15
ENDBRANCH  12  14
ENDBRANCH   5  10
ENDBRANCH   2   4
ENDBRANCH   1   2
BRANCH   1  27
ATOM     27  C   UNL A   1      42.859  21.135  25.826  1.00  0.00     0.275 C 
BRANCH  27  28
ATOM     28  C   UNL A   1      43.981  21.981  25.224  1.00  0.00     0.275 C 
BRANCH  28  29
ATOM     29  O   UNL A   1      43.467  23.254  24.788  1.00  0.00    -0.458 OA
BRANCH  29  30
ATOM     30  C   UNL A   1      44.206  24.333  25.124  1.00  0.00     0.338 C 
ATOM     31  O   UNL A   1      45.271  24.693  24.653  1.00  0.00    -0.246 OA
BRANCH  30  32
ATOM     32  C   UNL A   1      43.461  25.140  26.102  1.00  0.00     0.060 A 
ATOM     33  C   UNL A   1      43.911  26.436  26.329  1.00  0.00     0.016 A 
ATOM     34  C   UNL A   1      42.433  24.608  26.875  1.00  0.00     0.016 A 
ATOM     35  C   UNL A   1      43.360  27.211  27.344  1.00  0.00     0.010 A 
ATOM     36  C   UNL A   1      41.854  25.397  27.882  1.00  0.00     0.010 A 
ATOM     37  C   UNL A   1      42.329  26.696  28.142  1.00  0.00    -0.014 A 
BRANCH  37  38
ATOM     38  C   UNL A   1      41.837  27.502  29.295  1.00  0.00     0.031 A 
ATOM     39  C   UNL A   1      42.599  27.503  30.594  1.00  0.00     0.074 A 
ATOM     40  C   UNL A   1      40.761  28.301  29.158  1.00  0.00     0.049 A 
ATOM     41  N   UNL A   1      42.316  28.107  31.722  1.00  0.00    -0.248 NA
ATOM     42  C   UNL A   1      43.842  26.717  30.632  1.00  0.00     0.031 C 
ATOM     43  C   UNL A   1      39.957  28.438  27.944  1.00  0.00     0.029 A 
ATOM     44  N   UNL A   1      40.170  29.167  30.047  1.00  0.00    -0.354 N 
ATOM     45  C   UNL A   1      43.324  27.747  32.609  1.00  0.00     0.074 A 
ATOM     46  C   UNL A   1      44.218  26.860  31.895  1.00  0.00     0.031 C 
ATOM     47  C   UNL A   1      39.005  29.363  28.149  1.00  0.00     0.029 A 
ATOM     48  C   UNL A   1      39.093  29.842  29.525  1.00  0.00     0.049 A 
ATOM     49  H   UNL A   1      40.490  29.293  30.970  1.00  0.00     0.167 HD
ATOM     50  C   UNL A   1      43.494  28.126  33.900  1.00  0.00     0.037 A 
ATOM     51  C   UNL A   1      38.260  30.734  30.095  1.00  0.00     0.037 A 
ATOM     52  C   UNL A   1      42.634  29.040  34.604  1.00  0.00     0.049 A 
ATOM     53  C   UNL A   1      38.460  31.120  31.535  1.00  0.00     0.074 A 
ATOM     54  C   UNL A   1      42.724  29.475  35.916  1.00  0.00     0.029 A 
ATOM     55  N   UNL A   1      41.533  29.675  34.049  1.00  0.00    -0.354 N 
ATOM     56  N   UNL A   1      39.391  30.737  32.373  1.00  0.00    -0.248 NA
ATOM     57  C   UNL A   1      37.485  32.060  32.108  1.00  0.00     0.031 C 
ATOM     58  C   UNL A   1      41.662  30.353  36.163  1.00  0.00     0.029 A 
ATOM     59  C   UNL A   1      40.934  30.495  34.993  1.00  0.00     0.049 A 
ATOM     60  H   UNL A   1      41.223  29.560  33.122  1.00  0.00     0.167 HD
ATOM     61  C   UNL A   1      39.124  31.399  33.565  1.00  0.00     0.074 A 
ATOM     62  C   UNL A   1      37.961  32.227  33.333  1.00  0.00     0.031 C 
ATOM     63  C   UNL A   1      39.780  31.320  34.748  1.00  0.00     0.037 A 
BRANCH  50  64
ATOM     64  C   UNL A   1      44.651  27.526  34.646  1.00  0.00     0.057 A 
ATOM     65  C   UNL A   1      45.913  28.132  34.672  1.00  0.00     0.134 A 
ATOM     66  C   UNL A   1      44.488  26.340  35.374  1.00  0.00     0.134 A 
ATOM     67  F   UNL A   1      46.140  29.262  33.984  1.00  0.00    -0.206 F 
ATOM     68  C   UNL A   1      46.977  27.569  35.380  1.00  0.00     0.040 A 
ATOM     69  C   UNL A   1      45.538  25.781  36.105  1.00  0.00     0.040 A 
ATOM     70  F   UNL A   1      43.302  25.711  35.395  1.00  0.00    -0.206 F 
ATOM     71  C   UNL A   1      46.789  26.393  36.104  1.00  0.00     0.006 A 
ENDBRANCH  50  64
BRANCH  51  72
ATOM     72  C   UNL A   1      37.142  31.318  29.310  1.00  0.00     0.057 A 
ATOM     73  C   UNL A   1      35.992  30.575  29.020  1.00  0.00     0.134 A 
ATOM     74  C   UNL A   1      37.211  32.622  28.804  1.00  0.00     0.134 A 
ATOM     75  F   UNL A   1      35.879  29.310  29.453  1.00  0.00    -0.206 F 
ATOM     76  C   UNL A   1      34.958  31.100  28.243  1.00  0.00     0.040 A 
ATOM     77  C   UNL A   1      36.173  33.169  28.050  1.00  0.00     0.040 A 
ATOM     78  F   UNL A   1      38.289  33.385  29.043  1.00  0.00    -0.206 F 
ATOM     79  C   UNL A   1      35.045  32.404  27.760  1.00  0.00     0.006 A 
ENDBRANCH  51  72
BRANCH  63  80
ATOM     80  C   UNL A   1      39.269  32.180  35.867  1.00  0.00     0.057 A 
ATOM     81  C   UNL A   1      38.328  31.709  36.792  1.00  0.00     0.134 A 
ATOM     82  C   UNL A   1      39.723  33.496  36.019  1.00  0.00     0.134 A 
ATOM     83  F   UNL A   1      37.843  30.462  36.692  1.00  0.00    -0.206 F 
ATOM     84  C   UNL A   1      37.832  32.527  37.808  1.00  0.00     0.040 A 
ATOM     85  C   UNL A   1      39.253  34.316  37.045  1.00  0.00     0.040 A 
ATOM     86  F   UNL A   1      40.630  34.007  35.173  1.00  0.00    -0.206 F 
ATOM     87  C   UNL A   1      38.297  33.835  37.938  1.00  0.00     0.006 A 
ENDBRANCH  63  80
ENDBRANCH  37  38
ENDBRANCH  30  32
ENDBRANCH  29  30
ENDBRANCH  28  29
ENDBRANCH  27  28
ENDBRANCH   1  27
TORSDOF 16
ENDMDL
MODEL 2
REMARK VINA RESULT:     -11.9      4.446      9.725
REMARK SMILES O=C(CSc1nnc(-c2ccncc2)s1)Nc1cccc(C(=O)OCCOC(=O)c2ccc(-c3c4nc(c(-c5c(F)cccc5F)c5ccc([nH]5)c(-c5c(F)cccc5F)c5nc(c(-c6c(F)cccc6F)c6ccc3[nH]6)C=C5)C=C4)cc2)c1
REMARK SMILES IDX 24 1 22 2 23 3 21 4 17 5 18 6 84 7 19 8 20 9 16 10 1 11 2 12
REMARK SMILES IDX 3 14 4 15 5 16 6 17 15 18 7 19 8 20 9 21 10 22 14 23 11 24
REMARK SMILES IDX 13 25 12 26 25 27 26 28 27 29 28 30 29 31 30 32 31 33 83 34
REMARK SMILES IDX 32 35 82 36 33 37 34 38 35 39 76 40 36 41 81 42 75 43 77 44
REMARK SMILES IDX 37 45 80 46 74 47 73 48 38 50 64 51 47 52 63 53 48 54 51 55
REMARK SMILES IDX 62 56 78 57 49 58 50 59 61 61 79 62 52 63 39 64 40 65 45 66
REMARK SMILES IDX 41 67 42 68 44 69 46 70 43 71 65 72 66 73 71 74 67 75 68 76
REMARK SMILES IDX 70 77 72 78 69 79 53 80 54 81 59 82 55 83 56 84 58 85 60 86
REMARK SMILES IDX 57 87
REMARK H PARENT 16 13 77 49 51 60
REMARK Flexibility Score: inf
ROOT
ATOM      1  O   UNL A   1      33.913  33.696  29.082  1.00  0.00    -0.458 OA
ENDROOT
BRANCH   1   2
ATOM      2  C   UNL A   1      33.303  33.032  28.066  1.00  0.00     0.338 C 
ATOM      3  O   UNL A   1      32.368  33.428  27.399  1.00  0.00    -0.246 OA
BRANCH   2   4
ATOM      4  C   UNL A   1      34.027  31.766  27.773  1.00  0.00     0.062 A 
ATOM      5  C   UNL A   1      34.085  29.445  27.088  1.00  0.00     0.042 A 
ATOM      6  C   UNL A   1      35.443  29.389  27.426  1.00  0.00     0.026 A 
ATOM      7  C   UNL A   1      33.366  30.622  27.314  1.00  0.00     0.041 A 
ATOM      8  C   UNL A   1      36.112  30.536  27.848  1.00  0.00     0.003 A 
ATOM      9  C   UNL A   1      35.413  31.734  27.972  1.00  0.00     0.016 A 
BRANCH   5  10
ATOM     10  N   UNL A   1      33.530  28.302  26.486  1.00  0.00    -0.325 N 
ATOM     11  O   UNL A   1      34.231  28.589  24.287  1.00  0.00    -0.274 OA
ATOM     12  C   UNL A   1      33.669  27.930  25.161  1.00  0.00     0.234 C 
ATOM     13  H   UNL A   1      32.993  27.709  27.061  1.00  0.00     0.169 HD
BRANCH  12  14
ATOM     14  C   UNL A   1      33.006  26.614  24.796  1.00  0.00     0.177 C 
BRANCH  14  15
ATOM     15  S   UNL A   1      31.245  26.525  25.211  1.00  0.00    -0.084 SA
BRANCH  15  16
ATOM     16  C   UNL A   1      30.572  27.671  24.077  1.00  0.00     0.175 A 
ATOM     17  N   UNL A   1      29.861  27.273  23.047  1.00  0.00    -0.131 NA
ATOM     18  S   UNL A   1      30.662  29.369  24.269  1.00  0.00    -0.086 S 
ATOM     19  N   UNL A   1      29.292  28.337  22.372  1.00  0.00    -0.137 NA
ATOM     20  C   UNL A   1      29.615  29.501  22.905  1.00  0.00     0.148 A 
BRANCH  20  21
ATOM     21  C   UNL A   1      29.070  30.796  22.493  1.00  0.00     0.015 A 
ATOM     22  C   UNL A   1      29.066  31.907  23.341  1.00  0.00     0.031 A 
ATOM     23  C   UNL A   1      28.531  30.934  21.210  1.00  0.00     0.031 A 
ATOM     24  C   UNL A   1      28.509  33.088  22.877  1.00  0.00     0.111 A 
ATOM     25  C   UNL A   1      27.989  32.153  20.842  1.00  0.00     0.111 A 
ATOM     26  N   UNL A   1      27.964  33.232  21.652  1.00  0.00    -0.265 NA
ENDBRANCH  20  21
ENDBRANCH  15  16
ENDBRANCH  14  15
ENDBRANCH  12  14
ENDBRANCH   5  10
ENDBRANCH   2   4
ENDBRANCH   1   2
BRANCH   1  27
ATOM     27  C   UNL A   1      34.062  35.120  28.919  1.00  0.00     0.275 C 
BRANCH  27  28
ATOM     28  C   UNL A   1      32.966  35.881  29.666  1.00  0.00     0.275 C 
BRANCH  28  29
ATOM     29  O   UNL A   1      32.564  35.150  30.840  1.00  0.00    -0.458 OA
BRANCH  29  30
ATOM     30  C   UNL A   1      32.839  35.741  32.024  1.00  0.00     0.338 C 
ATOM     31  O   UNL A   1      32.227  36.639  32.577  1.00  0.00    -0.246 OA
BRANCH  30  32
ATOM     32  C   UNL A   1      33.963  35.040  32.661  1.00  0.00     0.060 A 
ATOM     33  C   UNL A   1      35.215  35.639  32.574  1.00  0.00     0.016 A 
ATOM     34  C   UNL A   1      33.829  33.769  33.215  1.00  0.00     0.016 A 
ATOM     35  C   UNL A   1      36.353  34.971  33.016  1.00  0.00     0.010 A 
ATOM     36  C   UNL A   1      34.971  33.104  33.688  1.00  0.00     0.010 A 
ATOM     37  C   UNL A   1      36.246  33.688  33.569  1.00  0.00    -0.014 A 
BRANCH  37  38
ATOM     38  C   UNL A   1      37.491  32.950  33.926  1.00  0.00     0.031 A 
ATOM     39  C   UNL A   1      38.084  31.960  32.958  1.00  0.00     0.074 A 
ATOM     40  C   UNL A   1      38.140  33.224  35.074  1.00  0.00     0.049 A 
ATOM     41  N   UNL A   1      39.136  31.193  33.096  1.00  0.00    -0.248 NA
ATOM     42  C   UNL A   1      37.400  31.810  31.664  1.00  0.00     0.031 C 
ATOM     43  C   UNL A   1      37.709  34.194  36.080  1.00  0.00     0.029 A 
ATOM     44  N   UNL A   1      39.317  32.724  35.578  1.00  0.00    -0.354 N 
ATOM     45  C   UNL A   1      39.220  30.447  31.926  1.00  0.00     0.074 A 
ATOM     46  C   UNL A   1      38.104  30.843  31.094  1.00  0.00     0.031 C 
ATOM     47  C   UNL A   1      38.626  34.249  37.059  1.00  0.00     0.029 A 
ATOM     48  C   UNL A   1      39.681  33.279  36.781  1.00  0.00     0.049 A 
ATOM     49  H   UNL A   1      39.851  32.035  35.118  1.00  0.00     0.167 HD
ATOM     50  C   UNL A   1      40.147  29.523  31.572  1.00  0.00     0.037 A 
ATOM     51  C   UNL A   1      40.736  33.024  37.579  1.00  0.00     0.037 A 
ATOM     52  C   UNL A   1      41.283  29.155  32.376  1.00  0.00     0.049 A 
ATOM     53  C   UNL A   1      41.737  31.978  37.171  1.00  0.00     0.074 A 
ATOM     54  C   UNL A   1      42.269  28.222  32.102  1.00  0.00     0.029 A 
ATOM     55  N   UNL A   1      41.596  29.716  33.605  1.00  0.00    -0.354 N 
ATOM     56  N   UNL A   1      41.778  31.250  36.083  1.00  0.00    -0.248 NA
ATOM     57  C   UNL A   1      42.837  31.714  38.112  1.00  0.00     0.031 C 
ATOM     58  C   UNL A   1      43.164  28.199  33.179  1.00  0.00     0.029 A 
ATOM     59  C   UNL A   1      42.758  29.146  34.103  1.00  0.00     0.049 A 
ATOM     60  H   UNL A   1      41.071  30.415  34.057  1.00  0.00     0.167 HD
ATOM     61  C   UNL A   1      42.911  30.456  36.199  1.00  0.00     0.074 A 
ATOM     62  C   UNL A   1      43.544  30.810  37.452  1.00  0.00     0.031 C 
ATOM     63  C   UNL A   1      43.381  29.512  35.349  1.00  0.00     0.037 A 
BRANCH  50  64
ATOM     64  C   UNL A   1      39.953  28.821  30.260  1.00  0.00     0.057 A 
ATOM     65  C   UNL A   1      39.196  27.648  30.147  1.00  0.00     0.134 A 
ATOM     66  C   UNL A   1      40.508  29.347  29.085  1.00  0.00     0.134 A 
ATOM     67  F   UNL A   1      38.650  27.085  31.236  1.00  0.00    -0.206 F 
ATOM     68  C   UNL A   1      39.015  27.012  28.917  1.00  0.00     0.040 A 
ATOM     69  C   UNL A   1      40.313  28.734  27.846  1.00  0.00     0.040 A 
ATOM     70  F   UNL A   1      41.239  30.472  29.122  1.00  0.00    -0.206 F 
ATOM     71  C   UNL A   1      39.570  27.559  27.761  1.00  0.00     0.006 A 
ENDBRANCH  50  64
BRANCH  51  72
ATOM     72  C   UNL A   1      40.899  33.760  38.859  1.00  0.00     0.057 A 
ATOM     73  C   UNL A   1      40.196  33.381  40.008  1.00  0.00     0.134 A 
ATOM     74  C   UNL A   1      41.736  34.878  38.955  1.00  0.00     0.134 A 
ATOM     75  F   UNL A   1      39.357  32.335  39.972  1.00  0.00    -0.206 F 
ATOM     76  C   UNL A   1      40.307  34.096  41.203  1.00  0.00     0.040 A 
ATOM     77  C   UNL A   1      41.878  35.585  40.149  1.00  0.00     0.040 A 
ATOM     78  F   UNL A   1      42.434  35.295  37.888  1.00  0.00    -0.206 F 
ATOM     79  C   UNL A   1      41.155  35.198  41.276  1.00  0.00     0.006 A 
ENDBRANCH  51  72
BRANCH  63  80
ATOM     80  C   UNL A   1      44.658  28.824  35.734  1.00  0.00     0.057 A 
ATOM     81  C   UNL A   1      45.908  29.295  35.313  1.00  0.00     0.134 A 
ATOM     82  C   UNL A   1      44.636  27.676  36.536  1.00  0.00     0.134 A 
ATOM     83  F   UNL A   1      45.996  30.383  34.532  1.00  0.00    -0.206 F 
ATOM     84  C   UNL A   1      47.088  28.629  35.647  1.00  0.00     0.040 A 
ATOM     85  C   UNL A   1      45.811  27.015  36.897  1.00  0.00     0.040 A 
ATOM     86  F   UNL A   1      43.472  27.176  36.980  1.00  0.00    -0.206 F 
ATOM     87  C   UNL A   1      47.042  27.486  36.444  1.00  0.00     0.006 A 
ENDBRANCH  63  80
ENDBRANCH  37  38
ENDBRANCH  30  32
ENDBRANCH  29  30
ENDBRANCH  28  29
ENDBRANCH  27  28
ENDBRANCH   1  27
TORSDOF 16
ENDMDL
MODEL 3
REMARK VINA RESULT:     -11.9      4.946      7.764
REMARK SMILES O=C(CSc1nnc(-c2ccncc2)s1)Nc1cccc(C(=O)OCCOC(=O)c2ccc(-c3c4nc(c(-c5c(F)cccc5F)c5ccc([nH]5)c(-c5c(F)cccc5F)c5nc(c(-c6c(F)cccc6F)c6ccc3[nH]6)C=C5)C=C4)cc2)c1
REMARK SMILES IDX 24 1 22 2 23 3 21 4 17 5 18 6 84 7 19 8 20 9 16 10 1 11 2 12
REMARK SMILES IDX 3 14 4 15 5 16 6 17 15 18 7 19 8 20 9 21 10 22 14 23 11 24
REMARK SMILES IDX 13 25 12 26 25 27 26 28 27 29 28 30 29 31 30 32 31 33 83 34
REMARK SMILES IDX 32 35 82 36 33 37 34 38 35 39 76 40 36 41 81 42 75 43 77 44
REMARK SMILES IDX 37 45 80 46 74 47 73 48 38 50 64 51 47 52 63 53 48 54 51 55
REMARK SMILES IDX 62 56 78 57 49 58 50 59 61 61 79 62 52 63 39 64 40 65 45 66
REMARK SMILES IDX 41 67 42 68 44 69 46 70 43 71 65 72 66 73 71 74 67 75 68 76
REMARK SMILES IDX 70 77 72 78 69 79 53 80 54 81 59 82 55 83 56 84 58 85 60 86
REMARK SMILES IDX 57 87
REMARK H PARENT 16 13 77 49 51 60
REMARK Flexibility Score: inf
ROOT
ATOM      1  O   UNL A   1      40.959  20.030  26.794  1.00  0.00    -0.458 OA
ENDROOT
BRANCH   1   2
ATOM      2  C   UNL A   1      39.841  20.047  26.021  1.00  0.00     0.338 C 
ATOM      3  O   UNL A   1      39.350  19.104  25.435  1.00  0.00    -0.246 OA
BRANCH   2   4
ATOM      4  C   UNL A   1      39.196  21.386  26.084  1.00  0.00     0.062 A 
ATOM      5  C   UNL A   1      37.477  22.963  25.439  1.00  0.00     0.042 A 
ATOM      6  C   UNL A   1      38.162  23.975  26.124  1.00  0.00     0.026 A 
ATOM      7  C   UNL A   1      38.026  21.680  25.376  1.00  0.00     0.041 A 
ATOM      8  C   UNL A   1      39.306  23.678  26.861  1.00  0.00     0.003 A 
ATOM      9  C   UNL A   1      39.792  22.373  26.880  1.00  0.00     0.016 A 
BRANCH   5  10
ATOM     10  N   UNL A   1      36.229  23.301  24.885  1.00  0.00    -0.325 N 
ATOM     11  O   UNL A   1      36.630  22.885  22.632  1.00  0.00    -0.274 OA
ATOM     12  C   UNL A   1      35.877  23.204  23.551  1.00  0.00     0.234 C 
ATOM     13  H   UNL A   1      35.541  23.637  25.504  1.00  0.00     0.169 HD
BRANCH  12  14
ATOM     14  C   UNL A   1      34.440  23.586  23.242  1.00  0.00     0.177 C 
BRANCH  14  15
ATOM     15  S   UNL A   1      33.287  23.323  24.614  1.00  0.00    -0.084 SA
BRANCH  15  16
ATOM     16  C   UNL A   1      33.024  21.599  24.508  1.00  0.00     0.175 A 
ATOM     17  N   UNL A   1      32.375  21.069  23.496  1.00  0.00    -0.131 NA
ATOM     18  S   UNL A   1      33.679  20.464  25.608  1.00  0.00    -0.086 S 
ATOM     19  N   UNL A   1      32.418  19.687  23.524  1.00  0.00    -0.137 NA
ATOM     20  C   UNL A   1      33.078  19.225  24.570  1.00  0.00     0.148 A 
BRANCH  20  21
ATOM     21  C   UNL A   1      33.400  17.817  24.808  1.00  0.00     0.015 A 
ATOM     22  C   UNL A   1      32.443  16.898  25.246  1.00  0.00     0.031 A 
ATOM     23  C   UNL A   1      34.707  17.369  24.593  1.00  0.00     0.031 A 
ATOM     24  C   UNL A   1      32.840  15.589  25.468  1.00  0.00     0.111 A 
ATOM     25  C   UNL A   1      35.008  16.043  24.853  1.00  0.00     0.111 A 
ATOM     26  N   UNL A   1      34.101  15.145  25.290  1.00  0.00    -0.265 NA
ENDBRANCH  20  21
ENDBRANCH  15  16
ENDBRANCH  14  15
ENDBRANCH  12  14
ENDBRANCH   5  10
ENDBRANCH   2   4
ENDBRANCH   1   2
BRANCH   1  27
ATOM     27  C   UNL A   1      42.195  20.378  26.140  1.00  0.00     0.275 C 
BRANCH  27  28
ATOM     28  C   UNL A   1      42.934  19.132  25.651  1.00  0.00     0.275 C 
BRANCH  28  29
ATOM     29  O   UNL A   1      43.427  19.338  24.313  1.00  0.00    -0.458 OA
BRANCH  29  30
ATOM     30  C   UNL A   1      44.760  19.524  24.200  1.00  0.00     0.338 C 
ATOM     31  O   UNL A   1      45.600  18.733  23.809  1.00  0.00    -0.246 OA
BRANCH  30  32
ATOM     32  C   UNL A   1      45.077  20.927  24.508  1.00  0.00     0.060 A 
ATOM     33  C   UNL A   1      45.730  21.180  25.710  1.00  0.00     0.016 A 
ATOM     34  C   UNL A   1      44.635  21.981  23.713  1.00  0.00     0.016 A 
ATOM     35  C   UNL A   1      45.929  22.485  26.147  1.00  0.00     0.010 A 
ATOM     36  C   UNL A   1      44.860  23.300  24.137  1.00  0.00     0.010 A 
ATOM     37  C   UNL A   1      45.486  23.564  25.370  1.00  0.00    -0.014 A 
BRANCH  37  38
ATOM     38  C   UNL A   1      45.608  24.945  25.915  1.00  0.00     0.031 A 
ATOM     39  C   UNL A   1      46.918  25.682  25.818  1.00  0.00     0.074 A 
ATOM     40  C   UNL A   1      44.529  25.576  26.420  1.00  0.00     0.049 A 
ATOM     41  N   UNL A   1      47.235  26.873  26.263  1.00  0.00    -0.248 NA
ATOM     42  C   UNL A   1      48.018  24.987  25.132  1.00  0.00     0.031 C 
ATOM     43  C   UNL A   1      43.188  25.003  26.530  1.00  0.00     0.029 A 
ATOM     44  N   UNL A   1      44.387  26.850  26.915  1.00  0.00    -0.354 N 
ATOM     45  C   UNL A   1      48.575  27.053  25.943  1.00  0.00     0.074 A 
ATOM     46  C   UNL A   1      49.017  25.845  25.279  1.00  0.00     0.031 C 
ATOM     47  C   UNL A   1      42.352  25.932  27.020  1.00  0.00     0.029 A 
ATOM     48  C   UNL A   1      43.106  27.147  27.313  1.00  0.00     0.049 A 
ATOM     49  H   UNL A   1      45.133  27.491  26.976  1.00  0.00     0.167 HD
ATOM     50  C   UNL A   1      49.366  28.130  26.174  1.00  0.00     0.037 A 
ATOM     51  C   UNL A   1      42.599  28.265  27.866  1.00  0.00     0.037 A 
ATOM     52  C   UNL A   1      48.924  29.351  26.796  1.00  0.00     0.049 A 
ATOM     53  C   UNL A   1      43.504  29.437  28.131  1.00  0.00     0.074 A 
ATOM     54  C   UNL A   1      49.657  30.492  27.079  1.00  0.00     0.029 A 
ATOM     55  N   UNL A   1      47.626  29.599  27.216  1.00  0.00    -0.354 N 
ATOM     56  N   UNL A   1      44.779  29.576  27.863  1.00  0.00    -0.248 NA
ATOM     57  C   UNL A   1      42.896  30.607  28.783  1.00  0.00     0.031 C 
ATOM     58  C   UNL A   1      48.809  31.419  27.695  1.00  0.00     0.029 A 
ATOM     59  C   UNL A   1      47.539  30.871  27.759  1.00  0.00     0.049 A 
ATOM     60  H   UNL A   1      46.878  28.964  27.141  1.00  0.00     0.167 HD
ATOM     61  C   UNL A   1      45.122  30.850  28.298  1.00  0.00     0.074 A 
ATOM     62  C   UNL A   1      43.915  31.452  28.822  1.00  0.00     0.031 C 
ATOM     63  C   UNL A   1      46.330  31.462  28.273  1.00  0.00     0.037 A 
BRANCH  50  64
ATOM     64  C   UNL A   1      50.808  28.024  25.771  1.00  0.00     0.057 A 
ATOM     65  C   UNL A   1      51.822  27.748  26.698  1.00  0.00     0.134 A 
ATOM     66  C   UNL A   1      51.183  28.172  24.429  1.00  0.00     0.134 A 
ATOM     67  F   UNL A   1      51.532  27.610  28.001  1.00  0.00    -0.206 F 
ATOM     68  C   UNL A   1      53.158  27.641  26.307  1.00  0.00     0.040 A 
ATOM     69  C   UNL A   1      52.512  28.043  24.023  1.00  0.00     0.040 A 
ATOM     70  F   UNL A   1      50.261  28.433  23.489  1.00  0.00    -0.206 F 
ATOM     71  C   UNL A   1      53.505  27.783  24.965  1.00  0.00     0.006 A 
ENDBRANCH  50  64
BRANCH  51  72
ATOM     72  C   UNL A   1      41.159  28.333  28.228  1.00  0.00     0.057 A 
ATOM     73  C   UNL A   1      40.208  28.833  27.331  1.00  0.00     0.134 A 
ATOM     74  C   UNL A   1      40.706  27.930  29.490  1.00  0.00     0.134 A 
ATOM     75  F   UNL A   1      40.585  29.261  26.117  1.00  0.00    -0.206 F 
ATOM     76  C   UNL A   1      38.861  28.944  27.680  1.00  0.00     0.040 A 
ATOM     77  C   UNL A   1      39.359  28.010  29.843  1.00  0.00     0.040 A 
ATOM     78  F   UNL A   1      41.568  27.446  30.397  1.00  0.00    -0.206 F 
ATOM     79  C   UNL A   1      38.432  28.526  28.938  1.00  0.00     0.006 A 
ENDBRANCH  51  72
BRANCH  63  80
ATOM     80  C   UNL A   1      46.392  32.867  28.798  1.00  0.00     0.057 A 
ATOM     81  C   UNL A   1      46.181  33.976  27.969  1.00  0.00     0.134 A 
ATOM     82  C   UNL A   1      46.666  33.111  30.149  1.00  0.00     0.134 A 
ATOM     83  F   UNL A   1      45.929  33.809  26.662  1.00  0.00    -0.206 F 
ATOM     84  C   UNL A   1      46.276  35.280  28.458  1.00  0.00     0.040 A 
ATOM     85  C   UNL A   1      46.738  34.409  30.656  1.00  0.00     0.040 A 
ATOM     86  F   UNL A   1      46.868  32.093  30.999  1.00  0.00    -0.206 F 
ATOM     87  C   UNL A   1      46.553  35.499  29.807  1.00  0.00     0.006 A 
ENDBRANCH  63  80
ENDBRANCH  37  38
ENDBRANCH  30  32
ENDBRANCH  29  30
ENDBRANCH  28  29
ENDBRANCH  27  28
ENDBRANCH   1  27
TORSDOF 16
ENDMDL
