MODEL 1
REMARK VINA RESULT:     -10.2      0.000      0.000
REMARK SMILES CSCC[C@H](NC(=O)c1nc(C(C)C)n[nH]1)C(=O)OCCOC(=O)c1ccc(-c2c3nc(c(-c4c(F)cccc4F)c4ccc([nH]4)c(-c4c(F)cccc4F)c4nc(c(-c5c(F)cccc5F)c5ccc2[nH]5)C=C4)C=C3)cc1
REMARK SMILES IDX 20 1 19 2 17 3 18 4 5 5 4 6 3 7 2 8 1 9 6 10 7 11 8 13 9 14
REMARK SMILES IDX 10 15 16 16 11 17 15 18 12 20 13 21 14 22 21 23 22 24 23 25
REMARK SMILES IDX 24 26 25 27 26 28 78 29 27 30 77 31 28 32 29 33 30 34 71 35
REMARK SMILES IDX 31 36 76 37 70 38 72 39 32 40 75 41 69 42 68 43 33 45 59 46
REMARK SMILES IDX 42 47 58 48 43 49 46 50 57 51 73 52 44 53 45 54 56 56 74 57
REMARK SMILES IDX 47 58 34 59 35 60 40 61 36 62 37 63 39 64 41 65 38 66 60 67
REMARK SMILES IDX 61 68 66 69 62 70 63 71 65 72 67 73 64 74 48 75 49 76 54 77
REMARK SMILES IDX 50 78 51 79 53 80 55 81 52 82
REMARK H PARENT 6 12 16 19 72 44 46 55
REMARK Flexibility Score: inf
ROOT
ATOM      1  C   UNL A   1      35.456  21.456  26.133  1.00  0.00     0.274 C 
ENDROOT
BRANCH   1   2
ATOM      2  O   UNL A   1      35.123  22.813  25.776  1.00  0.00    -0.461 OA
BRANCH   2   3
ATOM      3  C   UNL A   1      33.897  22.997  25.212  1.00  0.00     0.328 C 
ATOM      4  O   UNL A   1      32.873  23.202  25.854  1.00  0.00    -0.250 OA
BRANCH   3   5
ATOM      5  C   UNL A   1      33.953  23.068  23.667  1.00  0.00     0.193 C 
BRANCH   5   6
ATOM      6  C   UNL A   1      34.430  24.454  23.214  1.00  0.00     0.048 C 
BRANCH   6   7
ATOM      7  C   UNL A   1      33.364  25.360  22.583  1.00  0.00     0.072 C 
BRANCH   7   8
ATOM      8  S   UNL A   1      32.395  26.296  23.819  1.00  0.00    -0.165 SA
ATOM      9  C   UNL A   1      30.741  25.656  23.462  1.00  0.00     0.085 C 
ENDBRANCH   7   8
ENDBRANCH   6   7
ENDBRANCH   5   6
BRANCH   5  10
ATOM     10  N   UNL A   1      32.767  22.477  23.008  1.00  0.00    -0.336 N 
ATOM     11  C   UNL A   1      32.265  21.197  22.945  1.00  0.00     0.289 C 
ATOM     12  H   UNL A   1      32.226  23.134  22.515  1.00  0.00     0.164 HD
ATOM     13  O   UNL A   1      31.527  20.917  21.998  1.00  0.00    -0.266 OA
BRANCH  11  14
ATOM     14  C   UNL A   1      32.637  20.224  23.931  1.00  0.00     0.214 A 
ATOM     15  N   UNL A   1      33.493  19.241  23.770  1.00  0.00    -0.207 NA
ATOM     16  N   UNL A   1      32.161  20.162  25.207  1.00  0.00    -0.255 N 
ATOM     17  C   UNL A   1      33.299  18.452  24.865  1.00  0.00     0.153 A 
ATOM     18  N   UNL A   1      32.498  18.993  25.794  1.00  0.00    -0.158 NA
ATOM     19  H   UNL A   1      31.642  20.876  25.644  1.00  0.00     0.192 HD
BRANCH  17  20
ATOM     20  C   UNL A   1      33.760  17.029  24.841  1.00  0.00     0.053 C 
ATOM     21  C   UNL A   1      32.789  16.078  25.522  1.00  0.00     0.016 C 
ATOM     22  C   UNL A   1      34.090  16.573  23.418  1.00  0.00     0.016 C 
ENDBRANCH  17  20
ENDBRANCH  11  14
ENDBRANCH   5  10
ENDBRANCH   3   5
ENDBRANCH   2   3
ENDBRANCH   1   2
BRANCH   1  23
ATOM     23  C   UNL A   1      36.386  20.822  25.092  1.00  0.00     0.275 C 
BRANCH  23  24
ATOM     24  O   UNL A   1      37.620  21.553  24.930  1.00  0.00    -0.458 OA
BRANCH  24  25
ATOM     25  C   UNL A   1      38.636  21.143  25.721  1.00  0.00     0.338 C 
ATOM     26  O   UNL A   1      39.094  20.016  25.815  1.00  0.00    -0.246 OA
BRANCH  25  27
ATOM     27  C   UNL A   1      39.268  22.293  26.383  1.00  0.00     0.060 A 
ATOM     28  C   UNL A   1      38.778  23.558  26.072  1.00  0.00     0.016 A 
ATOM     29  C   UNL A   1      40.413  22.156  27.165  1.00  0.00     0.016 A 
ATOM     30  C   UNL A   1      39.463  24.697  26.469  1.00  0.00     0.010 A 
ATOM     31  C   UNL A   1      41.073  23.310  27.616  1.00  0.00     0.010 A 
ATOM     32  C   UNL A   1      40.619  24.588  27.248  1.00  0.00    -0.014 A 
BRANCH  32  33
ATOM     33  C   UNL A   1      41.350  25.824  27.627  1.00  0.00     0.031 A 
ATOM     34  C   UNL A   1      40.685  26.859  28.491  1.00  0.00     0.074 A 
ATOM     35  C   UNL A   1      42.632  25.991  27.249  1.00  0.00     0.049 A 
ATOM     36  N   UNL A   1      41.099  28.058  28.810  1.00  0.00    -0.248 NA
ATOM     37  C   UNL A   1      39.386  26.494  29.078  1.00  0.00     0.031 C 
ATOM     38  C   UNL A   1      43.425  25.022  26.489  1.00  0.00     0.029 A 
ATOM     39  N   UNL A   1      43.501  27.032  27.465  1.00  0.00    -0.354 N 
ATOM     40  C   UNL A   1      40.092  28.610  29.592  1.00  0.00     0.074 A 
ATOM     41  C   UNL A   1      39.050  27.612  29.705  1.00  0.00     0.031 C 
ATOM     42  C   UNL A   1      44.667  25.504  26.322  1.00  0.00     0.029 A 
ATOM     43  C   UNL A   1      44.731  26.848  26.883  1.00  0.00     0.049 A 
ATOM     44  H   UNL A   1      43.264  27.833  27.987  1.00  0.00     0.167 HD
ATOM     45  C   UNL A   1      40.045  29.840  30.157  1.00  0.00     0.037 A 
ATOM     46  C   UNL A   1      45.777  27.686  26.765  1.00  0.00     0.037 A 
ATOM     47  C   UNL A   1      41.104  30.811  30.074  1.00  0.00     0.049 A 
ATOM     48  C   UNL A   1      45.671  29.071  27.334  1.00  0.00     0.074 A 
ATOM     49  C   UNL A   1      41.149  32.087  30.607  1.00  0.00     0.029 A 
ATOM     50  N   UNL A   1      42.312  30.606  29.424  1.00  0.00    -0.354 N 
ATOM     51  N   UNL A   1      44.686  29.611  28.011  1.00  0.00    -0.248 NA
ATOM     52  C   UNL A   1      46.807  29.972  27.102  1.00  0.00     0.031 C 
ATOM     53  C   UNL A   1      42.369  32.669  30.248  1.00  0.00     0.029 A 
ATOM     54  C   UNL A   1      43.101  31.739  29.526  1.00  0.00     0.049 A 
ATOM     55  H   UNL A   1      42.570  29.777  28.958  1.00  0.00     0.167 HD
ATOM     56  C   UNL A   1      45.090  30.907  28.298  1.00  0.00     0.074 A 
ATOM     57  C   UNL A   1      46.414  31.069  27.735  1.00  0.00     0.031 C 
ATOM     58  C   UNL A   1      44.420  31.879  28.966  1.00  0.00     0.037 A 
BRANCH  45  59
ATOM     59  C   UNL A   1      38.785  30.225  30.875  1.00  0.00     0.057 A 
ATOM     60  C   UNL A   1      38.594  29.970  32.238  1.00  0.00     0.134 A 
ATOM     61  C   UNL A   1      37.761  30.892  30.191  1.00  0.00     0.134 A 
ATOM     62  F   UNL A   1      39.530  29.320  32.946  1.00  0.00    -0.206 F 
ATOM     63  C   UNL A   1      37.420  30.352  32.892  1.00  0.00     0.040 A 
ATOM     64  C   UNL A   1      36.593  31.299  30.838  1.00  0.00     0.040 A 
ATOM     65  F   UNL A   1      37.883  31.170  28.884  1.00  0.00    -0.206 F 
ATOM     66  C   UNL A   1      36.418  31.024  32.193  1.00  0.00     0.006 A 
ENDBRANCH  45  59
BRANCH  46  67
ATOM     67  C   UNL A   1      46.990  27.256  26.023  1.00  0.00     0.057 A 
ATOM     68  C   UNL A   1      47.096  27.429  24.640  1.00  0.00     0.134 A 
ATOM     69  C   UNL A   1      48.073  26.663  26.685  1.00  0.00     0.134 A 
ATOM     70  F   UNL A   1      46.082  27.967  23.946  1.00  0.00    -0.206 F 
ATOM     71  C   UNL A   1      48.232  27.021  23.939  1.00  0.00     0.040 A 
ATOM     72  C   UNL A   1      49.226  26.277  26.001  1.00  0.00     0.040 A 
ATOM     73  F   UNL A   1      48.034  26.470  28.012  1.00  0.00    -0.206 F 
ATOM     74  C   UNL A   1      49.305  26.450  24.622  1.00  0.00     0.006 A 
ENDBRANCH  46  67
BRANCH  58  75
ATOM     75  C   UNL A   1      45.123  33.189  29.152  1.00  0.00     0.057 A 
ATOM     76  C   UNL A   1      44.959  34.247  28.250  1.00  0.00     0.134 A 
ATOM     77  C   UNL A   1      45.937  33.408  30.270  1.00  0.00     0.134 A 
ATOM     78  F   UNL A   1      44.203  34.092  27.152  1.00  0.00    -0.206 F 
ATOM     79  C   UNL A   1      45.590  35.475  28.448  1.00  0.00     0.040 A 
ATOM     80  C   UNL A   1      46.556  34.638  30.490  1.00  0.00     0.040 A 
ATOM     81  F   UNL A   1      46.129  32.435  31.174  1.00  0.00    -0.206 F 
ATOM     82  C   UNL A   1      46.386  35.675  29.574  1.00  0.00     0.006 A 
ENDBRANCH  58  75
ENDBRANCH  32  33
ENDBRANCH  25  27
ENDBRANCH  24  25
ENDBRANCH  23  24
ENDBRANCH   1  23
TORSDOF 17
ENDMDL
MODEL 2
REMARK VINA RESULT:     -10.2      4.650      9.362
REMARK SMILES CSCC[C@H](NC(=O)c1nc(C(C)C)n[nH]1)C(=O)OCCOC(=O)c1ccc(-c2c3nc(c(-c4c(F)cccc4F)c4ccc([nH]4)c(-c4c(F)cccc4F)c4nc(c(-c5c(F)cccc5F)c5ccc2[nH]5)C=C4)C=C3)cc1
REMARK SMILES IDX 20 1 19 2 17 3 18 4 5 5 4 6 3 7 2 8 1 9 6 10 7 11 8 13 9 14
REMARK SMILES IDX 10 15 16 16 11 17 15 18 12 20 13 21 14 22 21 23 22 24 23 25
REMARK SMILES IDX 24 26 25 27 26 28 78 29 27 30 77 31 28 32 29 33 30 34 71 35
REMARK SMILES IDX 31 36 76 37 70 38 72 39 32 40 75 41 69 42 68 43 33 45 59 46
REMARK SMILES IDX 42 47 58 48 43 49 46 50 57 51 73 52 44 53 45 54 56 56 74 57
REMARK SMILES IDX 47 58 34 59 35 60 40 61 36 62 37 63 39 64 41 65 38 66 60 67
REMARK SMILES IDX 61 68 66 69 62 70 63 71 65 72 67 73 64 74 48 75 49 76 54 77
REMARK SMILES IDX 50 78 51 79 53 80 55 81 52 82
REMARK H PARENT 6 12 16 19 72 44 46 55
REMARK Flexibility Score: inf
ROOT
ATOM      1  C   UNL A   1      31.754  29.178  25.585  1.00  0.00     0.274 C 
ENDROOT
BRANCH   1   2
ATOM      2  O   UNL A   1      33.111  28.690  25.537  1.00  0.00    -0.461 OA
BRANCH   2   3
ATOM      3  C   UNL A   1      33.522  28.189  24.340  1.00  0.00     0.328 C 
ATOM      4  O   UNL A   1      34.253  28.789  23.562  1.00  0.00    -0.250 OA
BRANCH   3   5
ATOM      5  C   UNL A   1      33.090  26.718  24.127  1.00  0.00     0.193 C 
BRANCH   5   6
ATOM      6  C   UNL A   1      34.046  25.769  24.863  1.00  0.00     0.048 C 
BRANCH   6   7
ATOM      7  C   UNL A   1      33.442  24.974  26.028  1.00  0.00     0.072 C 
BRANCH   7   8
ATOM      8  S   UNL A   1      32.318  23.640  25.481  1.00  0.00    -0.165 SA
ATOM      9  C   UNL A   1      32.076  22.778  27.053  1.00  0.00     0.085 C 
ENDBRANCH   7   8
ENDBRANCH   6   7
ENDBRANCH   5   6
BRANCH   5  10
ATOM     10  N   UNL A   1      32.725  26.409  22.726  1.00  0.00    -0.336 N 
ATOM     11  C   UNL A   1      31.671  26.781  21.924  1.00  0.00     0.289 C 
ATOM     12  H   UNL A   1      33.370  25.818  22.276  1.00  0.00     0.164 HD
ATOM     13  O   UNL A   1      31.394  26.054  20.968  1.00  0.00    -0.266 OA
BRANCH  11  14
ATOM     14  C   UNL A   1      30.903  27.953  22.234  1.00  0.00     0.214 A 
ATOM     15  N   UNL A   1      29.719  27.979  22.801  1.00  0.00    -0.207 NA
ATOM     16  N   UNL A   1      31.282  29.239  21.991  1.00  0.00    -0.255 N 
ATOM     17  C   UNL A   1      29.301  29.265  22.631  1.00  0.00     0.153 A 
ATOM     18  N   UNL A   1      30.244  30.089  22.152  1.00  0.00    -0.158 NA
ATOM     19  H   UNL A   1      32.192  29.514  21.734  1.00  0.00     0.192 HD
BRANCH  17  20
ATOM     20  C   UNL A   1      27.844  29.590  22.743  1.00  0.00     0.053 C 
ATOM     21  C   UNL A   1      27.036  28.479  23.395  1.00  0.00     0.016 C 
ATOM     22  C   UNL A   1      27.623  30.933  23.444  1.00  0.00     0.016 C 
ENDBRANCH  17  20
ENDBRANCH  11  14
ENDBRANCH   5  10
ENDBRANCH   3   5
ENDBRANCH   2   3
ENDBRANCH   1   2
BRANCH   1  23
ATOM     23  C   UNL A   1      31.704  30.624  26.091  1.00  0.00     0.275 C 
BRANCH  23  24
ATOM     24  O   UNL A   1      32.444  30.811  27.315  1.00  0.00    -0.458 OA
BRANCH  24  25
ATOM     25  C   UNL A   1      33.234  31.907  27.345  1.00  0.00     0.338 C 
ATOM     26  O   UNL A   1      32.906  33.065  27.142  1.00  0.00    -0.246 OA
BRANCH  25  27
ATOM     27  C   UNL A   1      34.580  31.557  27.819  1.00  0.00     0.060 A 
ATOM     28  C   UNL A   1      34.798  30.238  28.207  1.00  0.00     0.016 A 
ATOM     29  C   UNL A   1      35.562  32.523  28.033  1.00  0.00     0.016 A 
ATOM     30  C   UNL A   1      35.958  29.883  28.880  1.00  0.00     0.010 A 
ATOM     31  C   UNL A   1      36.761  32.150  28.661  1.00  0.00     0.010 A 
ATOM     32  C   UNL A   1      36.956  30.833  29.113  1.00  0.00    -0.014 A 
BRANCH  32  33
ATOM     33  C   UNL A   1      38.171  30.430  29.867  1.00  0.00     0.031 A 
ATOM     34  C   UNL A   1      39.201  29.548  29.221  1.00  0.00     0.074 A 
ATOM     35  C   UNL A   1      38.382  30.908  31.109  1.00  0.00     0.049 A 
ATOM     36  N   UNL A   1      40.249  28.974  29.754  1.00  0.00    -0.248 NA
ATOM     37  C   UNL A   1      39.033  29.279  27.784  1.00  0.00     0.031 C 
ATOM     38  C   UNL A   1      37.509  31.847  31.816  1.00  0.00     0.029 A 
ATOM     39  N   UNL A   1      39.406  30.679  31.994  1.00  0.00    -0.354 N 
ATOM     40  C   UNL A   1      40.838  28.238  28.734  1.00  0.00     0.074 A 
ATOM     41  C   UNL A   1      40.034  28.442  27.547  1.00  0.00     0.031 C 
ATOM     42  C   UNL A   1      38.045  32.130  33.014  1.00  0.00     0.029 A 
ATOM     43  C   UNL A   1      39.248  31.326  33.194  1.00  0.00     0.049 A 
ATOM     44  H   UNL A   1      40.180  30.105  31.787  1.00  0.00     0.167 HD
ATOM     45  C   UNL A   1      41.944  27.459  28.789  1.00  0.00     0.037 A 
ATOM     46  C   UNL A   1      39.959  31.244  34.334  1.00  0.00     0.037 A 
ATOM     47  C   UNL A   1      42.761  27.295  29.963  1.00  0.00     0.049 A 
ATOM     48  C   UNL A   1      41.138  30.316  34.392  1.00  0.00     0.074 A 
ATOM     49  C   UNL A   1      43.899  26.523  30.121  1.00  0.00     0.029 A 
ATOM     50  N   UNL A   1      42.532  27.924  31.178  1.00  0.00    -0.354 N 
ATOM     51  N   UNL A   1      41.646  29.567  33.444  1.00  0.00    -0.248 NA
ATOM     52  C   UNL A   1      41.826  30.200  35.685  1.00  0.00     0.031 C 
ATOM     53  C   UNL A   1      44.338  26.656  31.443  1.00  0.00     0.029 A 
ATOM     54  C   UNL A   1      43.496  27.543  32.096  1.00  0.00     0.049 A 
ATOM     55  H   UNL A   1      41.793  28.549  31.360  1.00  0.00     0.167 HD
ATOM     56  C   UNL A   1      42.721  28.904  34.020  1.00  0.00     0.074 A 
ATOM     57  C   UNL A   1      42.801  29.349  35.395  1.00  0.00     0.031 C 
ATOM     58  C   UNL A   1      43.564  28.003  33.458  1.00  0.00     0.037 A 
BRANCH  45  59
ATOM     59  C   UNL A   1      42.310  26.686  27.557  1.00  0.00     0.057 A 
ATOM     60  C   UNL A   1      41.838  25.390  27.319  1.00  0.00     0.134 A 
ATOM     61  C   UNL A   1      43.125  27.267  26.577  1.00  0.00     0.134 A 
ATOM     62  F   UNL A   1      41.066  24.771  28.226  1.00  0.00    -0.206 F 
ATOM     63  C   UNL A   1      42.176  24.693  26.157  1.00  0.00     0.040 A 
ATOM     64  C   UNL A   1      43.452  26.591  25.401  1.00  0.00     0.040 A 
ATOM     65  F   UNL A   1      43.608  28.508  26.741  1.00  0.00    -0.206 F 
ATOM     66  C   UNL A   1      42.981  25.296  25.191  1.00  0.00     0.006 A 
ENDBRANCH  45  59
BRANCH  46  67
ATOM     67  C   UNL A   1      39.536  32.018  35.528  1.00  0.00     0.057 A 
ATOM     68  C   UNL A   1      40.104  33.258  35.831  1.00  0.00     0.134 A 
ATOM     69  C   UNL A   1      38.548  31.532  36.395  1.00  0.00     0.134 A 
ATOM     70  F   UNL A   1      41.073  33.765  35.054  1.00  0.00    -0.206 F 
ATOM     71  C   UNL A   1      39.713  33.986  36.956  1.00  0.00     0.040 A 
ATOM     72  C   UNL A   1      38.126  32.261  37.507  1.00  0.00     0.040 A 
ATOM     73  F   UNL A   1      37.963  30.347  36.160  1.00  0.00    -0.206 F 
ATOM     74  C   UNL A   1      38.714  33.490  37.793  1.00  0.00     0.006 A 
ENDBRANCH  46  67
BRANCH  58  75
ATOM     75  C   UNL A   1      44.664  27.466  34.323  1.00  0.00     0.057 A 
ATOM     76  C   UNL A   1      44.514  26.281  35.052  1.00  0.00     0.134 A 
ATOM     77  C   UNL A   1      45.901  28.119  34.389  1.00  0.00     0.134 A 
ATOM     78  F   UNL A   1      43.348  25.618  35.040  1.00  0.00    -0.206 F 
ATOM     79  C   UNL A   1      45.555  25.769  35.828  1.00  0.00     0.040 A 
ATOM     80  C   UNL A   1      46.955  27.607  35.145  1.00  0.00     0.040 A 
ATOM     81  F   UNL A   1      46.108  29.257  33.708  1.00  0.00    -0.206 F 
ATOM     82  C   UNL A   1      46.782  26.429  35.870  1.00  0.00     0.006 A 
ENDBRANCH  58  75
ENDBRANCH  32  33
ENDBRANCH  25  27
ENDBRANCH  24  25
ENDBRANCH  23  24
ENDBRANCH   1  23
TORSDOF 17
ENDMDL
MODEL 3
REMARK VINA RESULT:     -10.0      2.574      6.536
REMARK SMILES CSCC[C@H](NC(=O)c1nc(C(C)C)n[nH]1)C(=O)OCCOC(=O)c1ccc(-c2c3nc(c(-c4c(F)cccc4F)c4ccc([nH]4)c(-c4c(F)cccc4F)c4nc(c(-c5c(F)cccc5F)c5ccc2[nH]5)C=C4)C=C3)cc1
REMARK SMILES IDX 20 1 19 2 17 3 18 4 5 5 4 6 3 7 2 8 1 9 6 10 7 11 8 13 9 14
REMARK SMILES IDX 10 15 16 16 11 17 15 18 12 20 13 21 14 22 21 23 22 24 23 25
REMARK SMILES IDX 24 26 25 27 26 28 78 29 27 30 77 31 28 32 29 33 30 34 71 35
REMARK SMILES IDX 31 36 76 37 70 38 72 39 32 40 75 41 69 42 68 43 33 45 59 46
REMARK SMILES IDX 42 47 58 48 43 49 46 50 57 51 73 52 44 53 45 54 56 56 74 57
REMARK SMILES IDX 47 58 34 59 35 60 40 61 36 62 37 63 39 64 41 65 38 66 60 67
REMARK SMILES IDX 61 68 66 69 62 70 63 71 65 72 67 73 64 74 48 75 49 76 54 77
REMARK SMILES IDX 50 78 51 79 53 80 55 81 52 82
REMARK H PARENT 6 12 16 19 72 44 46 55
REMARK Flexibility Score: inf
ROOT
ATOM      1  C   UNL A   1      38.774  21.510  26.067  1.00  0.00     0.274 C 
ENDROOT
BRANCH   1   2
ATOM      2  O   UNL A   1      37.768  22.075  25.200  1.00  0.00    -0.461 OA
BRANCH   2   3
ATOM      3  C   UNL A   1      37.245  23.268  25.594  1.00  0.00     0.328 C 
ATOM      4  O   UNL A   1      37.919  24.257  25.860  1.00  0.00    -0.250 OA
BRANCH   3   5
ATOM      5  C   UNL A   1      35.698  23.294  25.530  1.00  0.00     0.193 C 
BRANCH   5   6
ATOM      6  C   UNL A   1      35.203  24.702  25.173  1.00  0.00     0.048 C 
BRANCH   6   7
ATOM      7  C   UNL A   1      34.445  24.832  23.845  1.00  0.00     0.072 C 
BRANCH   7   8
ATOM      8  S   UNL A   1      33.476  23.341  23.422  1.00  0.00    -0.165 SA
ATOM      9  C   UNL A   1      32.099  23.530  24.579  1.00  0.00     0.085 C 
ENDBRANCH   7   8
ENDBRANCH   6   7
ENDBRANCH   5   6
BRANCH   5  10
ATOM     10  N   UNL A   1      35.051  22.579  26.653  1.00  0.00    -0.336 N 
ATOM     11  C   UNL A   1      34.327  21.412  26.734  1.00  0.00     0.289 C 
ATOM     12  H   UNL A   1      35.163  23.031  27.520  1.00  0.00     0.164 HD
ATOM     13  O   UNL A   1      33.560  21.279  27.689  1.00  0.00    -0.266 OA
BRANCH  11  14
ATOM     14  C   UNL A   1      34.441  20.416  25.707  1.00  0.00     0.214 A 
ATOM     15  N   UNL A   1      33.455  19.911  25.002  1.00  0.00    -0.207 NA
ATOM     16  N   UNL A   1      35.600  19.832  25.291  1.00  0.00    -0.255 N 
ATOM     17  C   UNL A   1      34.016  18.837  24.375  1.00  0.00     0.153 A 
ATOM     18  N   UNL A   1      35.347  18.760  24.507  1.00  0.00    -0.158 NA
ATOM     19  H   UNL A   1      36.501  20.149  25.528  1.00  0.00     0.192 HD
BRANCH  17  20
ATOM     20  C   UNL A   1      33.135  17.755  23.833  1.00  0.00     0.053 C 
ATOM     21  C   UNL A   1      32.333  18.194  22.619  1.00  0.00     0.016 C 
ATOM     22  C   UNL A   1      33.929  16.477  23.552  1.00  0.00     0.016 C 
ENDBRANCH  17  20
ENDBRANCH  11  14
ENDBRANCH   5  10
ENDBRANCH   3   5
ENDBRANCH   2   3
ENDBRANCH   1   2
BRANCH   1  23
ATOM     23  C   UNL A   1      39.383  20.243  25.454  1.00  0.00     0.275 C 
BRANCH  23  24
ATOM     24  O   UNL A   1      40.338  19.607  26.328  1.00  0.00    -0.458 OA
BRANCH  24  25
ATOM     25  C   UNL A   1      41.633  19.762  25.971  1.00  0.00     0.338 C 
ATOM     26  O   UNL A   1      42.287  19.054  25.223  1.00  0.00    -0.246 OA
BRANCH  25  27
ATOM     27  C   UNL A   1      42.160  21.031  26.493  1.00  0.00     0.060 A 
ATOM     28  C   UNL A   1      42.048  21.255  27.862  1.00  0.00     0.016 A 
ATOM     29  C   UNL A   1      42.606  22.047  25.649  1.00  0.00     0.016 A 
ATOM     30  C   UNL A   1      42.304  22.509  28.395  1.00  0.00     0.010 A 
ATOM     31  C   UNL A   1      42.922  23.300  26.198  1.00  0.00     0.010 A 
ATOM     32  C   UNL A   1      42.747  23.548  27.571  1.00  0.00    -0.014 A 
BRANCH  32  33
ATOM     33  C   UNL A   1      42.978  24.889  28.165  1.00  0.00     0.031 A 
ATOM     34  C   UNL A   1      44.360  25.298  28.592  1.00  0.00     0.074 A 
ATOM     35  C   UNL A   1      41.960  25.767  28.263  1.00  0.00     0.049 A 
ATOM     36  N   UNL A   1      44.740  26.358  29.256  1.00  0.00    -0.248 NA
ATOM     37  C   UNL A   1      45.460  24.395  28.218  1.00  0.00     0.031 C 
ATOM     38  C   UNL A   1      40.591  25.533  27.799  1.00  0.00     0.029 A 
ATOM     39  N   UNL A   1      41.923  27.041  28.774  1.00  0.00    -0.354 N 
ATOM     40  C   UNL A   1      46.112  26.229  29.424  1.00  0.00     0.074 A 
ATOM     41  C   UNL A   1      46.501  24.988  28.786  1.00  0.00     0.031 C 
ATOM     42  C   UNL A   1      39.855  26.632  28.027  1.00  0.00     0.029 A 
ATOM     43  C   UNL A   1      40.675  27.612  28.731  1.00  0.00     0.049 A 
ATOM     44  H   UNL A   1      42.715  27.500  29.137  1.00  0.00     0.167 HD
ATOM     45  C   UNL A   1      46.965  27.067  30.058  1.00  0.00     0.037 A 
ATOM     46  C   UNL A   1      40.224  28.770  29.246  1.00  0.00     0.037 A 
ATOM     47  C   UNL A   1      46.577  28.319  30.654  1.00  0.00     0.049 A 
ATOM     48  C   UNL A   1      41.173  29.647  30.010  1.00  0.00     0.074 A 
ATOM     49  C   UNL A   1      47.366  29.237  31.324  1.00  0.00     0.029 A 
ATOM     50  N   UNL A   1      45.289  28.834  30.638  1.00  0.00    -0.354 N 
ATOM     51  N   UNL A   1      42.455  29.483  30.226  1.00  0.00    -0.248 NA
ATOM     52  C   UNL A   1      40.609  30.857  30.624  1.00  0.00     0.031 C 
ATOM     53  C   UNL A   1      46.549  30.291  31.748  1.00  0.00     0.029 A 
ATOM     54  C   UNL A   1      45.258  30.047  31.305  1.00  0.00     0.049 A 
ATOM     55  H   UNL A   1      44.512  28.400  30.216  1.00  0.00     0.167 HD
ATOM     56  C   UNL A   1      42.855  30.573  30.987  1.00  0.00     0.074 A 
ATOM     57  C   UNL A   1      41.682  31.399  31.183  1.00  0.00     0.031 C 
ATOM     58  C   UNL A   1      44.083  30.860  31.482  1.00  0.00     0.037 A 
BRANCH  45  59
ATOM     59  C   UNL A   1      48.397  26.636  30.183  1.00  0.00     0.057 A 
ATOM     60  C   UNL A   1      48.840  25.807  31.220  1.00  0.00     0.134 A 
ATOM     61  C   UNL A   1      49.339  27.035  29.226  1.00  0.00     0.134 A 
ATOM     62  F   UNL A   1      47.991  25.403  32.178  1.00  0.00    -0.206 F 
ATOM     63  C   UNL A   1      50.174  25.403  31.310  1.00  0.00     0.040 A 
ATOM     64  C   UNL A   1      50.669  26.620  29.292  1.00  0.00     0.040 A 
ATOM     65  F   UNL A   1      48.978  27.827  28.205  1.00  0.00    -0.206 F 
ATOM     66  C   UNL A   1      51.091  25.804  30.340  1.00  0.00     0.006 A 
ENDBRANCH  45  59
BRANCH  46  67
ATOM     67  C   UNL A   1      38.791  29.133  29.108  1.00  0.00     0.057 A 
ATOM     68  C   UNL A   1      38.272  29.604  27.898  1.00  0.00     0.134 A 
ATOM     69  C   UNL A   1      37.905  29.016  30.187  1.00  0.00     0.134 A 
ATOM     70  F   UNL A   1      39.076  29.763  26.835  1.00  0.00    -0.206 F 
ATOM     71  C   UNL A   1      36.927  29.952  27.766  1.00  0.00     0.040 A 
ATOM     72  C   UNL A   1      36.552  29.332  30.062  1.00  0.00     0.040 A 
ATOM     73  F   UNL A   1      38.340  28.570  31.376  1.00  0.00    -0.206 F 
ATOM     74  C   UNL A   1      36.061  29.808  28.849  1.00  0.00     0.006 A 
ENDBRANCH  46  67
BRANCH  58  75
ATOM     75  C   UNL A   1      44.227  32.136  32.254  1.00  0.00     0.057 A 
ATOM     76  C   UNL A   1      44.520  33.350  31.622  1.00  0.00     0.134 A 
ATOM     77  C   UNL A   1      44.023  32.157  33.640  1.00  0.00     0.134 A 
ATOM     78  F   UNL A   1      44.740  33.392  30.299  1.00  0.00    -0.206 F 
ATOM     79  C   UNL A   1      44.619  34.540  32.344  1.00  0.00     0.040 A 
ATOM     80  C   UNL A   1      44.098  33.343  34.369  1.00  0.00     0.040 A 
ATOM     81  F   UNL A   1      43.733  31.027  34.302  1.00  0.00    -0.206 F 
ATOM     82  C   UNL A   1      44.401  34.539  33.721  1.00  0.00     0.006 A 
ENDBRANCH  58  75
ENDBRANCH  32  33
ENDBRANCH  25  27
ENDBRANCH  24  25
ENDBRANCH  23  24
ENDBRANCH   1  23
TORSDOF 17
ENDMDL
