MODEL 1
REMARK VINA RESULT:     -11.7      0.000      0.000
REMARK SMILES Cc1cc(F)c([C@H](O)[C@H]2CCCC[C@@H]2C(=O)OCCOC(=O)c2ccc(-c3c4nc(c(-c5c(F)cccc5F)c5ccc([nH]5)c(-c5c(F)cccc5F)c5nc(c(-c6c(F)cccc6F)c6ccc3[nH]6)C=C5)C=C4)cc2)cc1F
REMARK SMILES IDX 18 1 17 2 15 3 16 4 14 5 9 6 10 7 11 8 13 9 12 10 7 11 6 12
REMARK SMILES IDX 1 13 2 14 3 15 78 16 4 17 77 18 79 19 5 20 8 21 19 23 20 24
REMARK SMILES IDX 21 25 22 26 23 27 24 28 76 29 25 30 75 31 26 32 27 33 28 34
REMARK SMILES IDX 69 35 29 36 74 37 68 38 70 39 30 40 73 41 67 42 66 43 31 45
REMARK SMILES IDX 57 46 40 47 56 48 41 49 44 50 55 51 71 52 42 53 43 54 54 56
REMARK SMILES IDX 72 57 45 58 32 59 33 60 38 61 34 62 35 63 37 64 39 65 36 66
REMARK SMILES IDX 58 67 59 68 64 69 60 70 61 71 63 72 65 73 62 74 46 75 47 76
REMARK SMILES IDX 52 77 48 78 49 79 51 80 53 81 50 82
REMARK H PARENT 8 22 70 44 44 55
REMARK Flexibility Score: inf
ROOT
ATOM      1  C   UNL A   1      31.633  30.918  26.360  1.00  0.00     0.274 C 
ENDROOT
BRANCH   1   2
ATOM      2  O   UNL A   1      32.318  29.894  27.109  1.00  0.00    -0.462 OA
BRANCH   2   3
ATOM      3  C   UNL A   1      31.773  28.644  27.073  1.00  0.00     0.309 C 
ATOM      4  O   UNL A   1      31.280  28.076  28.037  1.00  0.00    -0.252 OA
BRANCH   3   5
ATOM      5  C   UNL A   1      31.869  28.055  25.664  1.00  0.00     0.105 C 
ATOM      6  C   UNL A   1      31.058  26.732  25.494  1.00  0.00     0.037 C 
ATOM      7  C   UNL A   1      31.767  25.554  26.197  1.00  0.00     0.007 C 
ATOM      8  C   UNL A   1      33.228  25.404  25.814  1.00  0.00     0.000 C 
ATOM      9  C   UNL A   1      33.352  27.875  25.302  1.00  0.00     0.016 C 
ATOM     10  C   UNL A   1      33.996  26.700  26.035  1.00  0.00     0.001 C 
BRANCH   6  11
ATOM     11  C   UNL A   1      30.571  26.487  24.026  1.00  0.00     0.151 C 
BRANCH  11  12
ATOM     12  C   UNL A   1      29.918  27.657  23.328  1.00  0.00     0.019 A 
ATOM     13  C   UNL A   1      28.108  31.076  21.384  1.00  0.00     0.047 C 
ATOM     14  C   UNL A   1      28.752  29.905  22.059  1.00  0.00    -0.012 A 
ATOM     15  C   UNL A   1      30.116  29.632  21.905  1.00  0.00     0.046 A 
ATOM     16  C   UNL A   1      27.980  29.030  22.828  1.00  0.00     0.126 A 
ATOM     17  C   UNL A   1      30.681  28.521  22.533  1.00  0.00     0.129 A 
ATOM     18  C   UNL A   1      28.547  27.926  23.459  1.00  0.00     0.049 A 
ATOM     19  F   UNL A   1      26.667  29.252  22.973  1.00  0.00    -0.207 F 
ATOM     20  F   UNL A   1      31.996  28.297  22.389  1.00  0.00    -0.207 F 
ENDBRANCH  11  12
BRANCH  11  21
ATOM     21  O   UNL A   1      29.712  25.350  23.935  1.00  0.00    -0.388 OA
ATOM     22  H   UNL A   1      30.245  24.539  23.952  1.00  0.00     0.211 HD
ENDBRANCH  11  21
ENDBRANCH   6  11
ENDBRANCH   3   5
ENDBRANCH   2   3
ENDBRANCH   1   2
BRANCH   1  23
ATOM     23  C   UNL A   1      31.615  32.253  27.106  1.00  0.00     0.275 C 
BRANCH  23  24
ATOM     24  O   UNL A   1      32.836  32.987  26.907  1.00  0.00    -0.458 OA
BRANCH  24  25
ATOM     25  C   UNL A   1      33.244  33.726  27.963  1.00  0.00     0.338 C 
ATOM     26  O   UNL A   1      32.642  34.624  28.525  1.00  0.00    -0.246 OA
BRANCH  25  27
ATOM     27  C   UNL A   1      34.499  33.164  28.480  1.00  0.00     0.060 A 
ATOM     28  C   UNL A   1      35.733  33.775  28.298  1.00  0.00     0.016 A 
ATOM     29  C   UNL A   1      34.397  32.012  29.253  1.00  0.00     0.016 A 
ATOM     30  C   UNL A   1      36.868  33.190  28.875  1.00  0.00     0.010 A 
ATOM     31  C   UNL A   1      35.506  31.467  29.883  1.00  0.00     0.010 A 
ATOM     32  C   UNL A   1      36.766  32.031  29.673  1.00  0.00    -0.014 A 
BRANCH  32  33
ATOM     33  C   UNL A   1      37.962  31.409  30.295  1.00  0.00     0.031 A 
ATOM     34  C   UNL A   1      38.360  31.739  31.710  1.00  0.00     0.074 A 
ATOM     35  C   UNL A   1      38.727  30.576  29.564  1.00  0.00     0.049 A 
ATOM     36  N   UNL A   1      39.328  31.235  32.436  1.00  0.00    -0.248 NA
ATOM     37  C   UNL A   1      37.596  32.798  32.391  1.00  0.00     0.031 C 
ATOM     38  C   UNL A   1      38.522  30.265  28.148  1.00  0.00     0.029 A 
ATOM     39  N   UNL A   1      39.826  29.834  29.912  1.00  0.00    -0.354 N 
ATOM     40  C   UNL A   1      39.292  31.917  33.646  1.00  0.00     0.074 A 
ATOM     41  C   UNL A   1      38.256  32.919  33.534  1.00  0.00     0.031 C 
ATOM     42  C   UNL A   1      39.428  29.352  27.765  1.00  0.00     0.029 A 
ATOM     43  C   UNL A   1      40.286  29.029  28.900  1.00  0.00     0.049 A 
ATOM     44  H   UNL A   1      40.245  29.875  30.803  1.00  0.00     0.167 HD
ATOM     45  C   UNL A   1      40.029  31.708  34.765  1.00  0.00     0.037 A 
ATOM     46  C   UNL A   1      41.273  28.115  28.895  1.00  0.00     0.037 A 
ATOM     47  C   UNL A   1      41.041  30.691  34.883  1.00  0.00     0.049 A 
ATOM     48  C   UNL A   1      42.040  27.855  30.160  1.00  0.00     0.074 A 
ATOM     49  C   UNL A   1      41.780  30.331  35.997  1.00  0.00     0.029 A 
ATOM     50  N   UNL A   1      41.462  29.877  33.843  1.00  0.00    -0.354 N 
ATOM     51  N   UNL A   1      41.913  28.421  31.335  1.00  0.00    -0.248 NA
ATOM     52  C   UNL A   1      43.080  26.819  30.100  1.00  0.00     0.031 C 
ATOM     53  C   UNL A   1      42.672  29.319  35.621  1.00  0.00     0.029 A 
ATOM     54  C   UNL A   1      42.463  29.027  34.282  1.00  0.00     0.049 A 
ATOM     55  H   UNL A   1      41.102  29.900  32.927  1.00  0.00     0.167 HD
ATOM     56  C   UNL A   1      42.846  27.804  32.158  1.00  0.00     0.074 A 
ATOM     57  C   UNL A   1      43.514  26.802  31.353  1.00  0.00     0.031 C 
ATOM     58  C   UNL A   1      43.126  28.045  33.463  1.00  0.00     0.037 A 
BRANCH  45  59
ATOM     59  C   UNL A   1      39.746  32.586  35.950  1.00  0.00     0.057 A 
ATOM     60  C   UNL A   1      38.731  32.266  36.860  1.00  0.00     0.134 A 
ATOM     61  C   UNL A   1      40.475  33.761  36.187  1.00  0.00     0.134 A 
ATOM     62  F   UNL A   1      37.985  31.164  36.690  1.00  0.00    -0.206 F 
ATOM     63  C   UNL A   1      38.460  33.073  37.967  1.00  0.00     0.040 A 
ATOM     64  C   UNL A   1      40.234  34.561  37.305  1.00  0.00     0.040 A 
ATOM     65  F   UNL A   1      41.467  34.123  35.358  1.00  0.00    -0.206 F 
ATOM     66  C   UNL A   1      39.220  34.219  38.198  1.00  0.00     0.006 A 
ENDBRANCH  45  59
BRANCH  46  67
ATOM     67  C   UNL A   1      41.541  27.328  27.667  1.00  0.00     0.057 A 
ATOM     68  C   UNL A   1      40.922  26.095  27.437  1.00  0.00     0.134 A 
ATOM     69  C   UNL A   1      42.441  27.791  26.700  1.00  0.00     0.134 A 
ATOM     70  F   UNL A   1      40.057  25.594  28.331  1.00  0.00    -0.206 F 
ATOM     71  C   UNL A   1      41.193  25.345  26.291  1.00  0.00     0.040 A 
ATOM     72  C   UNL A   1      42.705  27.064  25.540  1.00  0.00     0.040 A 
ATOM     73  F   UNL A   1      43.054  28.974  26.860  1.00  0.00    -0.206 F 
ATOM     74  C   UNL A   1      42.084  25.833  25.336  1.00  0.00     0.006 A 
ENDBRANCH  46  67
BRANCH  58  75
ATOM     75  C   UNL A   1      44.197  27.205  34.092  1.00  0.00     0.057 A 
ATOM     76  C   UNL A   1      45.531  27.632  34.098  1.00  0.00     0.134 A 
ATOM     77  C   UNL A   1      43.909  25.966  34.677  1.00  0.00     0.134 A 
ATOM     78  F   UNL A   1      45.873  28.806  33.548  1.00  0.00    -0.206 F 
ATOM     79  C   UNL A   1      46.540  26.855  34.667  1.00  0.00     0.040 A 
ATOM     80  C   UNL A   1      44.907  25.191  35.270  1.00  0.00     0.040 A 
ATOM     81  F   UNL A   1      42.648  25.508  34.715  1.00  0.00    -0.206 F 
ATOM     82  C   UNL A   1      46.229  25.634  35.261  1.00  0.00     0.006 A 
ENDBRANCH  58  75
ENDBRANCH  32  33
ENDBRANCH  25  27
ENDBRANCH  24  25
ENDBRANCH  23  24
ENDBRANCH   1  23
TORSDOF 14
ENDMDL
MODEL 2
REMARK VINA RESULT:     -11.6      0.680      6.342
REMARK SMILES Cc1cc(F)c([C@H](O)[C@H]2CCCC[C@@H]2C(=O)OCCOC(=O)c2ccc(-c3c4nc(c(-c5c(F)cccc5F)c5ccc([nH]5)c(-c5c(F)cccc5F)c5nc(c(-c6c(F)cccc6F)c6ccc3[nH]6)C=C5)C=C4)cc2)cc1F
REMARK SMILES IDX 18 1 17 2 15 3 16 4 14 5 9 6 10 7 11 8 13 9 12 10 7 11 6 12
REMARK SMILES IDX 1 13 2 14 3 15 78 16 4 17 77 18 79 19 5 20 8 21 19 23 20 24
REMARK SMILES IDX 21 25 22 26 23 27 24 28 76 29 25 30 75 31 26 32 27 33 28 34
REMARK SMILES IDX 69 35 29 36 74 37 68 38 70 39 30 40 73 41 67 42 66 43 31 45
REMARK SMILES IDX 57 46 40 47 56 48 41 49 44 50 55 51 71 52 42 53 43 54 54 56
REMARK SMILES IDX 72 57 45 58 32 59 33 60 38 61 34 62 35 63 37 64 39 65 36 66
REMARK SMILES IDX 58 67 59 68 64 69 60 70 61 71 63 72 65 73 62 74 46 75 47 76
REMARK SMILES IDX 52 77 48 78 49 79 51 80 53 81 50 82
REMARK H PARENT 8 22 70 44 44 55
REMARK Flexibility Score: inf
ROOT
ATOM      1  C   UNL A   1      31.557  31.120  26.362  1.00  0.00     0.274 C 
ENDROOT
BRANCH   1   2
ATOM      2  O   UNL A   1      32.300  30.093  27.050  1.00  0.00    -0.462 OA
BRANCH   2   3
ATOM      3  C   UNL A   1      31.765  28.837  27.031  1.00  0.00     0.309 C 
ATOM      4  O   UNL A   1      31.286  28.274  28.005  1.00  0.00    -0.252 OA
BRANCH   3   5
ATOM      5  C   UNL A   1      31.851  28.237  25.626  1.00  0.00     0.105 C 
ATOM      6  C   UNL A   1      31.078  26.888  25.487  1.00  0.00     0.037 C 
ATOM      7  C   UNL A   1      31.838  25.740  26.187  1.00  0.00     0.007 C 
ATOM      8  C   UNL A   1      33.295  25.630  25.778  1.00  0.00     0.000 C 
ATOM      9  C   UNL A   1      33.332  28.098  25.238  1.00  0.00     0.016 C 
ATOM     10  C   UNL A   1      34.026  26.952  25.970  1.00  0.00     0.001 C 
BRANCH   6  11
ATOM     11  C   UNL A   1      30.571  26.611  24.031  1.00  0.00     0.151 C 
BRANCH  11  12
ATOM     12  C   UNL A   1      29.897  27.763  23.323  1.00  0.00     0.019 A 
ATOM     13  C   UNL A   1      28.029  31.130  21.343  1.00  0.00     0.047 C 
ATOM     14  C   UNL A   1      28.693  29.977  22.030  1.00  0.00    -0.012 A 
ATOM     15  C   UNL A   1      30.054  29.705  21.850  1.00  0.00     0.046 A 
ATOM     16  C   UNL A   1      27.943  29.117  22.836  1.00  0.00     0.126 A 
ATOM     17  C   UNL A   1      30.639  28.611  22.491  1.00  0.00     0.129 A 
ATOM     18  C   UNL A   1      28.528  28.030  23.479  1.00  0.00     0.049 A 
ATOM     19  F   UNL A   1      26.632  29.338  23.007  1.00  0.00    -0.207 F 
ATOM     20  F   UNL A   1      31.951  28.389  22.321  1.00  0.00    -0.207 F 
ENDBRANCH  11  12
BRANCH  11  21
ATOM     21  O   UNL A   1      29.721  25.466  23.975  1.00  0.00    -0.388 OA
ATOM     22  H   UNL A   1      29.535  25.155  24.875  1.00  0.00     0.211 HD
ENDBRANCH  11  21
ENDBRANCH   6  11
ENDBRANCH   3   5
ENDBRANCH   2   3
ENDBRANCH   1   2
BRANCH   1  23
ATOM     23  C   UNL A   1      31.529  32.428  27.155  1.00  0.00     0.275 C 
BRANCH  23  24
ATOM     24  O   UNL A   1      32.697  33.229  26.896  1.00  0.00    -0.458 OA
BRANCH  24  25
ATOM     25  C   UNL A   1      33.097  34.014  27.921  1.00  0.00     0.338 C 
ATOM     26  O   UNL A   1      32.529  34.988  28.383  1.00  0.00    -0.246 OA
BRANCH  25  27
ATOM     27  C   UNL A   1      34.279  33.410  28.550  1.00  0.00     0.060 A 
ATOM     28  C   UNL A   1      35.496  34.070  28.662  1.00  0.00     0.016 A 
ATOM     29  C   UNL A   1      34.110  32.153  29.121  1.00  0.00     0.016 A 
ATOM     30  C   UNL A   1      36.552  33.431  29.326  1.00  0.00     0.010 A 
ATOM     31  C   UNL A   1      35.130  31.545  29.838  1.00  0.00     0.010 A 
ATOM     32  C   UNL A   1      36.379  32.163  29.921  1.00  0.00    -0.014 A 
BRANCH  32  33
ATOM     33  C   UNL A   1      37.490  31.482  30.633  1.00  0.00     0.031 A 
ATOM     34  C   UNL A   1      38.363  30.478  29.926  1.00  0.00     0.074 A 
ATOM     35  C   UNL A   1      37.685  31.731  31.941  1.00  0.00     0.049 A 
ATOM     36  N   UNL A   1      39.421  29.845  30.370  1.00  0.00    -0.248 NA
ATOM     37  C   UNL A   1      37.981  30.108  28.553  1.00  0.00     0.031 C 
ATOM     38  C   UNL A   1      36.838  32.589  32.773  1.00  0.00     0.029 A 
ATOM     39  N   UNL A   1      38.659  31.292  32.800  1.00  0.00    -0.354 N 
ATOM     40  C   UNL A   1      39.822  29.003  29.340  1.00  0.00     0.074 A 
ATOM     41  C   UNL A   1      38.855  29.151  28.275  1.00  0.00     0.031 C 
ATOM     42  C   UNL A   1      37.365  32.661  34.006  1.00  0.00     0.029 A 
ATOM     43  C   UNL A   1      38.571  31.841  34.055  1.00  0.00     0.049 A 
ATOM     44  H   UNL A   1      39.356  30.646  32.541  1.00  0.00     0.167 HD
ATOM     45  C   UNL A   1      40.915  28.205  29.268  1.00  0.00     0.037 A 
ATOM     46  C   UNL A   1      39.386  31.717  35.118  1.00  0.00     0.037 A 
ATOM     47  C   UNL A   1      41.891  28.080  30.319  1.00  0.00     0.049 A 
ATOM     48  C   UNL A   1      40.623  30.874  35.002  1.00  0.00     0.074 A 
ATOM     49  C   UNL A   1      43.083  27.375  30.314  1.00  0.00     0.029 A 
ATOM     50  N   UNL A   1      41.781  28.672  31.568  1.00  0.00    -0.354 N 
ATOM     51  N   UNL A   1      41.057  30.180  33.979  1.00  0.00    -0.248 NA
ATOM     52  C   UNL A   1      41.491  30.808  36.187  1.00  0.00     0.031 C 
ATOM     53  C   UNL A   1      43.677  27.514  31.575  1.00  0.00     0.029 A 
ATOM     54  C   UNL A   1      42.873  28.334  32.350  1.00  0.00     0.049 A 
ATOM     55  H   UNL A   1      41.036  29.248  31.855  1.00  0.00     0.167 HD
ATOM     56  C   UNL A   1      42.253  29.605  34.388  1.00  0.00     0.074 A 
ATOM     57  C   UNL A   1      42.488  30.053  35.746  1.00  0.00     0.031 C 
ATOM     58  C   UNL A   1      43.082  28.779  33.704  1.00  0.00     0.037 A 
BRANCH  45  59
ATOM     59  C   UNL A   1      41.115  27.423  28.001  1.00  0.00     0.057 A 
ATOM     60  C   UNL A   1      41.832  27.963  26.925  1.00  0.00     0.134 A 
ATOM     61  C   UNL A   1      40.588  26.134  27.839  1.00  0.00     0.134 A 
ATOM     62  F   UNL A   1      42.354  29.196  27.005  1.00  0.00    -0.206 F 
ATOM     63  C   UNL A   1      42.027  27.246  25.743  1.00  0.00     0.040 A 
ATOM     64  C   UNL A   1      40.800  25.395  26.674  1.00  0.00     0.040 A 
ATOM     65  F   UNL A   1      39.897  25.553  28.833  1.00  0.00    -0.206 F 
ATOM     66  C   UNL A   1      41.519  25.954  25.619  1.00  0.00     0.006 A 
ENDBRANCH  45  59
BRANCH  46  67
ATOM     67  C   UNL A   1      39.090  32.469  36.363  1.00  0.00     0.057 A 
ATOM     68  C   UNL A   1      38.242  31.951  37.348  1.00  0.00     0.134 A 
ATOM     69  C   UNL A   1      39.641  33.736  36.584  1.00  0.00     0.134 A 
ATOM     70  F   UNL A   1      37.677  30.745  37.189  1.00  0.00    -0.206 F 
ATOM     71  C   UNL A   1      37.947  32.670  38.507  1.00  0.00     0.040 A 
ATOM     72  C   UNL A   1      39.372  34.457  37.747  1.00  0.00     0.040 A 
ATOM     73  F   UNL A   1      40.472  34.278  35.680  1.00  0.00    -0.206 F 
ATOM     74  C   UNL A   1      38.517  33.926  38.711  1.00  0.00     0.006 A 
ENDBRANCH  46  67
BRANCH  58  75
ATOM     75  C   UNL A   1      44.317  28.316  34.417  1.00  0.00     0.057 A 
ATOM     76  C   UNL A   1      44.313  27.129  35.160  1.00  0.00     0.134 A 
ATOM     77  C   UNL A   1      45.506  29.056  34.382  1.00  0.00     0.134 A 
ATOM     78  F   UNL A   1      43.204  26.378  35.239  1.00  0.00    -0.206 F 
ATOM     79  C   UNL A   1      45.450  26.692  35.840  1.00  0.00     0.040 A 
ATOM     80  C   UNL A   1      46.657  28.617  35.039  1.00  0.00     0.040 A 
ATOM     81  F   UNL A   1      45.578  30.195  33.676  1.00  0.00    -0.206 F 
ATOM     82  C   UNL A   1      46.628  27.433  35.775  1.00  0.00     0.006 A 
ENDBRANCH  58  75
ENDBRANCH  32  33
ENDBRANCH  25  27
ENDBRANCH  24  25
ENDBRANCH  23  24
ENDBRANCH   1  23
TORSDOF 14
ENDMDL
MODEL 3
REMARK VINA RESULT:     -11.5      4.276      7.889
REMARK SMILES Cc1cc(F)c([C@H](O)[C@H]2CCCC[C@@H]2C(=O)OCCOC(=O)c2ccc(-c3c4nc(c(-c5c(F)cccc5F)c5ccc([nH]5)c(-c5c(F)cccc5F)c5nc(c(-c6c(F)cccc6F)c6ccc3[nH]6)C=C5)C=C4)cc2)cc1F
REMARK SMILES IDX 18 1 17 2 15 3 16 4 14 5 9 6 10 7 11 8 13 9 12 10 7 11 6 12
REMARK SMILES IDX 1 13 2 14 3 15 78 16 4 17 77 18 79 19 5 20 8 21 19 23 20 24
REMARK SMILES IDX 21 25 22 26 23 27 24 28 76 29 25 30 75 31 26 32 27 33 28 34
REMARK SMILES IDX 69 35 29 36 74 37 68 38 70 39 30 40 73 41 67 42 66 43 31 45
REMARK SMILES IDX 57 46 40 47 56 48 41 49 44 50 55 51 71 52 42 53 43 54 54 56
REMARK SMILES IDX 72 57 45 58 32 59 33 60 38 61 34 62 35 63 37 64 39 65 36 66
REMARK SMILES IDX 58 67 59 68 64 69 60 70 61 71 63 72 65 73 62 74 46 75 47 76
REMARK SMILES IDX 52 77 48 78 49 79 51 80 53 81 50 82
REMARK H PARENT 8 22 70 44 44 55
REMARK Flexibility Score: inf
ROOT
ATOM      1  C   UNL A   1      32.973  30.260  27.174  1.00  0.00     0.274 C 
ENDROOT
BRANCH   1   2
ATOM      2  O   UNL A   1      33.140  28.831  27.280  1.00  0.00    -0.462 OA
BRANCH   2   3
ATOM      3  C   UNL A   1      32.028  28.070  27.067  1.00  0.00     0.309 C 
ATOM      4  O   UNL A   1      31.154  27.872  27.899  1.00  0.00    -0.252 OA
BRANCH   3   5
ATOM      5  C   UNL A   1      32.031  27.499  25.647  1.00  0.00     0.105 C 
ATOM      6  C   UNL A   1      30.969  26.374  25.435  1.00  0.00     0.037 C 
ATOM      7  C   UNL A   1      31.405  25.063  26.125  1.00  0.00     0.007 C 
ATOM      8  C   UNL A   1      32.811  24.622  25.765  1.00  0.00     0.000 C 
ATOM      9  C   UNL A   1      33.453  27.022  25.309  1.00  0.00     0.016 C 
ATOM     10  C   UNL A   1      33.825  25.727  26.027  1.00  0.00     0.001 C 
BRANCH   6  11
ATOM     11  C   UNL A   1      30.474  26.260  23.954  1.00  0.00     0.151 C 
BRANCH  11  12
ATOM     12  C   UNL A   1      29.922  27.520  23.329  1.00  0.00     0.019 A 
ATOM     13  C   UNL A   1      28.407  31.186  21.594  1.00  0.00     0.047 C 
ATOM     14  C   UNL A   1      28.950  29.928  22.197  1.00  0.00    -0.012 A 
ATOM     15  C   UNL A   1      30.280  29.538  22.001  1.00  0.00     0.046 A 
ATOM     16  C   UNL A   1      28.112  29.089  22.937  1.00  0.00     0.126 A 
ATOM     17  C   UNL A   1      30.749  28.349  22.562  1.00  0.00     0.129 A 
ATOM     18  C   UNL A   1      28.584  27.907  23.501  1.00  0.00     0.049 A 
ATOM     19  F   UNL A   1      26.828  29.424  23.121  1.00  0.00    -0.207 F 
ATOM     20  F   UNL A   1      32.035  28.013  22.379  1.00  0.00    -0.207 F 
ENDBRANCH  11  12
BRANCH  11  21
ATOM     21  O   UNL A   1      29.528  25.203  23.791  1.00  0.00    -0.388 OA
ATOM     22  H   UNL A   1      28.989  25.370  23.001  1.00  0.00     0.211 HD
ENDBRANCH  11  21
ENDBRANCH   6  11
ENDBRANCH   3   5
ENDBRANCH   2   3
ENDBRANCH   1   2
BRANCH   1  23
ATOM     23  C   UNL A   1      34.252  31.011  27.549  1.00  0.00     0.275 C 
BRANCH  23  24
ATOM     24  O   UNL A   1      35.233  30.130  28.125  1.00  0.00    -0.458 OA
BRANCH  24  25
ATOM     25  C   UNL A   1      35.907  30.630  29.185  1.00  0.00     0.338 C 
ATOM     26  O   UNL A   1      35.454  31.225  30.146  1.00  0.00    -0.246 OA
BRANCH  25  27
ATOM     27  C   UNL A   1      37.307  30.191  29.108  1.00  0.00     0.060 A 
ATOM     28  C   UNL A   1      38.052  29.840  30.227  1.00  0.00     0.016 A 
ATOM     29  C   UNL A   1      37.849  30.051  27.835  1.00  0.00     0.016 A 
ATOM     30  C   UNL A   1      39.364  29.382  30.048  1.00  0.00     0.010 A 
ATOM     31  C   UNL A   1      39.123  29.534  27.648  1.00  0.00     0.010 A 
ATOM     32  C   UNL A   1      39.912  29.224  28.757  1.00  0.00    -0.014 A 
BRANCH  32  33
ATOM     33  C   UNL A   1      41.298  28.731  28.558  1.00  0.00     0.031 A 
ATOM     34  C   UNL A   1      41.566  27.288  28.216  1.00  0.00     0.074 A 
ATOM     35  C   UNL A   1      42.330  29.577  28.735  1.00  0.00     0.049 A 
ATOM     36  N   UNL A   1      42.704  26.703  27.934  1.00  0.00    -0.248 NA
ATOM     37  C   UNL A   1      40.413  26.373  28.224  1.00  0.00     0.031 C 
ATOM     38  C   UNL A   1      42.216  30.966  29.183  1.00  0.00     0.029 A 
ATOM     39  N   UNL A   1      43.677  29.395  28.554  1.00  0.00    -0.354 N 
ATOM     40  C   UNL A   1      42.405  25.359  27.741  1.00  0.00     0.074 A 
ATOM     41  C   UNL A   1      40.993  25.201  28.007  1.00  0.00     0.031 C 
ATOM     42  C   UNL A   1      43.435  31.528  29.184  1.00  0.00     0.029 A 
ATOM     43  C   UNL A   1      44.415  30.535  28.756  1.00  0.00     0.049 A 
ATOM     44  H   UNL A   1      44.076  28.531  28.301  1.00  0.00     0.167 HD
ATOM     45  C   UNL A   1      43.222  24.353  27.343  1.00  0.00     0.037 A 
ATOM     46  C   UNL A   1      45.731  30.760  28.591  1.00  0.00     0.037 A 
ATOM     47  C   UNL A   1      44.622  24.519  27.053  1.00  0.00     0.049 A 
ATOM     48  C   UNL A   1      46.611  29.649  28.095  1.00  0.00     0.074 A 
ATOM     49  C   UNL A   1      45.518  23.590  26.553  1.00  0.00     0.029 A 
ATOM     50  N   UNL A   1      45.330  25.696  27.246  1.00  0.00    -0.354 N 
ATOM     51  N   UNL A   1      46.292  28.413  27.796  1.00  0.00    -0.248 NA
ATOM     52  C   UNL A   1      48.032  29.968  27.900  1.00  0.00     0.031 C 
ATOM     53  C   UNL A   1      46.778  24.198  26.476  1.00  0.00     0.029 A 
ATOM     54  C   UNL A   1      46.656  25.514  26.893  1.00  0.00     0.049 A 
ATOM     55  H   UNL A   1      44.945  26.537  27.583  1.00  0.00     0.167 HD
ATOM     56  C   UNL A   1      47.467  27.810  27.366  1.00  0.00     0.074 A 
ATOM     57  C   UNL A   1      48.500  28.825  27.420  1.00  0.00     0.031 C 
ATOM     58  C   UNL A   1      47.673  26.531  26.965  1.00  0.00     0.037 A 
BRANCH  45  59
ATOM     59  C   UNL A   1      42.608  22.991  27.183  1.00  0.00     0.057 A 
ATOM     60  C   UNL A   1      42.335  22.468  25.913  1.00  0.00     0.134 A 
ATOM     61  C   UNL A   1      42.277  22.198  28.291  1.00  0.00     0.134 A 
ATOM     62  F   UNL A   1      42.615  23.176  24.809  1.00  0.00    -0.206 F 
ATOM     63  C   UNL A   1      41.767  21.202  25.751  1.00  0.00     0.040 A 
ATOM     64  C   UNL A   1      41.735  20.920  28.142  1.00  0.00     0.040 A 
ATOM     65  F   UNL A   1      42.518  22.636  29.537  1.00  0.00    -0.206 F 
ATOM     66  C   UNL A   1      41.476  20.420  26.867  1.00  0.00     0.006 A 
ENDBRANCH  45  59
BRANCH  46  67
ATOM     67  C   UNL A   1      46.281  32.117  28.831  1.00  0.00     0.057 A 
ATOM     68  C   UNL A   1      46.348  33.072  27.811  1.00  0.00     0.134 A 
ATOM     69  C   UNL A   1      46.768  32.480  30.092  1.00  0.00     0.134 A 
ATOM     70  F   UNL A   1      45.906  32.780  26.580  1.00  0.00    -0.206 F 
ATOM     71  C   UNL A   1      46.888  34.339  28.034  1.00  0.00     0.040 A 
ATOM     72  C   UNL A   1      47.290  33.751  30.335  1.00  0.00     0.040 A 
ATOM     73  F   UNL A   1      46.716  31.610  31.112  1.00  0.00    -0.206 F 
ATOM     74  C   UNL A   1      47.356  34.684  29.302  1.00  0.00     0.006 A 
ENDBRANCH  46  67
BRANCH  58  75
ATOM     75  C   UNL A   1      49.068  26.168  26.551  1.00  0.00     0.057 A 
ATOM     76  C   UNL A   1      49.526  26.444  25.257  1.00  0.00     0.134 A 
ATOM     77  C   UNL A   1      49.952  25.531  27.431  1.00  0.00     0.134 A 
ATOM     78  F   UNL A   1      48.726  27.047  24.365  1.00  0.00    -0.206 F 
ATOM     79  C   UNL A   1      50.816  26.100  24.853  1.00  0.00     0.040 A 
ATOM     80  C   UNL A   1      51.253  25.203  27.046  1.00  0.00     0.040 A 
ATOM     81  F   UNL A   1      49.577  25.253  28.690  1.00  0.00    -0.206 F 
ATOM     82  C   UNL A   1      51.686  25.484  25.751  1.00  0.00     0.006 A 
ENDBRANCH  58  75
ENDBRANCH  32  33
ENDBRANCH  25  27
ENDBRANCH  24  25
ENDBRANCH  23  24
ENDBRANCH   1  23
TORSDOF 14
ENDMDL
