MODEL 1
REMARK VINA RESULT:     -10.7      0.000      0.000
REMARK SMILES C[NH2+][C@]1(C(=O)OCCOC(=O)c2ccc(-c3c4nc(c(-c5c(F)cccc5F)c5ccc([nH]5)c(-c5c(F)cccc5F)c5nc(c(-c6c(F)cccc6F)c6ccc3[nH]6)C=C5)C=C4)cc2)CCC[C@@H]1CCn1nc(C)c(Cl)c1C
REMARK SMILES IDX 7 1 6 2 4 3 5 4 3 5 66 6 69 7 67 8 68 9 2 10 1 11 70 14
REMARK SMILES IDX 71 15 72 16 73 17 78 18 74 19 76 20 79 21 75 22 77 23 8 24
REMARK SMILES IDX 9 25 10 26 11 27 12 28 13 29 65 30 14 31 64 32 15 33 16 34
REMARK SMILES IDX 17 35 58 36 18 37 63 38 57 39 59 40 19 41 62 42 56 43 55 44
REMARK SMILES IDX 20 46 46 47 29 48 45 49 30 50 33 51 44 52 60 53 31 54 32 55
REMARK SMILES IDX 43 57 61 58 34 59 21 60 22 61 27 62 23 63 24 64 26 65 28 66
REMARK SMILES IDX 25 67 47 68 48 69 53 70 49 71 50 72 52 73 54 74 51 75 35 76
REMARK SMILES IDX 36 77 41 78 37 79 38 80 40 81 42 82 39 83
REMARK H PARENT 2 12 2 13 59 45 33 56
REMARK Flexibility Score: inf
ROOT
ATOM      1  C   UNL A   1      35.021  20.643  25.004  1.00  0.00     0.274 C 
ENDROOT
BRANCH   1   2
ATOM      2  O   UNL A   1      34.694  21.916  25.596  1.00  0.00    -0.457 OA
BRANCH   2   3
ATOM      3  C   UNL A   1      34.388  22.909  24.714  1.00  0.00     0.368 C 
ATOM      4  O   UNL A   1      35.142  23.276  23.818  1.00  0.00    -0.245 OA
BRANCH   3   5
ATOM      5  C   UNL A   1      32.993  23.550  24.971  1.00  0.00     0.197 C 
ATOM      6  C   UNL A   1      32.125  22.782  26.000  1.00  0.00     0.081 C 
ATOM      7  C   UNL A   1      33.226  24.849  25.799  1.00  0.00     0.064 C 
ATOM      8  C   UNL A   1      31.124  23.825  26.496  1.00  0.00     0.008 C 
ATOM      9  C   UNL A   1      31.869  25.162  26.446  1.00  0.00     0.011 C 
BRANCH   5  10
ATOM     10  N   UNL A   1      32.244  23.558  23.698  1.00  0.00    -0.334 N 
ATOM     11  C   UNL A   1      32.064  22.352  22.931  1.00  0.00     0.331 C 
ATOM     12  H   UNL A   1      31.309  23.905  23.914  1.00  0.00     0.347 HD
ATOM     13  H   UNL A   1      32.841  24.119  23.092  1.00  0.00     0.347 HD
ENDBRANCH   5  10
BRANCH   7  14
ATOM     14  C   UNL A   1      33.906  26.050  25.123  1.00  0.00     0.034 C 
BRANCH  14  15
ATOM     15  C   UNL A   1      32.927  27.049  24.488  1.00  0.00     0.145 C 
BRANCH  15  16
ATOM     16  N   UNL A   1      32.847  28.329  25.176  1.00  0.00    -0.268 N 
ATOM     17  N   UNL A   1      33.850  28.670  26.009  1.00  0.00    -0.176 NA
ATOM     18  C   UNL A   1      31.855  29.281  25.104  1.00  0.00     0.054 A 
ATOM     19  C   UNL A   1      33.475  29.850  26.522  1.00  0.00     0.078 A 
ATOM     20  C   UNL A   1      32.234  30.265  25.994  1.00  0.00     0.084 A 
ATOM     21  C   UNL A   1      30.637  29.185  24.263  1.00  0.00     0.068 C 
ATOM     22  C   UNL A   1      34.344  30.535  27.511  1.00  0.00     0.070 C 
ATOM     23  Cl  UNL A   1      31.386  31.683  26.383  1.00  0.00    -0.080 Cl
ENDBRANCH  15  16
ENDBRANCH  14  15
ENDBRANCH   7  14
ENDBRANCH   3   5
ENDBRANCH   2   3
ENDBRANCH   1   2
BRANCH   1  24
ATOM     24  C   UNL A   1      36.531  20.450  24.909  1.00  0.00     0.275 C 
BRANCH  24  25
ATOM     25  O   UNL A   1      37.206  21.258  25.890  1.00  0.00    -0.458 OA
BRANCH  25  26
ATOM     26  C   UNL A   1      38.553  21.151  25.912  1.00  0.00     0.338 C 
ATOM     27  O   UNL A   1      39.235  20.232  25.493  1.00  0.00    -0.246 OA
BRANCH  26  28
ATOM     28  C   UNL A   1      39.138  22.351  26.530  1.00  0.00     0.060 A 
ATOM     29  C   UNL A   1      38.674  23.606  26.153  1.00  0.00     0.016 A 
ATOM     30  C   UNL A   1      40.255  22.238  27.357  1.00  0.00     0.016 A 
ATOM     31  C   UNL A   1      39.375  24.753  26.513  1.00  0.00     0.010 A 
ATOM     32  C   UNL A   1      40.904  23.397  27.799  1.00  0.00     0.010 A 
ATOM     33  C   UNL A   1      40.495  24.665  27.347  1.00  0.00    -0.014 A 
BRANCH  33  34
ATOM     34  C   UNL A   1      41.269  25.888  27.687  1.00  0.00     0.031 A 
ATOM     35  C   UNL A   1      40.659  26.942  28.573  1.00  0.00     0.074 A 
ATOM     36  C   UNL A   1      42.532  26.048  27.245  1.00  0.00     0.049 A 
ATOM     37  N   UNL A   1      41.087  28.149  28.838  1.00  0.00    -0.248 NA
ATOM     38  C   UNL A   1      39.394  26.593  29.241  1.00  0.00     0.031 C 
ATOM     39  C   UNL A   1      43.276  25.083  26.435  1.00  0.00     0.029 A 
ATOM     40  N   UNL A   1      43.419  27.079  27.428  1.00  0.00    -0.354 N 
ATOM     41  C   UNL A   1      40.114  28.727  29.645  1.00  0.00     0.074 A 
ATOM     42  C   UNL A   1      39.081  27.733  29.840  1.00  0.00     0.031 C 
ATOM     43  C   UNL A   1      44.520  25.545  26.231  1.00  0.00     0.029 A 
ATOM     44  C   UNL A   1      44.633  26.874  26.821  1.00  0.00     0.049 A 
ATOM     45  H   UNL A   1      43.204  27.889  27.946  1.00  0.00     0.167 HD
ATOM     46  C   UNL A   1      40.084  29.976  30.165  1.00  0.00     0.037 A 
ATOM     47  C   UNL A   1      45.706  27.681  26.715  1.00  0.00     0.037 A 
ATOM     48  C   UNL A   1      41.141  30.942  30.025  1.00  0.00     0.049 A 
ATOM     49  C   UNL A   1      45.648  29.062  27.296  1.00  0.00     0.074 A 
ATOM     50  C   UNL A   1      41.198  32.239  30.507  1.00  0.00     0.029 A 
ATOM     51  N   UNL A   1      42.342  30.703  29.376  1.00  0.00    -0.354 N 
ATOM     52  N   UNL A   1      44.680  29.634  27.969  1.00  0.00    -0.248 NA
ATOM     53  C   UNL A   1      46.820  29.922  27.076  1.00  0.00     0.031 C 
ATOM     54  C   UNL A   1      42.431  32.789  30.136  1.00  0.00     0.029 A 
ATOM     55  C   UNL A   1      43.148  31.827  29.445  1.00  0.00     0.049 A 
ATOM     56  H   UNL A   1      42.586  29.859  28.931  1.00  0.00     0.167 HD
ATOM     57  C   UNL A   1      45.120  30.921  28.245  1.00  0.00     0.074 A 
ATOM     58  C   UNL A   1      46.454  31.037  27.692  1.00  0.00     0.031 C 
ATOM     59  C   UNL A   1      44.470  31.923  28.887  1.00  0.00     0.037 A 
BRANCH  46  60
ATOM     60  C   UNL A   1      38.845  30.384  30.903  1.00  0.00     0.057 A 
ATOM     61  C   UNL A   1      37.754  30.976  30.256  1.00  0.00     0.134 A 
ATOM     62  C   UNL A   1      38.737  30.156  32.280  1.00  0.00     0.134 A 
ATOM     63  F   UNL A   1      37.803  31.236  28.941  1.00  0.00    -0.206 F 
ATOM     64  C   UNL A   1      36.604  31.341  30.958  1.00  0.00     0.040 A 
ATOM     65  C   UNL A   1      37.586  30.500  32.990  1.00  0.00     0.040 A 
ATOM     66  F   UNL A   1      39.748  29.590  32.957  1.00  0.00    -0.206 F 
ATOM     67  C   UNL A   1      36.516  31.098  32.327  1.00  0.00     0.006 A 
ENDBRANCH  46  60
BRANCH  47  68
ATOM     68  C   UNL A   1      46.910  27.212  25.987  1.00  0.00     0.057 A 
ATOM     69  C   UNL A   1      47.956  26.573  26.660  1.00  0.00     0.134 A 
ATOM     70  C   UNL A   1      47.037  27.381  24.603  1.00  0.00     0.134 A 
ATOM     71  F   UNL A   1      47.901  26.405  27.989  1.00  0.00    -0.206 F 
ATOM     72  C   UNL A   1      49.088  26.117  25.983  1.00  0.00     0.040 A 
ATOM     73  C   UNL A   1      48.151  26.910  23.910  1.00  0.00     0.040 A 
ATOM     74  F   UNL A   1      46.067  27.987  23.903  1.00  0.00    -0.206 F 
ATOM     75  C   UNL A   1      49.184  26.279  24.602  1.00  0.00     0.006 A 
ENDBRANCH  47  68
BRANCH  59  76
ATOM     76  C   UNL A   1      45.200  33.221  29.026  1.00  0.00     0.057 A 
ATOM     77  C   UNL A   1      45.061  34.242  28.078  1.00  0.00     0.134 A 
ATOM     78  C   UNL A   1      46.027  33.463  30.128  1.00  0.00     0.134 A 
ATOM     79  F   UNL A   1      44.291  34.061  26.994  1.00  0.00    -0.206 F 
ATOM     80  C   UNL A   1      45.732  35.456  28.215  1.00  0.00     0.040 A 
ATOM     81  C   UNL A   1      46.693  34.679  30.284  1.00  0.00     0.040 A 
ATOM     82  F   UNL A   1      46.199  32.523  31.071  1.00  0.00    -0.206 F 
ATOM     83  C   UNL A   1      46.548  35.679  29.323  1.00  0.00     0.006 A 
ENDBRANCH  59  76
ENDBRANCH  33  34
ENDBRANCH  26  28
ENDBRANCH  25  26
ENDBRANCH  24  25
ENDBRANCH   1  24
TORSDOF 15
ENDMDL
MODEL 2
REMARK VINA RESULT:     -10.6      4.230      8.932
REMARK SMILES C[NH2+][C@]1(C(=O)OCCOC(=O)c2ccc(-c3c4nc(c(-c5c(F)cccc5F)c5ccc([nH]5)c(-c5c(F)cccc5F)c5nc(c(-c6c(F)cccc6F)c6ccc3[nH]6)C=C5)C=C4)cc2)CCC[C@@H]1CCn1nc(C)c(Cl)c1C
REMARK SMILES IDX 7 1 6 2 4 3 5 4 3 5 66 6 69 7 67 8 68 9 2 10 1 11 70 14
REMARK SMILES IDX 71 15 72 16 73 17 78 18 74 19 76 20 79 21 75 22 77 23 8 24
REMARK SMILES IDX 9 25 10 26 11 27 12 28 13 29 65 30 14 31 64 32 15 33 16 34
REMARK SMILES IDX 17 35 58 36 18 37 63 38 57 39 59 40 19 41 62 42 56 43 55 44
REMARK SMILES IDX 20 46 46 47 29 48 45 49 30 50 33 51 44 52 60 53 31 54 32 55
REMARK SMILES IDX 43 57 61 58 34 59 21 60 22 61 27 62 23 63 24 64 26 65 28 66
REMARK SMILES IDX 25 67 47 68 48 69 53 70 49 71 50 72 52 73 54 74 51 75 35 76
REMARK SMILES IDX 36 77 41 78 37 79 38 80 40 81 42 82 39 83
REMARK H PARENT 2 12 2 13 59 45 33 56
REMARK Flexibility Score: inf
ROOT
ATOM      1  C   UNL A   1      31.749  28.727  27.257  1.00  0.00     0.274 C 
ENDROOT
BRANCH   1   2
ATOM      2  O   UNL A   1      32.405  27.964  26.225  1.00  0.00    -0.457 OA
BRANCH   2   3
ATOM      3  C   UNL A   1      31.578  27.402  25.300  1.00  0.00     0.368 C 
ATOM      4  O   UNL A   1      30.610  26.705  25.589  1.00  0.00    -0.245 OA
BRANCH   3   5
ATOM      5  C   UNL A   1      31.997  27.712  23.832  1.00  0.00     0.197 C 
ATOM      6  C   UNL A   1      33.122  28.770  23.708  1.00  0.00     0.081 C 
ATOM      7  C   UNL A   1      32.788  26.479  23.306  1.00  0.00     0.064 C 
ATOM      8  C   UNL A   1      33.731  28.506  22.331  1.00  0.00     0.008 C 
ATOM      9  C   UNL A   1      33.590  26.998  22.104  1.00  0.00     0.011 C 
BRANCH   5  10
ATOM     10  N   UNL A   1      30.821  28.251  23.118  1.00  0.00    -0.334 N 
ATOM     11  C   UNL A   1      30.189  29.475  23.539  1.00  0.00     0.331 C 
ATOM     12  H   UNL A   1      31.110  28.392  22.150  1.00  0.00     0.347 HD
ATOM     13  H   UNL A   1      30.104  27.553  23.313  1.00  0.00     0.347 HD
ENDBRANCH   5  10
BRANCH   7  14
ATOM     14  C   UNL A   1      32.033  25.163  23.053  1.00  0.00     0.034 C 
BRANCH  14  15
ATOM     15  C   UNL A   1      32.822  24.138  22.225  1.00  0.00     0.145 C 
BRANCH  15  16
ATOM     16  N   UNL A   1      33.735  23.315  23.004  1.00  0.00    -0.268 N 
ATOM     17  N   UNL A   1      35.032  23.681  23.064  1.00  0.00    -0.176 NA
ATOM     18  C   UNL A   1      33.464  22.168  23.713  1.00  0.00     0.054 A 
ATOM     19  C   UNL A   1      35.619  22.722  23.792  1.00  0.00     0.078 A 
ATOM     20  C   UNL A   1      34.682  21.753  24.210  1.00  0.00     0.084 A 
ATOM     21  C   UNL A   1      32.128  21.535  23.837  1.00  0.00     0.068 C 
ATOM     22  C   UNL A   1      37.077  22.786  24.059  1.00  0.00     0.070 C 
ATOM     23  Cl  UNL A   1      35.000  20.362  25.131  1.00  0.00    -0.080 Cl
ENDBRANCH  15  16
ENDBRANCH  14  15
ENDBRANCH   7  14
ENDBRANCH   3   5
ENDBRANCH   2   3
ENDBRANCH   1   2
BRANCH   1  24
ATOM     24  C   UNL A   1      31.618  30.195  26.859  1.00  0.00     0.275 C 
BRANCH  24  25
ATOM     25  O   UNL A   1      32.892  30.719  26.443  1.00  0.00    -0.458 OA
BRANCH  25  26
ATOM     26  C   UNL A   1      33.397  31.711  27.209  1.00  0.00     0.338 C 
ATOM     27  O   UNL A   1      32.873  32.774  27.495  1.00  0.00    -0.246 OA
BRANCH  26  28
ATOM     28  C   UNL A   1      34.732  31.334  27.697  1.00  0.00     0.060 A 
ATOM     29  C   UNL A   1      34.987  30.006  28.025  1.00  0.00     0.016 A 
ATOM     30  C   UNL A   1      35.677  32.318  27.985  1.00  0.00     0.016 A 
ATOM     31  C   UNL A   1      36.136  29.664  28.731  1.00  0.00     0.010 A 
ATOM     32  C   UNL A   1      36.878  31.959  28.607  1.00  0.00     0.010 A 
ATOM     33  C   UNL A   1      37.101  30.635  29.025  1.00  0.00    -0.014 A 
BRANCH  33  34
ATOM     34  C   UNL A   1      38.303  30.272  29.822  1.00  0.00     0.031 A 
ATOM     35  C   UNL A   1      39.378  29.412  29.212  1.00  0.00     0.074 A 
ATOM     36  C   UNL A   1      38.464  30.740  31.075  1.00  0.00     0.049 A 
ATOM     37  N   UNL A   1      40.404  28.838  29.786  1.00  0.00    -0.248 NA
ATOM     38  C   UNL A   1      39.280  29.157  27.766  1.00  0.00     0.031 C 
ATOM     39  C   UNL A   1      37.539  31.636  31.772  1.00  0.00     0.029 A 
ATOM     40  N   UNL A   1      39.474  30.538  31.982  1.00  0.00    -0.354 N 
ATOM     41  C   UNL A   1      41.032  28.100  28.791  1.00  0.00     0.074 A 
ATOM     42  C   UNL A   1      40.283  28.312  27.571  1.00  0.00     0.031 C 
ATOM     43  C   UNL A   1      38.048  31.942  32.976  1.00  0.00     0.029 A 
ATOM     44  C   UNL A   1      39.287  31.199  33.171  1.00  0.00     0.049 A 
ATOM     45  H   UNL A   1      40.259  29.972  31.797  1.00  0.00     0.167 HD
ATOM     46  C   UNL A   1      42.128  27.312  28.890  1.00  0.00     0.037 A 
ATOM     47  C   UNL A   1      40.010  31.180  34.306  1.00  0.00     0.037 A 
ATOM     48  C   UNL A   1      42.911  27.154  30.087  1.00  0.00     0.049 A 
ATOM     49  C   UNL A   1      41.218  30.296  34.394  1.00  0.00     0.074 A 
ATOM     50  C   UNL A   1      44.032  26.367  30.289  1.00  0.00     0.029 A 
ATOM     51  N   UNL A   1      42.668  27.819  31.278  1.00  0.00    -0.354 N 
ATOM     52  N   UNL A   1      41.743  29.522  33.476  1.00  0.00    -0.248 NA
ATOM     53  C   UNL A   1      41.916  30.257  35.688  1.00  0.00     0.031 C 
ATOM     54  C   UNL A   1      44.460  26.547  31.610  1.00  0.00     0.029 A 
ATOM     55  C   UNL A   1      43.618  27.463  32.220  1.00  0.00     0.049 A 
ATOM     56  H   UNL A   1      41.928  28.451  31.432  1.00  0.00     0.167 HD
ATOM     57  C   UNL A   1      42.826  28.898  34.081  1.00  0.00     0.074 A 
ATOM     58  C   UNL A   1      42.901  29.405  35.435  1.00  0.00     0.031 C 
ATOM     59  C   UNL A   1      43.674  27.977  33.563  1.00  0.00     0.037 A 
BRANCH  46  60
ATOM     60  C   UNL A   1      42.522  26.526  27.676  1.00  0.00     0.057 A 
ATOM     61  C   UNL A   1      43.405  27.032  26.716  1.00  0.00     0.134 A 
ATOM     62  C   UNL A   1      42.024  25.232  27.483  1.00  0.00     0.134 A 
ATOM     63  F   UNL A   1      43.902  28.271  26.836  1.00  0.00    -0.206 F 
ATOM     64  C   UNL A   1      43.768  26.281  25.595  1.00  0.00     0.040 A 
ATOM     65  C   UNL A   1      42.392  24.465  26.377  1.00  0.00     0.040 A 
ATOM     66  F   UNL A   1      41.174  24.690  28.369  1.00  0.00    -0.206 F 
ATOM     67  C   UNL A   1      43.265  24.992  25.427  1.00  0.00     0.006 A 
ENDBRANCH  46  60
BRANCH  47  68
ATOM     68  C   UNL A   1      39.577  31.994  35.468  1.00  0.00     0.057 A 
ATOM     69  C   UNL A   1      38.634  31.507  36.378  1.00  0.00     0.134 A 
ATOM     70  C   UNL A   1      40.105  33.270  35.701  1.00  0.00     0.134 A 
ATOM     71  F   UNL A   1      38.076  30.302  36.192  1.00  0.00    -0.206 F 
ATOM     72  C   UNL A   1      38.229  32.260  37.481  1.00  0.00     0.040 A 
ATOM     73  C   UNL A   1      39.727  34.024  36.811  1.00  0.00     0.040 A 
ATOM     74  F   UNL A   1      41.013  33.790  34.862  1.00  0.00    -0.206 F 
ATOM     75  C   UNL A   1      38.782  33.520  37.704  1.00  0.00     0.006 A 
ENDBRANCH  47  68
BRANCH  59  76
ATOM     76  C   UNL A   1      44.753  27.468  34.466  1.00  0.00     0.057 A 
ATOM     77  C   UNL A   1      44.565  26.329  35.257  1.00  0.00     0.134 A 
ATOM     78  C   UNL A   1      45.996  28.107  34.526  1.00  0.00     0.134 A 
ATOM     79  F   UNL A   1      43.389  25.683  35.249  1.00  0.00    -0.206 F 
ATOM     80  C   UNL A   1      45.575  25.849  36.089  1.00  0.00     0.040 A 
ATOM     81  C   UNL A   1      47.020  27.628  35.344  1.00  0.00     0.040 A 
ATOM     82  F   UNL A   1      46.236  29.203  33.789  1.00  0.00    -0.206 F 
ATOM     83  C   UNL A   1      46.808  26.497  36.131  1.00  0.00     0.006 A 
ENDBRANCH  59  76
ENDBRANCH  33  34
ENDBRANCH  26  28
ENDBRANCH  25  26
ENDBRANCH  24  25
ENDBRANCH   1  24
TORSDOF 15
ENDMDL
MODEL 3
REMARK VINA RESULT:     -10.6      1.108      2.256
REMARK SMILES C[NH2+][C@]1(C(=O)OCCOC(=O)c2ccc(-c3c4nc(c(-c5c(F)cccc5F)c5ccc([nH]5)c(-c5c(F)cccc5F)c5nc(c(-c6c(F)cccc6F)c6ccc3[nH]6)C=C5)C=C4)cc2)CCC[C@@H]1CCn1nc(C)c(Cl)c1C
REMARK SMILES IDX 7 1 6 2 4 3 5 4 3 5 66 6 69 7 67 8 68 9 2 10 1 11 70 14
REMARK SMILES IDX 71 15 72 16 73 17 78 18 74 19 76 20 79 21 75 22 77 23 8 24
REMARK SMILES IDX 9 25 10 26 11 27 12 28 13 29 65 30 14 31 64 32 15 33 16 34
REMARK SMILES IDX 17 35 58 36 18 37 63 38 57 39 59 40 19 41 62 42 56 43 55 44
REMARK SMILES IDX 20 46 46 47 29 48 45 49 30 50 33 51 44 52 60 53 31 54 32 55
REMARK SMILES IDX 43 57 61 58 34 59 21 60 22 61 27 62 23 63 24 64 26 65 28 66
REMARK SMILES IDX 25 67 47 68 48 69 53 70 49 71 50 72 52 73 54 74 51 75 35 76
REMARK SMILES IDX 36 77 41 78 37 79 38 80 40 81 42 82 39 83
REMARK H PARENT 2 12 2 13 59 45 33 56
REMARK Flexibility Score: inf
ROOT
ATOM      1  C   UNL A   1      36.369  22.737  23.518  1.00  0.00     0.274 C 
ENDROOT
BRANCH   1   2
ATOM      2  O   UNL A   1      35.228  23.499  23.958  1.00  0.00    -0.457 OA
BRANCH   2   3
ATOM      3  C   UNL A   1      34.091  23.319  23.229  1.00  0.00     0.368 C 
ATOM      4  O   UNL A   1      34.066  23.303  22.002  1.00  0.00    -0.245 OA
BRANCH   3   5
ATOM      5  C   UNL A   1      32.816  23.160  24.110  1.00  0.00     0.197 C 
ATOM      6  C   UNL A   1      33.100  23.135  25.632  1.00  0.00     0.081 C 
ATOM      7  C   UNL A   1      32.040  24.509  24.048  1.00  0.00     0.064 C 
ATOM      8  C   UNL A   1      31.768  23.533  26.267  1.00  0.00     0.008 C 
ATOM      9  C   UNL A   1      31.113  24.496  25.272  1.00  0.00     0.011 C 
BRANCH   5  10
ATOM     10  N   UNL A   1      32.176  21.872  23.771  1.00  0.00    -0.334 N 
ATOM     11  C   UNL A   1      32.835  20.619  24.035  1.00  0.00     0.331 C 
ATOM     12  H   UNL A   1      31.291  21.846  24.279  1.00  0.00     0.347 HD
ATOM     13  H   UNL A   1      32.149  21.899  22.752  1.00  0.00     0.347 HD
ENDBRANCH   5  10
BRANCH   7  14
ATOM     14  C   UNL A   1      31.356  24.914  22.732  1.00  0.00     0.034 C 
BRANCH  14  15
ATOM     15  C   UNL A   1      31.852  26.249  22.154  1.00  0.00     0.145 C 
BRANCH  15  16
ATOM     16  N   UNL A   1      31.314  27.426  22.820  1.00  0.00    -0.268 N 
ATOM     17  N   UNL A   1      30.139  27.925  22.386  1.00  0.00    -0.176 NA
ATOM     18  C   UNL A   1      31.851  28.140  23.867  1.00  0.00     0.054 A 
ATOM     19  C   UNL A   1      29.936  29.013  23.141  1.00  0.00     0.078 A 
ATOM     20  C   UNL A   1      30.981  29.191  24.071  1.00  0.00     0.084 A 
ATOM     21  C   UNL A   1      33.125  27.820  24.556  1.00  0.00     0.068 C 
ATOM     22  C   UNL A   1      28.723  29.841  22.929  1.00  0.00     0.070 C 
ATOM     23  Cl  UNL A   1      31.133  30.448  25.202  1.00  0.00    -0.080 Cl
ENDBRANCH  15  16
ENDBRANCH  14  15
ENDBRANCH   7  14
ENDBRANCH   3   5
ENDBRANCH   2   3
ENDBRANCH   1   2
BRANCH   1  24
ATOM     24  C   UNL A   1      36.488  21.425  24.288  1.00  0.00     0.275 C 
BRANCH  24  25
ATOM     25  O   UNL A   1      37.002  21.662  25.611  1.00  0.00    -0.458 OA
BRANCH  25  26
ATOM     26  C   UNL A   1      38.319  21.411  25.782  1.00  0.00     0.338 C 
ATOM     27  O   UNL A   1      38.936  20.411  25.457  1.00  0.00    -0.246 OA
BRANCH  26  28
ATOM     28  C   UNL A   1      38.965  22.558  26.438  1.00  0.00     0.060 A 
ATOM     29  C   UNL A   1      38.503  23.843  26.172  1.00  0.00     0.016 A 
ATOM     30  C   UNL A   1      40.128  22.374  27.184  1.00  0.00     0.016 A 
ATOM     31  C   UNL A   1      39.248  24.952  26.560  1.00  0.00     0.010 A 
ATOM     32  C   UNL A   1      40.826  23.491  27.658  1.00  0.00     0.010 A 
ATOM     33  C   UNL A   1      40.415  24.792  27.315  1.00  0.00    -0.014 A 
BRANCH  33  34
ATOM     34  C   UNL A   1      41.232  25.979  27.684  1.00  0.00     0.031 A 
ATOM     35  C   UNL A   1      40.661  27.030  28.597  1.00  0.00     0.074 A 
ATOM     36  C   UNL A   1      42.499  26.104  27.243  1.00  0.00     0.049 A 
ATOM     37  N   UNL A   1      41.132  28.215  28.892  1.00  0.00    -0.248 NA
ATOM     38  C   UNL A   1      39.386  26.711  29.259  1.00  0.00     0.031 C 
ATOM     39  C   UNL A   1      43.208  25.134  26.408  1.00  0.00     0.029 A 
ATOM     40  N   UNL A   1      43.423  27.098  27.451  1.00  0.00    -0.354 N 
ATOM     41  C   UNL A   1      40.182  28.807  29.714  1.00  0.00     0.074 A 
ATOM     42  C   UNL A   1      39.114  27.845  29.888  1.00  0.00     0.031 C 
ATOM     43  C   UNL A   1      44.468  25.557  26.213  1.00  0.00     0.029 A 
ATOM     44  C   UNL A   1      44.629  26.866  26.836  1.00  0.00     0.049 A 
ATOM     45  H   UNL A   1      43.238  27.902  27.989  1.00  0.00     0.167 HD
ATOM     46  C   UNL A   1      40.196  30.043  30.266  1.00  0.00     0.037 A 
ATOM     47  C   UNL A   1      45.729  27.636  26.748  1.00  0.00     0.037 A 
ATOM     48  C   UNL A   1      41.287  30.973  30.148  1.00  0.00     0.049 A 
ATOM     49  C   UNL A   1      45.721  29.004  27.364  1.00  0.00     0.074 A 
ATOM     50  C   UNL A   1      41.391  32.255  30.662  1.00  0.00     0.029 A 
ATOM     51  N   UNL A   1      42.478  30.708  29.491  1.00  0.00    -0.354 N 
ATOM     52  N   UNL A   1      44.775  29.593  28.052  1.00  0.00    -0.248 NA
ATOM     53  C   UNL A   1      46.923  29.826  27.162  1.00  0.00     0.031 C 
ATOM     54  C   UNL A   1      42.642  32.771  30.302  1.00  0.00     0.029 A 
ATOM     55  C   UNL A   1      43.324  31.801  29.586  1.00  0.00     0.049 A 
ATOM     56  H   UNL A   1      42.691  29.867  29.024  1.00  0.00     0.167 HD
ATOM     57  C   UNL A   1      45.261  30.856  28.359  1.00  0.00     0.074 A 
ATOM     58  C   UNL A   1      46.597  30.938  27.807  1.00  0.00     0.031 C 
ATOM     59  C   UNL A   1      44.648  31.863  29.027  1.00  0.00     0.037 A 
BRANCH  46  60
ATOM     60  C   UNL A   1      38.974  30.475  31.016  1.00  0.00     0.057 A 
ATOM     61  C   UNL A   1      38.836  30.276  32.395  1.00  0.00     0.134 A 
ATOM     62  C   UNL A   1      37.929  31.124  30.347  1.00  0.00     0.134 A 
ATOM     63  F   UNL A   1      39.795  29.646  33.089  1.00  0.00    -0.206 F 
ATOM     64  C   UNL A   1      37.693  30.695  33.079  1.00  0.00     0.040 A 
ATOM     65  C   UNL A   1      36.789  31.562  31.022  1.00  0.00     0.040 A 
ATOM     66  F   UNL A   1      38.001  31.345  29.025  1.00  0.00    -0.206 F 
ATOM     67  C   UNL A   1      36.668  31.344  32.393  1.00  0.00     0.006 A 
ENDBRANCH  46  60
BRANCH  47  68
ATOM     68  C   UNL A   1      46.915  27.143  26.006  1.00  0.00     0.057 A 
ATOM     69  C   UNL A   1      47.068  27.401  24.640  1.00  0.00     0.134 A 
ATOM     70  C   UNL A   1      47.926  26.416  26.646  1.00  0.00     0.134 A 
ATOM     71  F   UNL A   1      46.120  28.071  23.968  1.00  0.00    -0.206 F 
ATOM     72  C   UNL A   1      48.185  26.952  23.934  1.00  0.00     0.040 A 
ATOM     73  C   UNL A   1      49.059  25.982  25.959  1.00  0.00     0.040 A 
ATOM     74  F   UNL A   1      47.834  26.138  27.955  1.00  0.00    -0.206 F 
ATOM     75  C   UNL A   1      49.189  26.246  24.596  1.00  0.00     0.006 A 
ENDBRANCH  47  68
BRANCH  59  76
ATOM     76  C   UNL A   1      45.424  33.131  29.198  1.00  0.00     0.057 A 
ATOM     77  C   UNL A   1      46.281  33.321  30.288  1.00  0.00     0.134 A 
ATOM     78  C   UNL A   1      45.333  34.159  28.252  1.00  0.00     0.134 A 
ATOM     79  F   UNL A   1      46.398  32.375  31.232  1.00  0.00    -0.206 F 
ATOM     80  C   UNL A   1      47.013  34.497  30.439  1.00  0.00     0.040 A 
ATOM     81  C   UNL A   1      46.071  35.335  28.385  1.00  0.00     0.040 A 
ATOM     82  F   UNL A   1      44.529  34.034  27.185  1.00  0.00    -0.206 F 
ATOM     83  C   UNL A   1      46.912  35.508  29.484  1.00  0.00     0.006 A 
ENDBRANCH  59  76
ENDBRANCH  33  34
ENDBRANCH  26  28
ENDBRANCH  25  26
ENDBRANCH  24  25
ENDBRANCH   1  24
TORSDOF 15
ENDMDL
