MODEL 1
REMARK VINA RESULT:     -12.9      0.000      0.000
REMARK SMILES CCOC(=O)c1cccc(Nc2c(-c3ccc(C(=O)OCCOC(=O)c4ccc(-c5c6nc(c(-c7c(F)cccc7F)c7ccc([nH]7)c(-c7c(F)cccc7F)c7nc(c(-c8c(F)cccc8F)c8ccc5[nH]8)C=C7)C=C6)cc4)cc3)nc3cnccn23)c1
REMARK SMILES IDX 18 1 19 2 17 3 14 4 15 5 81 6 16 7 80 8 13 9 12 10 88 11
REMARK SMILES IDX 82 12 83 13 87 14 84 15 86 16 85 17 11 18 10 20 6 21 7 22
REMARK SMILES IDX 89 23 8 24 9 25 4 26 5 27 3 28 2 29 1 30 20 31 21 32 22 33
REMARK SMILES IDX 23 34 24 35 25 36 26 37 27 38 79 39 28 40 78 41 29 42 30 43
REMARK SMILES IDX 31 44 72 45 32 46 77 47 71 48 73 49 33 50 76 51 70 52 69 53
REMARK SMILES IDX 34 55 60 56 43 57 59 58 44 59 47 60 58 61 74 62 45 63 46 64
REMARK SMILES IDX 57 66 75 67 48 68 35 69 36 70 41 71 37 72 38 73 40 74 42 75
REMARK SMILES IDX 39 76 61 77 62 78 67 79 63 80 64 81 66 82 68 83 65 84 49 85
REMARK SMILES IDX 50 86 55 87 51 88 52 89 54 90 56 91 53 92
REMARK H PARENT 11 19 73 54 47 65
REMARK Flexibility Score: inf
ROOT
ATOM      1  C   UNL A   1      39.944  20.357  25.777  1.00  0.00     0.338 C 
ATOM      2  O   UNL A   1      40.043  19.144  25.667  1.00  0.00    -0.246 OA
ENDROOT
BRANCH   1   3
ATOM      3  C   UNL A   1      38.651  21.063  25.608  1.00  0.00     0.060 A 
ATOM      4  C   UNL A   1      36.273  22.532  25.350  1.00  0.00     0.004 A 
ATOM      5  C   UNL A   1      37.393  23.106  25.958  1.00  0.00     0.011 A 
ATOM      6  C   UNL A   1      36.337  21.207  24.899  1.00  0.00     0.011 A 
ATOM      7  C   UNL A   1      38.556  22.363  26.118  1.00  0.00     0.016 A 
ATOM      8  C   UNL A   1      37.534  20.479  25.004  1.00  0.00     0.016 A 
BRANCH   4   9
ATOM      9  C   UNL A   1      35.059  23.315  25.254  1.00  0.00     0.114 A 
ATOM     10  C   UNL A   1      33.777  22.780  25.185  1.00  0.00     0.143 A 
ATOM     11  N   UNL A   1      32.964  23.874  24.966  1.00  0.00    -0.283 N 
ATOM     12  N   UNL A   1      35.061  24.676  25.061  1.00  0.00    -0.225 NA
ATOM     13  C   UNL A   1      33.795  24.965  24.865  1.00  0.00     0.157 A 
ATOM     14  C   UNL A   1      31.593  24.046  24.858  1.00  0.00     0.115 A 
ATOM     15  C   UNL A   1      33.211  26.245  24.574  1.00  0.00     0.158 A 
ATOM     16  C   UNL A   1      31.121  25.279  24.602  1.00  0.00     0.129 A 
ATOM     17  N   UNL A   1      31.919  26.401  24.441  1.00  0.00    -0.259 NA
BRANCH  10  18
ATOM     18  N   UNL A   1      33.338  21.503  25.362  1.00  0.00    -0.339 N 
ATOM     19  H   UNL A   1      33.216  21.215  26.294  1.00  0.00     0.168 HD
BRANCH  18  20
ATOM     20  C   UNL A   1      33.036  20.540  24.371  1.00  0.00     0.040 A 
ATOM     21  C   UNL A   1      33.288  18.241  23.595  1.00  0.00     0.062 A 
ATOM     22  C   UNL A   1      32.531  18.531  22.456  1.00  0.00     0.016 A 
ATOM     23  C   UNL A   1      33.526  19.238  24.550  1.00  0.00     0.041 A 
ATOM     24  C   UNL A   1      32.004  19.809  22.285  1.00  0.00     0.003 A 
ATOM     25  C   UNL A   1      32.257  20.804  23.236  1.00  0.00     0.026 A 
BRANCH  21  26
ATOM     26  C   UNL A   1      33.886  16.899  23.725  1.00  0.00     0.338 C 
ATOM     27  O   UNL A   1      34.157  16.197  22.759  1.00  0.00    -0.246 OA
BRANCH  26  28
ATOM     28  O   UNL A   1      34.079  16.572  25.023  1.00  0.00    -0.462 OA
BRANCH  28  29
ATOM     29  C   UNL A   1      33.620  15.263  25.397  1.00  0.00     0.230 C 
ATOM     30  C   UNL A   1      32.142  15.263  25.751  1.00  0.00     0.049 C 
ENDBRANCH  28  29
ENDBRANCH  26  28
ENDBRANCH  21  26
ENDBRANCH  18  20
ENDBRANCH  10  18
ENDBRANCH   4   9
ENDBRANCH   1   3
BRANCH   1  31
ATOM     31  O   UNL A   1      40.923  21.211  26.164  1.00  0.00    -0.458 OA
BRANCH  31  32
ATOM     32  C   UNL A   1      42.244  20.634  26.262  1.00  0.00     0.275 C 
BRANCH  32  33
ATOM     33  C   UNL A   1      43.305  21.540  25.634  1.00  0.00     0.275 C 
BRANCH  33  34
ATOM     34  O   UNL A   1      42.694  22.682  25.001  1.00  0.00    -0.458 OA
BRANCH  34  35
ATOM     35  C   UNL A   1      43.412  23.827  25.039  1.00  0.00     0.338 C 
ATOM     36  O   UNL A   1      44.398  24.111  24.381  1.00  0.00    -0.246 OA
BRANCH  35  37
ATOM     37  C   UNL A   1      42.804  24.777  25.985  1.00  0.00     0.060 A 
ATOM     38  C   UNL A   1      43.344  26.053  26.079  1.00  0.00     0.016 A 
ATOM     39  C   UNL A   1      41.834  24.366  26.896  1.00  0.00     0.016 A 
ATOM     40  C   UNL A   1      43.002  26.888  27.141  1.00  0.00     0.010 A 
ATOM     41  C   UNL A   1      41.405  25.251  27.897  1.00  0.00     0.010 A 
ATOM     42  C   UNL A   1      42.010  26.512  28.062  1.00  0.00    -0.014 A 
BRANCH  42  43
ATOM     43  C   UNL A   1      41.629  27.428  29.184  1.00  0.00     0.031 A 
ATOM     44  C   UNL A   1      42.389  27.421  30.491  1.00  0.00     0.074 A 
ATOM     45  C   UNL A   1      40.596  28.289  29.043  1.00  0.00     0.049 A 
ATOM     46  N   UNL A   1      42.108  28.041  31.613  1.00  0.00    -0.248 NA
ATOM     47  C   UNL A   1      43.612  26.605  30.552  1.00  0.00     0.031 C 
ATOM     48  C   UNL A   1      39.761  28.429  27.849  1.00  0.00     0.029 A 
ATOM     49  N   UNL A   1      40.071  29.214  29.917  1.00  0.00    -0.354 N 
ATOM     50  C   UNL A   1      43.093  27.657  32.517  1.00  0.00     0.074 A 
ATOM     51  C   UNL A   1      43.966  26.737  31.825  1.00  0.00     0.031 C 
ATOM     52  C   UNL A   1      38.862  29.403  28.048  1.00  0.00     0.029 A 
ATOM     53  C   UNL A   1      38.991  29.899  29.413  1.00  0.00     0.049 A 
ATOM     54  H   UNL A   1      40.434  29.369  30.818  1.00  0.00     0.167 HD
ATOM     55  C   UNL A   1      43.269  28.044  33.804  1.00  0.00     0.037 A 
ATOM     56  C   UNL A   1      38.161  30.792  29.985  1.00  0.00     0.037 A 
ATOM     57  C   UNL A   1      42.459  29.013  34.490  1.00  0.00     0.049 A 
ATOM     58  C   UNL A   1      38.360  31.180  31.422  1.00  0.00     0.074 A 
ATOM     59  C   UNL A   1      42.595  29.478  35.787  1.00  0.00     0.029 A 
ATOM     60  N   UNL A   1      41.380  29.673  33.934  1.00  0.00    -0.354 N 
ATOM     61  N   UNL A   1      39.291  30.795  32.259  1.00  0.00    -0.248 NA
ATOM     62  C   UNL A   1      37.381  32.112  32.000  1.00  0.00     0.031 C 
ATOM     63  C   UNL A   1      41.580  30.407  36.026  1.00  0.00     0.029 A 
ATOM     64  C   UNL A   1      40.829  30.534  34.869  1.00  0.00     0.049 A 
ATOM     65  H   UNL A   1      41.053  29.551  33.014  1.00  0.00     0.167 HD
ATOM     66  C   UNL A   1      39.021  31.450  33.454  1.00  0.00     0.074 A 
ATOM     67  C   UNL A   1      37.850  32.271  33.231  1.00  0.00     0.031 C 
ATOM     68  C   UNL A   1      39.681  31.367  34.632  1.00  0.00     0.037 A 
BRANCH  55  69
ATOM     69  C   UNL A   1      44.381  27.415  34.583  1.00  0.00     0.057 A 
ATOM     70  C   UNL A   1      45.590  28.082  34.804  1.00  0.00     0.134 A 
ATOM     71  C   UNL A   1      44.190  26.183  35.220  1.00  0.00     0.134 A 
ATOM     72  F   UNL A   1      45.812  29.290  34.268  1.00  0.00    -0.206 F 
ATOM     73  C   UNL A   1      46.584  27.531  35.616  1.00  0.00     0.040 A 
ATOM     74  C   UNL A   1      45.171  25.630  36.046  1.00  0.00     0.040 A 
ATOM     75  F   UNL A   1      43.038  25.513  35.074  1.00  0.00    -0.206 F 
ATOM     76  C   UNL A   1      46.375  26.304  36.243  1.00  0.00     0.006 A 
ENDBRANCH  55  69
BRANCH  56  77
ATOM     77  C   UNL A   1      37.024  31.350  29.206  1.00  0.00     0.057 A 
ATOM     78  C   UNL A   1      37.050  32.662  28.720  1.00  0.00     0.134 A 
ATOM     79  C   UNL A   1      35.884  30.583  28.935  1.00  0.00     0.134 A 
ATOM     80  F   UNL A   1      38.102  33.454  28.970  1.00  0.00    -0.206 F 
ATOM     81  C   UNL A   1      35.978  33.194  28.001  1.00  0.00     0.040 A 
ATOM     82  C   UNL A   1      34.819  31.092  28.193  1.00  0.00     0.040 A 
ATOM     83  F   UNL A   1      35.798  29.318  29.373  1.00  0.00    -0.206 F 
ATOM     84  C   UNL A   1      34.863  32.405  27.728  1.00  0.00     0.006 A 
ENDBRANCH  56  77
BRANCH  68  85
ATOM     85  C   UNL A   1      39.184  32.211  35.765  1.00  0.00     0.057 A 
ATOM     86  C   UNL A   1      39.606  33.536  35.934  1.00  0.00     0.134 A 
ATOM     87  C   UNL A   1      38.232  31.713  36.662  1.00  0.00     0.134 A 
ATOM     88  F   UNL A   1      40.524  34.067  35.113  1.00  0.00    -0.206 F 
ATOM     89  C   UNL A   1      39.109  34.330  36.968  1.00  0.00     0.040 A 
ATOM     90  C   UNL A   1      37.711  32.505  37.685  1.00  0.00     0.040 A 
ATOM     91  F   UNL A   1      37.779  30.455  36.547  1.00  0.00    -0.206 F 
ATOM     92  C   UNL A   1      38.154  33.816  37.843  1.00  0.00     0.006 A 
ENDBRANCH  68  85
ENDBRANCH  42  43
ENDBRANCH  35  37
ENDBRANCH  34  35
ENDBRANCH  33  34
ENDBRANCH  32  33
ENDBRANCH  31  32
ENDBRANCH   1  31
TORSDOF 17
ENDMDL
MODEL 2
REMARK VINA RESULT:     -12.5      5.620     10.352
REMARK SMILES CCOC(=O)c1cccc(Nc2c(-c3ccc(C(=O)OCCOC(=O)c4ccc(-c5c6nc(c(-c7c(F)cccc7F)c7ccc([nH]7)c(-c7c(F)cccc7F)c7nc(c(-c8c(F)cccc8F)c8ccc5[nH]8)C=C7)C=C6)cc4)cc3)nc3cnccn23)c1
REMARK SMILES IDX 18 1 19 2 17 3 14 4 15 5 81 6 16 7 80 8 13 9 12 10 88 11
REMARK SMILES IDX 82 12 83 13 87 14 84 15 86 16 85 17 11 18 10 20 6 21 7 22
REMARK SMILES IDX 89 23 8 24 9 25 4 26 5 27 3 28 2 29 1 30 20 31 21 32 22 33
REMARK SMILES IDX 23 34 24 35 25 36 26 37 27 38 79 39 28 40 78 41 29 42 30 43
REMARK SMILES IDX 31 44 72 45 32 46 77 47 71 48 73 49 33 50 76 51 70 52 69 53
REMARK SMILES IDX 34 55 60 56 43 57 59 58 44 59 47 60 58 61 74 62 45 63 46 64
REMARK SMILES IDX 57 66 75 67 48 68 35 69 36 70 41 71 37 72 38 73 40 74 42 75
REMARK SMILES IDX 39 76 61 77 62 78 67 79 63 80 64 81 66 82 68 83 65 84 49 85
REMARK SMILES IDX 50 86 55 87 51 88 52 89 54 90 56 91 53 92
REMARK H PARENT 11 19 73 54 47 65
REMARK Flexibility Score: inf
ROOT
ATOM      1  C   UNL A   1      32.844  30.827  27.009  1.00  0.00     0.338 C 
ATOM      2  O   UNL A   1      31.818  31.476  26.873  1.00  0.00    -0.246 OA
ENDROOT
BRANCH   1   3
ATOM      3  C   UNL A   1      32.935  29.401  26.612  1.00  0.00     0.060 A 
ATOM      4  C   UNL A   1      32.967  26.677  25.935  1.00  0.00     0.004 A 
ATOM      5  C   UNL A   1      31.954  27.189  26.750  1.00  0.00     0.011 A 
ATOM      6  C   UNL A   1      33.985  27.528  25.485  1.00  0.00     0.011 A 
ATOM      7  C   UNL A   1      31.962  28.530  27.113  1.00  0.00     0.016 A 
ATOM      8  C   UNL A   1      33.957  28.897  25.801  1.00  0.00     0.016 A 
BRANCH   4   9
ATOM      9  C   UNL A   1      32.960  25.263  25.627  1.00  0.00     0.114 A 
ATOM     10  C   UNL A   1      32.291  24.691  24.549  1.00  0.00     0.143 A 
ATOM     11  N   UNL A   1      32.448  23.332  24.735  1.00  0.00    -0.283 N 
ATOM     12  N   UNL A   1      33.490  24.312  26.467  1.00  0.00    -0.225 NA
ATOM     13  C   UNL A   1      33.137  23.175  25.913  1.00  0.00     0.157 A 
ATOM     14  C   UNL A   1      32.080  22.215  24.003  1.00  0.00     0.115 A 
ATOM     15  C   UNL A   1      33.390  21.842  26.385  1.00  0.00     0.158 A 
ATOM     16  C   UNL A   1      32.366  21.000  24.502  1.00  0.00     0.129 A 
ATOM     17  N   UNL A   1      33.014  20.787  25.709  1.00  0.00    -0.259 NA
BRANCH  10  18
ATOM     18  N   UNL A   1      31.673  25.269  23.482  1.00  0.00    -0.339 N 
ATOM     19  H   UNL A   1      32.069  25.081  22.602  1.00  0.00     0.168 HD
BRANCH  18  20
ATOM     20  C   UNL A   1      30.533  26.106  23.483  1.00  0.00     0.040 A 
ATOM     21  C   UNL A   1      29.579  28.280  22.925  1.00  0.00     0.062 A 
ATOM     22  C   UNL A   1      28.345  27.885  23.448  1.00  0.00     0.016 A 
ATOM     23  C   UNL A   1      30.661  27.390  22.933  1.00  0.00     0.041 A 
ATOM     24  C   UNL A   1      28.192  26.599  23.960  1.00  0.00     0.003 A 
ATOM     25  C   UNL A   1      29.279  25.718  23.978  1.00  0.00     0.026 A 
BRANCH  21  26
ATOM     26  C   UNL A   1      29.733  29.666  22.443  1.00  0.00     0.338 C 
ATOM     27  O   UNL A   1      29.892  29.943  21.261  1.00  0.00    -0.246 OA
BRANCH  26  28
ATOM     28  O   UNL A   1      29.676  30.551  23.465  1.00  0.00    -0.462 OA
BRANCH  28  29
ATOM     29  C   UNL A   1      28.814  31.679  23.246  1.00  0.00     0.230 C 
ATOM     30  C   UNL A   1      27.391  31.400  23.700  1.00  0.00     0.049 C 
ENDBRANCH  28  29
ENDBRANCH  26  28
ENDBRANCH  21  26
ENDBRANCH  18  20
ENDBRANCH  10  18
ENDBRANCH   4   9
ENDBRANCH   1   3
BRANCH   1  31
ATOM     31  O   UNL A   1      34.048  31.301  27.415  1.00  0.00    -0.458 OA
BRANCH  31  32
ATOM     32  C   UNL A   1      33.997  32.463  28.271  1.00  0.00     0.275 C 
BRANCH  32  33
ATOM     33  C   UNL A   1      34.920  32.315  29.482  1.00  0.00     0.275 C 
BRANCH  33  34
ATOM     34  O   UNL A   1      35.487  30.990  29.534  1.00  0.00    -0.458 OA
BRANCH  34  35
ATOM     35  C   UNL A   1      36.372  30.770  30.532  1.00  0.00     0.338 C 
ATOM     36  O   UNL A   1      36.234  31.014  31.719  1.00  0.00    -0.246 OA
BRANCH  35  37
ATOM     37  C   UNL A   1      37.580  30.114  30.005  1.00  0.00     0.060 A 
ATOM     38  C   UNL A   1      38.502  29.603  30.908  1.00  0.00     0.016 A 
ATOM     39  C   UNL A   1      37.890  30.161  28.647  1.00  0.00     0.016 A 
ATOM     40  C   UNL A   1      39.778  29.235  30.482  1.00  0.00     0.010 A 
ATOM     41  C   UNL A   1      39.133  29.680  28.205  1.00  0.00     0.010 A 
ATOM     42  C   UNL A   1      40.113  29.246  29.119  1.00  0.00    -0.014 A 
BRANCH  42  43
ATOM     43  C   UNL A   1      41.476  28.822  28.667  1.00  0.00     0.031 A 
ATOM     44  C   UNL A   1      41.751  27.396  28.246  1.00  0.00     0.074 A 
ATOM     45  C   UNL A   1      42.490  29.715  28.618  1.00  0.00     0.049 A 
ATOM     46  N   UNL A   1      42.898  26.824  27.965  1.00  0.00    -0.248 NA
ATOM     47  C   UNL A   1      40.595  26.492  28.140  1.00  0.00     0.031 C 
ATOM     48  C   UNL A   1      42.396  31.130  28.982  1.00  0.00     0.029 A 
ATOM     49  N   UNL A   1      43.804  29.563  28.238  1.00  0.00    -0.354 N 
ATOM     50  C   UNL A   1      42.604  25.493  27.691  1.00  0.00     0.074 A 
ATOM     51  C   UNL A   1      41.177  25.333  27.859  1.00  0.00     0.031 C 
ATOM     52  C   UNL A   1      43.580  31.721  28.772  1.00  0.00     0.029 A 
ATOM     53  C   UNL A   1      44.546  30.716  28.345  1.00  0.00     0.049 A 
ATOM     54  H   UNL A   1      44.177  28.710  27.921  1.00  0.00     0.167 HD
ATOM     55  C   UNL A   1      43.438  24.492  27.319  1.00  0.00     0.037 A 
ATOM     56  C   UNL A   1      45.862  30.944  28.169  1.00  0.00     0.037 A 
ATOM     57  C   UNL A   1      44.846  24.642  27.074  1.00  0.00     0.049 A 
ATOM     58  C   UNL A   1      46.769  29.810  27.786  1.00  0.00     0.074 A 
ATOM     59  C   UNL A   1      45.752  23.679  26.664  1.00  0.00     0.029 A 
ATOM     60  N   UNL A   1      45.545  25.828  27.198  1.00  0.00    -0.354 N 
ATOM     61  N   UNL A   1      46.469  28.559  27.544  1.00  0.00    -0.248 NA
ATOM     62  C   UNL A   1      48.203  30.117  27.670  1.00  0.00     0.031 C 
ATOM     63  C   UNL A   1      47.009  24.278  26.562  1.00  0.00     0.029 A 
ATOM     64  C   UNL A   1      46.878  25.618  26.887  1.00  0.00     0.049 A 
ATOM     65  H   UNL A   1      45.155  26.691  27.466  1.00  0.00     0.167 HD
ATOM     66  C   UNL A   1      47.669  27.934  27.231  1.00  0.00     0.074 A 
ATOM     67  C   UNL A   1      48.702  28.947  27.296  1.00  0.00     0.031 C 
ATOM     68  C   UNL A   1      47.894  26.635  26.928  1.00  0.00     0.037 A 
BRANCH  55  69
ATOM     69  C   UNL A   1      42.864  23.120  27.156  1.00  0.00     0.057 A 
ATOM     70  C   UNL A   1      42.553  22.319  28.259  1.00  0.00     0.134 A 
ATOM     71  C   UNL A   1      42.506  22.648  25.887  1.00  0.00     0.134 A 
ATOM     72  F   UNL A   1      42.819  22.738  29.504  1.00  0.00    -0.206 F 
ATOM     73  C   UNL A   1      41.924  21.081  28.103  1.00  0.00     0.040 A 
ATOM     74  C   UNL A   1      41.864  21.419  25.720  1.00  0.00     0.040 A 
ATOM     75  F   UNL A   1      42.747  23.387  24.794  1.00  0.00    -0.206 F 
ATOM     76  C   UNL A   1      41.575  20.630  26.832  1.00  0.00     0.006 A 
ENDBRANCH  55  69
BRANCH  56  77
ATOM     77  C   UNL A   1      46.414  32.304  28.403  1.00  0.00     0.057 A 
ATOM     78  C   UNL A   1      46.902  32.685  29.657  1.00  0.00     0.134 A 
ATOM     79  C   UNL A   1      46.459  33.256  27.376  1.00  0.00     0.134 A 
ATOM     80  F   UNL A   1      46.862  31.827  30.687  1.00  0.00    -0.206 F 
ATOM     81  C   UNL A   1      47.407  33.966  29.885  1.00  0.00     0.040 A 
ATOM     82  C   UNL A   1      46.988  34.530  27.582  1.00  0.00     0.040 A 
ATOM     83  F   UNL A   1      46.006  32.953  26.151  1.00  0.00    -0.206 F 
ATOM     84  C   UNL A   1      47.459  34.890  28.843  1.00  0.00     0.006 A 
ENDBRANCH  56  77
BRANCH  68  85
ATOM     85  C   UNL A   1      49.300  26.232  26.603  1.00  0.00     0.057 A 
ATOM     86  C   UNL A   1      49.846  26.435  25.330  1.00  0.00     0.134 A 
ATOM     87  C   UNL A   1      50.131  25.688  27.588  1.00  0.00     0.134 A 
ATOM     88  F   UNL A   1      49.096  26.943  24.342  1.00  0.00    -0.206 F 
ATOM     89  C   UNL A   1      51.169  26.095  25.044  1.00  0.00     0.040 A 
ATOM     90  C   UNL A   1      51.462  25.365  27.321  1.00  0.00     0.040 A 
ATOM     91  F   UNL A   1      49.670  25.479  28.831  1.00  0.00    -0.206 F 
ATOM     92  C   UNL A   1      51.982  25.564  26.044  1.00  0.00     0.006 A 
ENDBRANCH  68  85
ENDBRANCH  42  43
ENDBRANCH  35  37
ENDBRANCH  34  35
ENDBRANCH  33  34
ENDBRANCH  32  33
ENDBRANCH  31  32
ENDBRANCH   1  31
TORSDOF 17
ENDMDL
MODEL 3
REMARK VINA RESULT:     -12.3      5.714     10.441
REMARK SMILES CCOC(=O)c1cccc(Nc2c(-c3ccc(C(=O)OCCOC(=O)c4ccc(-c5c6nc(c(-c7c(F)cccc7F)c7ccc([nH]7)c(-c7c(F)cccc7F)c7nc(c(-c8c(F)cccc8F)c8ccc5[nH]8)C=C7)C=C6)cc4)cc3)nc3cnccn23)c1
REMARK SMILES IDX 18 1 19 2 17 3 14 4 15 5 81 6 16 7 80 8 13 9 12 10 88 11
REMARK SMILES IDX 82 12 83 13 87 14 84 15 86 16 85 17 11 18 10 20 6 21 7 22
REMARK SMILES IDX 89 23 8 24 9 25 4 26 5 27 3 28 2 29 1 30 20 31 21 32 22 33
REMARK SMILES IDX 23 34 24 35 25 36 26 37 27 38 79 39 28 40 78 41 29 42 30 43
REMARK SMILES IDX 31 44 72 45 32 46 77 47 71 48 73 49 33 50 76 51 70 52 69 53
REMARK SMILES IDX 34 55 60 56 43 57 59 58 44 59 47 60 58 61 74 62 45 63 46 64
REMARK SMILES IDX 57 66 75 67 48 68 35 69 36 70 41 71 37 72 38 73 40 74 42 75
REMARK SMILES IDX 39 76 61 77 62 78 67 79 63 80 64 81 66 82 68 83 65 84 49 85
REMARK SMILES IDX 50 86 55 87 51 88 52 89 54 90 56 91 53 92
REMARK H PARENT 11 19 73 54 47 65
REMARK Flexibility Score: inf
ROOT
ATOM      1  C   UNL A   1      33.309  32.211  27.909  1.00  0.00     0.338 C 
ATOM      2  O   UNL A   1      32.613  33.144  27.536  1.00  0.00    -0.246 OA
ENDROOT
BRANCH   1   3
ATOM      3  C   UNL A   1      33.222  30.864  27.293  1.00  0.00     0.060 A 
ATOM      4  C   UNL A   1      33.217  28.301  26.151  1.00  0.00     0.004 A 
ATOM      5  C   UNL A   1      34.420  28.897  26.537  1.00  0.00     0.011 A 
ATOM      6  C   UNL A   1      32.016  29.005  26.308  1.00  0.00     0.011 A 
ATOM      7  C   UNL A   1      34.422  30.181  27.067  1.00  0.00     0.016 A 
ATOM      8  C   UNL A   1      32.014  30.278  26.904  1.00  0.00     0.016 A 
BRANCH   4   9
ATOM      9  C   UNL A   1      33.258  26.986  25.545  1.00  0.00     0.114 A 
ATOM     10  C   UNL A   1      32.542  26.615  24.412  1.00  0.00     0.143 A 
ATOM     11  N   UNL A   1      32.779  25.260  24.291  1.00  0.00    -0.283 N 
ATOM     12  N   UNL A   1      33.893  25.915  26.128  1.00  0.00    -0.225 NA
ATOM     13  C   UNL A   1      33.558  24.900  25.364  1.00  0.00     0.157 A 
ATOM     14  C   UNL A   1      32.415  24.301  23.358  1.00  0.00     0.115 A 
ATOM     15  C   UNL A   1      33.910  23.517  25.522  1.00  0.00     0.158 A 
ATOM     16  C   UNL A   1      32.797  23.029  23.566  1.00  0.00     0.129 A 
ATOM     17  N   UNL A   1      33.539  22.607  24.658  1.00  0.00    -0.259 NA
BRANCH  10  18
ATOM     18  N   UNL A   1      31.821  27.364  23.534  1.00  0.00    -0.339 N 
ATOM     19  H   UNL A   1      32.343  27.862  22.864  1.00  0.00     0.168 HD
BRANCH  18  20
ATOM     20  C   UNL A   1      30.417  27.516  23.463  1.00  0.00     0.040 A 
ATOM     21  C   UNL A   1      28.531  28.861  22.700  1.00  0.00     0.062 A 
ATOM     22  C   UNL A   1      27.637  27.954  23.275  1.00  0.00     0.016 A 
ATOM     23  C   UNL A   1      29.911  28.635  22.785  1.00  0.00     0.041 A 
ATOM     24  C   UNL A   1      28.124  26.818  23.916  1.00  0.00     0.003 A 
ATOM     25  C   UNL A   1      29.504  26.603  24.010  1.00  0.00     0.026 A 
BRANCH  21  26
ATOM     26  C   UNL A   1      27.994  30.087  22.078  1.00  0.00     0.338 C 
ATOM     27  O   UNL A   1      28.035  30.291  20.872  1.00  0.00    -0.246 OA
BRANCH  26  28
ATOM     28  O   UNL A   1      27.472  30.920  23.008  1.00  0.00    -0.462 OA
BRANCH  28  29
ATOM     29  C   UNL A   1      28.420  31.786  23.652  1.00  0.00     0.230 C 
ATOM     30  C   UNL A   1      28.715  33.021  22.818  1.00  0.00     0.049 C 
ENDBRANCH  28  29
ENDBRANCH  26  28
ENDBRANCH  21  26
ENDBRANCH  18  20
ENDBRANCH  10  18
ENDBRANCH   4   9
ENDBRANCH   1   3
BRANCH   1  31
ATOM     31  O   UNL A   1      34.308  32.269  28.823  1.00  0.00    -0.458 OA
BRANCH  31  32
ATOM     32  C   UNL A   1      34.411  33.514  29.547  1.00  0.00     0.275 C 
BRANCH  32  33
ATOM     33  C   UNL A   1      34.364  33.294  31.061  1.00  0.00     0.275 C 
BRANCH  33  34
ATOM     34  O   UNL A   1      34.961  32.030  31.413  1.00  0.00    -0.458 OA
BRANCH  34  35
ATOM     35  C   UNL A   1      35.888  32.074  32.397  1.00  0.00     0.338 C 
ATOM     36  O   UNL A   1      35.707  32.288  33.583  1.00  0.00    -0.246 OA
BRANCH  35  37
ATOM     37  C   UNL A   1      37.221  31.763  31.854  1.00  0.00     0.060 A 
ATOM     38  C   UNL A   1      37.464  32.022  30.512  1.00  0.00     0.016 A 
ATOM     39  C   UNL A   1      38.160  31.061  32.607  1.00  0.00     0.016 A 
ATOM     40  C   UNL A   1      38.590  31.492  29.883  1.00  0.00     0.010 A 
ATOM     41  C   UNL A   1      39.350  30.629  32.000  1.00  0.00     0.010 A 
ATOM     42  C   UNL A   1      39.567  30.802  30.619  1.00  0.00    -0.014 A 
BRANCH  42  43
ATOM     43  C   UNL A   1      40.789  30.262  29.942  1.00  0.00     0.031 A 
ATOM     44  C   UNL A   1      42.007  31.129  29.720  1.00  0.00     0.074 A 
ATOM     45  C   UNL A   1      40.827  28.977  29.523  1.00  0.00     0.049 A 
ATOM     46  N   UNL A   1      43.091  30.868  29.027  1.00  0.00    -0.248 NA
ATOM     47  C   UNL A   1      42.005  32.463  30.340  1.00  0.00     0.031 C 
ATOM     48  C   UNL A   1      39.743  28.003  29.664  1.00  0.00     0.029 A 
ATOM     49  N   UNL A   1      41.822  28.266  28.892  1.00  0.00    -0.354 N 
ATOM     50  C   UNL A   1      43.873  32.016  29.097  1.00  0.00     0.074 A 
ATOM     51  C   UNL A   1      43.136  32.982  29.879  1.00  0.00     0.031 C 
ATOM     52  C   UNL A   1      40.142  26.821  29.175  1.00  0.00     0.029 A 
ATOM     53  C   UNL A   1      41.475  26.967  28.604  1.00  0.00     0.049 A 
ATOM     54  H   UNL A   1      42.699  28.652  28.668  1.00  0.00     0.167 HD
ATOM     55  C   UNL A   1      45.102  32.246  28.574  1.00  0.00     0.037 A 
ATOM     56  C   UNL A   1      42.124  26.007  27.917  1.00  0.00     0.037 A 
ATOM     57  C   UNL A   1      45.886  31.278  27.857  1.00  0.00     0.049 A 
ATOM     58  C   UNL A   1      43.471  26.299  27.321  1.00  0.00     0.074 A 
ATOM     59  C   UNL A   1      47.154  31.430  27.322  1.00  0.00     0.029 A 
ATOM     60  N   UNL A   1      45.487  29.982  27.593  1.00  0.00    -0.354 N 
ATOM     61  N   UNL A   1      44.184  27.394  27.392  1.00  0.00    -0.248 NA
ATOM     62  C   UNL A   1      44.095  25.225  26.533  1.00  0.00     0.031 C 
ATOM     63  C   UNL A   1      47.515  30.227  26.710  1.00  0.00     0.029 A 
ATOM     64  C   UNL A   1      46.480  29.324  26.886  1.00  0.00     0.049 A 
ATOM     65  H   UNL A   1      44.628  29.586  27.865  1.00  0.00     0.167 HD
ATOM     66  C   UNL A   1      45.346  27.138  26.674  1.00  0.00     0.074 A 
ATOM     67  C   UNL A   1      45.252  25.777  26.191  1.00  0.00     0.031 C 
ATOM     68  C   UNL A   1      46.391  27.963  26.432  1.00  0.00     0.037 A 
BRANCH  55  69
ATOM     69  C   UNL A   1      45.694  33.610  28.739  1.00  0.00     0.057 A 
ATOM     70  C   UNL A   1      46.547  33.916  29.805  1.00  0.00     0.134 A 
ATOM     71  C   UNL A   1      45.507  34.587  27.754  1.00  0.00     0.134 A 
ATOM     72  F   UNL A   1      46.812  33.004  30.751  1.00  0.00    -0.206 F 
ATOM     73  C   UNL A   1      47.176  35.160  29.897  1.00  0.00     0.040 A 
ATOM     74  C   UNL A   1      46.142  35.829  27.828  1.00  0.00     0.040 A 
ATOM     75  F   UNL A   1      44.728  34.340  26.690  1.00  0.00    -0.206 F 
ATOM     76  C   UNL A   1      46.977  36.119  28.906  1.00  0.00     0.006 A 
ENDBRANCH  55  69
BRANCH  56  77
ATOM     77  C   UNL A   1      41.481  24.682  27.712  1.00  0.00     0.057 A 
ATOM     78  C   UNL A   1      41.863  23.565  28.463  1.00  0.00     0.134 A 
ATOM     79  C   UNL A   1      40.474  24.504  26.755  1.00  0.00     0.134 A 
ATOM     80  F   UNL A   1      42.840  23.666  29.376  1.00  0.00    -0.206 F 
ATOM     81  C   UNL A   1      41.273  22.316  28.263  1.00  0.00     0.040 A 
ATOM     82  C   UNL A   1      39.855  23.268  26.566  1.00  0.00     0.040 A 
ATOM     83  F   UNL A   1      40.064  25.535  26.003  1.00  0.00    -0.206 F 
ATOM     84  C   UNL A   1      40.259  22.168  27.319  1.00  0.00     0.006 A 
ENDBRANCH  56  77
BRANCH  68  85
ATOM     85  C   UNL A   1      47.538  27.413  25.641  1.00  0.00     0.057 A 
ATOM     86  C   UNL A   1      48.585  26.715  26.255  1.00  0.00     0.134 A 
ATOM     87  C   UNL A   1      47.567  27.534  24.247  1.00  0.00     0.134 A 
ATOM     88  F   UNL A   1      48.619  26.575  27.588  1.00  0.00    -0.206 F 
ATOM     89  C   UNL A   1      49.631  26.171  25.509  1.00  0.00     0.040 A 
ATOM     90  C   UNL A   1      48.595  26.974  23.488  1.00  0.00     0.040 A 
ATOM     91  F   UNL A   1      46.586  28.181  23.598  1.00  0.00    -0.206 F 
ATOM     92  C   UNL A   1      49.634  26.294  24.120  1.00  0.00     0.006 A 
ENDBRANCH  68  85
ENDBRANCH  42  43
ENDBRANCH  35  37
ENDBRANCH  34  35
ENDBRANCH  33  34
ENDBRANCH  32  33
ENDBRANCH  31  32
ENDBRANCH   1  31
TORSDOF 17
ENDMDL
