MODEL 1
REMARK VINA RESULT:     -12.9      0.000      0.000
REMARK SMILES CC(=O)Nc1cc(NC(C)=O)cc(C(=O)Nc2ccc(Br)cc2C(=O)OCCOC(=O)c2ccc(-c3c4nc(c(-c5c(F)cccc5F)c5ccc([nH]5)c(-c5c(F)cccc5F)c5nc(c(-c6c(F)cccc6F)c6ccc3[nH]6)C=C5)C=C4)cc2)c1
REMARK SMILES IDX 27 1 26 2 24 3 25 4 23 5 17 6 18 7 19 8 22 9 20 10 21 11
REMARK SMILES IDX 16 12 14 13 15 14 13 16 5 17 6 18 86 19 7 20 12 21 4 22 1 23
REMARK SMILES IDX 2 24 3 25 8 27 9 28 10 30 11 31 28 32 29 33 30 34 31 35
REMARK SMILES IDX 32 36 33 37 85 38 34 39 84 40 35 41 36 42 37 43 78 44 38 45
REMARK SMILES IDX 83 46 77 47 79 48 39 49 82 50 76 51 75 52 40 54 66 55 49 56
REMARK SMILES IDX 65 57 50 58 53 59 64 60 80 61 51 62 52 63 63 65 81 66 54 67
REMARK SMILES IDX 41 68 42 69 47 70 43 71 44 72 46 73 48 74 45 75 67 76 68 77
REMARK SMILES IDX 73 78 69 79 70 80 72 81 74 82 71 83 55 84 56 85 61 86 57 87
REMARK SMILES IDX 58 88 60 89 62 90 59 91
REMARK H PARENT 16 15 4 26 8 29 79 53 53 64
REMARK Flexibility Score: inf
ROOT
ATOM      1  C   UNL A   1      36.806  22.202  23.805  1.00  0.00     0.275 C 
ENDROOT
BRANCH   1   2
ATOM      2  O   UNL A   1      36.221  23.271  24.577  1.00  0.00    -0.458 OA
BRANCH   2   3
ATOM      3  C   UNL A   1      35.089  22.919  25.226  1.00  0.00     0.340 C 
ATOM      4  O   UNL A   1      34.887  23.057  26.419  1.00  0.00    -0.246 OA
BRANCH   3   5
ATOM      5  C   UNL A   1      34.084  22.305  24.339  1.00  0.00     0.084 A 
ATOM      6  C   UNL A   1      33.575  22.942  23.197  1.00  0.00     0.056 A 
ATOM      7  C   UNL A   1      32.586  22.280  22.447  1.00  0.00     0.028 A 
ATOM      8  C   UNL A   1      32.229  20.956  22.728  1.00  0.00     0.018 A 
ATOM      9  C   UNL A   1      33.701  20.983  24.629  1.00  0.00     0.033 A 
ATOM     10  C   UNL A   1      32.811  20.303  23.805  1.00  0.00     0.018 A 
ATOM     11  Br  UNL A   1      32.442  18.479  24.127  1.00  0.00    -0.051 Br
BRANCH   6  12
ATOM     12  N   UNL A   1      34.003  24.182  22.678  1.00  0.00    -0.321 N 
ATOM     13  C   UNL A   1      33.396  25.424  22.622  1.00  0.00     0.255 C 
ATOM     14  O   UNL A   1      33.845  26.272  21.850  1.00  0.00    -0.269 OA
ATOM     15  H   UNL A   1      34.903  24.160  22.282  1.00  0.00     0.170 HD
BRANCH  13  16
ATOM     16  C   UNL A   1      32.266  25.810  23.520  1.00  0.00     0.044 A 
ATOM     17  C   UNL A   1      30.960  25.458  25.523  1.00  0.00     0.044 A 
ATOM     18  C   UNL A   1      29.940  26.247  24.968  1.00  0.00     0.052 A 
ATOM     19  C   UNL A   1      32.164  25.331  24.835  1.00  0.00     0.040 A 
ATOM     20  C   UNL A   1      30.080  26.859  23.721  1.00  0.00     0.044 A 
ATOM     21  C   UNL A   1      31.248  26.621  22.990  1.00  0.00     0.040 A 
BRANCH  17  22
ATOM     22  N   UNL A   1      30.595  24.686  26.642  1.00  0.00    -0.326 N 
ATOM     23  C   UNL A   1      30.639  22.336  25.819  1.00  0.00     0.114 C 
ATOM     24  C   UNL A   1      30.226  23.386  26.805  1.00  0.00     0.221 C 
ATOM     25  O   UNL A   1      29.575  23.080  27.807  1.00  0.00    -0.275 OA
ATOM     26  H   UNL A   1      30.610  25.193  27.486  1.00  0.00     0.169 HD
ENDBRANCH  17  22
BRANCH  20  27
ATOM     27  N   UNL A   1      29.079  27.666  23.130  1.00  0.00    -0.326 N 
ATOM     28  C   UNL A   1      29.033  29.050  23.105  1.00  0.00     0.221 C 
ATOM     29  H   UNL A   1      28.336  27.193  22.692  1.00  0.00     0.169 HD
ATOM     30  C   UNL A   1      27.843  29.598  22.357  1.00  0.00     0.114 C 
ATOM     31  O   UNL A   1      29.846  29.822  23.602  1.00  0.00    -0.275 OA
ENDBRANCH  20  27
ENDBRANCH  13  16
ENDBRANCH   6  12
ENDBRANCH   3   5
ENDBRANCH   2   3
ENDBRANCH   1   2
BRANCH   1  32
ATOM     32  C   UNL A   1      37.422  21.093  24.665  1.00  0.00     0.275 C 
BRANCH  32  33
ATOM     33  O   UNL A   1      37.834  21.565  25.963  1.00  0.00    -0.458 OA
BRANCH  33  34
ATOM     34  C   UNL A   1      39.160  21.466  26.202  1.00  0.00     0.338 C 
ATOM     35  O   UNL A   1      39.907  20.559  25.869  1.00  0.00    -0.246 OA
BRANCH  34  36
ATOM     36  C   UNL A   1      39.663  22.659  26.895  1.00  0.00     0.060 A 
ATOM     37  C   UNL A   1      39.189  23.912  26.510  1.00  0.00     0.016 A 
ATOM     38  C   UNL A   1      40.764  22.558  27.739  1.00  0.00     0.016 A 
ATOM     39  C   UNL A   1      39.876  25.064  26.847  1.00  0.00     0.010 A 
ATOM     40  C   UNL A   1      41.391  23.727  28.176  1.00  0.00     0.010 A 
ATOM     41  C   UNL A   1      40.976  24.985  27.698  1.00  0.00    -0.014 A 
BRANCH  41  42
ATOM     42  C   UNL A   1      41.724  26.211  28.048  1.00  0.00     0.031 A 
ATOM     43  C   UNL A   1      41.048  27.271  28.866  1.00  0.00     0.074 A 
ATOM     44  C   UNL A   1      42.997  26.365  27.638  1.00  0.00     0.049 A 
ATOM     45  N   UNL A   1      41.390  28.517  29.050  1.00  0.00    -0.248 NA
ATOM     46  C   UNL A   1      39.805  26.878  29.550  1.00  0.00     0.031 C 
ATOM     47  C   UNL A   1      43.793  25.358  26.929  1.00  0.00     0.029 A 
ATOM     48  N   UNL A   1      43.843  27.437  27.746  1.00  0.00    -0.354 N 
ATOM     49  C   UNL A   1      40.379  29.074  29.823  1.00  0.00     0.074 A 
ATOM     50  C   UNL A   1      39.405  28.032  30.065  1.00  0.00     0.031 C 
ATOM     51  C   UNL A   1      45.010  25.858  26.673  1.00  0.00     0.029 A 
ATOM     52  C   UNL A   1      45.042  27.248  27.103  1.00  0.00     0.049 A 
ATOM     53  H   UNL A   1      43.615  28.260  28.235  1.00  0.00     0.167 HD
ATOM     54  C   UNL A   1      40.281  30.345  30.277  1.00  0.00     0.037 A 
ATOM     55  C   UNL A   1      46.028  28.121  26.831  1.00  0.00     0.037 A 
ATOM     56  C   UNL A   1      41.289  31.346  30.049  1.00  0.00     0.049 A 
ATOM     57  C   UNL A   1      45.857  29.547  27.267  1.00  0.00     0.074 A 
ATOM     58  C   UNL A   1      41.300  32.670  30.448  1.00  0.00     0.029 A 
ATOM     59  N   UNL A   1      42.478  31.122  29.367  1.00  0.00    -0.354 N 
ATOM     60  N   UNL A   1      44.867  30.096  27.930  1.00  0.00    -0.248 NA
ATOM     61  C   UNL A   1      46.929  30.481  26.902  1.00  0.00     0.031 C 
ATOM     62  C   UNL A   1      42.475  33.258  29.969  1.00  0.00     0.029 A 
ATOM     63  C   UNL A   1      43.223  32.287  29.322  1.00  0.00     0.049 A 
ATOM     64  H   UNL A   1      42.751  30.262  28.974  1.00  0.00     0.167 HD
ATOM     65  C   UNL A   1      45.210  31.429  28.092  1.00  0.00     0.074 A 
ATOM     66  C   UNL A   1      46.504  31.604  27.464  1.00  0.00     0.031 C 
ATOM     67  C   UNL A   1      44.520  32.422  28.707  1.00  0.00     0.037 A 
BRANCH  54  68
ATOM     68  C   UNL A   1      39.032  30.727  31.017  1.00  0.00     0.057 A 
ATOM     69  C   UNL A   1      37.903  31.242  30.369  1.00  0.00     0.134 A 
ATOM     70  C   UNL A   1      38.955  30.556  32.407  1.00  0.00     0.134 A 
ATOM     71  F   UNL A   1      37.915  31.448  29.044  1.00  0.00    -0.206 F 
ATOM     72  C   UNL A   1      36.752  31.599  31.077  1.00  0.00     0.040 A 
ATOM     73  C   UNL A   1      37.800  30.881  33.121  1.00  0.00     0.040 A 
ATOM     74  F   UNL A   1      39.997  30.066  33.094  1.00  0.00    -0.206 F 
ATOM     75  C   UNL A   1      36.696  31.411  32.457  1.00  0.00     0.006 A 
ENDBRANCH  54  68
BRANCH  55  76
ATOM     76  C   UNL A   1      47.223  27.684  26.067  1.00  0.00     0.057 A 
ATOM     77  C   UNL A   1      48.397  27.295  26.722  1.00  0.00     0.134 A 
ATOM     78  C   UNL A   1      47.228  27.646  24.665  1.00  0.00     0.134 A 
ATOM     79  F   UNL A   1      48.463  27.328  28.062  1.00  0.00    -0.206 F 
ATOM     80  C   UNL A   1      49.534  26.902  26.015  1.00  0.00     0.040 A 
ATOM     81  C   UNL A   1      48.347  27.225  23.947  1.00  0.00     0.040 A 
ATOM     82  F   UNL A   1      46.135  28.001  23.973  1.00  0.00    -0.206 F 
ATOM     83  C   UNL A   1      49.509  26.859  24.623  1.00  0.00     0.006 A 
ENDBRANCH  55  76
BRANCH  67  84
ATOM     84  C   UNL A   1      45.184  33.763  28.782  1.00  0.00     0.057 A 
ATOM     85  C   UNL A   1      44.959  34.759  27.825  1.00  0.00     0.134 A 
ATOM     86  C   UNL A   1      46.022  34.075  29.861  1.00  0.00     0.134 A 
ATOM     87  F   UNL A   1      44.178  34.517  26.761  1.00  0.00    -0.206 F 
ATOM     88  C   UNL A   1      45.559  36.014  27.928  1.00  0.00     0.040 A 
ATOM     89  C   UNL A   1      46.605  35.334  29.990  1.00  0.00     0.040 A 
ATOM     90  F   UNL A   1      46.272  33.164  30.815  1.00  0.00    -0.206 F 
ATOM     91  C   UNL A   1      46.379  36.307  29.018  1.00  0.00     0.006 A 
ENDBRANCH  67  84
ENDBRANCH  41  42
ENDBRANCH  34  36
ENDBRANCH  33  34
ENDBRANCH  32  33
ENDBRANCH   1  32
TORSDOF 15
ENDMDL
MODEL 2
REMARK VINA RESULT:     -12.8      2.939      7.336
REMARK SMILES CC(=O)Nc1cc(NC(C)=O)cc(C(=O)Nc2ccc(Br)cc2C(=O)OCCOC(=O)c2ccc(-c3c4nc(c(-c5c(F)cccc5F)c5ccc([nH]5)c(-c5c(F)cccc5F)c5nc(c(-c6c(F)cccc6F)c6ccc3[nH]6)C=C5)C=C4)cc2)c1
REMARK SMILES IDX 27 1 26 2 24 3 25 4 23 5 17 6 18 7 19 8 22 9 20 10 21 11
REMARK SMILES IDX 16 12 14 13 15 14 13 16 5 17 6 18 86 19 7 20 12 21 4 22 1 23
REMARK SMILES IDX 2 24 3 25 8 27 9 28 10 30 11 31 28 32 29 33 30 34 31 35
REMARK SMILES IDX 32 36 33 37 85 38 34 39 84 40 35 41 36 42 37 43 78 44 38 45
REMARK SMILES IDX 83 46 77 47 79 48 39 49 82 50 76 51 75 52 40 54 66 55 49 56
REMARK SMILES IDX 65 57 50 58 53 59 64 60 80 61 51 62 52 63 63 65 81 66 54 67
REMARK SMILES IDX 41 68 42 69 47 70 43 71 44 72 46 73 48 74 45 75 67 76 68 77
REMARK SMILES IDX 73 78 69 79 70 80 72 81 74 82 71 83 55 84 56 85 61 86 57 87
REMARK SMILES IDX 58 88 60 89 62 90 59 91
REMARK H PARENT 16 15 4 26 8 29 79 53 53 64
REMARK Flexibility Score: inf
ROOT
ATOM      1  C   UNL A   1      32.699  30.438  26.937  1.00  0.00     0.275 C 
ENDROOT
BRANCH   1   2
ATOM      2  O   UNL A   1      32.916  29.098  26.449  1.00  0.00    -0.458 OA
BRANCH   2   3
ATOM      3  C   UNL A   1      31.912  28.242  26.743  1.00  0.00     0.340 C 
ATOM      4  O   UNL A   1      31.633  27.836  27.857  1.00  0.00    -0.246 OA
BRANCH   3   5
ATOM      5  C   UNL A   1      31.164  27.801  25.551  1.00  0.00     0.084 A 
ATOM      6  C   UNL A   1      30.560  26.539  25.446  1.00  0.00     0.056 A 
ATOM      7  C   UNL A   1      29.908  26.208  24.244  1.00  0.00     0.028 A 
ATOM      8  C   UNL A   1      29.721  27.160  23.235  1.00  0.00     0.018 A 
ATOM      9  C   UNL A   1      30.994  28.744  24.521  1.00  0.00     0.033 A 
ATOM     10  C   UNL A   1      30.244  28.435  23.392  1.00  0.00     0.018 A 
ATOM     11  Br  UNL A   1      29.896  29.773  22.104  1.00  0.00    -0.051 Br
BRANCH   6  12
ATOM     12  N   UNL A   1      30.485  25.567  26.466  1.00  0.00    -0.321 N 
ATOM     13  C   UNL A   1      30.865  24.237  26.510  1.00  0.00     0.255 C 
ATOM     14  O   UNL A   1      30.418  23.520  27.406  1.00  0.00    -0.269 OA
ATOM     15  H   UNL A   1      30.089  25.897  27.304  1.00  0.00     0.170 HD
BRANCH  13  16
ATOM     16  C   UNL A   1      31.860  23.652  25.563  1.00  0.00     0.044 A 
ATOM     17  C   UNL A   1      32.487  21.962  23.953  1.00  0.00     0.044 A 
ATOM     18  C   UNL A   1      33.831  22.325  24.130  1.00  0.00     0.052 A 
ATOM     19  C   UNL A   1      31.499  22.703  24.595  1.00  0.00     0.040 A 
ATOM     20  C   UNL A   1      34.205  23.370  24.977  1.00  0.00     0.044 A 
ATOM     21  C   UNL A   1      33.208  24.023  25.709  1.00  0.00     0.040 A 
BRANCH  17  22
ATOM     22  N   UNL A   1      32.266  20.736  23.296  1.00  0.00    -0.326 N 
ATOM     23  C   UNL A   1      32.619  19.013  25.059  1.00  0.00     0.114 C 
ATOM     24  C   UNL A   1      32.509  19.438  23.626  1.00  0.00     0.221 C 
ATOM     25  O   UNL A   1      32.596  18.606  22.719  1.00  0.00    -0.275 OA
ATOM     26  H   UNL A   1      31.848  20.840  22.411  1.00  0.00     0.169 HD
ENDBRANCH  17  22
BRANCH  20  27
ATOM     27  N   UNL A   1      35.547  23.770  25.178  1.00  0.00    -0.326 N 
ATOM     28  C   UNL A   1      36.590  22.983  25.639  1.00  0.00     0.221 C 
ATOM     29  H   UNL A   1      35.762  24.707  24.970  1.00  0.00     0.169 HD
ATOM     30  C   UNL A   1      37.910  23.711  25.703  1.00  0.00     0.114 C 
ATOM     31  O   UNL A   1      36.531  21.803  25.967  1.00  0.00    -0.275 OA
ENDBRANCH  20  27
ENDBRANCH  13  16
ENDBRANCH   6  12
ENDBRANCH   3   5
ENDBRANCH   2   3
ENDBRANCH   1   2
BRANCH   1  32
ATOM     32  C   UNL A   1      33.946  31.068  27.567  1.00  0.00     0.275 C 
BRANCH  32  33
ATOM     33  O   UNL A   1      34.718  30.121  28.330  1.00  0.00    -0.458 OA
BRANCH  33  34
ATOM     34  C   UNL A   1      35.773  30.653  28.986  1.00  0.00     0.338 C 
ATOM     35  O   UNL A   1      35.777  31.643  29.702  1.00  0.00    -0.246 OA
BRANCH  34  36
ATOM     36  C   UNL A   1      36.982  29.843  28.791  1.00  0.00     0.060 A 
ATOM     37  C   UNL A   1      37.542  29.194  29.889  1.00  0.00     0.016 A 
ATOM     38  C   UNL A   1      37.685  29.925  27.594  1.00  0.00     0.016 A 
ATOM     39  C   UNL A   1      38.847  28.740  29.854  1.00  0.00     0.010 A 
ATOM     40  C   UNL A   1      38.962  29.363  27.520  1.00  0.00     0.010 A 
ATOM     41  C   UNL A   1      39.567  28.805  28.663  1.00  0.00    -0.014 A 
BRANCH  41  42
ATOM     42  C   UNL A   1      40.969  28.336  28.623  1.00  0.00     0.031 A 
ATOM     43  C   UNL A   1      42.075  29.324  28.848  1.00  0.00     0.074 A 
ATOM     44  C   UNL A   1      41.240  27.039  28.390  1.00  0.00     0.049 A 
ATOM     45  N   UNL A   1      43.349  29.212  28.586  1.00  0.00    -0.248 NA
ATOM     46  C   UNL A   1      41.689  30.621  29.428  1.00  0.00     0.031 C 
ATOM     47  C   UNL A   1      40.247  25.969  28.262  1.00  0.00     0.029 A 
ATOM     48  N   UNL A   1      42.438  26.401  28.205  1.00  0.00    -0.354 N 
ATOM     49  C   UNL A   1      43.908  30.441  28.913  1.00  0.00     0.074 A 
ATOM     50  C   UNL A   1      42.833  31.287  29.385  1.00  0.00     0.031 C 
ATOM     51  C   UNL A   1      40.875  24.809  28.026  1.00  0.00     0.029 A 
ATOM     52  C   UNL A   1      42.300  25.072  27.883  1.00  0.00     0.049 A 
ATOM     53  H   UNL A   1      43.310  26.848  28.294  1.00  0.00     0.167 HD
ATOM     54  C   UNL A   1      45.204  30.819  28.817  1.00  0.00     0.037 A 
ATOM     55  C   UNL A   1      43.213  24.184  27.451  1.00  0.00     0.037 A 
ATOM     56  C   UNL A   1      46.255  29.937  28.379  1.00  0.00     0.049 A 
ATOM     57  C   UNL A   1      44.628  24.650  27.267  1.00  0.00     0.074 A 
ATOM     58  C   UNL A   1      47.603  30.205  28.229  1.00  0.00     0.029 A 
ATOM     59  N   UNL A   1      46.068  28.605  28.033  1.00  0.00    -0.354 N 
ATOM     60  N   UNL A   1      45.146  25.832  27.501  1.00  0.00    -0.248 NA
ATOM     61  C   UNL A   1      45.582  23.667  26.741  1.00  0.00     0.031 C 
ATOM     62  C   UNL A   1      48.225  29.047  27.750  1.00  0.00     0.029 A 
ATOM     63  C   UNL A   1      47.274  28.042  27.657  1.00  0.00     0.049 A 
ATOM     64  H   UNL A   1      45.206  28.131  28.053  1.00  0.00     0.167 HD
ATOM     65  C   UNL A   1      46.492  25.727  27.185  1.00  0.00     0.074 A 
ATOM     66  C   UNL A   1      46.711  24.363  26.749  1.00  0.00     0.031 C 
ATOM     67  C   UNL A   1      47.463  26.672  27.249  1.00  0.00     0.037 A 
BRANCH  54  68
ATOM     68  C   UNL A   1      45.542  32.244  29.145  1.00  0.00     0.057 A 
ATOM     69  C   UNL A   1      45.500  33.265  28.188  1.00  0.00     0.134 A 
ATOM     70  C   UNL A   1      45.899  32.603  30.453  1.00  0.00     0.134 A 
ATOM     71  F   UNL A   1      45.183  32.990  26.914  1.00  0.00    -0.206 F 
ATOM     72  C   UNL A   1      45.824  34.585  28.512  1.00  0.00     0.040 A 
ATOM     73  C   UNL A   1      46.196  33.923  30.795  1.00  0.00     0.040 A 
ATOM     74  F   UNL A   1      45.958  31.677  31.422  1.00  0.00    -0.206 F 
ATOM     75  C   UNL A   1      46.167  34.918  29.822  1.00  0.00     0.006 A 
ENDBRANCH  54  68
BRANCH  55  76
ATOM     76  C   UNL A   1      42.805  22.797  27.114  1.00  0.00     0.057 A 
ATOM     77  C   UNL A   1      42.574  21.849  28.116  1.00  0.00     0.134 A 
ATOM     78  C   UNL A   1      42.638  22.381  25.786  1.00  0.00     0.134 A 
ATOM     79  F   UNL A   1      42.736  22.179  29.407  1.00  0.00    -0.206 F 
ATOM     80  C   UNL A   1      42.210  20.536  27.812  1.00  0.00     0.040 A 
ATOM     81  C   UNL A   1      42.244  21.081  25.468  1.00  0.00     0.040 A 
ATOM     82  F   UNL A   1      42.839  23.240  24.775  1.00  0.00    -0.206 F 
ATOM     83  C   UNL A   1      42.038  20.150  26.484  1.00  0.00     0.006 A 
ENDBRANCH  55  76
BRANCH  67  84
ATOM     84  C   UNL A   1      48.854  26.240  26.901  1.00  0.00     0.057 A 
ATOM     85  C   UNL A   1      49.397  26.438  25.627  1.00  0.00     0.134 A 
ATOM     86  C   UNL A   1      49.677  25.662  27.877  1.00  0.00     0.134 A 
ATOM     87  F   UNL A   1      48.655  26.973  24.646  1.00  0.00    -0.206 F 
ATOM     88  C   UNL A   1      50.706  26.059  25.329  1.00  0.00     0.040 A 
ATOM     89  C   UNL A   1      50.996  25.306  27.599  1.00  0.00     0.040 A 
ATOM     90  F   UNL A   1      49.216  25.452  29.120  1.00  0.00    -0.206 F 
ATOM     91  C   UNL A   1      51.512  25.499  26.320  1.00  0.00     0.006 A 
ENDBRANCH  67  84
ENDBRANCH  41  42
ENDBRANCH  34  36
ENDBRANCH  33  34
ENDBRANCH  32  33
ENDBRANCH   1  32
TORSDOF 15
ENDMDL
MODEL 3
REMARK VINA RESULT:     -12.8      2.868      7.446
REMARK SMILES CC(=O)Nc1cc(NC(C)=O)cc(C(=O)Nc2ccc(Br)cc2C(=O)OCCOC(=O)c2ccc(-c3c4nc(c(-c5c(F)cccc5F)c5ccc([nH]5)c(-c5c(F)cccc5F)c5nc(c(-c6c(F)cccc6F)c6ccc3[nH]6)C=C5)C=C4)cc2)c1
REMARK SMILES IDX 27 1 26 2 24 3 25 4 23 5 17 6 18 7 19 8 22 9 20 10 21 11
REMARK SMILES IDX 16 12 14 13 15 14 13 16 5 17 6 18 86 19 7 20 12 21 4 22 1 23
REMARK SMILES IDX 2 24 3 25 8 27 9 28 10 30 11 31 28 32 29 33 30 34 31 35
REMARK SMILES IDX 32 36 33 37 85 38 34 39 84 40 35 41 36 42 37 43 78 44 38 45
REMARK SMILES IDX 83 46 77 47 79 48 39 49 82 50 76 51 75 52 40 54 66 55 49 56
REMARK SMILES IDX 65 57 50 58 53 59 64 60 80 61 51 62 52 63 63 65 81 66 54 67
REMARK SMILES IDX 41 68 42 69 47 70 43 71 44 72 46 73 48 74 45 75 67 76 68 77
REMARK SMILES IDX 73 78 69 79 70 80 72 81 74 82 71 83 55 84 56 85 61 86 57 87
REMARK SMILES IDX 58 88 60 89 62 90 59 91
REMARK H PARENT 16 15 4 26 8 29 79 53 53 64
REMARK Flexibility Score: inf
ROOT
ATOM      1  C   UNL A   1      32.423  30.302  26.868  1.00  0.00     0.275 C 
ENDROOT
BRANCH   1   2
ATOM      2  O   UNL A   1      32.658  29.639  25.608  1.00  0.00    -0.458 OA
BRANCH   2   3
ATOM      3  C   UNL A   1      32.559  28.293  25.674  1.00  0.00     0.340 C 
ATOM      4  O   UNL A   1      33.390  27.546  26.159  1.00  0.00    -0.246 OA
BRANCH   3   5
ATOM      5  C   UNL A   1      31.320  27.776  25.062  1.00  0.00     0.084 A 
ATOM      6  C   UNL A   1      30.715  26.572  25.452  1.00  0.00     0.056 A 
ATOM      7  C   UNL A   1      29.557  26.154  24.770  1.00  0.00     0.028 A 
ATOM      8  C   UNL A   1      28.926  26.986  23.837  1.00  0.00     0.018 A 
ATOM      9  C   UNL A   1      30.693  28.595  24.106  1.00  0.00     0.033 A 
ATOM     10  C   UNL A   1      29.485  28.218  23.529  1.00  0.00     0.018 A 
ATOM     11  Br  UNL A   1      28.585  29.410  22.373  1.00  0.00    -0.051 Br
BRANCH   6  12
ATOM     12  N   UNL A   1      31.122  25.746  26.520  1.00  0.00    -0.321 N 
ATOM     13  C   UNL A   1      31.628  24.458  26.557  1.00  0.00     0.255 C 
ATOM     14  O   UNL A   1      31.620  23.846  27.626  1.00  0.00    -0.269 OA
ATOM     15  H   UNL A   1      31.029  26.163  27.406  1.00  0.00     0.170 HD
BRANCH  13  16
ATOM     16  C   UNL A   1      32.262  23.807  25.372  1.00  0.00     0.044 A 
ATOM     17  C   UNL A   1      33.264  23.958  23.178  1.00  0.00     0.044 A 
ATOM     18  C   UNL A   1      33.046  22.581  23.010  1.00  0.00     0.052 A 
ATOM     19  C   UNL A   1      32.963  24.543  24.405  1.00  0.00     0.040 A 
ATOM     20  C   UNL A   1      32.484  21.797  24.019  1.00  0.00     0.044 A 
ATOM     21  C   UNL A   1      32.076  22.425  25.200  1.00  0.00     0.040 A 
BRANCH  17  22
ATOM     22  N   UNL A   1      33.577  24.675  22.007  1.00  0.00    -0.326 N 
ATOM     23  C   UNL A   1      31.541  26.031  21.544  1.00  0.00     0.114 C 
ATOM     24  C   UNL A   1      32.838  25.406  21.129  1.00  0.00     0.221 C 
ATOM     25  O   UNL A   1      33.278  25.579  19.990  1.00  0.00    -0.275 OA
ATOM     26  H   UNL A   1      34.533  24.640  21.774  1.00  0.00     0.169 HD
ENDBRANCH  17  22
BRANCH  20  27
ATOM     27  N   UNL A   1      32.254  20.407  23.891  1.00  0.00    -0.326 N 
ATOM     28  C   UNL A   1      33.092  19.384  24.303  1.00  0.00     0.221 C 
ATOM     29  H   UNL A   1      31.411  20.139  23.462  1.00  0.00     0.169 HD
ATOM     30  C   UNL A   1      32.528  18.007  24.050  1.00  0.00     0.114 C 
ATOM     31  O   UNL A   1      34.188  19.502  24.841  1.00  0.00    -0.275 OA
ENDBRANCH  20  27
ENDBRANCH  13  16
ENDBRANCH   6  12
ENDBRANCH   3   5
ENDBRANCH   2   3
ENDBRANCH   1   2
BRANCH   1  32
ATOM     32  C   UNL A   1      33.672  30.972  27.449  1.00  0.00     0.275 C 
BRANCH  32  33
ATOM     33  O   UNL A   1      34.600  30.021  28.006  1.00  0.00    -0.458 OA
BRANCH  33  34
ATOM     34  C   UNL A   1      35.637  30.573  28.675  1.00  0.00     0.338 C 
ATOM     35  O   UNL A   1      35.616  31.570  29.382  1.00  0.00    -0.246 OA
BRANCH  34  36
ATOM     36  C   UNL A   1      36.859  29.775  28.509  1.00  0.00     0.060 A 
ATOM     37  C   UNL A   1      37.393  29.124  29.619  1.00  0.00     0.016 A 
ATOM     38  C   UNL A   1      37.596  29.873  27.333  1.00  0.00     0.016 A 
ATOM     39  C   UNL A   1      38.704  28.683  29.618  1.00  0.00     0.010 A 
ATOM     40  C   UNL A   1      38.880  29.324  27.293  1.00  0.00     0.010 A 
ATOM     41  C   UNL A   1      39.457  28.764  28.449  1.00  0.00    -0.014 A 
BRANCH  41  42
ATOM     42  C   UNL A   1      40.864  28.309  28.446  1.00  0.00     0.031 A 
ATOM     43  C   UNL A   1      41.955  29.310  28.688  1.00  0.00     0.074 A 
ATOM     44  C   UNL A   1      41.153  27.012  28.232  1.00  0.00     0.049 A 
ATOM     45  N   UNL A   1      43.235  29.209  28.457  1.00  0.00    -0.248 NA
ATOM     46  C   UNL A   1      41.542  30.608  29.246  1.00  0.00     0.031 C 
ATOM     47  C   UNL A   1      40.174  25.931  28.091  1.00  0.00     0.029 A 
ATOM     48  N   UNL A   1      42.362  26.385  28.081  1.00  0.00    -0.354 N 
ATOM     49  C   UNL A   1      43.774  30.446  28.785  1.00  0.00     0.074 A 
ATOM     50  C   UNL A   1      42.680  31.285  29.223  1.00  0.00     0.031 C 
ATOM     51  C   UNL A   1      40.819  24.775  27.881  1.00  0.00     0.029 A 
ATOM     52  C   UNL A   1      42.244  25.052  27.768  1.00  0.00     0.049 A 
ATOM     53  H   UNL A   1      43.227  26.841  28.186  1.00  0.00     0.167 HD
ATOM     54  C   UNL A   1      45.069  30.836  28.715  1.00  0.00     0.037 A 
ATOM     55  C   UNL A   1      43.176  24.169  27.367  1.00  0.00     0.037 A 
ATOM     56  C   UNL A   1      46.138  29.961  28.311  1.00  0.00     0.049 A 
ATOM     57  C   UNL A   1      44.590  24.648  27.211  1.00  0.00     0.074 A 
ATOM     58  C   UNL A   1      47.486  30.241  28.190  1.00  0.00     0.029 A 
ATOM     59  N   UNL A   1      45.972  28.624  27.973  1.00  0.00    -0.354 N 
ATOM     60  N   UNL A   1      45.091  25.837  27.446  1.00  0.00    -0.248 NA
ATOM     61  C   UNL A   1      45.566  23.669  26.717  1.00  0.00     0.031 C 
ATOM     62  C   UNL A   1      48.131  29.085  27.737  1.00  0.00     0.029 A 
ATOM     63  C   UNL A   1      47.193  28.070  27.631  1.00  0.00     0.049 A 
ATOM     64  H   UNL A   1      45.115  28.142  27.978  1.00  0.00     0.167 HD
ATOM     65  C   UNL A   1      46.445  25.743  27.162  1.00  0.00     0.074 A 
ATOM     66  C   UNL A   1      46.687  24.377  26.744  1.00  0.00     0.031 C 
ATOM     67  C   UNL A   1      47.404  26.698  27.240  1.00  0.00     0.037 A 
BRANCH  54  68
ATOM     68  C   UNL A   1      45.385  32.267  29.038  1.00  0.00     0.057 A 
ATOM     69  C   UNL A   1      45.772  32.680  30.319  1.00  0.00     0.134 A 
ATOM     70  C   UNL A   1      45.318  33.249  28.039  1.00  0.00     0.134 A 
ATOM     71  F   UNL A   1      45.840  31.797  31.326  1.00  0.00    -0.206 F 
ATOM     72  C   UNL A   1      46.056  34.019  30.602  1.00  0.00     0.040 A 
ATOM     73  C   UNL A   1      45.628  34.584  28.302  1.00  0.00     0.040 A 
ATOM     74  F   UNL A   1      44.956  32.926  26.788  1.00  0.00    -0.206 F 
ATOM     75  C   UNL A   1      45.992  34.974  29.589  1.00  0.00     0.006 A 
ENDBRANCH  54  68
BRANCH  55  76
ATOM     76  C   UNL A   1      42.790  22.775  27.033  1.00  0.00     0.057 A 
ATOM     77  C   UNL A   1      42.742  22.338  25.705  1.00  0.00     0.134 A 
ATOM     78  C   UNL A   1      42.458  21.844  28.028  1.00  0.00     0.134 A 
ATOM     79  F   UNL A   1      43.030  23.186  24.706  1.00  0.00    -0.206 F 
ATOM     80  C   UNL A   1      42.361  21.036  25.376  1.00  0.00     0.040 A 
ATOM     81  C   UNL A   1      42.106  20.531  27.715  1.00  0.00     0.040 A 
ATOM     82  F   UNL A   1      42.487  22.195  29.322  1.00  0.00    -0.206 F 
ATOM     83  C   UNL A   1      42.048  20.126  26.384  1.00  0.00     0.006 A 
ENDBRANCH  55  76
BRANCH  67  84
ATOM     84  C   UNL A   1      48.808  26.277  26.929  1.00  0.00     0.057 A 
ATOM     85  C   UNL A   1      49.355  26.403  25.647  1.00  0.00     0.134 A 
ATOM     86  C   UNL A   1      49.637  25.784  27.945  1.00  0.00     0.134 A 
ATOM     87  F   UNL A   1      48.607  26.854  24.629  1.00  0.00    -0.206 F 
ATOM     88  C   UNL A   1      50.674  26.036  25.382  1.00  0.00     0.040 A 
ATOM     89  C   UNL A   1      50.966  25.442  27.699  1.00  0.00     0.040 A 
ATOM     90  F   UNL A   1      49.173  25.647  29.197  1.00  0.00    -0.206 F 
ATOM     91  C   UNL A   1      51.486  25.562  26.412  1.00  0.00     0.006 A 
ENDBRANCH  67  84
ENDBRANCH  41  42
ENDBRANCH  34  36
ENDBRANCH  33  34
ENDBRANCH  32  33
ENDBRANCH   1  32
TORSDOF 15
ENDMDL
