MODEL 1
REMARK VINA RESULT:     -12.4      0.000      0.000
REMARK SMILES COc1ccc(NC2=[NH+]C(=O)/C(=C\c3ccccc3C(=O)OCCOC(=O)c3ccc(-c4c5nc(c(-c6c(F)cccc6F)c6ccc([nH]6)c(-c6c(F)cccc6F)c6nc(c(-c7c(F)cccc7F)c7ccc4[nH]7)C=C6)C=C5)cc3)S2)cc1
REMARK SMILES IDX 23 1 22 2 20 3 21 4 19 5 14 6 15 7 16 8 18 9 17 10 13 11
REMARK SMILES IDX 7 12 8 13 9 15 82 16 10 17 12 19 11 20 6 21 3 22 4 23 84 24
REMARK SMILES IDX 5 25 83 26 2 27 1 28 24 29 25 30 26 31 27 32 28 33 29 34
REMARK SMILES IDX 81 35 30 36 80 37 31 38 32 39 33 40 74 41 34 42 79 43 73 44
REMARK SMILES IDX 75 45 35 46 78 47 72 48 71 49 36 51 62 52 45 53 61 54 46 55
REMARK SMILES IDX 49 56 60 57 76 58 47 59 48 60 59 62 77 63 50 64 37 65 38 66
REMARK SMILES IDX 43 67 39 68 40 69 42 70 44 71 41 72 63 73 64 74 69 75 65 76
REMARK SMILES IDX 66 77 68 78 70 79 67 80 51 81 52 82 57 83 53 84 54 85 56 86
REMARK SMILES IDX 58 87 55 88
REMARK H PARENT 7 14 9 18 75 50 49 61
REMARK Flexibility Score: inf
ROOT
ATOM      1  C   UNL A   1      31.911  30.993  26.773  1.00  0.00     0.275 C 
ENDROOT
BRANCH   1   2
ATOM      2  O   UNL A   1      31.971  30.575  25.392  1.00  0.00    -0.458 OA
BRANCH   2   3
ATOM      3  C   UNL A   1      31.215  29.502  25.048  1.00  0.00     0.338 C 
ATOM      4  O   UNL A   1      31.216  28.424  25.620  1.00  0.00    -0.246 OA
BRANCH   3   5
ATOM      5  C   UNL A   1      30.268  29.823  23.935  1.00  0.00     0.067 A 
ATOM      6  C   UNL A   1      30.147  29.094  22.732  1.00  0.00    -0.010 A 
ATOM      7  C   UNL A   1      29.265  29.567  21.742  1.00  0.00     0.009 A 
ATOM      8  C   UNL A   1      28.501  30.719  21.944  1.00  0.00     0.001 A 
ATOM      9  C   UNL A   1      29.453  30.952  24.142  1.00  0.00     0.016 A 
ATOM     10  C   UNL A   1      28.589  31.409  23.147  1.00  0.00     0.001 A 
BRANCH   6  11
ATOM     11  C   UNL A   1      30.915  27.883  22.397  1.00  0.00     0.033 C 
ATOM     12  N   UNL A   1      31.529  23.392  24.557  1.00  0.00    -0.235 N 
ATOM     13  C   UNL A   1      31.004  24.509  23.982  1.00  0.00     0.322 C 
ATOM     14  H   UNL A   1      30.873  22.687  24.766  1.00  0.00     0.313 HD
ATOM     15  N   UNL A   1      29.863  24.999  24.350  1.00  0.00    -0.199 N 
ATOM     16  S   UNL A   1      31.792  25.347  22.659  1.00  0.00     0.006 SA
ATOM     17  C   UNL A   1      29.543  26.172  23.702  1.00  0.00     0.346 C 
ATOM     18  H   UNL A   1      29.283  24.575  25.024  1.00  0.00     0.316 HD
ATOM     19  C   UNL A   1      30.673  26.643  22.842  1.00  0.00     0.110 C 
ATOM     20  O   UNL A   1      28.486  26.768  23.827  1.00  0.00    -0.240 OA
BRANCH  12  21
ATOM     21  C   UNL A   1      32.857  23.083  24.901  1.00  0.00     0.125 A 
ATOM     22  C   UNL A   1      35.543  22.385  25.458  1.00  0.00     0.119 A 
ATOM     23  C   UNL A   1      34.826  23.197  26.332  1.00  0.00     0.051 A 
ATOM     24  C   UNL A   1      34.920  21.907  24.308  1.00  0.00     0.051 A 
ATOM     25  C   UNL A   1      33.503  23.556  26.047  1.00  0.00     0.055 A 
ATOM     26  C   UNL A   1      33.594  22.261  24.032  1.00  0.00     0.055 A 
BRANCH  22  27
ATOM     27  O   UNL A   1      36.816  22.079  25.848  1.00  0.00    -0.497 OA
ATOM     28  C   UNL A   1      37.502  21.164  25.000  1.00  0.00     0.278 C 
ENDBRANCH  22  27
ENDBRANCH  12  21
ENDBRANCH   6  11
ENDBRANCH   3   5
ENDBRANCH   2   3
ENDBRANCH   1   2
BRANCH   1  29
ATOM     29  C   UNL A   1      31.556  32.474  26.889  1.00  0.00     0.275 C 
BRANCH  29  30
ATOM     30  O   UNL A   1      32.757  33.260  26.807  1.00  0.00    -0.458 OA
BRANCH  30  31
ATOM     31  C   UNL A   1      33.172  33.805  27.971  1.00  0.00     0.338 C 
ATOM     32  O   UNL A   1      32.579  34.589  28.691  1.00  0.00    -0.246 OA
BRANCH  31  33
ATOM     33  C   UNL A   1      34.432  33.160  28.357  1.00  0.00     0.060 A 
ATOM     34  C   UNL A   1      34.352  31.847  28.814  1.00  0.00     0.016 A 
ATOM     35  C   UNL A   1      35.644  33.847  28.376  1.00  0.00     0.016 A 
ATOM     36  C   UNL A   1      35.475  31.214  29.327  1.00  0.00     0.010 A 
ATOM     37  C   UNL A   1      36.785  33.198  28.867  1.00  0.00     0.010 A 
ATOM     38  C   UNL A   1      36.703  31.886  29.372  1.00  0.00    -0.014 A 
BRANCH  38  39
ATOM     39  C   UNL A   1      37.855  31.230  30.048  1.00  0.00     0.031 A 
ATOM     40  C   UNL A   1      38.097  31.470  31.513  1.00  0.00     0.074 A 
ATOM     41  C   UNL A   1      38.626  30.353  29.377  1.00  0.00     0.049 A 
ATOM     42  N   UNL A   1      39.070  31.035  32.275  1.00  0.00    -0.248 NA
ATOM     43  C   UNL A   1      37.118  32.315  32.214  1.00  0.00     0.031 C 
ATOM     44  C   UNL A   1      38.463  29.987  27.969  1.00  0.00     0.029 A 
ATOM     45  N   UNL A   1      39.684  29.587  29.799  1.00  0.00    -0.354 N 
ATOM     46  C   UNL A   1      38.845  31.590  33.529  1.00  0.00     0.074 A 
ATOM     47  C   UNL A   1      37.649  32.399  33.425  1.00  0.00     0.031 C 
ATOM     48  C   UNL A   1      39.360  29.040  27.656  1.00  0.00     0.029 A 
ATOM     49  C   UNL A   1      40.201  28.774  28.820  1.00  0.00     0.049 A 
ATOM     50  H   UNL A   1      40.039  29.618  30.716  1.00  0.00     0.167 HD
ATOM     51  C   UNL A   1      39.568  31.437  34.664  1.00  0.00     0.037 A 
ATOM     52  C   UNL A   1      41.246  27.927  28.849  1.00  0.00     0.037 A 
ATOM     53  C   UNL A   1      40.729  30.593  34.779  1.00  0.00     0.049 A 
ATOM     54  C   UNL A   1      42.038  27.782  30.119  1.00  0.00     0.074 A 
ATOM     55  C   UNL A   1      41.530  30.373  35.887  1.00  0.00     0.029 A 
ATOM     56  N   UNL A   1      41.243  29.814  33.754  1.00  0.00    -0.354 N 
ATOM     57  N   UNL A   1      41.848  28.355  31.283  1.00  0.00    -0.248 NA
ATOM     58  C   UNL A   1      43.197  26.880  30.075  1.00  0.00     0.031 C 
ATOM     59  C   UNL A   1      42.548  29.482  35.522  1.00  0.00     0.029 A 
ATOM     60  C   UNL A   1      42.355  29.116  34.200  1.00  0.00     0.049 A 
ATOM     61  H   UNL A   1      40.873  29.763  32.843  1.00  0.00     0.167 HD
ATOM     62  C   UNL A   1      42.858  27.882  32.109  1.00  0.00     0.074 A 
ATOM     63  C   UNL A   1      43.638  26.948  31.323  1.00  0.00     0.031 C 
ATOM     64  C   UNL A   1      43.122  28.197  33.401  1.00  0.00     0.037 A 
BRANCH  51  65
ATOM     65  C   UNL A   1      39.143  32.231  35.865  1.00  0.00     0.057 A 
ATOM     66  C   UNL A   1      38.285  31.710  36.841  1.00  0.00     0.134 A 
ATOM     67  C   UNL A   1      39.616  33.537  36.052  1.00  0.00     0.134 A 
ATOM     68  F   UNL A   1      37.782  30.472  36.713  1.00  0.00    -0.206 F 
ATOM     69  C   UNL A   1      37.896  32.465  37.949  1.00  0.00     0.040 A 
ATOM     70  C   UNL A   1      39.254  34.293  37.168  1.00  0.00     0.040 A 
ATOM     71  F   UNL A   1      40.443  34.097  35.156  1.00  0.00    -0.206 F 
ATOM     72  C   UNL A   1      38.385  33.759  38.117  1.00  0.00     0.006 A 
ENDBRANCH  51  65
BRANCH  52  73
ATOM     73  C   UNL A   1      41.624  27.167  27.631  1.00  0.00     0.057 A 
ATOM     74  C   UNL A   1      41.169  25.861  27.418  1.00  0.00     0.134 A 
ATOM     75  C   UNL A   1      42.456  27.726  26.653  1.00  0.00     0.134 A 
ATOM     76  F   UNL A   1      40.390  25.260  28.331  1.00  0.00    -0.206 F 
ATOM     77  C   UNL A   1      41.537  25.132  26.285  1.00  0.00     0.040 A 
ATOM     78  C   UNL A   1      42.810  27.021  25.503  1.00  0.00     0.040 A 
ATOM     79  F   UNL A   1      42.929  28.972  26.799  1.00  0.00    -0.206 F 
ATOM     80  C   UNL A   1      42.354  25.717  25.319  1.00  0.00     0.006 A 
ENDBRANCH  52  73
BRANCH  64  81
ATOM     81  C   UNL A   1      44.292  27.507  34.039  1.00  0.00     0.057 A 
ATOM     82  C   UNL A   1      44.161  26.262  34.668  1.00  0.00     0.134 A 
ATOM     83  C   UNL A   1      45.563  28.095  34.024  1.00  0.00     0.134 A 
ATOM     84  F   UNL A   1      42.967  25.653  34.729  1.00  0.00    -0.206 F 
ATOM     85  C   UNL A   1      45.245  25.642  35.291  1.00  0.00     0.040 A 
ATOM     86  C   UNL A   1      46.660  27.473  34.621  1.00  0.00     0.040 A 
ATOM     87  F   UNL A   1      45.759  29.282  33.431  1.00  0.00    -0.206 F 
ATOM     88  C   UNL A   1      46.501  26.247  35.265  1.00  0.00     0.006 A 
ENDBRANCH  64  81
ENDBRANCH  38  39
ENDBRANCH  31  33
ENDBRANCH  30  31
ENDBRANCH  29  30
ENDBRANCH   1  29
TORSDOF 14
ENDMDL
MODEL 2
REMARK VINA RESULT:     -12.3      3.763      9.412
REMARK SMILES COc1ccc(NC2=[NH+]C(=O)/C(=C\c3ccccc3C(=O)OCCOC(=O)c3ccc(-c4c5nc(c(-c6c(F)cccc6F)c6ccc([nH]6)c(-c6c(F)cccc6F)c6nc(c(-c7c(F)cccc7F)c7ccc4[nH]7)C=C6)C=C5)cc3)S2)cc1
REMARK SMILES IDX 23 1 22 2 20 3 21 4 19 5 14 6 15 7 16 8 18 9 17 10 13 11
REMARK SMILES IDX 7 12 8 13 9 15 82 16 10 17 12 19 11 20 6 21 3 22 4 23 84 24
REMARK SMILES IDX 5 25 83 26 2 27 1 28 24 29 25 30 26 31 27 32 28 33 29 34
REMARK SMILES IDX 81 35 30 36 80 37 31 38 32 39 33 40 74 41 34 42 79 43 73 44
REMARK SMILES IDX 75 45 35 46 78 47 72 48 71 49 36 51 62 52 45 53 61 54 46 55
REMARK SMILES IDX 49 56 60 57 76 58 47 59 48 60 59 62 77 63 50 64 37 65 38 66
REMARK SMILES IDX 43 67 39 68 40 69 42 70 44 71 41 72 63 73 64 74 69 75 65 76
REMARK SMILES IDX 66 77 68 78 70 79 67 80 51 81 52 82 57 83 53 84 54 85 56 86
REMARK SMILES IDX 58 87 55 88
REMARK H PARENT 7 14 9 18 75 50 49 61
REMARK Flexibility Score: inf
ROOT
ATOM      1  C   UNL A   1      38.552  21.525  25.674  1.00  0.00     0.275 C 
ENDROOT
BRANCH   1   2
ATOM      2  O   UNL A   1      37.108  21.497  25.701  1.00  0.00    -0.458 OA
BRANCH   2   3
ATOM      3  C   UNL A   1      36.472  21.839  24.552  1.00  0.00     0.338 C 
ATOM      4  O   UNL A   1      36.954  22.501  23.647  1.00  0.00    -0.246 OA
BRANCH   3   5
ATOM      5  C   UNL A   1      35.120  21.206  24.456  1.00  0.00     0.067 A 
ATOM      6  C   UNL A   1      33.945  21.855  24.016  1.00  0.00    -0.010 A 
ATOM      7  C   UNL A   1      32.728  21.149  24.057  1.00  0.00     0.009 A 
ATOM      8  C   UNL A   1      32.675  19.825  24.498  1.00  0.00     0.001 A 
ATOM      9  C   UNL A   1      35.055  19.856  24.849  1.00  0.00     0.016 A 
ATOM     10  C   UNL A   1      33.840  19.174  24.889  1.00  0.00     0.001 A 
BRANCH   6  11
ATOM     11  C   UNL A   1      33.875  23.251  23.554  1.00  0.00     0.033 C 
ATOM     12  N   UNL A   1      31.779  27.450  25.338  1.00  0.00    -0.235 N 
ATOM     13  C   UNL A   1      32.519  26.317  25.185  1.00  0.00     0.322 C 
ATOM     14  H   UNL A   1      31.938  27.937  26.179  1.00  0.00     0.313 HD
ATOM     15  N   UNL A   1      32.760  25.517  26.174  1.00  0.00    -0.199 N 
ATOM     16  S   UNL A   1      33.257  25.874  23.658  1.00  0.00     0.006 SA
ATOM     17  C   UNL A   1      33.459  24.390  25.799  1.00  0.00     0.346 C 
ATOM     18  H   UNL A   1      32.472  25.694  27.099  1.00  0.00     0.316 HD
ATOM     19  C   UNL A   1      33.632  24.326  24.315  1.00  0.00     0.110 C 
ATOM     20  O   UNL A   1      33.867  23.537  26.571  1.00  0.00    -0.240 OA
BRANCH  12  21
ATOM     21  C   UNL A   1      30.824  28.037  24.487  1.00  0.00     0.125 A 
ATOM     22  C   UNL A   1      28.825  29.081  22.779  1.00  0.00     0.119 A 
ATOM     23  C   UNL A   1      29.870  29.886  23.221  1.00  0.00     0.051 A 
ATOM     24  C   UNL A   1      28.777  27.748  23.178  1.00  0.00     0.051 A 
ATOM     25  C   UNL A   1      30.849  29.373  24.080  1.00  0.00     0.055 A 
ATOM     26  C   UNL A   1      29.764  27.237  24.029  1.00  0.00     0.055 A 
BRANCH  22  27
ATOM     27  O   UNL A   1      27.940  29.679  21.926  1.00  0.00    -0.497 OA
ATOM     28  C   UNL A   1      28.323  30.973  21.472  1.00  0.00     0.278 C 
ENDBRANCH  22  27
ENDBRANCH  12  21
ENDBRANCH   6  11
ENDBRANCH   3   5
ENDBRANCH   2   3
ENDBRANCH   1   2
BRANCH   1  29
ATOM     29  C   UNL A   1      39.126  20.166  25.276  1.00  0.00     0.275 C 
BRANCH  29  30
ATOM     30  O   UNL A   1      40.021  19.708  26.304  1.00  0.00    -0.458 OA
BRANCH  30  31
ATOM     31  C   UNL A   1      41.335  19.782  26.001  1.00  0.00     0.338 C 
ATOM     32  O   UNL A   1      41.990  19.035  25.296  1.00  0.00    -0.246 OA
BRANCH  31  33
ATOM     33  C   UNL A   1      41.857  21.048  26.527  1.00  0.00     0.060 A 
ATOM     34  C   UNL A   1      41.769  21.241  27.904  1.00  0.00     0.016 A 
ATOM     35  C   UNL A   1      42.322  22.065  25.696  1.00  0.00     0.016 A 
ATOM     36  C   UNL A   1      42.113  22.462  28.464  1.00  0.00     0.010 A 
ATOM     37  C   UNL A   1      42.696  23.290  26.264  1.00  0.00     0.010 A 
ATOM     38  C   UNL A   1      42.568  23.508  27.650  1.00  0.00    -0.014 A 
BRANCH  38  39
ATOM     39  C   UNL A   1      42.801  24.843  28.261  1.00  0.00     0.031 A 
ATOM     40  C   UNL A   1      44.198  25.263  28.628  1.00  0.00     0.074 A 
ATOM     41  C   UNL A   1      41.782  25.712  28.404  1.00  0.00     0.049 A 
ATOM     42  N   UNL A   1      44.607  26.361  29.215  1.00  0.00    -0.248 NA
ATOM     43  C   UNL A   1      45.278  24.322  28.295  1.00  0.00     0.031 C 
ATOM     44  C   UNL A   1      40.389  25.452  28.036  1.00  0.00     0.029 A 
ATOM     45  N   UNL A   1      41.766  27.003  28.871  1.00  0.00    -0.354 N 
ATOM     46  C   UNL A   1      45.982  26.222  29.362  1.00  0.00     0.074 A 
ATOM     47  C   UNL A   1      46.337  24.931  28.811  1.00  0.00     0.031 C 
ATOM     48  C   UNL A   1      39.664  26.559  28.252  1.00  0.00     0.029 A 
ATOM     49  C   UNL A   1      40.524  27.588  28.831  1.00  0.00     0.049 A 
ATOM     50  H   UNL A   1      42.568  27.465  29.204  1.00  0.00     0.167 HD
ATOM     51  C   UNL A   1      46.868  27.091  29.905  1.00  0.00     0.037 A 
ATOM     52  C   UNL A   1      40.118  28.807  29.234  1.00  0.00     0.037 A 
ATOM     53  C   UNL A   1      46.521  28.395  30.408  1.00  0.00     0.049 A 
ATOM     54  C   UNL A   1      41.120  29.750  29.841  1.00  0.00     0.074 A 
ATOM     55  C   UNL A   1      47.347  29.348  30.978  1.00  0.00     0.029 A 
ATOM     56  N   UNL A   1      45.245  28.936  30.382  1.00  0.00    -0.354 N 
ATOM     57  N   UNL A   1      42.407  29.583  30.026  1.00  0.00    -0.248 NA
ATOM     58  C   UNL A   1      40.607  31.045  30.307  1.00  0.00     0.031 C 
ATOM     59  C   UNL A   1      46.564  30.456  31.325  1.00  0.00     0.029 A 
ATOM     60  C   UNL A   1      45.258  30.208  30.933  1.00  0.00     0.049 A 
ATOM     61  H   UNL A   1      44.446  28.484  30.026  1.00  0.00     0.167 HD
ATOM     62  C   UNL A   1      42.859  30.752  30.623  1.00  0.00     0.074 A 
ATOM     63  C   UNL A   1      41.714  31.632  30.739  1.00  0.00     0.031 C 
ATOM     64  C   UNL A   1      44.108  31.066  31.046  1.00  0.00     0.037 A 
BRANCH  51  65
ATOM     65  C   UNL A   1      48.295  26.641  30.016  1.00  0.00     0.057 A 
ATOM     66  C   UNL A   1      48.754  25.864  31.086  1.00  0.00     0.134 A 
ATOM     67  C   UNL A   1      49.222  26.980  29.020  1.00  0.00     0.134 A 
ATOM     68  F   UNL A   1      47.922  25.520  32.082  1.00  0.00    -0.206 F 
ATOM     69  C   UNL A   1      50.088  25.459  31.176  1.00  0.00     0.040 A 
ATOM     70  C   UNL A   1      50.551  26.559  29.085  1.00  0.00     0.040 A 
ATOM     71  F   UNL A   1      48.849  27.720  27.966  1.00  0.00    -0.206 F 
ATOM     72  C   UNL A   1      50.989  25.802  30.170  1.00  0.00     0.006 A 
ENDBRANCH  51  65
BRANCH  52  73
ATOM     73  C   UNL A   1      38.692  29.199  29.101  1.00  0.00     0.057 A 
ATOM     74  C   UNL A   1      38.169  29.638  27.880  1.00  0.00     0.134 A 
ATOM     75  C   UNL A   1      37.820  29.153  30.196  1.00  0.00     0.134 A 
ATOM     76  F   UNL A   1      38.961  29.730  26.800  1.00  0.00    -0.206 F 
ATOM     77  C   UNL A   1      36.835  30.029  27.753  1.00  0.00     0.040 A 
ATOM     78  C   UNL A   1      36.478  29.513  30.078  1.00  0.00     0.040 A 
ATOM     79  F   UNL A   1      38.260  28.744  31.395  1.00  0.00    -0.206 F 
ATOM     80  C   UNL A   1      35.983  29.958  28.854  1.00  0.00     0.006 A 
ENDBRANCH  52  73
BRANCH  64  81
ATOM     81  C   UNL A   1      44.293  32.426  31.654  1.00  0.00     0.057 A 
ATOM     82  C   UNL A   1      44.618  33.544  30.874  1.00  0.00     0.134 A 
ATOM     83  C   UNL A   1      44.146  32.618  33.033  1.00  0.00     0.134 A 
ATOM     84  F   UNL A   1      44.787  33.423  29.548  1.00  0.00    -0.206 F 
ATOM     85  C   UNL A   1      44.824  34.799  31.449  1.00  0.00     0.040 A 
ATOM     86  C   UNL A   1      44.325  33.873  33.616  1.00  0.00     0.040 A 
ATOM     87  F   UNL A   1      43.827  31.591  33.834  1.00  0.00    -0.206 F 
ATOM     88  C   UNL A   1      44.674  34.966  32.825  1.00  0.00     0.006 A 
ENDBRANCH  64  81
ENDBRANCH  38  39
ENDBRANCH  31  33
ENDBRANCH  30  31
ENDBRANCH  29  30
ENDBRANCH   1  29
TORSDOF 14
ENDMDL
MODEL 3
REMARK VINA RESULT:     -12.3      3.660      9.306
REMARK SMILES COc1ccc(NC2=[NH+]C(=O)/C(=C\c3ccccc3C(=O)OCCOC(=O)c3ccc(-c4c5nc(c(-c6c(F)cccc6F)c6ccc([nH]6)c(-c6c(F)cccc6F)c6nc(c(-c7c(F)cccc7F)c7ccc4[nH]7)C=C6)C=C5)cc3)S2)cc1
REMARK SMILES IDX 23 1 22 2 20 3 21 4 19 5 14 6 15 7 16 8 18 9 17 10 13 11
REMARK SMILES IDX 7 12 8 13 9 15 82 16 10 17 12 19 11 20 6 21 3 22 4 23 84 24
REMARK SMILES IDX 5 25 83 26 2 27 1 28 24 29 25 30 26 31 27 32 28 33 29 34
REMARK SMILES IDX 81 35 30 36 80 37 31 38 32 39 33 40 74 41 34 42 79 43 73 44
REMARK SMILES IDX 75 45 35 46 78 47 72 48 71 49 36 51 62 52 45 53 61 54 46 55
REMARK SMILES IDX 49 56 60 57 76 58 47 59 48 60 59 62 77 63 50 64 37 65 38 66
REMARK SMILES IDX 43 67 39 68 40 69 42 70 44 71 41 72 63 73 64 74 69 75 65 76
REMARK SMILES IDX 66 77 68 78 70 79 67 80 51 81 52 82 57 83 53 84 54 85 56 86
REMARK SMILES IDX 58 87 55 88
REMARK H PARENT 7 14 9 18 75 50 49 61
REMARK Flexibility Score: inf
ROOT
ATOM      1  C   UNL A   1      37.889  21.335  25.168  1.00  0.00     0.275 C 
ENDROOT
BRANCH   1   2
ATOM      2  O   UNL A   1      36.571  21.225  24.588  1.00  0.00    -0.458 OA
BRANCH   2   3
ATOM      3  C   UNL A   1      35.544  21.011  25.450  1.00  0.00     0.338 C 
ATOM      4  O   UNL A   1      35.313  21.668  26.452  1.00  0.00    -0.246 OA
BRANCH   3   5
ATOM      5  C   UNL A   1      34.631  19.928  24.968  1.00  0.00     0.067 A 
ATOM      6  C   UNL A   1      33.224  20.021  24.893  1.00  0.00    -0.010 A 
ATOM      7  C   UNL A   1      32.493  18.887  24.493  1.00  0.00     0.009 A 
ATOM      8  C   UNL A   1      33.136  17.695  24.150  1.00  0.00     0.001 A 
ATOM      9  C   UNL A   1      35.265  18.735  24.569  1.00  0.00     0.016 A 
ATOM     10  C   UNL A   1      34.523  17.620  24.182  1.00  0.00     0.001 A 
BRANCH   6  11
ATOM     11  C   UNL A   1      32.437  21.213  25.250  1.00  0.00     0.033 C 
ATOM     12  N   UNL A   1      31.540  25.634  23.048  1.00  0.00    -0.235 N 
ATOM     13  C   UNL A   1      31.641  24.305  23.325  1.00  0.00     0.322 C 
ATOM     14  H   UNL A   1      31.112  25.845  22.185  1.00  0.00     0.313 HD
ATOM     15  N   UNL A   1      31.928  23.433  22.413  1.00  0.00    -0.199 N 
ATOM     16  S   UNL A   1      31.335  23.652  24.924  1.00  0.00     0.006 SA
ATOM     17  C   UNL A   1      32.059  22.154  22.909  1.00  0.00     0.346 C 
ATOM     18  H   UNL A   1      32.041  23.660  21.461  1.00  0.00     0.316 HD
ATOM     19  C   UNL A   1      31.971  22.139  24.402  1.00  0.00     0.110 C 
ATOM     20  O   UNL A   1      32.246  21.160  22.226  1.00  0.00    -0.240 OA
BRANCH  12  21
ATOM     21  C   UNL A   1      31.949  26.755  23.793  1.00  0.00     0.125 A 
ATOM     22  C   UNL A   1      32.921  28.978  25.250  1.00  0.00     0.119 A 
ATOM     23  C   UNL A   1      31.554  28.727  25.167  1.00  0.00     0.051 A 
ATOM     24  C   UNL A   1      33.810  28.115  24.616  1.00  0.00     0.051 A 
ATOM     25  C   UNL A   1      31.074  27.637  24.431  1.00  0.00     0.055 A 
ATOM     26  C   UNL A   1      33.325  27.020  23.890  1.00  0.00     0.055 A 
BRANCH  22  27
ATOM     27  O   UNL A   1      33.277  30.053  26.014  1.00  0.00    -0.497 OA
ATOM     28  C   UNL A   1      32.350  30.399  27.037  1.00  0.00     0.278 C 
ENDBRANCH  22  27
ENDBRANCH  12  21
ENDBRANCH   6  11
ENDBRANCH   3   5
ENDBRANCH   2   3
ENDBRANCH   1   2
BRANCH   1  29
ATOM     29  C   UNL A   1      38.655  20.018  25.059  1.00  0.00     0.275 C 
BRANCH  29  30
ATOM     30  O   UNL A   1      39.388  19.790  26.274  1.00  0.00    -0.458 OA
BRANCH  30  31
ATOM     31  C   UNL A   1      40.729  19.717  26.135  1.00  0.00     0.338 C 
ATOM     32  O   UNL A   1      41.384  18.856  25.575  1.00  0.00    -0.246 OA
BRANCH  31  33
ATOM     33  C   UNL A   1      41.311  20.970  26.630  1.00  0.00     0.060 A 
ATOM     34  C   UNL A   1      41.176  21.232  27.991  1.00  0.00     0.016 A 
ATOM     35  C   UNL A   1      41.878  21.916  25.777  1.00  0.00     0.016 A 
ATOM     36  C   UNL A   1      41.576  22.454  28.513  1.00  0.00     0.010 A 
ATOM     37  C   UNL A   1      42.307  23.139  26.309  1.00  0.00     0.010 A 
ATOM     38  C   UNL A   1      42.134  23.428  27.676  1.00  0.00    -0.014 A 
BRANCH  38  39
ATOM     39  C   UNL A   1      42.429  24.773  28.239  1.00  0.00     0.031 A 
ATOM     40  C   UNL A   1      43.847  25.149  28.573  1.00  0.00     0.074 A 
ATOM     41  C   UNL A   1      41.447  25.686  28.366  1.00  0.00     0.049 A 
ATOM     42  N   UNL A   1      44.307  26.248  29.116  1.00  0.00    -0.248 NA
ATOM     43  C   UNL A   1      44.884  24.155  28.257  1.00  0.00     0.031 C 
ATOM     44  C   UNL A   1      40.040  25.470  28.025  1.00  0.00     0.029 A 
ATOM     45  N   UNL A   1      41.489  26.991  28.790  1.00  0.00    -0.354 N 
ATOM     46  C   UNL A   1      45.678  26.059  29.250  1.00  0.00     0.074 A 
ATOM     47  C   UNL A   1      45.973  24.738  28.738  1.00  0.00     0.031 C 
ATOM     48  C   UNL A   1      39.362  26.612  28.213  1.00  0.00     0.029 A 
ATOM     49  C   UNL A   1      40.270  27.624  28.746  1.00  0.00     0.049 A 
ATOM     50  H   UNL A   1      42.314  27.432  29.096  1.00  0.00     0.167 HD
ATOM     51  C   UNL A   1      46.605  26.910  29.751  1.00  0.00     0.037 A 
ATOM     52  C   UNL A   1      39.919  28.871  29.113  1.00  0.00     0.037 A 
ATOM     53  C   UNL A   1      46.317  28.242  30.215  1.00  0.00     0.049 A 
ATOM     54  C   UNL A   1      40.966  29.792  29.675  1.00  0.00     0.074 A 
ATOM     55  C   UNL A   1      47.189  29.180  30.741  1.00  0.00     0.029 A 
ATOM     56  N   UNL A   1      45.063  28.833  30.188  1.00  0.00    -0.354 N 
ATOM     57  N   UNL A   1      42.248  29.581  29.848  1.00  0.00    -0.248 NA
ATOM     58  C   UNL A   1      40.512  31.122  30.104  1.00  0.00     0.031 C 
ATOM     59  C   UNL A   1      46.455  30.329  31.061  1.00  0.00     0.029 A 
ATOM     60  C   UNL A   1      45.135  30.121  30.695  1.00  0.00     0.049 A 
ATOM     61  H   UNL A   1      44.242  28.402  29.858  1.00  0.00     0.167 HD
ATOM     62  C   UNL A   1      42.755  30.750  30.399  1.00  0.00     0.074 A 
ATOM     63  C   UNL A   1      41.648  31.678  30.501  1.00  0.00     0.031 C 
ATOM     64  C   UNL A   1      44.022  31.028  30.795  1.00  0.00     0.037 A 
BRANCH  51  65
ATOM     65  C   UNL A   1      48.015  26.407  29.858  1.00  0.00     0.057 A 
ATOM     66  C   UNL A   1      48.945  26.564  28.824  1.00  0.00     0.134 A 
ATOM     67  C   UNL A   1      48.451  25.769  31.028  1.00  0.00     0.134 A 
ATOM     68  F   UNL A   1      48.588  27.150  27.671  1.00  0.00    -0.206 F 
ATOM     69  C   UNL A   1      50.252  26.085  28.939  1.00  0.00     0.040 A 
ATOM     70  C   UNL A   1      49.761  25.309  31.165  1.00  0.00     0.040 A 
ATOM     71  F   UNL A   1      47.611  25.588  32.058  1.00  0.00    -0.206 F 
ATOM     72  C   UNL A   1      50.665  25.460  30.115  1.00  0.00     0.006 A 
ENDBRANCH  51  65
BRANCH  52  73
ATOM     73  C   UNL A   1      38.508  29.315  28.987  1.00  0.00     0.057 A 
ATOM     74  C   UNL A   1      37.641  29.306  30.085  1.00  0.00     0.134 A 
ATOM     75  C   UNL A   1      37.989  29.749  27.761  1.00  0.00     0.134 A 
ATOM     76  F   UNL A   1      38.071  28.874  31.281  1.00  0.00    -0.206 F 
ATOM     77  C   UNL A   1      36.307  29.701  29.969  1.00  0.00     0.040 A 
ATOM     78  C   UNL A   1      36.666  30.174  27.635  1.00  0.00     0.040 A 
ATOM     79  F   UNL A   1      38.767  29.779  26.669  1.00  0.00    -0.206 F 
ATOM     80  C   UNL A   1      35.819  30.145  28.741  1.00  0.00     0.006 A 
ENDBRANCH  52  73
BRANCH  64  81
ATOM     81  C   UNL A   1      44.269  32.399  31.354  1.00  0.00     0.057 A 
ATOM     82  C   UNL A   1      44.140  32.670  32.722  1.00  0.00     0.134 A 
ATOM     83  C   UNL A   1      44.638  33.457  30.515  1.00  0.00     0.134 A 
ATOM     84  F   UNL A   1      43.775  31.703  33.577  1.00  0.00    -0.206 F 
ATOM     85  C   UNL A   1      44.336  33.955  33.231  1.00  0.00     0.040 A 
ATOM     86  C   UNL A   1      44.862  34.740  31.016  1.00  0.00     0.040 A 
ATOM     87  F   UNL A   1      44.788  33.261  29.196  1.00  0.00    -0.206 F 
ATOM     88  C   UNL A   1      44.702  34.994  32.377  1.00  0.00     0.006 A 
ENDBRANCH  64  81
ENDBRANCH  38  39
ENDBRANCH  31  33
ENDBRANCH  30  31
ENDBRANCH  29  30
ENDBRANCH   1  29
TORSDOF 14
ENDMDL
