MODEL 1
REMARK VINA RESULT:     -10.5      0.000      0.000
REMARK SMILES C#CCN(CC(=O)OCCOC(=O)c1ccc(-c2c3nc(c(-c4c(F)cccc4F)c4ccc([nH]4)c(-c4c(F)cccc4F)c4nc(c(-c5c(F)cccc5F)c5ccc2[nH]5)C=C4)C=C3)cc1)c1nnc(C)c2ccccc12
REMARK SMILES IDX 9 1 8 2 6 3 7 4 5 5 4 6 3 7 2 8 1 9 68 10 69 11 78 12 70 13
REMARK SMILES IDX 73 14 77 15 71 16 74 17 76 18 72 19 75 20 10 21 11 22 12 23
REMARK SMILES IDX 13 24 14 25 15 26 67 27 16 28 66 29 17 30 18 31 19 32 60 33
REMARK SMILES IDX 20 34 65 35 59 36 61 37 21 38 64 39 58 40 57 41 22 43 48 44
REMARK SMILES IDX 31 45 47 46 32 47 35 48 46 49 62 50 33 51 34 52 45 54 63 55
REMARK SMILES IDX 36 56 23 57 24 58 29 59 25 60 26 61 28 62 30 63 27 64 49 65
REMARK SMILES IDX 50 66 55 67 51 68 52 69 54 70 56 71 53 72 37 73 38 74 43 75
REMARK SMILES IDX 39 76 40 77 42 78 44 79 41 80
REMARK H PARENT 61 42 35 53
REMARK Flexibility Score: inf
ROOT
ATOM      1  C   UNL A   1      31.736  30.965  26.581  1.00  0.00     0.274 C 
ENDROOT
BRANCH   1   2
ATOM      2  O   UNL A   1      31.036  30.823  25.338  1.00  0.00    -0.461 OA
BRANCH   2   3
ATOM      3  C   UNL A   1      31.084  29.568  24.797  1.00  0.00     0.325 C 
ATOM      4  O   UNL A   1      30.895  29.291  23.632  1.00  0.00    -0.250 OA
BRANCH   3   5
ATOM      5  C   UNL A   1      31.662  28.601  25.804  1.00  0.00     0.241 C 
BRANCH   5   6
ATOM      6  N   UNL A   1      32.627  27.615  25.284  1.00  0.00    -0.332 N 
BRANCH   6   7
ATOM      7  C   UNL A   1      34.010  28.137  25.225  1.00  0.00     0.208 C 
BRANCH   7   8
ATOM      8  C   UNL A   1      34.482  28.782  26.517  1.00  0.00    -0.085 C 
ATOM      9  C   UNL A   1      34.886  29.336  27.627  1.00  0.00     0.006 C 
ENDBRANCH   7   8
ENDBRANCH   6   7
BRANCH   6  10
ATOM     10  C   UNL A   1      32.386  26.444  26.053  1.00  0.00     0.160 A 
ATOM     11  N   UNL A   1      31.132  26.317  26.578  1.00  0.00    -0.132 NA
ATOM     12  C   UNL A   1      33.258  25.315  25.983  1.00  0.00     0.028 A 
ATOM     13  N   UNL A   1      30.602  25.102  26.761  1.00  0.00    -0.153 NA
ATOM     14  C   UNL A   1      32.777  24.117  26.510  1.00  0.00     0.009 A 
ATOM     15  C   UNL A   1      34.497  25.200  25.307  1.00  0.00     0.013 A 
ATOM     16  C   UNL A   1      31.407  24.030  26.610  1.00  0.00     0.068 A 
ATOM     17  C   UNL A   1      33.548  22.945  26.614  1.00  0.00     0.011 A 
ATOM     18  C   UNL A   1      35.212  23.984  25.270  1.00  0.00     0.001 A 
ATOM     19  C   UNL A   1      30.823  22.878  25.833  1.00  0.00     0.069 C 
ATOM     20  C   UNL A   1      34.767  22.871  25.976  1.00  0.00     0.001 A 
ENDBRANCH   6  10
ENDBRANCH   5   6
ENDBRANCH   3   5
ENDBRANCH   2   3
ENDBRANCH   1   2
BRANCH   1  21
ATOM     21  C   UNL A   1      31.691  32.434  27.009  1.00  0.00     0.275 C 
BRANCH  21  22
ATOM     22  O   UNL A   1      33.023  33.010  27.074  1.00  0.00    -0.458 OA
BRANCH  22  23
ATOM     23  C   UNL A   1      33.209  33.891  28.087  1.00  0.00     0.338 C 
ATOM     24  O   UNL A   1      32.524  34.878  28.328  1.00  0.00    -0.246 OA
BRANCH  23  25
ATOM     25  C   UNL A   1      34.367  33.571  28.946  1.00  0.00     0.060 A 
ATOM     26  C   UNL A   1      35.642  34.039  28.631  1.00  0.00     0.016 A 
ATOM     27  C   UNL A   1      34.220  32.547  29.889  1.00  0.00     0.016 A 
ATOM     28  C   UNL A   1      36.768  33.386  29.144  1.00  0.00     0.010 A 
ATOM     29  C   UNL A   1      35.349  31.956  30.474  1.00  0.00     0.010 A 
ATOM     30  C   UNL A   1      36.638  32.335  30.070  1.00  0.00    -0.014 A 
BRANCH  30  31
ATOM     31  C   UNL A   1      37.845  31.717  30.684  1.00  0.00     0.031 A 
ATOM     32  C   UNL A   1      38.686  30.668  29.996  1.00  0.00     0.074 A 
ATOM     33  C   UNL A   1      38.187  32.129  31.915  1.00  0.00     0.049 A 
ATOM     34  N   UNL A   1      39.660  29.913  30.441  1.00  0.00    -0.248 NA
ATOM     35  C   UNL A   1      38.396  30.440  28.590  1.00  0.00     0.031 C 
ATOM     36  C   UNL A   1      37.491  33.159  32.686  1.00  0.00     0.029 A 
ATOM     37  N   UNL A   1      39.201  31.717  32.732  1.00  0.00    -0.354 N 
ATOM     38  C   UNL A   1      40.067  29.128  29.358  1.00  0.00     0.074 A 
ATOM     39  C   UNL A   1      39.242  29.490  28.236  1.00  0.00     0.031 C 
ATOM     40  C   UNL A   1      38.099  33.300  33.870  1.00  0.00     0.029 A 
ATOM     41  C   UNL A   1      39.174  32.320  33.960  1.00  0.00     0.049 A 
ATOM     42  H   UNL A   1      39.879  31.055  32.466  1.00  0.00     0.167 HD
ATOM     43  C   UNL A   1      41.044  28.193  29.298  1.00  0.00     0.037 A 
ATOM     44  C   UNL A   1      39.906  32.073  35.057  1.00  0.00     0.037 A 
ATOM     45  C   UNL A   1      41.896  27.880  30.411  1.00  0.00     0.049 A 
ATOM     46  C   UNL A   1      40.960  31.013  34.996  1.00  0.00     0.074 A 
ATOM     47  C   UNL A   1      42.929  26.965  30.486  1.00  0.00     0.029 A 
ATOM     48  N   UNL A   1      41.819  28.509  31.643  1.00  0.00    -0.354 N 
ATOM     49  N   UNL A   1      41.286  30.224  34.000  1.00  0.00    -0.248 NA
ATOM     50  C   UNL A   1      41.751  30.812  36.214  1.00  0.00     0.031 C 
ATOM     51  C   UNL A   1      43.470  27.031  31.774  1.00  0.00     0.029 A 
ATOM     52  C   UNL A   1      42.793  28.009  32.485  1.00  0.00     0.049 A 
ATOM     53  H   UNL A   1      41.169  29.208  31.882  1.00  0.00     0.167 HD
ATOM     54  C   UNL A   1      42.334  29.443  34.464  1.00  0.00     0.074 A 
ATOM     55  C   UNL A   1      42.597  29.869  35.825  1.00  0.00     0.031 C 
ATOM     56  C   UNL A   1      43.018  28.458  33.831  1.00  0.00     0.037 A 
BRANCH  43  57
ATOM     57  C   UNL A   1      41.253  27.441  28.010  1.00  0.00     0.057 A 
ATOM     58  C   UNL A   1      40.594  26.236  27.734  1.00  0.00     0.134 A 
ATOM     59  C   UNL A   1      42.065  27.971  26.998  1.00  0.00     0.134 A 
ATOM     60  F   UNL A   1      39.814  25.661  28.661  1.00  0.00    -0.206 F 
ATOM     61  C   UNL A   1      40.735  25.588  26.504  1.00  0.00     0.040 A 
ATOM     62  C   UNL A   1      42.197  27.344  25.755  1.00  0.00     0.040 A 
ATOM     63  F   UNL A   1      42.729  29.122  27.190  1.00  0.00    -0.206 F 
ATOM     64  C   UNL A   1      41.529  26.148  25.505  1.00  0.00     0.006 A 
ENDBRANCH  43  57
BRANCH  44  65
ATOM     65  C   UNL A   1      39.627  32.840  36.290  1.00  0.00     0.057 A 
ATOM     66  C   UNL A   1      38.678  32.398  37.214  1.00  0.00     0.134 A 
ATOM     67  C   UNL A   1      40.357  33.993  36.604  1.00  0.00     0.134 A 
ATOM     68  F   UNL A   1      37.948  31.301  36.961  1.00  0.00    -0.206 F 
ATOM     69  C   UNL A   1      38.455  33.083  38.408  1.00  0.00     0.040 A 
ATOM     70  C   UNL A   1      40.165  34.671  37.806  1.00  0.00     0.040 A 
ATOM     71  F   UNL A   1      41.298  34.451  35.764  1.00  0.00    -0.206 F 
ATOM     72  C   UNL A   1      39.206  34.217  38.711  1.00  0.00     0.006 A 
ENDBRANCH  44  65
BRANCH  56  73
ATOM     73  C   UNL A   1      44.123  27.814  34.606  1.00  0.00     0.057 A 
ATOM     74  C   UNL A   1      43.907  26.652  35.355  1.00  0.00     0.134 A 
ATOM     75  C   UNL A   1      45.407  28.367  34.607  1.00  0.00     0.134 A 
ATOM     76  F   UNL A   1      42.691  26.087  35.399  1.00  0.00    -0.206 F 
ATOM     77  C   UNL A   1      44.927  26.082  36.114  1.00  0.00     0.040 A 
ATOM     78  C   UNL A   1      46.442  27.793  35.342  1.00  0.00     0.040 A 
ATOM     79  F   UNL A   1      45.674  29.474  33.896  1.00  0.00    -0.206 F 
ATOM     80  C   UNL A   1      46.199  26.653  36.108  1.00  0.00     0.006 A 
ENDBRANCH  56  73
ENDBRANCH  30  31
ENDBRANCH  23  25
ENDBRANCH  22  23
ENDBRANCH  21  22
ENDBRANCH   1  21
TORSDOF 15
ENDMDL
MODEL 2
REMARK VINA RESULT:     -10.5      3.879      9.180
REMARK SMILES C#CCN(CC(=O)OCCOC(=O)c1ccc(-c2c3nc(c(-c4c(F)cccc4F)c4ccc([nH]4)c(-c4c(F)cccc4F)c4nc(c(-c5c(F)cccc5F)c5ccc2[nH]5)C=C4)C=C3)cc1)c1nnc(C)c2ccccc12
REMARK SMILES IDX 9 1 8 2 6 3 7 4 5 5 4 6 3 7 2 8 1 9 68 10 69 11 78 12 70 13
REMARK SMILES IDX 73 14 77 15 71 16 74 17 76 18 72 19 75 20 10 21 11 22 12 23
REMARK SMILES IDX 13 24 14 25 15 26 67 27 16 28 66 29 17 30 18 31 19 32 60 33
REMARK SMILES IDX 20 34 65 35 59 36 61 37 21 38 64 39 58 40 57 41 22 43 48 44
REMARK SMILES IDX 31 45 47 46 32 47 35 48 46 49 62 50 33 51 34 52 45 54 63 55
REMARK SMILES IDX 36 56 23 57 24 58 29 59 25 60 26 61 28 62 30 63 27 64 49 65
REMARK SMILES IDX 50 66 55 67 51 68 52 69 54 70 56 71 53 72 37 73 38 74 43 75
REMARK SMILES IDX 39 76 40 77 42 78 44 79 41 80
REMARK H PARENT 61 42 35 53
REMARK Flexibility Score: inf
ROOT
ATOM      1  C   UNL A   1      34.099  34.083  29.385  1.00  0.00     0.274 C 
ENDROOT
BRANCH   1   2
ATOM      2  O   UNL A   1      35.221  33.560  30.109  1.00  0.00    -0.461 OA
BRANCH   2   3
ATOM      3  C   UNL A   1      34.900  32.927  31.277  1.00  0.00     0.325 C 
ATOM      4  O   UNL A   1      35.197  31.789  31.572  1.00  0.00    -0.250 OA
BRANCH   3   5
ATOM      5  C   UNL A   1      34.343  33.929  32.263  1.00  0.00     0.241 C 
BRANCH   5   6
ATOM      6  N   UNL A   1      35.148  35.145  32.482  1.00  0.00    -0.332 N 
BRANCH   6   7
ATOM      7  C   UNL A   1      34.323  36.361  32.648  1.00  0.00     0.208 C 
BRANCH   7   8
ATOM      8  C   UNL A   1      32.826  36.107  32.564  1.00  0.00    -0.085 C 
ATOM      9  C   UNL A   1      31.543  35.889  32.491  1.00  0.00     0.006 C 
ENDBRANCH   7   8
ENDBRANCH   6   7
BRANCH   6  10
ATOM     10  C   UNL A   1      36.041  34.793  33.532  1.00  0.00     0.160 A 
ATOM     11  N   UNL A   1      35.466  34.350  34.687  1.00  0.00    -0.132 NA
ATOM     12  C   UNL A   1      37.430  34.571  33.283  1.00  0.00     0.028 A 
ATOM     13  N   UNL A   1      36.108  33.461  35.457  1.00  0.00    -0.153 NA
ATOM     14  C   UNL A   1      38.152  33.927  34.287  1.00  0.00     0.009 A 
ATOM     15  C   UNL A   1      38.154  34.775  32.082  1.00  0.00     0.013 A 
ATOM     16  C   UNL A   1      37.396  33.187  35.168  1.00  0.00     0.068 A 
ATOM     17  C   UNL A   1      39.544  33.729  34.244  1.00  0.00     0.011 A 
ATOM     18  C   UNL A   1      39.519  34.436  31.974  1.00  0.00     0.001 A 
ATOM     19  C   UNL A   1      37.778  31.730  35.206  1.00  0.00     0.069 C 
ATOM     20  C   UNL A   1      40.230  33.969  33.073  1.00  0.00     0.001 A 
ENDBRANCH   6  10
ENDBRANCH   5   6
ENDBRANCH   3   5
ENDBRANCH   2   3
ENDBRANCH   1   2
BRANCH   1  21
ATOM     21  C   UNL A   1      33.976  33.334  28.056  1.00  0.00     0.275 C 
BRANCH  21  22
ATOM     22  O   UNL A   1      35.144  32.510  27.798  1.00  0.00    -0.458 OA
BRANCH  22  23
ATOM     23  C   UNL A   1      34.879  31.193  27.618  1.00  0.00     0.338 C 
ATOM     24  O   UNL A   1      33.846  30.714  27.166  1.00  0.00    -0.246 OA
BRANCH  23  25
ATOM     25  C   UNL A   1      35.986  30.304  28.025  1.00  0.00     0.060 A 
ATOM     26  C   UNL A   1      35.915  29.570  29.209  1.00  0.00     0.016 A 
ATOM     27  C   UNL A   1      37.218  30.451  27.377  1.00  0.00     0.016 A 
ATOM     28  C   UNL A   1      37.089  29.114  29.816  1.00  0.00     0.010 A 
ATOM     29  C   UNL A   1      38.383  29.911  27.940  1.00  0.00     0.010 A 
ATOM     30  C   UNL A   1      38.339  29.280  29.192  1.00  0.00    -0.014 A 
BRANCH  30  31
ATOM     31  C   UNL A   1      39.569  28.701  29.800  1.00  0.00     0.031 A 
ATOM     32  C   UNL A   1      40.242  29.273  31.024  1.00  0.00     0.074 A 
ATOM     33  C   UNL A   1      40.090  27.612  29.213  1.00  0.00     0.049 A 
ATOM     34  N   UNL A   1      41.394  29.000  31.584  1.00  0.00    -0.248 NA
ATOM     35  C   UNL A   1      39.502  30.302  31.737  1.00  0.00     0.031 C 
ATOM     36  C   UNL A   1      39.528  26.928  28.047  1.00  0.00     0.029 A 
ATOM     37  N   UNL A   1      41.216  26.902  29.516  1.00  0.00    -0.354 N 
ATOM     38  C   UNL A   1      41.495  29.842  32.696  1.00  0.00     0.074 A 
ATOM     39  C   UNL A   1      40.296  30.636  32.738  1.00  0.00     0.031 C 
ATOM     40  C   UNL A   1      40.315  25.894  27.730  1.00  0.00     0.029 A 
ATOM     41  C   UNL A   1      41.466  25.893  28.625  1.00  0.00     0.049 A 
ATOM     42  H   UNL A   1      41.789  27.095  30.293  1.00  0.00     0.167 HD
ATOM     43  C   UNL A   1      42.492  29.944  33.606  1.00  0.00     0.037 A 
ATOM     44  C   UNL A   1      42.534  25.088  28.512  1.00  0.00     0.037 A 
ATOM     45  C   UNL A   1      43.659  29.107  33.583  1.00  0.00     0.049 A 
ATOM     46  C   UNL A   1      43.649  25.229  29.499  1.00  0.00     0.074 A 
ATOM     47  C   UNL A   1      44.739  29.095  34.446  1.00  0.00     0.029 A 
ATOM     48  N   UNL A   1      43.875  28.107  32.648  1.00  0.00    -0.354 N 
ATOM     49  N   UNL A   1      43.774  26.074  30.494  1.00  0.00    -0.248 NA
ATOM     50  C   UNL A   1      44.772  24.299  29.347  1.00  0.00     0.031 C 
ATOM     51  C   UNL A   1      45.618  28.093  34.023  1.00  0.00     0.029 A 
ATOM     52  C   UNL A   1      45.068  27.464  32.917  1.00  0.00     0.049 A 
ATOM     53  H   UNL A   1      43.269  27.888  31.904  1.00  0.00     0.167 HD
ATOM     54  C   UNL A   1      44.982  25.768  31.101  1.00  0.00     0.074 A 
ATOM     55  C   UNL A   1      45.540  24.647  30.369  1.00  0.00     0.031 C 
ATOM     56  C   UNL A   1      45.586  26.357  32.162  1.00  0.00     0.037 A 
BRANCH  43  57
ATOM     57  C   UNL A   1      42.381  30.978  34.694  1.00  0.00     0.057 A 
ATOM     58  C   UNL A   1      41.778  30.702  35.928  1.00  0.00     0.134 A 
ATOM     59  C   UNL A   1      42.958  32.247  34.534  1.00  0.00     0.134 A 
ATOM     60  F   UNL A   1      41.191  29.516  36.146  1.00  0.00    -0.206 F 
ATOM     61  C   UNL A   1      41.750  31.645  36.959  1.00  0.00     0.040 A 
ATOM     62  C   UNL A   1      42.956  33.191  35.566  1.00  0.00     0.040 A 
ATOM     63  F   UNL A   1      43.552  32.583  33.380  1.00  0.00    -0.206 F 
ATOM     64  C   UNL A   1      42.351  32.890  36.784  1.00  0.00     0.006 A 
ENDBRANCH  43  57
BRANCH  44  65
ATOM     65  C   UNL A   1      42.577  24.111  27.404  1.00  0.00     0.057 A 
ATOM     66  C   UNL A   1      43.148  24.441  26.173  1.00  0.00     0.134 A 
ATOM     67  C   UNL A   1      42.113  22.800  27.577  1.00  0.00     0.134 A 
ATOM     68  F   UNL A   1      43.605  25.683  25.952  1.00  0.00    -0.206 F 
ATOM     69  C   UNL A   1      43.249  23.504  25.146  1.00  0.00     0.040 A 
ATOM     70  C   UNL A   1      42.234  21.846  26.569  1.00  0.00     0.040 A 
ATOM     71  F   UNL A   1      41.577  22.419  28.747  1.00  0.00    -0.206 F 
ATOM     72  C   UNL A   1      42.800  22.200  25.346  1.00  0.00     0.006 A 
ENDBRANCH  44  65
BRANCH  56  73
ATOM     73  C   UNL A   1      46.892  25.770  32.594  1.00  0.00     0.057 A 
ATOM     74  C   UNL A   1      48.097  26.155  31.998  1.00  0.00     0.134 A 
ATOM     75  C   UNL A   1      46.938  24.807  33.607  1.00  0.00     0.134 A 
ATOM     76  F   UNL A   1      48.109  27.066  31.012  1.00  0.00    -0.206 F 
ATOM     77  C   UNL A   1      49.306  25.571  32.370  1.00  0.00     0.040 A 
ATOM     78  C   UNL A   1      48.144  24.233  34.006  1.00  0.00     0.040 A 
ATOM     79  F   UNL A   1      45.814  24.409  34.223  1.00  0.00    -0.206 F 
ATOM     80  C   UNL A   1      49.331  24.606  33.377  1.00  0.00     0.006 A 
ENDBRANCH  56  73
ENDBRANCH  30  31
ENDBRANCH  23  25
ENDBRANCH  22  23
ENDBRANCH  21  22
ENDBRANCH   1  21
TORSDOF 15
ENDMDL
MODEL 3
REMARK VINA RESULT:     -10.5      1.771      2.882
REMARK SMILES C#CCN(CC(=O)OCCOC(=O)c1ccc(-c2c3nc(c(-c4c(F)cccc4F)c4ccc([nH]4)c(-c4c(F)cccc4F)c4nc(c(-c5c(F)cccc5F)c5ccc2[nH]5)C=C4)C=C3)cc1)c1nnc(C)c2ccccc12
REMARK SMILES IDX 9 1 8 2 6 3 7 4 5 5 4 6 3 7 2 8 1 9 68 10 69 11 78 12 70 13
REMARK SMILES IDX 73 14 77 15 71 16 74 17 76 18 72 19 75 20 10 21 11 22 12 23
REMARK SMILES IDX 13 24 14 25 15 26 67 27 16 28 66 29 17 30 18 31 19 32 60 33
REMARK SMILES IDX 20 34 65 35 59 36 61 37 21 38 64 39 58 40 57 41 22 43 48 44
REMARK SMILES IDX 31 45 47 46 32 47 35 48 46 49 62 50 33 51 34 52 45 54 63 55
REMARK SMILES IDX 36 56 23 57 24 58 29 59 25 60 26 61 28 62 30 63 27 64 49 65
REMARK SMILES IDX 50 66 55 67 51 68 52 69 54 70 56 71 53 72 37 73 38 74 43 75
REMARK SMILES IDX 39 76 40 77 42 78 44 79 41 80
REMARK H PARENT 61 42 35 53
REMARK Flexibility Score: inf
ROOT
ATOM      1  C   UNL A   1      32.514  29.430  24.955  1.00  0.00     0.274 C 
ENDROOT
BRANCH   1   2
ATOM      2  O   UNL A   1      32.362  28.145  25.571  1.00  0.00    -0.461 OA
BRANCH   2   3
ATOM      3  C   UNL A   1      33.347  27.247  25.267  1.00  0.00     0.325 C 
ATOM      4  O   UNL A   1      34.018  26.633  26.068  1.00  0.00    -0.250 OA
BRANCH   3   5
ATOM      5  C   UNL A   1      33.309  26.931  23.790  1.00  0.00     0.241 C 
BRANCH   5   6
ATOM      6  N   UNL A   1      32.190  26.087  23.331  1.00  0.00    -0.332 N 
BRANCH   6   7
ATOM      7  C   UNL A   1      31.427  26.695  22.220  1.00  0.00     0.208 C 
BRANCH   7   8
ATOM      8  C   UNL A   1      30.307  27.618  22.673  1.00  0.00    -0.085 C 
ATOM      9  C   UNL A   1      29.346  28.409  23.061  1.00  0.00     0.006 C 
ENDBRANCH   7   8
ENDBRANCH   6   7
BRANCH   6  10
ATOM     10  C   UNL A   1      32.774  24.808  23.121  1.00  0.00     0.160 A 
ATOM     11  N   UNL A   1      33.941  24.789  22.412  1.00  0.00    -0.132 NA
ATOM     12  C   UNL A   1      32.379  23.673  23.894  1.00  0.00     0.028 A 
ATOM     13  N   UNL A   1      34.858  23.844  22.657  1.00  0.00    -0.153 NA
ATOM     14  C   UNL A   1      33.215  22.559  23.846  1.00  0.00     0.009 A 
ATOM     15  C   UNL A   1      31.325  23.574  24.836  1.00  0.00     0.013 A 
ATOM     16  C   UNL A   1      34.511  22.816  23.457  1.00  0.00     0.068 A 
ATOM     17  C   UNL A   1      32.915  21.330  24.462  1.00  0.00     0.011 A 
ATOM     18  C   UNL A   1      31.105  22.394  25.579  1.00  0.00     0.001 A 
ATOM     19  C   UNL A   1      35.534  22.416  24.488  1.00  0.00     0.069 C 
ATOM     20  C   UNL A   1      31.862  21.251  25.348  1.00  0.00     0.001 A 
ENDBRANCH   6  10
ENDBRANCH   5   6
ENDBRANCH   3   5
ENDBRANCH   2   3
ENDBRANCH   1   2
BRANCH   1  21
ATOM     21  C   UNL A   1      31.650  30.445  25.707  1.00  0.00     0.275 C 
BRANCH  21  22
ATOM     22  O   UNL A   1      32.097  30.613  27.079  1.00  0.00    -0.458 OA
BRANCH  22  23
ATOM     23  C   UNL A   1      32.892  31.690  27.287  1.00  0.00     0.338 C 
ATOM     24  O   UNL A   1      32.555  32.866  27.226  1.00  0.00    -0.246 OA
BRANCH  23  25
ATOM     25  C   UNL A   1      34.289  31.341  27.616  1.00  0.00     0.060 A 
ATOM     26  C   UNL A   1      34.649  30.024  27.901  1.00  0.00     0.016 A 
ATOM     27  C   UNL A   1      35.167  32.382  27.940  1.00  0.00     0.016 A 
ATOM     28  C   UNL A   1      35.808  29.765  28.639  1.00  0.00     0.010 A 
ATOM     29  C   UNL A   1      36.375  32.111  28.597  1.00  0.00     0.010 A 
ATOM     30  C   UNL A   1      36.686  30.804  29.000  1.00  0.00    -0.014 A 
BRANCH  30  31
ATOM     31  C   UNL A   1      37.966  30.502  29.697  1.00  0.00     0.031 A 
ATOM     32  C   UNL A   1      39.055  29.641  29.103  1.00  0.00     0.074 A 
ATOM     33  C   UNL A   1      38.143  31.035  30.915  1.00  0.00     0.049 A 
ATOM     34  N   UNL A   1      40.149  29.146  29.628  1.00  0.00    -0.248 NA
ATOM     35  C   UNL A   1      38.898  29.290  27.701  1.00  0.00     0.031 C 
ATOM     36  C   UNL A   1      37.195  31.916  31.600  1.00  0.00     0.029 A 
ATOM     37  N   UNL A   1      39.178  30.900  31.795  1.00  0.00    -0.354 N 
ATOM     38  C   UNL A   1      40.777  28.424  28.608  1.00  0.00     0.074 A 
ATOM     39  C   UNL A   1      39.952  28.540  27.435  1.00  0.00     0.031 C 
ATOM     40  C   UNL A   1      37.693  32.243  32.798  1.00  0.00     0.029 A 
ATOM     41  C   UNL A   1      38.954  31.536  32.986  1.00  0.00     0.049 A 
ATOM     42  H   UNL A   1      40.001  30.397  31.594  1.00  0.00     0.167 HD
ATOM     43  C   UNL A   1      41.940  27.732  28.640  1.00  0.00     0.037 A 
ATOM     44  C   UNL A   1      39.663  31.510  34.124  1.00  0.00     0.037 A 
ATOM     45  C   UNL A   1      42.781  27.671  29.803  1.00  0.00     0.049 A 
ATOM     46  C   UNL A   1      40.930  30.713  34.165  1.00  0.00     0.074 A 
ATOM     47  C   UNL A   1      43.987  27.016  29.971  1.00  0.00     0.029 A 
ATOM     48  N   UNL A   1      42.501  28.320  30.994  1.00  0.00    -0.354 N 
ATOM     49  N   UNL A   1      41.475  29.975  33.229  1.00  0.00    -0.248 NA
ATOM     50  C   UNL A   1      41.680  30.751  35.424  1.00  0.00     0.031 C 
ATOM     51  C   UNL A   1      44.431  27.260  31.275  1.00  0.00     0.029 A 
ATOM     52  C   UNL A   1      43.516  28.091  31.903  1.00  0.00     0.049 A 
ATOM     53  H   UNL A   1      41.699  28.865  31.167  1.00  0.00     0.167 HD
ATOM     54  C   UNL A   1      42.645  29.472  33.778  1.00  0.00     0.074 A 
ATOM     55  C   UNL A   1      42.734  30.007  35.123  1.00  0.00     0.031 C 
ATOM     56  C   UNL A   1      43.564  28.640  33.230  1.00  0.00     0.037 A 
BRANCH  43  57
ATOM     57  C   UNL A   1      42.379  26.990  27.406  1.00  0.00     0.057 A 
ATOM     58  C   UNL A   1      43.151  27.597  26.406  1.00  0.00     0.134 A 
ATOM     59  C   UNL A   1      42.092  25.627  27.253  1.00  0.00     0.134 A 
ATOM     60  F   UNL A   1      43.450  28.902  26.477  1.00  0.00    -0.206 F 
ATOM     61  C   UNL A   1      43.619  26.877  25.303  1.00  0.00     0.040 A 
ATOM     62  C   UNL A   1      42.573  24.891  26.166  1.00  0.00     0.040 A 
ATOM     63  F   UNL A   1      41.357  24.979  28.170  1.00  0.00    -0.206 F 
ATOM     64  C   UNL A   1      43.341  25.517  25.186  1.00  0.00     0.006 A 
ENDBRANCH  43  57
BRANCH  44  65
ATOM     65  C   UNL A   1      39.155  32.248  35.300  1.00  0.00     0.057 A 
ATOM     66  C   UNL A   1      38.369  31.615  36.265  1.00  0.00     0.134 A 
ATOM     67  C   UNL A   1      39.507  33.586  35.520  1.00  0.00     0.134 A 
ATOM     68  F   UNL A   1      38.000  30.335  36.101  1.00  0.00    -0.206 F 
ATOM     69  C   UNL A   1      37.940  32.289  37.407  1.00  0.00     0.040 A 
ATOM     70  C   UNL A   1      39.110  34.263  36.671  1.00  0.00     0.040 A 
ATOM     71  F   UNL A   1      40.281  34.239  34.639  1.00  0.00    -0.206 F 
ATOM     72  C   UNL A   1      38.319  33.614  37.617  1.00  0.00     0.006 A 
ENDBRANCH  44  65
BRANCH  56  73
ATOM     73  C   UNL A   1      44.742  28.297  34.084  1.00  0.00     0.057 A 
ATOM     74  C   UNL A   1      45.896  29.088  34.087  1.00  0.00     0.134 A 
ATOM     75  C   UNL A   1      44.722  27.162  34.901  1.00  0.00     0.134 A 
ATOM     76  F   UNL A   1      45.974  30.180  33.312  1.00  0.00    -0.206 F 
ATOM     77  C   UNL A   1      47.010  28.738  34.847  1.00  0.00     0.040 A 
ATOM     78  C   UNL A   1      45.820  26.815  35.686  1.00  0.00     0.040 A 
ATOM     79  F   UNL A   1      43.636  26.374  34.948  1.00  0.00    -0.206 F 
ATOM     80  C   UNL A   1      46.973  27.598  35.650  1.00  0.00     0.006 A 
ENDBRANCH  56  73
ENDBRANCH  30  31
ENDBRANCH  23  25
ENDBRANCH  22  23
ENDBRANCH  21  22
ENDBRANCH   1  21
TORSDOF 15
ENDMDL
