MODEL 1
REMARK VINA RESULT:     -12.7      0.000      0.000
REMARK SMILES O=C(C[C@H](NC(=O)[C@]12C[C@H]3C[C@H](C[C@H](C3)C1)C2)c1cccc([N+](=O)[O-])c1)OCCOC(=O)c1ccc(-c2c3nc(c(-c4c(F)cccc4F)c4ccc([nH]4)c(-c4c(F)cccc4F)c4nc(c(-c5c(F)cccc5F)c5ccc2[nH]5)C=C4)C=C3)cc1
REMARK SMILES IDX 28 1 27 2 2 3 1 4 3 5 4 6 18 7 19 8 26 9 20 10 22 11 21 12
REMARK SMILES IDX 23 13 24 14 25 15 5 16 6 17 7 19 8 20 9 21 16 22 17 23 10 24
REMARK SMILES IDX 14 25 12 26 11 27 15 28 13 29 29 30 30 31 31 32 32 33 33 34
REMARK SMILES IDX 34 35 86 36 35 37 85 38 36 39 37 40 38 41 79 42 39 43 84 44
REMARK SMILES IDX 78 45 80 46 40 47 83 48 77 49 76 50 41 52 67 53 50 54 66 55
REMARK SMILES IDX 51 56 54 57 65 58 81 59 52 60 53 61 64 63 82 64 55 65 42 66
REMARK SMILES IDX 43 67 48 68 44 69 45 70 47 71 49 72 46 73 68 74 69 75 74 76
REMARK SMILES IDX 70 77 71 78 73 79 75 80 72 81 56 82 57 83 62 84 58 85 59 86
REMARK SMILES IDX 61 87 63 88 60 89
REMARK H PARENT 5 18 80 51 54 62
REMARK Flexibility Score: inf
ROOT
ATOM      1  C   UNL A   1      31.898  30.858  26.833  1.00  0.00     0.274 C 
ENDROOT
BRANCH   1   2
ATOM      2  O   UNL A   1      31.572  30.386  25.512  1.00  0.00    -0.462 OA
BRANCH   2   3
ATOM      3  C   UNL A   1      32.267  29.378  24.943  1.00  0.00     0.308 C 
ATOM      4  O   UNL A   1      33.125  28.756  25.563  1.00  0.00    -0.252 OA
BRANCH   3   5
ATOM      5  C   UNL A   1      32.050  29.126  23.483  1.00  0.00     0.152 C 
BRANCH   5   6
ATOM      6  C   UNL A   1      31.296  27.846  23.123  1.00  0.00     0.123 C 
BRANCH   6   7
ATOM      7  C   UNL A   1      29.852  28.247  22.841  1.00  0.00    -0.018 A 
ATOM      8  C   UNL A   1      28.780  27.492  23.349  1.00  0.00     0.006 A 
ATOM      9  C   UNL A   1      29.598  29.497  22.246  1.00  0.00     0.091 A 
ATOM     10  C   UNL A   1      27.503  28.049  23.436  1.00  0.00     0.007 A 
ATOM     11  C   UNL A   1      28.345  30.087  22.441  1.00  0.00     0.269 A 
ATOM     12  C   UNL A   1      27.301  29.373  23.050  1.00  0.00     0.085 A 
BRANCH  11  13
ATOM     13  N   UNL A   1      28.183  31.517  22.150  1.00  0.00     0.062 N 
ATOM     14  O   UNL A   1      28.498  31.904  21.015  1.00  0.00    -0.258 OA
ATOM     15  O   UNL A   1      27.692  32.230  23.037  1.00  0.00    -0.258 OA
ENDBRANCH  11  13
ENDBRANCH   6   7
BRANCH   6  16
ATOM     16  N   UNL A   1      31.900  27.073  22.028  1.00  0.00    -0.348 N 
ATOM     17  C   UNL A   1      32.725  25.992  21.931  1.00  0.00     0.226 C 
ATOM     18  H   UNL A   1      31.645  27.423  21.144  1.00  0.00     0.164 HD
ATOM     19  O   UNL A   1      33.218  25.833  20.806  1.00  0.00    -0.274 OA
BRANCH  17  20
ATOM     20  C   UNL A   1      33.084  24.993  23.070  1.00  0.00     0.050 C 
ATOM     21  C   UNL A   1      33.963  25.727  24.127  1.00  0.00     0.020 C 
ATOM     22  C   UNL A   1      33.927  23.824  22.568  1.00  0.00     0.020 C 
ATOM     23  C   UNL A   1      31.849  24.426  23.804  1.00  0.00     0.020 C 
ATOM     24  C   UNL A   1      34.415  24.773  25.250  1.00  0.00    -0.010 C 
ATOM     25  C   UNL A   1      34.369  22.854  23.659  1.00  0.00    -0.010 C 
ATOM     26  C   UNL A   1      32.286  23.458  24.933  1.00  0.00    -0.010 C 
ATOM     27  C   UNL A   1      33.172  24.201  25.948  1.00  0.00     0.007 C 
ATOM     28  C   UNL A   1      35.235  23.620  24.653  1.00  0.00     0.007 C 
ATOM     29  C   UNL A   1      33.109  22.298  24.343  1.00  0.00     0.007 C 
ENDBRANCH  17  20
ENDBRANCH   6  16
ENDBRANCH   5   6
ENDBRANCH   3   5
ENDBRANCH   2   3
ENDBRANCH   1   2
BRANCH   1  30
ATOM     30  C   UNL A   1      31.761  32.378  26.923  1.00  0.00     0.275 C 
BRANCH  30  31
ATOM     31  O   UNL A   1      33.064  32.985  27.042  1.00  0.00    -0.458 OA
BRANCH  31  32
ATOM     32  C   UNL A   1      33.234  33.851  28.077  1.00  0.00     0.338 C 
ATOM     33  O   UNL A   1      32.451  34.701  28.444  1.00  0.00    -0.246 OA
BRANCH  32  34
ATOM     34  C   UNL A   1      34.450  33.464  28.843  1.00  0.00     0.060 A 
ATOM     35  C   UNL A   1      35.695  33.918  28.381  1.00  0.00     0.016 A 
ATOM     36  C   UNL A   1      34.382  32.693  30.006  1.00  0.00     0.016 A 
ATOM     37  C   UNL A   1      36.873  33.572  29.052  1.00  0.00     0.010 A 
ATOM     38  C   UNL A   1      35.561  32.346  30.675  1.00  0.00     0.010 A 
ATOM     39  C   UNL A   1      36.817  32.756  30.186  1.00  0.00    -0.014 A 
BRANCH  39  40
ATOM     40  C   UNL A   1      38.042  32.163  30.781  1.00  0.00     0.031 A 
ATOM     41  C   UNL A   1      38.619  30.928  30.163  1.00  0.00     0.074 A 
ATOM     42  C   UNL A   1      38.632  32.658  31.882  1.00  0.00     0.049 A 
ATOM     43  N   UNL A   1      39.600  30.180  30.593  1.00  0.00    -0.248 NA
ATOM     44  C   UNL A   1      38.053  30.515  28.871  1.00  0.00     0.031 C 
ATOM     45  C   UNL A   1      38.313  33.927  32.509  1.00  0.00     0.029 A 
ATOM     46  N   UNL A   1      39.580  32.110  32.713  1.00  0.00    -0.354 N 
ATOM     47  C   UNL A   1      39.824  29.254  29.590  1.00  0.00     0.074 A 
ATOM     48  C   UNL A   1      38.816  29.472  28.573  1.00  0.00     0.031 C 
ATOM     49  C   UNL A   1      38.898  33.976  33.718  1.00  0.00     0.029 A 
ATOM     50  C   UNL A   1      39.655  32.752  33.926  1.00  0.00     0.049 A 
ATOM     51  H   UNL A   1      40.143  31.340  32.467  1.00  0.00     0.167 HD
ATOM     52  C   UNL A   1      40.821  28.345  29.501  1.00  0.00     0.037 A 
ATOM     53  C   UNL A   1      40.227  32.378  35.085  1.00  0.00     0.037 A 
ATOM     54  C   UNL A   1      41.800  28.106  30.525  1.00  0.00     0.049 A 
ATOM     55  C   UNL A   1      41.122  31.179  35.101  1.00  0.00     0.074 A 
ATOM     56  C   UNL A   1      42.885  27.250  30.501  1.00  0.00     0.029 A 
ATOM     57  N   UNL A   1      41.789  28.703  31.778  1.00  0.00    -0.354 N 
ATOM     58  N   UNL A   1      41.397  30.359  34.119  1.00  0.00    -0.248 NA
ATOM     59  C   UNL A   1      41.842  30.896  36.349  1.00  0.00     0.031 C 
ATOM     60  C   UNL A   1      43.497  27.284  31.760  1.00  0.00     0.029 A 
ATOM     61  C   UNL A   1      42.818  28.192  32.553  1.00  0.00     0.049 A 
ATOM     62  H   UNL A   1      41.146  29.388  32.071  1.00  0.00     0.167 HD
ATOM     63  C   UNL A   1      42.387  29.517  34.599  1.00  0.00     0.074 A 
ATOM     64  C   UNL A   1      42.625  29.891  35.979  1.00  0.00     0.031 C 
ATOM     65  C   UNL A   1      43.066  28.560  33.925  1.00  0.00     0.037 A 
BRANCH  52  66
ATOM     66  C   UNL A   1      40.890  27.558  28.233  1.00  0.00     0.057 A 
ATOM     67  C   UNL A   1      41.624  28.017  27.132  1.00  0.00     0.134 A 
ATOM     68  C   UNL A   1      40.210  26.345  28.105  1.00  0.00     0.134 A 
ATOM     69  F   UNL A   1      42.280  29.187  27.190  1.00  0.00    -0.206 F 
ATOM     70  C   UNL A   1      41.658  27.305  25.933  1.00  0.00     0.040 A 
ATOM     71  C   UNL A   1      40.252  25.614  26.918  1.00  0.00     0.040 A 
ATOM     72  F   UNL A   1      39.486  25.857  29.123  1.00  0.00    -0.206 F 
ATOM     73  C   UNL A   1      40.972  26.098  25.826  1.00  0.00     0.006 A 
ENDBRANCH  52  66
BRANCH  53  74
ATOM     74  C   UNL A   1      39.947  33.127  36.333  1.00  0.00     0.057 A 
ATOM     75  C   UNL A   1      40.763  34.171  36.774  1.00  0.00     0.134 A 
ATOM     76  C   UNL A   1      38.849  32.779  37.131  1.00  0.00     0.134 A 
ATOM     77  F   UNL A   1      41.843  34.527  36.065  1.00  0.00    -0.206 F 
ATOM     78  C   UNL A   1      40.500  34.845  37.970  1.00  0.00     0.040 A 
ATOM     79  C   UNL A   1      38.564  33.455  38.317  1.00  0.00     0.040 A 
ATOM     80  F   UNL A   1      38.052  31.761  36.772  1.00  0.00    -0.206 F 
ATOM     81  C   UNL A   1      39.394  34.490  38.743  1.00  0.00     0.006 A 
ENDBRANCH  53  74
BRANCH  65  82
ATOM     82  C   UNL A   1      44.194  27.886  34.642  1.00  0.00     0.057 A 
ATOM     83  C   UNL A   1      45.479  28.434  34.689  1.00  0.00     0.134 A 
ATOM     84  C   UNL A   1      43.973  26.685  35.331  1.00  0.00     0.134 A 
ATOM     85  F   UNL A   1      45.760  29.569  34.030  1.00  0.00    -0.206 F 
ATOM     86  C   UNL A   1      46.509  27.811  35.395  1.00  0.00     0.040 A 
ATOM     87  C   UNL A   1      44.988  26.064  36.057  1.00  0.00     0.040 A 
ATOM     88  F   UNL A   1      42.762  26.107  35.320  1.00  0.00    -0.206 F 
ATOM     89  C   UNL A   1      46.262  26.627  36.089  1.00  0.00     0.006 A 
ENDBRANCH  65  82
ENDBRANCH  39  40
ENDBRANCH  32  34
ENDBRANCH  31  32
ENDBRANCH  30  31
ENDBRANCH   1  30
TORSDOF 16
ENDMDL
MODEL 2
REMARK VINA RESULT:     -12.7      0.219      1.785
REMARK SMILES O=C(C[C@H](NC(=O)[C@]12C[C@H]3C[C@H](C[C@H](C3)C1)C2)c1cccc([N+](=O)[O-])c1)OCCOC(=O)c1ccc(-c2c3nc(c(-c4c(F)cccc4F)c4ccc([nH]4)c(-c4c(F)cccc4F)c4nc(c(-c5c(F)cccc5F)c5ccc2[nH]5)C=C4)C=C3)cc1
REMARK SMILES IDX 28 1 27 2 2 3 1 4 3 5 4 6 18 7 19 8 26 9 20 10 22 11 21 12
REMARK SMILES IDX 23 13 24 14 25 15 5 16 6 17 7 19 8 20 9 21 16 22 17 23 10 24
REMARK SMILES IDX 14 25 12 26 11 27 15 28 13 29 29 30 30 31 31 32 32 33 33 34
REMARK SMILES IDX 34 35 86 36 35 37 85 38 36 39 37 40 38 41 79 42 39 43 84 44
REMARK SMILES IDX 78 45 80 46 40 47 83 48 77 49 76 50 41 52 67 53 50 54 66 55
REMARK SMILES IDX 51 56 54 57 65 58 81 59 52 60 53 61 64 63 82 64 55 65 42 66
REMARK SMILES IDX 43 67 48 68 44 69 45 70 47 71 49 72 46 73 68 74 69 75 74 76
REMARK SMILES IDX 70 77 71 78 73 79 75 80 72 81 56 82 57 83 62 84 58 85 59 86
REMARK SMILES IDX 61 87 63 88 60 89
REMARK H PARENT 5 18 80 51 54 62
REMARK Flexibility Score: inf
ROOT
ATOM      1  C   UNL A   1      32.105  30.716  26.876  1.00  0.00     0.274 C 
ENDROOT
BRANCH   1   2
ATOM      2  O   UNL A   1      31.639  30.148  25.637  1.00  0.00    -0.462 OA
BRANCH   2   3
ATOM      3  C   UNL A   1      32.463  29.423  24.851  1.00  0.00     0.308 C 
ATOM      4  O   UNL A   1      33.565  29.049  25.244  1.00  0.00    -0.252 OA
BRANCH   3   5
ATOM      5  C   UNL A   1      32.046  29.200  23.430  1.00  0.00     0.152 C 
BRANCH   5   6
ATOM      6  C   UNL A   1      31.330  27.882  23.136  1.00  0.00     0.123 C 
BRANCH   6   7
ATOM      7  C   UNL A   1      29.869  28.223  22.864  1.00  0.00    -0.018 A 
ATOM      8  C   UNL A   1      28.831  27.448  23.413  1.00  0.00     0.006 A 
ATOM      9  C   UNL A   1      29.563  29.442  22.230  1.00  0.00     0.091 A 
ATOM     10  C   UNL A   1      27.538  27.964  23.501  1.00  0.00     0.007 A 
ATOM     11  C   UNL A   1      28.293  29.994  22.425  1.00  0.00     0.269 A 
ATOM     12  C   UNL A   1      27.283  29.266  23.073  1.00  0.00     0.085 A 
BRANCH  11  13
ATOM     13  N   UNL A   1      28.076  31.406  22.087  1.00  0.00     0.062 N 
ATOM     14  O   UNL A   1      27.653  32.146  22.987  1.00  0.00    -0.258 OA
ATOM     15  O   UNL A   1      28.381  31.775  20.944  1.00  0.00    -0.258 OA
ENDBRANCH  11  13
ENDBRANCH   6   7
BRANCH   6  16
ATOM     16  N   UNL A   1      31.942  27.084  22.063  1.00  0.00    -0.348 N 
ATOM     17  C   UNL A   1      32.790  26.018  21.997  1.00  0.00     0.226 C 
ATOM     18  H   UNL A   1      31.673  27.398  21.170  1.00  0.00     0.164 HD
ATOM     19  O   UNL A   1      33.278  25.832  20.873  1.00  0.00    -0.274 OA
BRANCH  17  20
ATOM     20  C   UNL A   1      33.181  25.068  23.166  1.00  0.00     0.050 C 
ATOM     21  C   UNL A   1      34.019  23.884  22.596  1.00  0.00     0.020 C 
ATOM     22  C   UNL A   1      31.960  24.434  23.827  1.00  0.00     0.020 C 
ATOM     23  C   UNL A   1      34.028  25.755  24.260  1.00  0.00     0.020 C 
ATOM     24  C   UNL A   1      34.379  22.864  23.695  1.00  0.00    -0.010 C 
ATOM     25  C   UNL A   1      32.292  23.436  24.932  1.00  0.00    -0.010 C 
ATOM     26  C   UNL A   1      34.393  24.744  25.377  1.00  0.00    -0.010 C 
ATOM     27  C   UNL A   1      35.198  23.574  24.784  1.00  0.00     0.007 C 
ATOM     28  C   UNL A   1      33.096  22.296  24.317  1.00  0.00     0.007 C 
ATOM     29  C   UNL A   1      33.112  24.169  26.007  1.00  0.00     0.007 C 
ENDBRANCH  17  20
ENDBRANCH   6  16
ENDBRANCH   5   6
ENDBRANCH   3   5
ENDBRANCH   2   3
ENDBRANCH   1   2
BRANCH   1  30
ATOM     30  C   UNL A   1      31.860  32.224  26.916  1.00  0.00     0.275 C 
BRANCH  30  31
ATOM     31  O   UNL A   1      33.118  32.928  26.961  1.00  0.00    -0.458 OA
BRANCH  31  32
ATOM     32  C   UNL A   1      33.291  33.787  28.001  1.00  0.00     0.338 C 
ATOM     33  O   UNL A   1      32.519  34.647  28.365  1.00  0.00    -0.246 OA
BRANCH  32  34
ATOM     34  C   UNL A   1      34.494  33.379  28.776  1.00  0.00     0.060 A 
ATOM     35  C   UNL A   1      35.752  33.802  28.318  1.00  0.00     0.016 A 
ATOM     36  C   UNL A   1      34.403  32.618  29.944  1.00  0.00     0.016 A 
ATOM     37  C   UNL A   1      36.918  33.435  28.998  1.00  0.00     0.010 A 
ATOM     38  C   UNL A   1      35.571  32.250  30.623  1.00  0.00     0.010 A 
ATOM     39  C   UNL A   1      36.838  32.628  30.137  1.00  0.00    -0.014 A 
BRANCH  39  40
ATOM     40  C   UNL A   1      38.046  32.013  30.744  1.00  0.00     0.031 A 
ATOM     41  C   UNL A   1      38.631  30.792  30.106  1.00  0.00     0.074 A 
ATOM     42  C   UNL A   1      38.615  32.476  31.870  1.00  0.00     0.049 A 
ATOM     43  N   UNL A   1      39.598  30.027  30.537  1.00  0.00    -0.248 NA
ATOM     44  C   UNL A   1      38.092  30.416  28.791  1.00  0.00     0.031 C 
ATOM     45  C   UNL A   1      38.288  33.730  32.524  1.00  0.00     0.029 A 
ATOM     46  N   UNL A   1      39.541  31.900  32.707  1.00  0.00    -0.354 N 
ATOM     47  C   UNL A   1      39.839  29.127  29.516  1.00  0.00     0.074 A 
ATOM     48  C   UNL A   1      38.855  29.377  28.483  1.00  0.00     0.031 C 
ATOM     49  C   UNL A   1      38.846  33.743  33.746  1.00  0.00     0.029 A 
ATOM     50  C   UNL A   1      39.592  32.509  33.938  1.00  0.00     0.049 A 
ATOM     51  H   UNL A   1      40.106  31.134  32.453  1.00  0.00     0.167 HD
ATOM     52  C   UNL A   1      40.834  28.214  29.424  1.00  0.00     0.037 A 
ATOM     53  C   UNL A   1      40.137  32.102  35.099  1.00  0.00     0.037 A 
ATOM     54  C   UNL A   1      41.789  27.943  30.463  1.00  0.00     0.049 A 
ATOM     55  C   UNL A   1      41.024  30.898  35.103  1.00  0.00     0.074 A 
ATOM     56  C   UNL A   1      42.869  27.081  30.440  1.00  0.00     0.029 A 
ATOM     57  N   UNL A   1      41.753  28.506  31.731  1.00  0.00    -0.354 N 
ATOM     58  N   UNL A   1      41.317  30.103  34.106  1.00  0.00    -0.248 NA
ATOM     59  C   UNL A   1      41.715  30.578  36.358  1.00  0.00     0.031 C 
ATOM     60  C   UNL A   1      43.454  27.078  31.713  1.00  0.00     0.029 A 
ATOM     61  C   UNL A   1      42.761  27.970  32.515  1.00  0.00     0.049 A 
ATOM     62  H   UNL A   1      41.107  29.187  32.028  1.00  0.00     0.167 HD
ATOM     63  C   UNL A   1      42.292  29.242  34.585  1.00  0.00     0.074 A 
ATOM     64  C   UNL A   1      42.501  29.578  35.980  1.00  0.00     0.031 C 
ATOM     65  C   UNL A   1      42.981  28.299  33.901  1.00  0.00     0.037 A 
BRANCH  52  66
ATOM     66  C   UNL A   1      40.927  27.461  28.138  1.00  0.00     0.057 A 
ATOM     67  C   UNL A   1      40.266  26.239  27.961  1.00  0.00     0.134 A 
ATOM     68  C   UNL A   1      41.692  27.950  27.076  1.00  0.00     0.134 A 
ATOM     69  F   UNL A   1      39.535  25.710  28.954  1.00  0.00    -0.206 F 
ATOM     70  C   UNL A   1      40.384  25.514  26.775  1.00  0.00     0.040 A 
ATOM     71  C   UNL A   1      41.802  27.244  25.878  1.00  0.00     0.040 A 
ATOM     72  F   UNL A   1      42.353  29.112  27.189  1.00  0.00    -0.206 F 
ATOM     73  C   UNL A   1      41.153  26.019  25.729  1.00  0.00     0.006 A 
ENDBRANCH  52  66
BRANCH  53  74
ATOM     74  C   UNL A   1      39.833  32.819  36.360  1.00  0.00     0.057 A 
ATOM     75  C   UNL A   1      38.713  32.515  37.138  1.00  0.00     0.134 A 
ATOM     76  C   UNL A   1      40.663  33.861  36.795  1.00  0.00     0.134 A 
ATOM     77  F   UNL A   1      37.869  31.547  36.755  1.00  0.00    -0.206 F 
ATOM     78  C   UNL A   1      38.426  33.223  38.308  1.00  0.00     0.040 A 
ATOM     79  C   UNL A   1      40.398  34.564  37.970  1.00  0.00     0.040 A 
ATOM     80  F   UNL A   1      41.731  34.217  36.068  1.00  0.00    -0.206 F 
ATOM     81  C   UNL A   1      39.273  34.248  38.730  1.00  0.00     0.006 A 
ENDBRANCH  53  74
BRANCH  65  82
ATOM     82  C   UNL A   1      44.090  27.600  34.624  1.00  0.00     0.057 A 
ATOM     83  C   UNL A   1      43.903  26.368  35.258  1.00  0.00     0.134 A 
ATOM     84  C   UNL A   1      45.376  28.157  34.648  1.00  0.00     0.134 A 
ATOM     85  F   UNL A   1      42.691  25.795  35.290  1.00  0.00    -0.206 F 
ATOM     86  C   UNL A   1      44.959  25.712  35.894  1.00  0.00     0.040 A 
ATOM     87  C   UNL A   1      46.442  27.502  35.262  1.00  0.00     0.040 A 
ATOM     88  F   UNL A   1      45.617  29.339  34.061  1.00  0.00    -0.206 F 
ATOM     89  C   UNL A   1      46.235  26.275  35.889  1.00  0.00     0.006 A 
ENDBRANCH  65  82
ENDBRANCH  39  40
ENDBRANCH  32  34
ENDBRANCH  31  32
ENDBRANCH  30  31
ENDBRANCH   1  30
TORSDOF 16
ENDMDL
MODEL 3
REMARK VINA RESULT:     -12.6      5.239     10.192
REMARK SMILES O=C(C[C@H](NC(=O)[C@]12C[C@H]3C[C@H](C[C@H](C3)C1)C2)c1cccc([N+](=O)[O-])c1)OCCOC(=O)c1ccc(-c2c3nc(c(-c4c(F)cccc4F)c4ccc([nH]4)c(-c4c(F)cccc4F)c4nc(c(-c5c(F)cccc5F)c5ccc2[nH]5)C=C4)C=C3)cc1
REMARK SMILES IDX 28 1 27 2 2 3 1 4 3 5 4 6 18 7 19 8 26 9 20 10 22 11 21 12
REMARK SMILES IDX 23 13 24 14 25 15 5 16 6 17 7 19 8 20 9 21 16 22 17 23 10 24
REMARK SMILES IDX 14 25 12 26 11 27 15 28 13 29 29 30 30 31 31 32 32 33 33 34
REMARK SMILES IDX 34 35 86 36 35 37 85 38 36 39 37 40 38 41 79 42 39 43 84 44
REMARK SMILES IDX 78 45 80 46 40 47 83 48 77 49 76 50 41 52 67 53 50 54 66 55
REMARK SMILES IDX 51 56 54 57 65 58 81 59 52 60 53 61 64 63 82 64 55 65 42 66
REMARK SMILES IDX 43 67 48 68 44 69 45 70 47 71 49 72 46 73 68 74 69 75 74 76
REMARK SMILES IDX 70 77 71 78 73 79 75 80 72 81 56 82 57 83 62 84 58 85 59 86
REMARK SMILES IDX 61 87 63 88 60 89
REMARK H PARENT 5 18 80 51 54 62
REMARK Flexibility Score: inf
ROOT
ATOM      1  C   UNL A   1      37.475  20.903  24.711  1.00  0.00     0.274 C 
ENDROOT
BRANCH   1   2
ATOM      2  O   UNL A   1      36.145  20.597  25.170  1.00  0.00    -0.462 OA
BRANCH   2   3
ATOM      3  C   UNL A   1      35.410  21.514  25.835  1.00  0.00     0.308 C 
ATOM      4  O   UNL A   1      35.871  22.611  26.139  1.00  0.00    -0.252 OA
BRANCH   3   5
ATOM      5  C   UNL A   1      34.052  21.100  26.311  1.00  0.00     0.152 C 
BRANCH   5   6
ATOM      6  C   UNL A   1      32.872  21.522  25.437  1.00  0.00     0.123 C 
BRANCH   6   7
ATOM      7  C   UNL A   1      32.490  20.311  24.594  1.00  0.00    -0.018 A 
ATOM      8  C   UNL A   1      32.164  20.450  23.233  1.00  0.00     0.006 A 
ATOM      9  C   UNL A   1      32.668  19.023  25.135  1.00  0.00     0.091 A 
ATOM     10  C   UNL A   1      32.202  19.345  22.382  1.00  0.00     0.007 A 
ATOM     11  C   UNL A   1      32.815  17.945  24.256  1.00  0.00     0.269 A 
ATOM     12  C   UNL A   1      32.599  18.105  22.878  1.00  0.00     0.085 A 
BRANCH  11  13
ATOM     13  N   UNL A   1      33.357  16.681  24.771  1.00  0.00     0.062 N 
ATOM     14  O   UNL A   1      33.432  16.556  26.002  1.00  0.00    -0.258 OA
ATOM     15  O   UNL A   1      33.651  15.806  23.945  1.00  0.00    -0.258 OA
ENDBRANCH  11  13
ENDBRANCH   6   7
BRANCH   6  16
ATOM     16  N   UNL A   1      31.736  22.085  26.180  1.00  0.00    -0.348 N 
ATOM     17  C   UNL A   1      31.273  23.336  26.462  1.00  0.00     0.226 C 
ATOM     18  H   UNL A   1      31.167  21.384  26.572  1.00  0.00     0.164 HD
ATOM     19  O   UNL A   1      30.425  23.368  27.366  1.00  0.00    -0.274 OA
BRANCH  17  20
ATOM     20  C   UNL A   1      31.709  24.664  25.778  1.00  0.00     0.050 C 
ATOM     21  C   UNL A   1      33.186  24.972  26.168  1.00  0.00     0.020 C 
ATOM     22  C   UNL A   1      30.893  25.859  26.262  1.00  0.00     0.020 C 
ATOM     23  C   UNL A   1      31.635  24.615  24.236  1.00  0.00     0.020 C 
ATOM     24  C   UNL A   1      33.660  26.316  25.578  1.00  0.00    -0.010 C 
ATOM     25  C   UNL A   1      31.330  27.198  25.677  1.00  0.00    -0.010 C 
ATOM     26  C   UNL A   1      32.101  25.962  23.627  1.00  0.00    -0.010 C 
ATOM     27  C   UNL A   1      33.552  26.253  24.046  1.00  0.00     0.007 C 
ATOM     28  C   UNL A   1      32.772  27.454  26.101  1.00  0.00     0.007 C 
ATOM     29  C   UNL A   1      31.216  27.109  24.146  1.00  0.00     0.007 C 
ENDBRANCH  17  20
ENDBRANCH   6  16
ENDBRANCH   5   6
ENDBRANCH   3   5
ENDBRANCH   2   3
ENDBRANCH   1   2
BRANCH   1  30
ATOM     30  C   UNL A   1      38.443  19.763  25.029  1.00  0.00     0.275 C 
BRANCH  30  31
ATOM     31  O   UNL A   1      39.177  20.061  26.235  1.00  0.00    -0.458 OA
BRANCH  31  32
ATOM     32  C   UNL A   1      40.514  19.816  26.202  1.00  0.00     0.338 C 
ATOM     33  O   UNL A   1      41.059  18.834  25.747  1.00  0.00    -0.246 OA
BRANCH  32  34
ATOM     34  C   UNL A   1      41.245  21.043  26.623  1.00  0.00     0.060 A 
ATOM     35  C   UNL A   1      41.243  21.379  27.986  1.00  0.00     0.016 A 
ATOM     36  C   UNL A   1      41.942  21.842  25.714  1.00  0.00     0.016 A 
ATOM     37  C   UNL A   1      41.900  22.529  28.437  1.00  0.00     0.010 A 
ATOM     38  C   UNL A   1      42.598  22.993  26.166  1.00  0.00     0.010 A 
ATOM     39  C   UNL A   1      42.554  23.362  27.524  1.00  0.00    -0.014 A 
BRANCH  39  40
ATOM     40  C   UNL A   1      43.049  24.709  27.913  1.00  0.00     0.031 A 
ATOM     41  C   UNL A   1      42.051  25.786  28.202  1.00  0.00     0.074 A 
ATOM     42  C   UNL A   1      44.355  25.018  27.972  1.00  0.00     0.049 A 
ATOM     43  N   UNL A   1      42.262  27.055  28.433  1.00  0.00    -0.248 NA
ATOM     44  C   UNL A   1      40.644  25.372  28.294  1.00  0.00     0.031 C 
ATOM     45  C   UNL A   1      45.449  24.069  27.887  1.00  0.00     0.029 A 
ATOM     46  N   UNL A   1      44.983  26.240  28.043  1.00  0.00    -0.354 N 
ATOM     47  C   UNL A   1      41.028  27.577  28.775  1.00  0.00     0.074 A 
ATOM     48  C   UNL A   1      40.057  26.512  28.629  1.00  0.00     0.031 C 
ATOM     49  C   UNL A   1      46.599  24.744  27.713  1.00  0.00     0.029 A 
ATOM     50  C   UNL A   1      46.314  26.170  27.708  1.00  0.00     0.049 A 
ATOM     51  H   UNL A   1      44.528  27.073  28.305  1.00  0.00     0.167 HD
ATOM     52  C   UNL A   1      40.743  28.819  29.229  1.00  0.00     0.037 A 
ATOM     53  C   UNL A   1      47.193  27.138  27.389  1.00  0.00     0.037 A 
ATOM     54  C   UNL A   1      41.701  29.884  29.342  1.00  0.00     0.049 A 
ATOM     55  C   UNL A   1      46.807  28.567  27.599  1.00  0.00     0.074 A 
ATOM     56  C   UNL A   1      41.521  31.158  29.849  1.00  0.00     0.029 A 
ATOM     57  N   UNL A   1      43.015  29.810  28.904  1.00  0.00    -0.354 N 
ATOM     58  N   UNL A   1      45.660  29.047  28.010  1.00  0.00    -0.248 NA
ATOM     59  C   UNL A   1      47.846  29.581  27.381  1.00  0.00     0.031 C 
ATOM     60  C   UNL A   1      42.710  31.874  29.664  1.00  0.00     0.029 A 
ATOM     61  C   UNL A   1      43.642  31.033  29.080  1.00  0.00     0.049 A 
ATOM     62  H   UNL A   1      43.439  29.007  28.524  1.00  0.00     0.167 HD
ATOM     63  C   UNL A   1      45.862  30.407  28.185  1.00  0.00     0.074 A 
ATOM     64  C   UNL A   1      47.227  30.684  27.783  1.00  0.00     0.031 C 
ATOM     65  C   UNL A   1      44.999  31.320  28.688  1.00  0.00     0.037 A 
BRANCH  52  66
ATOM     66  C   UNL A   1      39.330  29.065  29.647  1.00  0.00     0.057 A 
ATOM     67  C   UNL A   1      38.906  28.816  30.959  1.00  0.00     0.134 A 
ATOM     68  C   UNL A   1      38.385  29.538  28.733  1.00  0.00     0.134 A 
ATOM     69  F   UNL A   1      39.765  28.340  31.874  1.00  0.00    -0.206 F 
ATOM     70  C   UNL A   1      37.579  29.007  31.342  1.00  0.00     0.040 A 
ATOM     71  C   UNL A   1      37.059  29.751  29.109  1.00  0.00     0.040 A 
ATOM     72  F   UNL A   1      38.731  29.789  27.462  1.00  0.00    -0.206 F 
ATOM     73  C   UNL A   1      36.652  29.479  30.415  1.00  0.00     0.006 A 
ENDBRANCH  52  66
BRANCH  53  74
ATOM     74  C   UNL A   1      48.510  26.789  26.808  1.00  0.00     0.057 A 
ATOM     75  C   UNL A   1      49.630  26.532  27.602  1.00  0.00     0.134 A 
ATOM     76  C   UNL A   1      48.673  26.737  25.417  1.00  0.00     0.134 A 
ATOM     77  F   UNL A   1      49.538  26.596  28.937  1.00  0.00    -0.206 F 
ATOM     78  C   UNL A   1      50.872  26.235  27.034  1.00  0.00     0.040 A 
ATOM     79  C   UNL A   1      49.903  26.424  24.837  1.00  0.00     0.040 A 
ATOM     80  F   UNL A   1      47.640  27.010  24.608  1.00  0.00    -0.206 F 
ATOM     81  C   UNL A   1      51.010  26.176  25.647  1.00  0.00     0.006 A 
ENDBRANCH  53  74
BRANCH  65  82
ATOM     82  C   UNL A   1      45.518  32.706  28.908  1.00  0.00     0.057 A 
ATOM     83  C   UNL A   1      46.172  33.077  30.087  1.00  0.00     0.134 A 
ATOM     84  C   UNL A   1      45.395  33.672  27.900  1.00  0.00     0.134 A 
ATOM     85  F   UNL A   1      46.300  32.205  31.098  1.00  0.00    -0.206 F 
ATOM     86  C   UNL A   1      46.684  34.364  30.259  1.00  0.00     0.040 A 
ATOM     87  C   UNL A   1      45.920  34.954  28.051  1.00  0.00     0.040 A 
ATOM     88  F   UNL A   1      44.775  33.378  26.747  1.00  0.00    -0.206 F 
ATOM     89  C   UNL A   1      46.567  35.304  29.234  1.00  0.00     0.006 A 
ENDBRANCH  65  82
ENDBRANCH  39  40
ENDBRANCH  32  34
ENDBRANCH  31  32
ENDBRANCH  30  31
ENDBRANCH   1  30
TORSDOF 16
ENDMDL
