MODEL 1
REMARK VINA RESULT:     -12.2      0.000      0.000
REMARK SMILES CC(C)N1C[C@@]2(CCCN(c3ccc(C(=O)OCCOC(=O)c4ccc(-c5c6nc(c(-c7c(F)cccc7F)c7ccc([nH]7)c(-c7c(F)cccc7F)c7nc(c(-c8c(F)cccc8F)c8ccc5[nH]8)C=C7)C=C6)cc4)cn3)C2)CCC1=O
REMARK SMILES IDX 18 1 17 2 15 3 16 4 14 5 11 6 12 7 78 8 13 9 77 10 10 11
REMARK SMILES IDX 4 12 5 13 82 14 6 15 81 16 83 17 7 18 79 19 80 20 8 21 9 22
REMARK SMILES IDX 2 23 1 24 3 25 19 26 20 27 21 28 22 29 23 30 24 31 76 32
REMARK SMILES IDX 25 33 75 34 26 35 27 36 28 37 69 38 29 39 74 40 68 41 70 42
REMARK SMILES IDX 30 43 73 44 67 45 66 46 31 48 57 49 40 50 56 51 41 52 44 53
REMARK SMILES IDX 55 54 71 55 42 56 43 57 54 59 72 60 45 61 32 62 33 63 38 64
REMARK SMILES IDX 34 65 35 66 37 67 39 68 36 69 58 70 59 71 64 72 60 73 61 74
REMARK SMILES IDX 63 75 65 76 62 77 46 78 47 79 52 80 48 81 49 82 51 83 53 84
REMARK SMILES IDX 50 85
REMARK H PARENT 70 47 44 58
REMARK Flexibility Score: inf
ROOT
ATOM      1  C   UNL A   1      40.199  21.582  26.383  1.00  0.00     0.275 C 
ENDROOT
BRANCH   1   2
ATOM      2  O   UNL A   1      39.089  22.246  25.749  1.00  0.00    -0.458 OA
BRANCH   2   3
ATOM      3  C   UNL A   1      38.045  21.451  25.437  1.00  0.00     0.339 C 
ATOM      4  O   UNL A   1      38.081  20.324  24.965  1.00  0.00    -0.246 OA
BRANCH   3   5
ATOM      5  C   UNL A   1      36.788  22.142  25.703  1.00  0.00     0.078 A 
ATOM      6  C   UNL A   1      34.337  23.387  26.031  1.00  0.00     0.128 A 
ATOM      7  C   UNL A   1      35.464  24.131  25.668  1.00  0.00     0.048 A 
ATOM      8  N   UNL A   1      34.428  22.049  26.172  1.00  0.00    -0.238 NA
ATOM      9  C   UNL A   1      36.706  23.512  25.526  1.00  0.00     0.021 A 
ATOM     10  C   UNL A   1      35.633  21.454  26.011  1.00  0.00     0.129 A 
BRANCH   6  11
ATOM     11  N   UNL A   1      33.141  23.979  26.392  1.00  0.00    -0.356 N 
ATOM     12  N   UNL A   1      31.761  25.922  22.586  1.00  0.00    -0.340 N 
ATOM     13  C   UNL A   1      30.923  25.175  23.525  1.00  0.00     0.128 C 
ATOM     14  C   UNL A   1      32.783  25.290  21.883  1.00  0.00     0.222 C 
ATOM     15  C   UNL A   1      31.680  24.168  24.408  1.00  0.00     0.006 C 
ATOM     16  C   UNL A   1      33.407  24.083  22.551  1.00  0.00     0.101 C 
ATOM     17  O   UNL A   1      33.278  25.714  20.841  1.00  0.00    -0.275 OA
ATOM     18  C   UNL A   1      30.631  23.329  25.202  1.00  0.00     0.012 C 
ATOM     19  C   UNL A   1      32.581  24.930  25.425  1.00  0.00     0.127 C 
ATOM     20  C   UNL A   1      32.454  23.275  23.415  1.00  0.00     0.020 C 
ATOM     21  C   UNL A   1      31.190  22.525  26.386  1.00  0.00     0.022 C 
ATOM     22  C   UNL A   1      32.161  23.332  27.246  1.00  0.00     0.118 C 
BRANCH  12  23
ATOM     23  C   UNL A   1      31.404  27.340  22.377  1.00  0.00     0.078 C 
ATOM     24  C   UNL A   1      30.028  27.606  22.995  1.00  0.00     0.031 C 
ATOM     25  C   UNL A   1      32.399  28.391  22.873  1.00  0.00     0.031 C 
ENDBRANCH  12  23
ENDBRANCH   6  11
ENDBRANCH   3   5
ENDBRANCH   2   3
ENDBRANCH   1   2
BRANCH   1  26
ATOM     26  C   UNL A   1      41.522  22.306  26.126  1.00  0.00     0.275 C 
BRANCH  26  27
ATOM     27  O   UNL A   1      41.725  23.389  27.055  1.00  0.00    -0.458 OA
BRANCH  27  28
ATOM     28  C   UNL A   1      41.859  24.601  26.472  1.00  0.00     0.338 C 
ATOM     29  O   UNL A   1      42.279  24.842  25.354  1.00  0.00    -0.246 OA
BRANCH  28  30
ATOM     30  C   UNL A   1      41.300  25.662  27.319  1.00  0.00     0.060 A 
ATOM     31  C   UNL A   1      42.036  26.836  27.441  1.00  0.00     0.016 A 
ATOM     32  C   UNL A   1      40.236  25.408  28.180  1.00  0.00     0.016 A 
ATOM     33  C   UNL A   1      41.819  27.688  28.511  1.00  0.00     0.010 A 
ATOM     34  C   UNL A   1      39.928  26.344  29.177  1.00  0.00     0.010 A 
ATOM     35  C   UNL A   1      40.747  27.471  29.383  1.00  0.00    -0.014 A 
BRANCH  35  36
ATOM     36  C   UNL A   1      40.521  28.413  30.514  1.00  0.00     0.031 A 
ATOM     37  C   UNL A   1      39.437  29.454  30.432  1.00  0.00     0.074 A 
ATOM     38  C   UNL A   1      41.266  28.311  31.635  1.00  0.00     0.049 A 
ATOM     39  N   UNL A   1      39.208  30.475  31.219  1.00  0.00    -0.248 NA
ATOM     40  C   UNL A   1      38.495  29.343  29.307  1.00  0.00     0.031 C 
ATOM     41  C   UNL A   1      42.306  27.308  31.877  1.00  0.00     0.029 A 
ATOM     42  N   UNL A   1      41.256  29.056  32.788  1.00  0.00    -0.354 N 
ATOM     43  C   UNL A   1      38.141  31.161  30.651  1.00  0.00     0.074 A 
ATOM     44  C   UNL A   1      37.770  30.444  29.450  1.00  0.00     0.031 C 
ATOM     45  C   UNL A   1      42.797  27.467  33.113  1.00  0.00     0.029 A 
ATOM     46  C   UNL A   1      42.195  28.652  33.707  1.00  0.00     0.049 A 
ATOM     47  H   UNL A   1      40.636  29.805  32.942  1.00  0.00     0.167 HD
ATOM     48  C   UNL A   1      37.532  32.287  31.095  1.00  0.00     0.037 A 
ATOM     49  C   UNL A   1      42.575  29.205  34.873  1.00  0.00     0.037 A 
ATOM     50  C   UNL A   1      37.875  32.958  32.323  1.00  0.00     0.049 A 
ATOM     51  C   UNL A   1      41.921  30.478  35.318  1.00  0.00     0.074 A 
ATOM     52  C   UNL A   1      37.314  34.099  32.870  1.00  0.00     0.029 A 
ATOM     53  N   UNL A   1      38.859  32.535  33.206  1.00  0.00    -0.354 N 
ATOM     54  N   UNL A   1      40.959  31.158  34.740  1.00  0.00    -0.248 NA
ATOM     55  C   UNL A   1      42.416  31.074  36.565  1.00  0.00     0.031 C 
ATOM     56  C   UNL A   1      37.989  34.392  34.059  1.00  0.00     0.029 A 
ATOM     57  C   UNL A   1      38.933  33.402  34.284  1.00  0.00     0.049 A 
ATOM     58  H   UNL A   1      39.422  31.737  33.084  1.00  0.00     0.167 HD
ATOM     59  C   UNL A   1      40.719  32.249  35.563  1.00  0.00     0.074 A 
ATOM     60  C   UNL A   1      41.624  32.129  36.689  1.00  0.00     0.031 C 
ATOM     61  C   UNL A   1      39.833  33.261  35.400  1.00  0.00     0.037 A 
BRANCH  48  62
ATOM     62  C   UNL A   1      36.465  32.891  30.226  1.00  0.00     0.057 A 
ATOM     63  C   UNL A   1      36.760  33.653  29.089  1.00  0.00     0.134 A 
ATOM     64  C   UNL A   1      35.110  32.679  30.523  1.00  0.00     0.134 A 
ATOM     65  F   UNL A   1      38.033  33.904  28.752  1.00  0.00    -0.206 F 
ATOM     66  C   UNL A   1      35.751  34.205  28.295  1.00  0.00     0.040 A 
ATOM     67  C   UNL A   1      34.093  33.201  29.722  1.00  0.00     0.040 A 
ATOM     68  F   UNL A   1      34.752  31.953  31.593  1.00  0.00    -0.206 F 
ATOM     69  C   UNL A   1      34.412  33.973  28.608  1.00  0.00     0.006 A 
ENDBRANCH  48  62
BRANCH  49  70
ATOM     70  C   UNL A   1      43.668  28.585  35.667  1.00  0.00     0.057 A 
ATOM     71  C   UNL A   1      43.403  27.598  36.621  1.00  0.00     0.134 A 
ATOM     72  C   UNL A   1      45.007  28.963  35.487  1.00  0.00     0.134 A 
ATOM     73  F   UNL A   1      42.141  27.209  36.857  1.00  0.00    -0.206 F 
ATOM     74  C   UNL A   1      44.424  27.017  37.377  1.00  0.00     0.040 A 
ATOM     75  C   UNL A   1      46.040  28.367  36.210  1.00  0.00     0.040 A 
ATOM     76  F   UNL A   1      45.331  29.902  34.585  1.00  0.00    -0.206 F 
ATOM     77  C   UNL A   1      45.748  27.397  37.165  1.00  0.00     0.006 A 
ENDBRANCH  49  70
BRANCH  61  78
ATOM     78  C   UNL A   1      39.768  34.288  36.492  1.00  0.00     0.057 A 
ATOM     79  C   UNL A   1      40.445  35.510  36.403  1.00  0.00     0.134 A 
ATOM     80  C   UNL A   1      38.999  34.054  37.639  1.00  0.00     0.134 A 
ATOM     81  F   UNL A   1      41.212  35.788  35.338  1.00  0.00    -0.206 F 
ATOM     82  C   UNL A   1      40.382  36.453  37.430  1.00  0.00     0.040 A 
ATOM     83  C   UNL A   1      38.904  35.002  38.659  1.00  0.00     0.040 A 
ATOM     84  F   UNL A   1      38.320  32.906  37.783  1.00  0.00    -0.206 F 
ATOM     85  C   UNL A   1      39.603  36.202  38.559  1.00  0.00     0.006 A 
ENDBRANCH  61  78
ENDBRANCH  35  36
ENDBRANCH  28  30
ENDBRANCH  27  28
ENDBRANCH  26  27
ENDBRANCH   1  26
TORSDOF 13
ENDMDL
MODEL 2
REMARK VINA RESULT:     -12.2      5.242      9.705
REMARK SMILES CC(C)N1C[C@@]2(CCCN(c3ccc(C(=O)OCCOC(=O)c4ccc(-c5c6nc(c(-c7c(F)cccc7F)c7ccc([nH]7)c(-c7c(F)cccc7F)c7nc(c(-c8c(F)cccc8F)c8ccc5[nH]8)C=C7)C=C6)cc4)cn3)C2)CCC1=O
REMARK SMILES IDX 18 1 17 2 15 3 16 4 14 5 11 6 12 7 78 8 13 9 77 10 10 11
REMARK SMILES IDX 4 12 5 13 82 14 6 15 81 16 83 17 7 18 79 19 80 20 8 21 9 22
REMARK SMILES IDX 2 23 1 24 3 25 19 26 20 27 21 28 22 29 23 30 24 31 76 32
REMARK SMILES IDX 25 33 75 34 26 35 27 36 28 37 69 38 29 39 74 40 68 41 70 42
REMARK SMILES IDX 30 43 73 44 67 45 66 46 31 48 57 49 40 50 56 51 41 52 44 53
REMARK SMILES IDX 55 54 71 55 42 56 43 57 54 59 72 60 45 61 32 62 33 63 38 64
REMARK SMILES IDX 34 65 35 66 37 67 39 68 36 69 58 70 59 71 64 72 60 73 61 74
REMARK SMILES IDX 63 75 65 76 62 77 46 78 47 79 52 80 48 81 49 82 51 83 53 84
REMARK SMILES IDX 50 85
REMARK H PARENT 70 47 44 58
REMARK Flexibility Score: inf
ROOT
ATOM      1  C   UNL A   1      34.054  33.843  29.499  1.00  0.00     0.275 C 
ENDROOT
BRANCH   1   2
ATOM      2  O   UNL A   1      33.639  32.586  28.933  1.00  0.00    -0.458 OA
BRANCH   2   3
ATOM      3  C   UNL A   1      34.373  32.156  27.885  1.00  0.00     0.339 C 
ATOM      4  O   UNL A   1      35.260  32.760  27.299  1.00  0.00    -0.246 OA
BRANCH   3   5
ATOM      5  C   UNL A   1      33.936  30.826  27.475  1.00  0.00     0.078 A 
ATOM      6  C   UNL A   1      33.055  28.268  26.886  1.00  0.00     0.128 A 
ATOM      7  C   UNL A   1      34.423  28.537  26.991  1.00  0.00     0.048 A 
ATOM      8  N   UNL A   1      32.155  29.244  27.123  1.00  0.00    -0.238 NA
ATOM      9  C   UNL A   1      34.872  29.830  27.263  1.00  0.00     0.021 A 
ATOM     10  C   UNL A   1      32.599  30.490  27.408  1.00  0.00     0.129 A 
BRANCH   6  11
ATOM     11  N   UNL A   1      32.570  27.065  26.410  1.00  0.00    -0.356 N 
ATOM     12  N   UNL A   1      29.670  28.311  23.217  1.00  0.00    -0.340 N 
ATOM     13  C   UNL A   1      30.631  27.211  23.125  1.00  0.00     0.128 C 
ATOM     14  C   UNL A   1      30.101  29.630  23.327  1.00  0.00     0.222 C 
ATOM     15  C   UNL A   1      31.845  27.334  24.063  1.00  0.00     0.006 C 
ATOM     16  C   UNL A   1      31.449  29.839  23.985  1.00  0.00     0.101 C 
ATOM     17  O   UNL A   1      29.420  30.613  23.044  1.00  0.00    -0.275 OA
ATOM     18  C   UNL A   1      32.855  26.200  23.707  1.00  0.00     0.012 C 
ATOM     19  C   UNL A   1      31.390  27.150  25.542  1.00  0.00     0.127 C 
ATOM     20  C   UNL A   1      32.448  28.719  23.750  1.00  0.00     0.020 C 
ATOM     21  C   UNL A   1      33.950  25.940  24.752  1.00  0.00     0.022 C 
ATOM     22  C   UNL A   1      33.411  25.904  26.181  1.00  0.00     0.118 C 
BRANCH  12  23
ATOM     23  C   UNL A   1      28.244  27.943  23.101  1.00  0.00     0.078 C 
ATOM     24  C   UNL A   1      27.984  26.679  23.928  1.00  0.00     0.031 C 
ATOM     25  C   UNL A   1      27.215  29.014  23.467  1.00  0.00     0.031 C 
ENDBRANCH  12  23
ENDBRANCH   6  11
ENDBRANCH   3   5
ENDBRANCH   2   3
ENDBRANCH   1   2
BRANCH   1  26
ATOM     26  C   UNL A   1      34.385  33.720  30.988  1.00  0.00     0.275 C 
BRANCH  26  27
ATOM     27  O   UNL A   1      34.505  32.343  31.394  1.00  0.00    -0.458 OA
BRANCH  27  28
ATOM     28  C   UNL A   1      35.570  32.090  32.186  1.00  0.00     0.338 C 
ATOM     29  O   UNL A   1      35.703  32.378  33.362  1.00  0.00    -0.246 OA
BRANCH  28  30
ATOM     30  C   UNL A   1      36.569  31.271  31.487  1.00  0.00     0.060 A 
ATOM     31  C   UNL A   1      37.494  30.587  32.269  1.00  0.00     0.016 A 
ATOM     32  C   UNL A   1      36.763  31.391  30.114  1.00  0.00     0.016 A 
ATOM     33  C   UNL A   1      38.690  30.156  31.718  1.00  0.00     0.010 A 
ATOM     34  C   UNL A   1      37.908  30.828  29.535  1.00  0.00     0.010 A 
ATOM     35  C   UNL A   1      38.908  30.245  30.339  1.00  0.00    -0.014 A 
BRANCH  35  36
ATOM     36  C   UNL A   1      40.192  29.755  29.768  1.00  0.00     0.031 A 
ATOM     37  C   UNL A   1      41.380  30.676  29.669  1.00  0.00     0.074 A 
ATOM     38  C   UNL A   1      40.308  28.471  29.370  1.00  0.00     0.049 A 
ATOM     39  N   UNL A   1      42.513  30.500  29.037  1.00  0.00    -0.248 NA
ATOM     40  C   UNL A   1      41.273  31.973  30.356  1.00  0.00     0.031 C 
ATOM     41  C   UNL A   1      39.259  27.452  29.469  1.00  0.00     0.029 A 
ATOM     42  N   UNL A   1      41.366  27.798  28.810  1.00  0.00    -0.354 N 
ATOM     43  C   UNL A   1      43.225  31.683  29.197  1.00  0.00     0.074 A 
ATOM     44  C   UNL A   1      42.394  32.572  29.980  1.00  0.00     0.031 C 
ATOM     45  C   UNL A   1      39.739  26.279  29.035  1.00  0.00     0.029 A 
ATOM     46  C   UNL A   1      41.084  26.485  28.518  1.00  0.00     0.049 A 
ATOM     47  H   UNL A   1      42.240  28.215  28.636  1.00  0.00     0.167 HD
ATOM     48  C   UNL A   1      44.458  31.994  28.728  1.00  0.00     0.037 A 
ATOM     49  C   UNL A   1      41.801  25.560  27.854  1.00  0.00     0.037 A 
ATOM     50  C   UNL A   1      45.297  31.078  27.998  1.00  0.00     0.049 A 
ATOM     51  C   UNL A   1      43.142  25.944  27.302  1.00  0.00     0.074 A 
ATOM     52  C   UNL A   1      46.566  31.288  27.488  1.00  0.00     0.029 A 
ATOM     53  N   UNL A   1      44.956  29.768  27.692  1.00  0.00    -0.354 N 
ATOM     54  N   UNL A   1      43.778  27.087  27.399  1.00  0.00    -0.248 NA
ATOM     55  C   UNL A   1      43.856  24.919  26.531  1.00  0.00     0.031 C 
ATOM     56  C   UNL A   1      46.974  30.122  26.833  1.00  0.00     0.029 A 
ATOM     57  C   UNL A   1      45.983  29.164  26.984  1.00  0.00     0.049 A 
ATOM     58  H   UNL A   1      44.109  29.332  27.940  1.00  0.00     0.167 HD
ATOM     59  C   UNL A   1      44.976  26.912  26.721  1.00  0.00     0.074 A 
ATOM     60  C   UNL A   1      44.984  25.546  26.234  1.00  0.00     0.031 C 
ATOM     61  C   UNL A   1      45.977  27.801  26.516  1.00  0.00     0.037 A 
BRANCH  48  62
ATOM     62  C   UNL A   1      44.955  33.395  28.950  1.00  0.00     0.057 A 
ATOM     63  C   UNL A   1      45.764  33.743  30.039  1.00  0.00     0.134 A 
ATOM     64  C   UNL A   1      44.639  34.409  28.035  1.00  0.00     0.134 A 
ATOM     65  F   UNL A   1      46.097  32.825  30.959  1.00  0.00    -0.206 F 
ATOM     66  C   UNL A   1      46.216  35.052  30.226  1.00  0.00     0.040 A 
ATOM     67  C   UNL A   1      45.107  35.714  28.195  1.00  0.00     0.040 A 
ATOM     68  F   UNL A   1      43.874  34.147  26.964  1.00  0.00    -0.206 F 
ATOM     69  C   UNL A   1      45.893  36.041  29.298  1.00  0.00     0.006 A 
ENDBRANCH  48  62
BRANCH  49  70
ATOM     70  C   UNL A   1      41.237  24.205  27.627  1.00  0.00     0.057 A 
ATOM     71  C   UNL A   1      40.235  23.986  26.677  1.00  0.00     0.134 A 
ATOM     72  C   UNL A   1      41.689  23.093  28.354  1.00  0.00     0.134 A 
ATOM     73  F   UNL A   1      39.744  25.011  25.965  1.00  0.00    -0.206 F 
ATOM     74  C   UNL A   1      39.693  22.716  26.464  1.00  0.00     0.040 A 
ATOM     75  C   UNL A   1      41.181  21.814  28.127  1.00  0.00     0.040 A 
ATOM     76  F   UNL A   1      42.650  23.233  29.278  1.00  0.00    -0.206 F 
ATOM     77  C   UNL A   1      40.173  21.625  27.185  1.00  0.00     0.006 A 
ENDBRANCH  49  70
BRANCH  61  78
ATOM     78  C   UNL A   1      47.184  27.306  25.776  1.00  0.00     0.057 A 
ATOM     79  C   UNL A   1      47.340  27.497  24.398  1.00  0.00     0.134 A 
ATOM     80  C   UNL A   1      48.212  26.645  26.460  1.00  0.00     0.134 A 
ATOM     81  F   UNL A   1      46.383  28.107  23.682  1.00  0.00    -0.206 F 
ATOM     82  C   UNL A   1      48.465  27.023  23.720  1.00  0.00     0.040 A 
ATOM     83  C   UNL A   1      49.356  26.194  25.799  1.00  0.00     0.040 A 
ATOM     84  F   UNL A   1      48.128  26.436  27.782  1.00  0.00    -0.206 F 
ATOM     85  C   UNL A   1      49.480  26.376  24.424  1.00  0.00     0.006 A 
ENDBRANCH  61  78
ENDBRANCH  35  36
ENDBRANCH  28  30
ENDBRANCH  27  28
ENDBRANCH  26  27
ENDBRANCH   1  26
TORSDOF 13
ENDMDL
MODEL 3
REMARK VINA RESULT:     -12.1      0.972      6.197
REMARK SMILES CC(C)N1C[C@@]2(CCCN(c3ccc(C(=O)OCCOC(=O)c4ccc(-c5c6nc(c(-c7c(F)cccc7F)c7ccc([nH]7)c(-c7c(F)cccc7F)c7nc(c(-c8c(F)cccc8F)c8ccc5[nH]8)C=C7)C=C6)cc4)cn3)C2)CCC1=O
REMARK SMILES IDX 18 1 17 2 15 3 16 4 14 5 11 6 12 7 78 8 13 9 77 10 10 11
REMARK SMILES IDX 4 12 5 13 82 14 6 15 81 16 83 17 7 18 79 19 80 20 8 21 9 22
REMARK SMILES IDX 2 23 1 24 3 25 19 26 20 27 21 28 22 29 23 30 24 31 76 32
REMARK SMILES IDX 25 33 75 34 26 35 27 36 28 37 69 38 29 39 74 40 68 41 70 42
REMARK SMILES IDX 30 43 73 44 67 45 66 46 31 48 57 49 40 50 56 51 41 52 44 53
REMARK SMILES IDX 55 54 71 55 42 56 43 57 54 59 72 60 45 61 32 62 33 63 38 64
REMARK SMILES IDX 34 65 35 66 37 67 39 68 36 69 58 70 59 71 64 72 60 73 61 74
REMARK SMILES IDX 63 75 65 76 62 77 46 78 47 79 52 80 48 81 49 82 51 83 53 84
REMARK SMILES IDX 50 85
REMARK H PARENT 70 47 44 58
REMARK Flexibility Score: inf
ROOT
ATOM      1  C   UNL A   1      40.024  21.460  26.638  1.00  0.00     0.275 C 
ENDROOT
BRANCH   1   2
ATOM      2  O   UNL A   1      39.089  22.117  25.761  1.00  0.00    -0.458 OA
BRANCH   2   3
ATOM      3  C   UNL A   1      38.029  21.369  25.387  1.00  0.00     0.339 C 
ATOM      4  O   UNL A   1      38.043  20.267  24.858  1.00  0.00    -0.246 OA
BRANCH   3   5
ATOM      5  C   UNL A   1      36.786  22.083  25.662  1.00  0.00     0.078 A 
ATOM      6  C   UNL A   1      34.356  23.362  26.016  1.00  0.00     0.128 A 
ATOM      7  C   UNL A   1      35.474  24.077  25.575  1.00  0.00     0.048 A 
ATOM      8  N   UNL A   1      34.445  22.032  26.221  1.00  0.00    -0.238 NA
ATOM      9  C   UNL A   1      36.706  23.442  25.420  1.00  0.00     0.021 A 
ATOM     10  C   UNL A   1      35.639  21.420  26.047  1.00  0.00     0.129 A 
BRANCH   6  11
ATOM     11  N   UNL A   1      33.178  23.981  26.389  1.00  0.00    -0.356 N 
ATOM     12  N   UNL A   1      31.798  25.946  22.596  1.00  0.00    -0.340 N 
ATOM     13  C   UNL A   1      30.954  25.220  23.546  1.00  0.00     0.128 C 
ATOM     14  C   UNL A   1      32.797  25.291  21.882  1.00  0.00     0.222 C 
ATOM     15  C   UNL A   1      31.699  24.198  24.422  1.00  0.00     0.006 C 
ATOM     16  C   UNL A   1      33.402  24.072  22.545  1.00  0.00     0.101 C 
ATOM     17  O   UNL A   1      33.289  25.703  20.833  1.00  0.00    -0.275 OA
ATOM     18  C   UNL A   1      30.641  23.384  25.229  1.00  0.00     0.012 C 
ATOM     19  C   UNL A   1      32.628  24.942  25.426  1.00  0.00     0.127 C 
ATOM     20  C   UNL A   1      32.441  23.287  23.422  1.00  0.00     0.020 C 
ATOM     21  C   UNL A   1      31.196  22.570  26.409  1.00  0.00     0.022 C 
ATOM     22  C   UNL A   1      32.195  23.357  27.255  1.00  0.00     0.118 C 
BRANCH  12  23
ATOM     23  C   UNL A   1      31.469  27.372  22.387  1.00  0.00     0.078 C 
ATOM     24  C   UNL A   1      30.089  27.661  22.988  1.00  0.00     0.031 C 
ATOM     25  C   UNL A   1      32.477  28.402  22.901  1.00  0.00     0.031 C 
ENDBRANCH  12  23
ENDBRANCH   6  11
ENDBRANCH   3   5
ENDBRANCH   2   3
ENDBRANCH   1   2
BRANCH   1  26
ATOM     26  C   UNL A   1      41.437  21.437  26.053  1.00  0.00     0.275 C 
BRANCH  26  27
ATOM     27  O   UNL A   1      42.311  22.355  26.738  1.00  0.00    -0.458 OA
BRANCH  27  28
ATOM     28  C   UNL A   1      42.532  23.511  26.073  1.00  0.00     0.338 C 
ATOM     29  O   UNL A   1      43.019  23.645  24.964  1.00  0.00    -0.246 OA
BRANCH  28  30
ATOM     30  C   UNL A   1      41.980  24.658  26.804  1.00  0.00     0.060 A 
ATOM     31  C   UNL A   1      42.704  25.845  26.770  1.00  0.00     0.016 A 
ATOM     32  C   UNL A   1      40.940  24.496  27.715  1.00  0.00     0.016 A 
ATOM     33  C   UNL A   1      42.502  26.814  27.738  1.00  0.00     0.010 A 
ATOM     34  C   UNL A   1      40.645  25.539  28.604  1.00  0.00     0.010 A 
ATOM     35  C   UNL A   1      41.453  26.691  28.656  1.00  0.00    -0.014 A 
BRANCH  35  36
ATOM     36  C   UNL A   1      41.244  27.755  29.676  1.00  0.00     0.031 A 
ATOM     37  C   UNL A   1      42.122  27.822  30.897  1.00  0.00     0.074 A 
ATOM     38  C   UNL A   1      40.287  28.689  29.489  1.00  0.00     0.049 A 
ATOM     39  N   UNL A   1      41.981  28.545  31.979  1.00  0.00    -0.248 NA
ATOM     40  C   UNL A   1      43.304  26.947  30.913  1.00  0.00     0.031 C 
ATOM     41  C   UNL A   1      39.408  28.785  28.321  1.00  0.00     0.029 A 
ATOM     42  N   UNL A   1      39.900  29.745  30.277  1.00  0.00    -0.354 N 
ATOM     43  C   UNL A   1      43.016  28.168  32.826  1.00  0.00     0.074 A 
ATOM     44  C   UNL A   1      43.774  27.147  32.136  1.00  0.00     0.031 C 
ATOM     45  C   UNL A   1      38.622  29.863  28.444  1.00  0.00     0.029 A 
ATOM     46  C   UNL A   1      38.857  30.467  29.748  1.00  0.00     0.049 A 
ATOM     47  H   UNL A   1      40.328  29.965  31.135  1.00  0.00     0.167 HD
ATOM     48  C   UNL A   1      43.302  28.633  34.067  1.00  0.00     0.037 A 
ATOM     49  C   UNL A   1      38.126  31.467  30.273  1.00  0.00     0.037 A 
ATOM     50  C   UNL A   1      42.572  29.691  34.718  1.00  0.00     0.049 A 
ATOM     51  C   UNL A   1      38.429  31.929  31.667  1.00  0.00     0.074 A 
ATOM     52  C   UNL A   1      42.785  30.244  35.969  1.00  0.00     0.029 A 
ATOM     53  N   UNL A   1      41.498  30.369  34.160  1.00  0.00    -0.354 N 
ATOM     54  N   UNL A   1      39.367  31.520  32.487  1.00  0.00    -0.248 NA
ATOM     55  C   UNL A   1      37.562  32.978  32.217  1.00  0.00     0.031 C 
ATOM     56  C   UNL A   1      41.811  31.224  36.186  1.00  0.00     0.029 A 
ATOM     57  C   UNL A   1      41.026  31.323  35.048  1.00  0.00     0.049 A 
ATOM     58  H   UNL A   1      41.125  30.197  33.265  1.00  0.00     0.167 HD
ATOM     59  C   UNL A   1      39.217  32.274  33.641  1.00  0.00     0.074 A 
ATOM     60  C   UNL A   1      38.109  33.179  33.407  1.00  0.00     0.031 C 
ATOM     61  C   UNL A   1      39.929  32.221  34.793  1.00  0.00     0.037 A 
BRANCH  48  62
ATOM     62  C   UNL A   1      44.422  27.971  34.819  1.00  0.00     0.057 A 
ATOM     63  C   UNL A   1      45.736  28.456  34.795  1.00  0.00     0.134 A 
ATOM     64  C   UNL A   1      44.170  26.839  35.607  1.00  0.00     0.134 A 
ATOM     65  F   UNL A   1      46.050  29.529  34.054  1.00  0.00    -0.206 F 
ATOM     66  C   UNL A   1      46.762  27.825  35.502  1.00  0.00     0.040 A 
ATOM     67  C   UNL A   1      45.181  26.215  36.341  1.00  0.00     0.040 A 
ATOM     68  F   UNL A   1      42.934  26.323  35.683  1.00  0.00    -0.206 F 
ATOM     69  C   UNL A   1      46.484  26.704  36.285  1.00  0.00     0.006 A 
ENDBRANCH  48  62
BRANCH  49  70
ATOM     70  C   UNL A   1      37.001  32.051  29.497  1.00  0.00     0.057 A 
ATOM     71  C   UNL A   1      35.756  31.419  29.437  1.00  0.00     0.134 A 
ATOM     72  C   UNL A   1      37.144  33.260  28.800  1.00  0.00     0.134 A 
ATOM     73  F   UNL A   1      35.561  30.249  30.062  1.00  0.00    -0.206 F 
ATOM     74  C   UNL A   1      34.696  31.958  28.702  1.00  0.00     0.040 A 
ATOM     75  C   UNL A   1      36.085  33.827  28.092  1.00  0.00     0.040 A 
ATOM     76  F   UNL A   1      38.312  33.920  28.820  1.00  0.00    -0.206 F 
ATOM     77  C   UNL A   1      34.859  33.170  28.034  1.00  0.00     0.006 A 
ENDBRANCH  49  70
BRANCH  61  78
ATOM     78  C   UNL A   1      39.560  33.204  35.864  1.00  0.00     0.057 A 
ATOM     79  C   UNL A   1      38.635  32.895  36.869  1.00  0.00     0.134 A 
ATOM     80  C   UNL A   1      40.157  34.471  35.899  1.00  0.00     0.134 A 
ATOM     81  F   UNL A   1      38.016  31.705  36.882  1.00  0.00    -0.206 F 
ATOM     82  C   UNL A   1      38.296  33.823  37.856  1.00  0.00     0.040 A 
ATOM     83  C   UNL A   1      39.848  35.395  36.897  1.00  0.00     0.040 A 
ATOM     84  F   UNL A   1      41.056  34.827  34.970  1.00  0.00    -0.206 F 
ATOM     85  C   UNL A   1      38.909  35.074  37.875  1.00  0.00     0.006 A 
ENDBRANCH  61  78
ENDBRANCH  35  36
ENDBRANCH  28  30
ENDBRANCH  27  28
ENDBRANCH  26  27
ENDBRANCH   1  26
TORSDOF 13
ENDMDL
