MODEL 1
REMARK VINA RESULT:     -10.0      0.000      0.000
REMARK SMILES Cc1noc(C)c1[C@@H](C)NC(=O)N[C@H](CO)C(=O)OCCOC(=O)c1ccc(-c2c3nc(c(-c4c(F)cccc4F)c4ccc([nH]4)c(-c4c(F)cccc4F)c4nc(c(-c5c(F)cccc5F)c5ccc2[nH]5)C=C4)C=C3)cc1
REMARK SMILES IDX 20 1 19 2 17 3 18 4 14 5 13 6 10 7 11 8 12 10 8 12 9 13 7 14
REMARK SMILES IDX 1 15 2 16 3 17 4 18 5 19 6 20 15 21 16 22 21 24 22 25 23 26
REMARK SMILES IDX 24 27 25 28 26 29 78 30 27 31 77 32 28 33 29 34 30 35 71 36
REMARK SMILES IDX 31 37 76 38 70 39 72 40 32 41 75 42 69 43 68 44 33 46 59 47
REMARK SMILES IDX 42 48 58 49 43 50 46 51 57 52 73 53 44 54 45 55 56 57 74 58
REMARK SMILES IDX 47 59 34 60 35 61 40 62 36 63 37 64 39 65 41 66 38 67 60 68
REMARK SMILES IDX 61 69 66 70 62 71 63 72 65 73 67 74 64 75 48 76 49 77 54 78
REMARK SMILES IDX 50 79 51 80 53 81 55 82 52 83
REMARK H PARENT 10 9 13 11 16 23 72 45 46 56
REMARK Flexibility Score: inf
ROOT
ATOM      1  C   UNL A   1      33.716  34.011  28.344  1.00  0.00     0.274 C 
ENDROOT
BRANCH   1   2
ATOM      2  O   UNL A   1      32.777  34.613  29.259  1.00  0.00    -0.460 OA
BRANCH   2   3
ATOM      3  C   UNL A   1      33.052  35.883  29.656  1.00  0.00     0.331 C 
ATOM      4  O   UNL A   1      32.876  36.875  28.955  1.00  0.00    -0.250 OA
BRANCH   3   5
ATOM      5  C   UNL A   1      33.552  35.980  31.101  1.00  0.00     0.219 C 
BRANCH   5   6
ATOM      6  N   UNL A   1      33.344  34.776  31.915  1.00  0.00    -0.323 N 
ATOM      7  N   UNL A   1      35.326  33.542  32.330  1.00  0.00    -0.331 N 
ATOM      8  C   UNL A   1      34.040  33.809  32.487  1.00  0.00     0.316 C 
ATOM      9  H   UNL A   1      35.658  32.940  33.036  1.00  0.00     0.165 HD
ATOM     10  O   UNL A   1      33.413  33.072  33.254  1.00  0.00    -0.249 OA
ATOM     11  H   UNL A   1      32.384  34.648  32.090  1.00  0.00     0.166 HD
BRANCH   7  12
ATOM     12  C   UNL A   1      36.377  33.900  31.395  1.00  0.00     0.116 C 
ATOM     13  C   UNL A   1      36.518  32.793  30.350  1.00  0.00     0.036 C 
BRANCH  12  14
ATOM     14  C   UNL A   1      37.678  34.132  32.115  1.00  0.00     0.040 A 
ATOM     15  C   UNL A   1      37.289  33.320  34.598  1.00  0.00     0.071 C 
ATOM     16  C   UNL A   1      38.056  33.916  33.478  1.00  0.00     0.086 A 
ATOM     17  N   UNL A   1      39.319  34.295  33.705  1.00  0.00    -0.085 NA
ATOM     18  O   UNL A   1      39.825  34.676  32.486  1.00  0.00    -0.361 OA
ATOM     19  C   UNL A   1      38.872  34.530  31.533  1.00  0.00     0.139 A 
ATOM     20  C   UNL A   1      39.332  34.773  30.152  1.00  0.00     0.091 C 
ENDBRANCH  12  14
ENDBRANCH   7  12
ENDBRANCH   5   6
BRANCH   5  21
ATOM     21  C   UNL A   1      33.267  37.309  31.803  1.00  0.00     0.193 C 
BRANCH  21  22
ATOM     22  O   UNL A   1      32.176  37.181  32.718  1.00  0.00    -0.394 OA
ATOM     23  H   UNL A   1      31.832  36.274  32.687  1.00  0.00     0.210 HD
ENDBRANCH  21  22
ENDBRANCH   5  21
ENDBRANCH   3   5
ENDBRANCH   2   3
ENDBRANCH   1   2
BRANCH   1  24
ATOM     24  C   UNL A   1      33.413  32.545  28.010  1.00  0.00     0.275 C 
BRANCH  24  25
ATOM     25  O   UNL A   1      34.524  31.842  27.424  1.00  0.00    -0.458 OA
BRANCH  25  26
ATOM     26  C   UNL A   1      34.510  30.501  27.589  1.00  0.00     0.338 C 
ATOM     27  O   UNL A   1      33.608  29.727  27.315  1.00  0.00    -0.246 OA
BRANCH  26  28
ATOM     28  C   UNL A   1      35.821  30.029  28.041  1.00  0.00     0.060 A 
ATOM     29  C   UNL A   1      35.909  29.486  29.326  1.00  0.00     0.016 A 
ATOM     30  C   UNL A   1      36.962  30.206  27.261  1.00  0.00     0.016 A 
ATOM     31  C   UNL A   1      37.138  29.127  29.853  1.00  0.00     0.010 A 
ATOM     32  C   UNL A   1      38.198  29.820  27.778  1.00  0.00     0.010 A 
ATOM     33  C   UNL A   1      38.287  29.280  29.074  1.00  0.00    -0.014 A 
BRANCH  33  34
ATOM     34  C   UNL A   1      39.583  28.820  29.601  1.00  0.00     0.031 A 
ATOM     35  C   UNL A   1      40.287  29.614  30.652  1.00  0.00     0.074 A 
ATOM     36  C   UNL A   1      40.109  27.689  29.099  1.00  0.00     0.049 A 
ATOM     37  N   UNL A   1      41.496  29.463  31.125  1.00  0.00    -0.248 NA
ATOM     38  C   UNL A   1      39.537  30.730  31.247  1.00  0.00     0.031 C 
ATOM     39  C   UNL A   1      39.461  26.829  28.105  1.00  0.00     0.029 A 
ATOM     40  N   UNL A   1      41.309  27.080  29.338  1.00  0.00    -0.354 N 
ATOM     41  C   UNL A   1      41.664  30.481  32.053  1.00  0.00     0.074 A 
ATOM     42  C   UNL A   1      40.435  31.245  32.077  1.00  0.00     0.031 C 
ATOM     43  C   UNL A   1      40.279  25.810  27.808  1.00  0.00     0.029 A 
ATOM     44  C   UNL A   1      41.525  25.979  28.547  1.00  0.00     0.049 A 
ATOM     45  H   UNL A   1      41.955  27.399  30.009  1.00  0.00     0.167 HD
ATOM     46  C   UNL A   1      42.758  30.748  32.804  1.00  0.00     0.037 A 
ATOM     47  C   UNL A   1      42.625  25.219  28.406  1.00  0.00     0.037 A 
ATOM     48  C   UNL A   1      43.966  29.967  32.758  1.00  0.00     0.049 A 
ATOM     49  C   UNL A   1      43.836  25.559  29.221  1.00  0.00     0.074 A 
ATOM     50  C   UNL A   1      45.142  30.145  33.463  1.00  0.00     0.029 A 
ATOM     51  N   UNL A   1      44.147  28.849  31.953  1.00  0.00    -0.354 N 
ATOM     52  N   UNL A   1      44.001  26.538  30.080  1.00  0.00    -0.248 NA
ATOM     53  C   UNL A   1      45.014  24.702  29.048  1.00  0.00     0.031 C 
ATOM     54  C   UNL A   1      46.045  29.154  33.063  1.00  0.00     0.029 A 
ATOM     55  C   UNL A   1      45.419  28.333  32.136  1.00  0.00     0.049 A 
ATOM     56  H   UNL A   1      43.470  28.478  31.341  1.00  0.00     0.167 HD
ATOM     57  C   UNL A   1      45.292  26.404  30.566  1.00  0.00     0.074 A 
ATOM     58  C   UNL A   1      45.864  25.243  29.911  1.00  0.00     0.031 C 
ATOM     59  C   UNL A   1      45.947  27.168  31.474  1.00  0.00     0.037 A 
BRANCH  46  60
ATOM     60  C   UNL A   1      42.705  31.949  33.700  1.00  0.00     0.057 A 
ATOM     61  C   UNL A   1      43.153  33.209  33.283  1.00  0.00     0.134 A 
ATOM     62  C   UNL A   1      42.186  31.846  34.998  1.00  0.00     0.134 A 
ATOM     63  F   UNL A   1      43.677  33.371  32.059  1.00  0.00    -0.206 F 
ATOM     64  C   UNL A   1      43.106  34.318  34.130  1.00  0.00     0.040 A 
ATOM     65  C   UNL A   1      42.114  32.952  35.847  1.00  0.00     0.040 A 
ATOM     66  F   UNL A   1      41.741  30.669  35.462  1.00  0.00    -0.206 F 
ATOM     67  C   UNL A   1      42.579  34.192  35.415  1.00  0.00     0.006 A 
ENDBRANCH  46  60
BRANCH  47  68
ATOM     68  C   UNL A   1      42.619  24.090  27.446  1.00  0.00     0.057 A 
ATOM     69  C   UNL A   1      42.979  24.276  26.108  1.00  0.00     0.134 A 
ATOM     70  C   UNL A   1      42.295  22.789  27.853  1.00  0.00     0.134 A 
ATOM     71  F   UNL A   1      43.286  25.501  25.658  1.00  0.00    -0.206 F 
ATOM     72  C   UNL A   1      43.015  23.211  25.206  1.00  0.00     0.040 A 
ATOM     73  C   UNL A   1      42.349  21.711  26.968  1.00  0.00     0.040 A 
ATOM     74  F   UNL A   1      41.952  22.542  29.127  1.00  0.00    -0.206 F 
ATOM     75  C   UNL A   1      42.708  21.922  25.639  1.00  0.00     0.006 A 
ENDBRANCH  47  68
BRANCH  59  76
ATOM     76  C   UNL A   1      47.336  26.742  31.834  1.00  0.00     0.057 A 
ATOM     77  C   UNL A   1      47.582  25.828  32.864  1.00  0.00     0.134 A 
ATOM     78  C   UNL A   1      48.433  27.223  31.111  1.00  0.00     0.134 A 
ATOM     79  F   UNL A   1      46.569  25.345  33.600  1.00  0.00    -0.206 F 
ATOM     80  C   UNL A   1      48.878  25.415  33.172  1.00  0.00     0.040 A 
ATOM     81  C   UNL A   1      49.731  26.803  31.397  1.00  0.00     0.040 A 
ATOM     82  F   UNL A   1      48.258  28.099  30.109  1.00  0.00    -0.206 F 
ATOM     83  C   UNL A   1      49.956  25.899  32.433  1.00  0.00     0.006 A 
ENDBRANCH  59  76
ENDBRANCH  33  34
ENDBRANCH  26  28
ENDBRANCH  25  26
ENDBRANCH  24  25
ENDBRANCH   1  24
TORSDOF 16
ENDMDL
MODEL 2
REMARK VINA RESULT:      -9.9      1.167      1.952
REMARK SMILES Cc1noc(C)c1[C@@H](C)NC(=O)N[C@H](CO)C(=O)OCCOC(=O)c1ccc(-c2c3nc(c(-c4c(F)cccc4F)c4ccc([nH]4)c(-c4c(F)cccc4F)c4nc(c(-c5c(F)cccc5F)c5ccc2[nH]5)C=C4)C=C3)cc1
REMARK SMILES IDX 20 1 19 2 17 3 18 4 14 5 13 6 10 7 11 8 12 10 8 12 9 13 7 14
REMARK SMILES IDX 1 15 2 16 3 17 4 18 5 19 6 20 15 21 16 22 21 24 22 25 23 26
REMARK SMILES IDX 24 27 25 28 26 29 78 30 27 31 77 32 28 33 29 34 30 35 71 36
REMARK SMILES IDX 31 37 76 38 70 39 72 40 32 41 75 42 69 43 68 44 33 46 59 47
REMARK SMILES IDX 42 48 58 49 43 50 46 51 57 52 73 53 44 54 45 55 56 57 74 58
REMARK SMILES IDX 47 59 34 60 35 61 40 62 36 63 37 64 39 65 41 66 38 67 60 68
REMARK SMILES IDX 61 69 66 70 62 71 63 72 65 73 67 74 64 75 48 76 49 77 54 78
REMARK SMILES IDX 50 79 51 80 53 81 55 82 52 83
REMARK H PARENT 10 9 13 11 16 23 72 45 46 56
REMARK Flexibility Score: inf
ROOT
ATOM      1  C   UNL A   1      33.706  33.825  28.047  1.00  0.00     0.274 C 
ENDROOT
BRANCH   1   2
ATOM      2  O   UNL A   1      32.852  34.247  29.130  1.00  0.00    -0.460 OA
BRANCH   2   3
ATOM      3  C   UNL A   1      32.900  35.566  29.455  1.00  0.00     0.331 C 
ATOM      4  O   UNL A   1      32.436  36.462  28.757  1.00  0.00    -0.250 OA
BRANCH   3   5
ATOM      5  C   UNL A   1      33.538  35.840  30.820  1.00  0.00     0.219 C 
BRANCH   5   6
ATOM      6  N   UNL A   1      33.420  34.747  31.794  1.00  0.00    -0.323 N 
ATOM      7  N   UNL A   1      35.483  33.706  32.327  1.00  0.00    -0.331 N 
ATOM      8  C   UNL A   1      34.184  33.911  32.475  1.00  0.00     0.316 C 
ATOM      9  H   UNL A   1      35.863  33.228  33.100  1.00  0.00     0.165 HD
ATOM     10  O   UNL A   1      33.617  33.249  33.349  1.00  0.00    -0.249 OA
ATOM     11  H   UNL A   1      32.472  34.585  32.006  1.00  0.00     0.166 HD
BRANCH   7  12
ATOM     12  C   UNL A   1      36.495  33.998  31.329  1.00  0.00     0.116 C 
ATOM     13  C   UNL A   1      36.510  32.879  30.286  1.00  0.00     0.036 C 
BRANCH  12  14
ATOM     14  C   UNL A   1      37.848  34.158  31.968  1.00  0.00     0.040 A 
ATOM     15  C   UNL A   1      37.629  33.136  34.395  1.00  0.00     0.071 C 
ATOM     16  C   UNL A   1      38.320  33.822  33.277  1.00  0.00     0.086 A 
ATOM     17  N   UNL A   1      39.602  34.171  33.442  1.00  0.00    -0.085 NA
ATOM     18  O   UNL A   1      40.024  34.652  32.227  1.00  0.00    -0.361 OA
ATOM     19  C   UNL A   1      39.002  34.596  31.337  1.00  0.00     0.139 A 
ATOM     20  C   UNL A   1      39.364  34.954  29.952  1.00  0.00     0.091 C 
ENDBRANCH  12  14
ENDBRANCH   7  12
ENDBRANCH   5   6
BRANCH   5  21
ATOM     21  C   UNL A   1      33.314  37.246  31.377  1.00  0.00     0.193 C 
BRANCH  21  22
ATOM     22  O   UNL A   1      32.394  37.224  32.471  1.00  0.00    -0.394 OA
ATOM     23  H   UNL A   1      31.763  37.955  32.378  1.00  0.00     0.210 HD
ENDBRANCH  21  22
ENDBRANCH   5  21
ENDBRANCH   3   5
ENDBRANCH   2   3
ENDBRANCH   1   2
BRANCH   1  24
ATOM     24  C   UNL A   1      33.493  32.369  27.613  1.00  0.00     0.275 C 
BRANCH  24  25
ATOM     25  O   UNL A   1      34.099  31.406  28.495  1.00  0.00    -0.458 OA
BRANCH  25  26
ATOM     26  C   UNL A   1      34.501  30.257  27.907  1.00  0.00     0.338 C 
ATOM     27  O   UNL A   1      33.901  29.597  27.077  1.00  0.00    -0.246 OA
BRANCH  26  28
ATOM     28  C   UNL A   1      35.875  29.936  28.303  1.00  0.00     0.060 A 
ATOM     29  C   UNL A   1      36.885  30.119  27.355  1.00  0.00     0.016 A 
ATOM     30  C   UNL A   1      36.156  29.373  29.547  1.00  0.00     0.016 A 
ATOM     31  C   UNL A   1      38.184  29.729  27.629  1.00  0.00     0.010 A 
ATOM     32  C   UNL A   1      37.469  29.004  29.837  1.00  0.00     0.010 A 
ATOM     33  C   UNL A   1      38.483  29.182  28.879  1.00  0.00    -0.014 A 
BRANCH  33  34
ATOM     34  C   UNL A   1      39.880  28.844  29.203  1.00  0.00     0.031 A 
ATOM     35  C   UNL A   1      40.755  29.848  29.879  1.00  0.00     0.074 A 
ATOM     36  C   UNL A   1      40.337  27.628  28.857  1.00  0.00     0.049 A 
ATOM     37  N   UNL A   1      42.041  29.800  30.103  1.00  0.00    -0.248 NA
ATOM     38  C   UNL A   1      40.099  31.072  30.365  1.00  0.00     0.031 C 
ATOM     39  C   UNL A   1      39.532  26.571  28.238  1.00  0.00     0.029 A 
ATOM     40  N   UNL A   1      41.586  27.081  28.959  1.00  0.00    -0.354 N 
ATOM     41  C   UNL A   1      42.357  30.998  30.729  1.00  0.00     0.074 A 
ATOM     42  C   UNL A   1      41.129  31.753  30.850  1.00  0.00     0.031 C 
ATOM     43  C   UNL A   1      40.313  25.508  28.000  1.00  0.00     0.029 A 
ATOM     44  C   UNL A   1      41.678  25.831  28.399  1.00  0.00     0.049 A 
ATOM     45  H   UNL A   1      42.344  27.538  29.390  1.00  0.00     0.167 HD
ATOM     46  C   UNL A   1      43.572  31.420  31.151  1.00  0.00     0.037 A 
ATOM     47  C   UNL A   1      42.756  25.054  28.194  1.00  0.00     0.037 A 
ATOM     48  C   UNL A   1      44.776  30.642  31.017  1.00  0.00     0.049 A 
ATOM     49  C   UNL A   1      44.095  25.561  28.635  1.00  0.00     0.074 A 
ATOM     50  C   UNL A   1      46.066  30.967  31.397  1.00  0.00     0.029 A 
ATOM     51  N   UNL A   1      44.832  29.373  30.455  1.00  0.00    -0.354 N 
ATOM     52  N   UNL A   1      44.395  26.705  29.205  1.00  0.00    -0.248 NA
ATOM     53  C   UNL A   1      45.246  24.682  28.404  1.00  0.00     0.031 C 
ATOM     54  C   UNL A   1      46.906  29.907  31.037  1.00  0.00     0.029 A 
ATOM     55  C   UNL A   1      46.134  28.905  30.468  1.00  0.00     0.049 A 
ATOM     56  H   UNL A   1      44.058  28.879  30.099  1.00  0.00     0.167 HD
ATOM     57  C   UNL A   1      45.764  26.676  29.420  1.00  0.00     0.074 A 
ATOM     58  C   UNL A   1      46.235  25.396  28.925  1.00  0.00     0.031 C 
ATOM     59  C   UNL A   1      46.561  27.620  29.977  1.00  0.00     0.037 A 
BRANCH  46  60
ATOM     60  C   UNL A   1      43.657  32.789  31.754  1.00  0.00     0.057 A 
ATOM     61  C   UNL A   1      43.510  33.007  33.130  1.00  0.00     0.134 A 
ATOM     62  C   UNL A   1      43.901  33.908  30.947  1.00  0.00     0.134 A 
ATOM     63  F   UNL A   1      43.257  31.981  33.956  1.00  0.00    -0.206 F 
ATOM     64  C   UNL A   1      43.584  34.289  33.679  1.00  0.00     0.040 A 
ATOM     65  C   UNL A   1      43.998  35.193  31.486  1.00  0.00     0.040 A 
ATOM     66  F   UNL A   1      44.049  33.772  29.620  1.00  0.00    -0.206 F 
ATOM     67  C   UNL A   1      43.834  35.386  32.855  1.00  0.00     0.006 A 
ENDBRANCH  46  60
BRANCH  47  68
ATOM     68  C   UNL A   1      42.596  23.740  27.526  1.00  0.00     0.057 A 
ATOM     69  C   UNL A   1      42.707  23.616  26.138  1.00  0.00     0.134 A 
ATOM     70  C   UNL A   1      42.374  22.570  28.264  1.00  0.00     0.134 A 
ATOM     71  F   UNL A   1      42.906  24.702  25.379  1.00  0.00    -0.206 F 
ATOM     72  C   UNL A   1      42.598  22.377  25.505  1.00  0.00     0.040 A 
ATOM     73  C   UNL A   1      42.286  21.321  27.647  1.00  0.00     0.040 A 
ATOM     74  F   UNL A   1      42.270  22.621  29.601  1.00  0.00    -0.206 F 
ATOM     75  C   UNL A   1      42.396  21.223  26.262  1.00  0.00     0.006 A 
ENDBRANCH  47  68
BRANCH  59  76
ATOM     76  C   UNL A   1      48.012  27.278  30.114  1.00  0.00     0.057 A 
ATOM     77  C   UNL A   1      48.931  27.548  29.094  1.00  0.00     0.134 A 
ATOM     78  C   UNL A   1      48.497  26.712  31.298  1.00  0.00     0.134 A 
ATOM     79  F   UNL A   1      48.521  28.076  27.931  1.00  0.00    -0.206 F 
ATOM     80  C   UNL A   1      50.286  27.252  29.243  1.00  0.00     0.040 A 
ATOM     81  C   UNL A   1      49.851  26.430  31.467  1.00  0.00     0.040 A 
ATOM     82  F   UNL A   1      47.663  26.435  32.312  1.00  0.00    -0.206 F 
ATOM     83  C   UNL A   1      50.750  26.697  30.435  1.00  0.00     0.006 A 
ENDBRANCH  59  76
ENDBRANCH  33  34
ENDBRANCH  26  28
ENDBRANCH  25  26
ENDBRANCH  24  25
ENDBRANCH   1  24
TORSDOF 16
ENDMDL
MODEL 3
REMARK VINA RESULT:      -9.8      4.063      9.191
REMARK SMILES Cc1noc(C)c1[C@@H](C)NC(=O)N[C@H](CO)C(=O)OCCOC(=O)c1ccc(-c2c3nc(c(-c4c(F)cccc4F)c4ccc([nH]4)c(-c4c(F)cccc4F)c4nc(c(-c5c(F)cccc5F)c5ccc2[nH]5)C=C4)C=C3)cc1
REMARK SMILES IDX 20 1 19 2 17 3 18 4 14 5 13 6 10 7 11 8 12 10 8 12 9 13 7 14
REMARK SMILES IDX 1 15 2 16 3 17 4 18 5 19 6 20 15 21 16 22 21 24 22 25 23 26
REMARK SMILES IDX 24 27 25 28 26 29 78 30 27 31 77 32 28 33 29 34 30 35 71 36
REMARK SMILES IDX 31 37 76 38 70 39 72 40 32 41 75 42 69 43 68 44 33 46 59 47
REMARK SMILES IDX 42 48 58 49 43 50 46 51 57 52 73 53 44 54 45 55 56 57 74 58
REMARK SMILES IDX 47 59 34 60 35 61 40 62 36 63 37 64 39 65 41 66 38 67 60 68
REMARK SMILES IDX 61 69 66 70 62 71 63 72 65 73 67 74 64 75 48 76 49 77 54 78
REMARK SMILES IDX 50 79 51 80 53 81 55 82 52 83
REMARK H PARENT 10 9 13 11 16 23 72 45 46 56
REMARK Flexibility Score: inf
ROOT
ATOM      1  C   UNL A   1      30.782  29.507  24.493  1.00  0.00     0.274 C 
ENDROOT
BRANCH   1   2
ATOM      2  O   UNL A   1      31.370  29.226  23.206  1.00  0.00    -0.460 OA
BRANCH   2   3
ATOM      3  C   UNL A   1      31.587  27.916  22.917  1.00  0.00     0.331 C 
ATOM      4  O   UNL A   1      30.737  27.038  23.030  1.00  0.00    -0.250 OA
BRANCH   3   5
ATOM      5  C   UNL A   1      32.988  27.631  22.367  1.00  0.00     0.219 C 
BRANCH   5   6
ATOM      6  N   UNL A   1      33.217  26.248  21.929  1.00  0.00    -0.323 N 
ATOM      7  N   UNL A   1      32.965  24.639  23.653  1.00  0.00    -0.331 N 
ATOM      8  C   UNL A   1      33.151  25.015  22.398  1.00  0.00     0.316 C 
ATOM      9  H   UNL A   1      32.711  23.690  23.712  1.00  0.00     0.165 HD
ATOM     10  O   UNL A   1      33.278  24.112  21.566  1.00  0.00    -0.249 OA
ATOM     11  H   UNL A   1      33.514  26.236  20.990  1.00  0.00     0.166 HD
BRANCH   7  12
ATOM     12  C   UNL A   1      33.034  25.256  24.965  1.00  0.00     0.116 C 
ATOM     13  C   UNL A   1      34.500  25.403  25.374  1.00  0.00     0.036 C 
BRANCH  12  14
ATOM     14  C   UNL A   1      32.269  24.448  25.978  1.00  0.00     0.040 A 
ATOM     15  C   UNL A   1      34.042  22.865  27.132  1.00  0.00     0.071 C 
ATOM     16  C   UNL A   1      32.689  23.414  26.874  1.00  0.00     0.086 A 
ATOM     17  N   UNL A   1      31.664  22.936  27.589  1.00  0.00    -0.085 NA
ATOM     18  O   UNL A   1      30.575  23.702  27.251  1.00  0.00    -0.361 OA
ATOM     19  C   UNL A   1      30.943  24.634  26.337  1.00  0.00     0.139 A 
ATOM     20  C   UNL A   1      29.895  25.615  25.994  1.00  0.00     0.091 C 
ENDBRANCH  12  14
ENDBRANCH   7  12
ENDBRANCH   5   6
BRANCH   5  21
ATOM     21  C   UNL A   1      34.138  28.278  23.140  1.00  0.00     0.193 C 
BRANCH  21  22
ATOM     22  O   UNL A   1      34.028  29.703  23.126  1.00  0.00    -0.394 OA
ATOM     23  H   UNL A   1      34.867  30.090  22.827  1.00  0.00     0.210 HD
ENDBRANCH  21  22
ENDBRANCH   5  21
ENDBRANCH   3   5
ENDBRANCH   2   3
ENDBRANCH   1   2
BRANCH   1  24
ATOM     24  C   UNL A   1      31.720  29.254  25.679  1.00  0.00     0.275 C 
BRANCH  24  25
ATOM     25  O   UNL A   1      32.901  30.078  25.672  1.00  0.00    -0.458 OA
BRANCH  25  26
ATOM     26  C   UNL A   1      32.998  30.957  26.694  1.00  0.00     0.338 C 
ATOM     27  O   UNL A   1      32.173  31.784  27.044  1.00  0.00    -0.246 OA
BRANCH  26  28
ATOM     28  C   UNL A   1      34.220  30.710  27.464  1.00  0.00     0.060 A 
ATOM     29  C   UNL A   1      35.094  31.783  27.658  1.00  0.00     0.016 A 
ATOM     30  C   UNL A   1      34.552  29.430  27.902  1.00  0.00     0.016 A 
ATOM     31  C   UNL A   1      36.316  31.590  28.279  1.00  0.00     0.010 A 
ATOM     32  C   UNL A   1      35.771  29.236  28.552  1.00  0.00     0.010 A 
ATOM     33  C   UNL A   1      36.652  30.315  28.740  1.00  0.00    -0.014 A 
BRANCH  33  34
ATOM     34  C   UNL A   1      37.915  30.125  29.475  1.00  0.00     0.031 A 
ATOM     35  C   UNL A   1      38.986  29.252  28.909  1.00  0.00     0.074 A 
ATOM     36  C   UNL A   1      38.058  30.739  30.663  1.00  0.00     0.049 A 
ATOM     37  N   UNL A   1      40.091  28.837  29.469  1.00  0.00    -0.248 NA
ATOM     38  C   UNL A   1      38.789  28.779  27.530  1.00  0.00     0.031 C 
ATOM     39  C   UNL A   1      37.078  31.648  31.264  1.00  0.00     0.029 A 
ATOM     40  N   UNL A   1      39.069  30.680  31.582  1.00  0.00    -0.354 N 
ATOM     41  C   UNL A   1      40.709  28.029  28.525  1.00  0.00     0.074 A 
ATOM     42  C   UNL A   1      39.857  28.012  27.355  1.00  0.00     0.031 C 
ATOM     43  C   UNL A   1      37.530  32.050  32.460  1.00  0.00     0.029 A 
ATOM     44  C   UNL A   1      38.799  31.384  32.730  1.00  0.00     0.049 A 
ATOM     45  H   UNL A   1      39.906  30.183  31.436  1.00  0.00     0.167 HD
ATOM     46  C   UNL A   1      41.879  27.360  28.642  1.00  0.00     0.037 A 
ATOM     47  C   UNL A   1      39.484  31.447  33.885  1.00  0.00     0.037 A 
ATOM     48  C   UNL A   1      42.705  27.400  29.820  1.00  0.00     0.049 A 
ATOM     49  C   UNL A   1      40.757  30.665  34.004  1.00  0.00     0.074 A 
ATOM     50  C   UNL A   1      43.906  26.757  30.061  1.00  0.00     0.029 A 
ATOM     51  N   UNL A   1      42.408  28.133  30.963  1.00  0.00    -0.354 N 
ATOM     52  N   UNL A   1      41.326  29.881  33.117  1.00  0.00    -0.248 NA
ATOM     53  C   UNL A   1      41.481  30.765  35.275  1.00  0.00     0.031 C 
ATOM     54  C   UNL A   1      44.319  27.077  31.359  1.00  0.00     0.029 A 
ATOM     55  C   UNL A   1      43.396  27.950  31.914  1.00  0.00     0.049 A 
ATOM     56  H   UNL A   1      41.610  28.699  31.078  1.00  0.00     0.167 HD
ATOM     57  C   UNL A   1      42.486  29.412  33.714  1.00  0.00     0.074 A 
ATOM     58  C   UNL A   1      42.541  30.005  35.037  1.00  0.00     0.031 C 
ATOM     59  C   UNL A   1      43.422  28.568  33.216  1.00  0.00     0.037 A 
BRANCH  46  60
ATOM     60  C   UNL A   1      42.306  26.505  27.487  1.00  0.00     0.057 A 
ATOM     61  C   UNL A   1      43.107  27.000  26.451  1.00  0.00     0.134 A 
ATOM     62  C   UNL A   1      41.917  25.161  27.415  1.00  0.00     0.134 A 
ATOM     63  F   UNL A   1      43.499  28.283  26.449  1.00  0.00    -0.206 F 
ATOM     64  C   UNL A   1      43.491  26.195  25.376  1.00  0.00     0.040 A 
ATOM     65  C   UNL A   1      42.312  24.340  26.357  1.00  0.00     0.040 A 
ATOM     66  F   UNL A   1      41.147  24.622  28.374  1.00  0.00    -0.206 F 
ATOM     67  C   UNL A   1      43.097  24.859  25.331  1.00  0.00     0.006 A 
ENDBRANCH  46  60
BRANCH  47  68
ATOM     68  C   UNL A   1      38.957  32.261  35.006  1.00  0.00     0.057 A 
ATOM     69  C   UNL A   1      39.152  33.644  35.049  1.00  0.00     0.134 A 
ATOM     70  C   UNL A   1      38.207  31.682  36.039  1.00  0.00     0.134 A 
ATOM     71  F   UNL A   1      39.872  34.253  34.096  1.00  0.00    -0.206 F 
ATOM     72  C   UNL A   1      38.625  34.425  36.079  1.00  0.00     0.040 A 
ATOM     73  C   UNL A   1      37.655  32.452  37.063  1.00  0.00     0.040 A 
ATOM     74  F   UNL A   1      37.975  30.360  36.049  1.00  0.00    -0.206 F 
ATOM     75  C   UNL A   1      37.866  33.828  37.086  1.00  0.00     0.006 A 
ENDBRANCH  47  68
BRANCH  59  76
ATOM     76  C   UNL A   1      44.599  28.276  34.093  1.00  0.00     0.057 A 
ATOM     77  C   UNL A   1      45.739  29.088  34.089  1.00  0.00     0.134 A 
ATOM     78  C   UNL A   1      44.569  27.195  34.981  1.00  0.00     0.134 A 
ATOM     79  F   UNL A   1      45.829  30.130  33.248  1.00  0.00    -0.206 F 
ATOM     80  C   UNL A   1      46.818  28.824  34.932  1.00  0.00     0.040 A 
ATOM     81  C   UNL A   1      45.633  26.933  35.841  1.00  0.00     0.040 A 
ATOM     82  F   UNL A   1      43.500  26.385  35.032  1.00  0.00    -0.206 F 
ATOM     83  C   UNL A   1      46.765  27.747  35.815  1.00  0.00     0.006 A 
ENDBRANCH  59  76
ENDBRANCH  33  34
ENDBRANCH  26  28
ENDBRANCH  25  26
ENDBRANCH  24  25
ENDBRANCH   1  24
TORSDOF 16
ENDMDL
