MODEL 1
REMARK VINA RESULT:     -12.4      0.000      0.000
REMARK SMILES O=C(CCCN1C(=O)/C(=C/c2ccccc2Cl)SC1=S)Nc1cccc(C(=O)OCCOC(=O)c2ccc(-c3c4nc(c(-c5c(F)cccc5F)c5ccc([nH]5)c(-c5c(F)cccc5F)c5nc(c(-c6c(F)cccc6F)c6ccc3[nH]6)C=C5)C=C4)cc2)c1
REMARK SMILES IDX 27 1 28 2 26 3 22 4 23 5 89 6 24 7 25 8 21 9 1 10 2 11 3 13
REMARK SMILES IDX 4 14 5 15 6 16 7 17 19 18 8 19 9 20 18 21 20 22 10 23 11 24
REMARK SMILES IDX 12 25 16 26 13 27 15 28 17 29 14 30 29 31 30 32 31 33 32 34
REMARK SMILES IDX 33 35 34 36 35 37 36 38 88 39 37 40 87 41 38 42 39 43 40 44
REMARK SMILES IDX 81 45 41 46 86 47 80 48 82 49 42 50 85 51 79 52 78 53 43 55
REMARK SMILES IDX 69 56 52 57 68 58 53 59 56 60 67 61 83 62 54 63 55 64 66 66
REMARK SMILES IDX 84 67 57 68 44 69 45 70 50 71 46 72 47 73 49 74 51 75 48 76
REMARK SMILES IDX 70 77 71 78 76 79 72 80 73 81 75 82 77 83 74 84 58 85 59 86
REMARK SMILES IDX 64 87 60 88 61 89 63 90 65 91 62 92
REMARK H PARENT 21 12 82 54 56 65
REMARK Flexibility Score: inf
ROOT
ATOM      1  C   UNL A   1      33.175  32.931  27.948  1.00  0.00     0.338 C 
ATOM      2  O   UNL A   1      32.268  33.669  27.608  1.00  0.00    -0.246 OA
ENDROOT
BRANCH   1   3
ATOM      3  C   UNL A   1      33.364  31.560  27.423  1.00  0.00     0.062 A 
ATOM      4  C   UNL A   1      32.470  29.597  26.377  1.00  0.00     0.042 A 
ATOM      5  C   UNL A   1      33.591  28.863  26.780  1.00  0.00     0.026 A 
ATOM      6  C   UNL A   1      32.336  30.934  26.726  1.00  0.00     0.041 A 
ATOM      7  C   UNL A   1      34.659  29.510  27.388  1.00  0.00     0.003 A 
ATOM      8  C   UNL A   1      34.562  30.870  27.660  1.00  0.00     0.016 A 
BRANCH   4   9
ATOM      9  N   UNL A   1      31.507  28.921  25.627  1.00  0.00    -0.326 N 
ATOM     10  O   UNL A   1      32.459  29.031  23.518  1.00  0.00    -0.275 OA
ATOM     11  C   UNL A   1      31.573  28.654  24.279  1.00  0.00     0.224 C 
ATOM     12  H   UNL A   1      30.708  28.604  26.105  1.00  0.00     0.169 HD
BRANCH  11  13
ATOM     13  C   UNL A   1      30.433  27.793  23.772  1.00  0.00     0.102 C 
BRANCH  13  14
ATOM     14  C   UNL A   1      30.243  26.469  24.525  1.00  0.00     0.032 C 
BRANCH  14  15
ATOM     15  C   UNL A   1      30.179  25.182  23.682  1.00  0.00     0.128 C 
BRANCH  15  16
ATOM     16  N   UNL A   1      31.432  24.420  23.684  1.00  0.00    -0.293 N 
ATOM     17  C   UNL A   1      31.669  23.521  24.707  1.00  0.00     0.266 C 
ATOM     18  C   UNL A   1      32.425  24.527  22.733  1.00  0.00     0.148 C 
ATOM     19  O   UNL A   1      30.938  23.351  25.674  1.00  0.00    -0.268 OA
ATOM     20  C   UNL A   1      32.917  22.761  24.471  1.00  0.00     0.081 C 
ATOM     21  S   UNL A   1      33.683  23.337  23.047  1.00  0.00    -0.054 SA
ATOM     22  S   UNL A   1      32.500  25.579  21.443  1.00  0.00    -0.052 S 
ATOM     23  C   UNL A   1      33.311  21.781  25.295  1.00  0.00     0.031 C 
BRANCH  23  24
ATOM     24  C   UNL A   1      34.572  21.036  25.169  1.00  0.00    -0.006 A 
ATOM     25  C   UNL A   1      34.522  19.691  24.775  1.00  0.00     0.010 A 
ATOM     26  C   UNL A   1      35.823  21.621  25.434  1.00  0.00     0.048 A 
ATOM     27  C   UNL A   1      35.700  18.957  24.613  1.00  0.00     0.001 A 
ATOM     28  C   UNL A   1      36.998  20.887  25.259  1.00  0.00     0.021 A 
ATOM     29  Cl  UNL A   1      35.972  23.246  26.014  1.00  0.00    -0.084 Cl
ATOM     30  C   UNL A   1      36.937  19.558  24.844  1.00  0.00     0.002 A 
ENDBRANCH  23  24
ENDBRANCH  15  16
ENDBRANCH  14  15
ENDBRANCH  13  14
ENDBRANCH  11  13
ENDBRANCH   4   9
ENDBRANCH   1   3
BRANCH   1  31
ATOM     31  O   UNL A   1      34.242  33.247  28.728  1.00  0.00    -0.458 OA
BRANCH  31  32
ATOM     32  C   UNL A   1      34.112  34.391  29.593  1.00  0.00     0.275 C 
BRANCH  32  33
ATOM     33  C   UNL A   1      34.326  34.006  31.058  1.00  0.00     0.275 C 
BRANCH  33  34
ATOM     34  O   UNL A   1      34.557  32.589  31.169  1.00  0.00    -0.458 OA
BRANCH  34  35
ATOM     35  C   UNL A   1      35.489  32.221  32.075  1.00  0.00     0.338 C 
ATOM     36  O   UNL A   1      35.456  32.356  33.285  1.00  0.00    -0.246 OA
BRANCH  35  37
ATOM     37  C   UNL A   1      36.567  31.490  31.394  1.00  0.00     0.060 A 
ATOM     38  C   UNL A   1      37.434  30.755  32.189  1.00  0.00     0.016 A 
ATOM     39  C   UNL A   1      36.837  31.655  30.041  1.00  0.00     0.016 A 
ATOM     40  C   UNL A   1      38.637  30.280  31.682  1.00  0.00     0.010 A 
ATOM     41  C   UNL A   1      37.988  31.066  29.499  1.00  0.00     0.010 A 
ATOM     42  C   UNL A   1      38.926  30.406  30.320  1.00  0.00    -0.014 A 
BRANCH  42  43
ATOM     43  C   UNL A   1      40.213  29.884  29.776  1.00  0.00     0.031 A 
ATOM     44  C   UNL A   1      41.414  30.789  29.673  1.00  0.00     0.074 A 
ATOM     45  C   UNL A   1      40.326  28.596  29.389  1.00  0.00     0.049 A 
ATOM     46  N   UNL A   1      42.550  30.595  29.051  1.00  0.00    -0.248 NA
ATOM     47  C   UNL A   1      41.318  32.094  30.346  1.00  0.00     0.031 C 
ATOM     48  C   UNL A   1      39.273  27.581  29.487  1.00  0.00     0.029 A 
ATOM     49  N   UNL A   1      41.383  27.914  28.835  1.00  0.00    -0.354 N 
ATOM     50  C   UNL A   1      43.274  31.772  29.204  1.00  0.00     0.074 A 
ATOM     51  C   UNL A   1      42.446  32.678  29.971  1.00  0.00     0.031 C 
ATOM     52  C   UNL A   1      39.745  26.406  29.046  1.00  0.00     0.029 A 
ATOM     53  C   UNL A   1      41.094  26.604  28.532  1.00  0.00     0.049 A 
ATOM     54  H   UNL A   1      42.262  28.324  28.670  1.00  0.00     0.167 HD
ATOM     55  C   UNL A   1      44.514  32.069  28.744  1.00  0.00     0.037 A 
ATOM     56  C   UNL A   1      41.804  25.676  27.862  1.00  0.00     0.037 A 
ATOM     57  C   UNL A   1      45.354  31.143  28.027  1.00  0.00     0.049 A 
ATOM     58  C   UNL A   1      43.151  26.046  27.311  1.00  0.00     0.074 A 
ATOM     59  C   UNL A   1      46.631  31.342  27.534  1.00  0.00     0.029 A 
ATOM     60  N   UNL A   1      45.003  29.838  27.711  1.00  0.00    -0.354 N 
ATOM     61  N   UNL A   1      43.803  27.178  27.414  1.00  0.00    -0.248 NA
ATOM     62  C   UNL A   1      43.853  25.016  26.533  1.00  0.00     0.031 C 
ATOM     63  C   UNL A   1      47.034  30.173  26.877  1.00  0.00     0.029 A 
ATOM     64  C   UNL A   1      46.032  29.227  27.012  1.00  0.00     0.049 A 
ATOM     65  H   UNL A   1      44.148  29.410  27.949  1.00  0.00     0.167 HD
ATOM     66  C   UNL A   1      44.999  26.991  26.733  1.00  0.00     0.074 A 
ATOM     67  C   UNL A   1      44.989  25.630  26.238  1.00  0.00     0.031 C 
ATOM     68  C   UNL A   1      46.011  27.869  26.533  1.00  0.00     0.037 A 
BRANCH  55  69
ATOM     69  C   UNL A   1      45.024  33.465  28.965  1.00  0.00     0.057 A 
ATOM     70  C   UNL A   1      45.799  33.815  30.078  1.00  0.00     0.134 A 
ATOM     71  C   UNL A   1      44.760  34.470  28.023  1.00  0.00     0.134 A 
ATOM     72  F   UNL A   1      46.079  32.906  31.024  1.00  0.00    -0.206 F 
ATOM     73  C   UNL A   1      46.268  35.118  30.261  1.00  0.00     0.040 A 
ATOM     74  C   UNL A   1      45.249  35.769  28.180  1.00  0.00     0.040 A 
ATOM     75  F   UNL A   1      44.033  34.204  26.929  1.00  0.00    -0.206 F 
ATOM     76  C   UNL A   1      45.999  36.097  29.307  1.00  0.00     0.006 A 
ENDBRANCH  55  69
BRANCH  56  77
ATOM     77  C   UNL A   1      41.230  24.326  27.627  1.00  0.00     0.057 A 
ATOM     78  C   UNL A   1      41.682  23.210  28.341  1.00  0.00     0.134 A 
ATOM     79  C   UNL A   1      40.218  24.116  26.681  1.00  0.00     0.134 A 
ATOM     80  F   UNL A   1      42.666  23.339  29.243  1.00  0.00    -0.206 F 
ATOM     81  C   UNL A   1      41.159  21.936  28.114  1.00  0.00     0.040 A 
ATOM     82  C   UNL A   1      39.663  22.853  26.467  1.00  0.00     0.040 A 
ATOM     83  F   UNL A   1      39.739  25.142  25.962  1.00  0.00    -0.206 F 
ATOM     84  C   UNL A   1      40.140  21.756  27.181  1.00  0.00     0.006 A 
ENDBRANCH  56  77
BRANCH  68  85
ATOM     85  C   UNL A   1      47.213  27.368  25.787  1.00  0.00     0.057 A 
ATOM     86  C   UNL A   1      47.370  27.572  24.411  1.00  0.00     0.134 A 
ATOM     87  C   UNL A   1      48.241  26.699  26.464  1.00  0.00     0.134 A 
ATOM     88  F   UNL A   1      46.415  28.193  23.702  1.00  0.00    -0.206 F 
ATOM     89  C   UNL A   1      48.497  27.106  23.730  1.00  0.00     0.040 A 
ATOM     90  C   UNL A   1      49.384  26.253  25.800  1.00  0.00     0.040 A 
ATOM     91  F   UNL A   1      48.156  26.477  27.785  1.00  0.00    -0.206 F 
ATOM     92  C   UNL A   1      49.510  26.451  24.426  1.00  0.00     0.006 A 
ENDBRANCH  68  85
ENDBRANCH  42  43
ENDBRANCH  35  37
ENDBRANCH  34  35
ENDBRANCH  33  34
ENDBRANCH  32  33
ENDBRANCH  31  32
ENDBRANCH   1  31
TORSDOF 17
ENDMDL
MODEL 2
REMARK VINA RESULT:     -12.3      4.810     10.107
REMARK SMILES O=C(CCCN1C(=O)/C(=C/c2ccccc2Cl)SC1=S)Nc1cccc(C(=O)OCCOC(=O)c2ccc(-c3c4nc(c(-c5c(F)cccc5F)c5ccc([nH]5)c(-c5c(F)cccc5F)c5nc(c(-c6c(F)cccc6F)c6ccc3[nH]6)C=C5)C=C4)cc2)c1
REMARK SMILES IDX 27 1 28 2 26 3 22 4 23 5 89 6 24 7 25 8 21 9 1 10 2 11 3 13
REMARK SMILES IDX 4 14 5 15 6 16 7 17 19 18 8 19 9 20 18 21 20 22 10 23 11 24
REMARK SMILES IDX 12 25 16 26 13 27 15 28 17 29 14 30 29 31 30 32 31 33 32 34
REMARK SMILES IDX 33 35 34 36 35 37 36 38 88 39 37 40 87 41 38 42 39 43 40 44
REMARK SMILES IDX 81 45 41 46 86 47 80 48 82 49 42 50 85 51 79 52 78 53 43 55
REMARK SMILES IDX 69 56 52 57 68 58 53 59 56 60 67 61 83 62 54 63 55 64 66 66
REMARK SMILES IDX 84 67 57 68 44 69 45 70 50 71 46 72 47 73 49 74 51 75 48 76
REMARK SMILES IDX 70 77 71 78 76 79 72 80 73 81 75 82 77 83 74 84 58 85 59 86
REMARK SMILES IDX 64 87 60 88 61 89 63 90 65 91 62 92
REMARK H PARENT 21 12 82 54 56 65
REMARK Flexibility Score: inf
ROOT
ATOM      1  C   UNL A   1      40.522  20.971  26.388  1.00  0.00     0.338 C 
ATOM      2  O   UNL A   1      40.502  19.972  27.085  1.00  0.00    -0.246 OA
ENDROOT
BRANCH   1   3
ATOM      3  C   UNL A   1      39.471  22.013  26.408  1.00  0.00     0.062 A 
ATOM      4  C   UNL A   1      37.373  22.861  25.617  1.00  0.00     0.042 A 
ATOM      5  C   UNL A   1      37.678  24.123  26.139  1.00  0.00     0.026 A 
ATOM      6  C   UNL A   1      38.280  21.814  25.718  1.00  0.00     0.041 A 
ATOM      7  C   UNL A   1      38.819  24.294  26.911  1.00  0.00     0.003 A 
ATOM      8  C   UNL A   1      39.687  23.221  27.087  1.00  0.00     0.016 A 
BRANCH   4   9
ATOM      9  N   UNL A   1      36.134  22.716  24.992  1.00  0.00    -0.326 N 
ATOM     10  O   UNL A   1      36.710  23.170  22.795  1.00  0.00    -0.275 OA
ATOM     11  C   UNL A   1      35.887  22.843  23.645  1.00  0.00     0.224 C 
ATOM     12  H   UNL A   1      35.365  22.503  25.568  1.00  0.00     0.169 HD
BRANCH  11  13
ATOM     13  C   UNL A   1      34.463  22.506  23.252  1.00  0.00     0.102 C 
BRANCH  13  14
ATOM     14  C   UNL A   1      33.572  23.722  22.959  1.00  0.00     0.032 C 
BRANCH  14  15
ATOM     15  C   UNL A   1      33.856  25.010  23.753  1.00  0.00     0.128 C 
BRANCH  15  16
ATOM     16  N   UNL A   1      32.705  25.915  23.829  1.00  0.00    -0.293 N 
ATOM     17  C   UNL A   1      32.759  27.127  23.165  1.00  0.00     0.266 C 
ATOM     18  C   UNL A   1      31.542  25.661  24.527  1.00  0.00     0.148 C 
ATOM     19  O   UNL A   1      33.734  27.553  22.562  1.00  0.00    -0.268 OA
ATOM     20  C   UNL A   1      31.465  27.842  23.253  1.00  0.00     0.081 C 
ATOM     21  S   UNL A   1      30.378  26.949  24.236  1.00  0.00    -0.054 SA
ATOM     22  S   UNL A   1      31.200  24.358  25.507  1.00  0.00    -0.052 S 
ATOM     23  C   UNL A   1      31.260  29.005  22.621  1.00  0.00     0.031 C 
BRANCH  23  24
ATOM     24  C   UNL A   1      30.032  29.809  22.722  1.00  0.00    -0.006 A 
ATOM     25  C   UNL A   1      29.108  29.760  21.669  1.00  0.00     0.010 A 
ATOM     26  C   UNL A   1      29.756  30.625  23.833  1.00  0.00     0.048 A 
ATOM     27  C   UNL A   1      27.915  30.484  21.741  1.00  0.00     0.001 A 
ATOM     28  C   UNL A   1      28.557  31.337  23.906  1.00  0.00     0.021 A 
ATOM     29  Cl  UNL A   1      30.881  30.817  25.135  1.00  0.00    -0.084 Cl
ATOM     30  C   UNL A   1      27.635  31.263  22.863  1.00  0.00     0.002 A 
ENDBRANCH  23  24
ENDBRANCH  15  16
ENDBRANCH  14  15
ENDBRANCH  13  14
ENDBRANCH  11  13
ENDBRANCH   4   9
ENDBRANCH   1   3
BRANCH   1  31
ATOM     31  O   UNL A   1      41.540  21.397  25.594  1.00  0.00    -0.458 OA
BRANCH  31  32
ATOM     32  C   UNL A   1      42.880  21.054  25.996  1.00  0.00     0.275 C 
BRANCH  32  33
ATOM     33  C   UNL A   1      43.912  21.942  25.300  1.00  0.00     0.275 C 
BRANCH  33  34
ATOM     34  O   UNL A   1      43.308  23.187  24.903  1.00  0.00    -0.458 OA
BRANCH  34  35
ATOM     35  C   UNL A   1      44.037  24.295  25.161  1.00  0.00     0.338 C 
ATOM     36  O   UNL A   1      45.077  24.651  24.633  1.00  0.00    -0.246 OA
BRANCH  35  37
ATOM     37  C   UNL A   1      43.324  25.131  26.136  1.00  0.00     0.060 A 
ATOM     38  C   UNL A   1      43.431  26.507  25.989  1.00  0.00     0.016 A 
ATOM     39  C   UNL A   1      42.713  24.599  27.264  1.00  0.00     0.016 A 
ATOM     40  C   UNL A   1      43.048  27.365  27.011  1.00  0.00     0.010 A 
ATOM     41  C   UNL A   1      42.209  25.471  28.241  1.00  0.00     0.010 A 
ATOM     42  C   UNL A   1      42.407  26.864  28.148  1.00  0.00    -0.014 A 
BRANCH  42  43
ATOM     43  C   UNL A   1      41.984  27.790  29.239  1.00  0.00     0.031 A 
ATOM     44  C   UNL A   1      42.774  27.859  30.520  1.00  0.00     0.074 A 
ATOM     45  C   UNL A   1      40.906  28.587  29.087  1.00  0.00     0.049 A 
ATOM     46  N   UNL A   1      42.468  28.437  31.656  1.00  0.00    -0.248 NA
ATOM     47  C   UNL A   1      44.077  27.174  30.532  1.00  0.00     0.031 C 
ATOM     48  C   UNL A   1      40.078  28.681  27.882  1.00  0.00     0.029 A 
ATOM     49  N   UNL A   1      40.319  29.478  29.954  1.00  0.00    -0.354 N 
ATOM     50  C   UNL A   1      43.505  28.131  32.530  1.00  0.00     0.074 A 
ATOM     51  C   UNL A   1      44.446  27.311  31.797  1.00  0.00     0.031 C 
ATOM     52  C   UNL A   1      39.119  29.599  28.071  1.00  0.00     0.029 A 
ATOM     53  C   UNL A   1      39.192  30.080  29.444  1.00  0.00     0.049 A 
ATOM     54  H   UNL A   1      40.672  29.667  30.853  1.00  0.00     0.167 HD
ATOM     55  C   UNL A   1      43.655  28.500  33.825  1.00  0.00     0.037 A 
ATOM     56  C   UNL A   1      38.281  30.882  30.026  1.00  0.00     0.037 A 
ATOM     57  C   UNL A   1      42.741  29.361  34.532  1.00  0.00     0.049 A 
ATOM     58  C   UNL A   1      38.437  31.229  31.479  1.00  0.00     0.074 A 
ATOM     59  C   UNL A   1      42.814  29.807  35.841  1.00  0.00     0.029 A 
ATOM     60  N   UNL A   1      41.593  29.916  33.985  1.00  0.00    -0.354 N 
ATOM     61  N   UNL A   1      39.391  30.892  32.312  1.00  0.00    -0.248 NA
ATOM     62  C   UNL A   1      37.379  32.054  32.079  1.00  0.00     0.031 C 
ATOM     63  C   UNL A   1      41.685  30.592  36.100  1.00  0.00     0.029 A 
ATOM     64  C   UNL A   1      40.939  30.684  34.936  1.00  0.00     0.049 A 
ATOM     65  H   UNL A   1      41.289  29.784  33.058  1.00  0.00     0.167 HD
ATOM     66  C   UNL A   1      39.060  31.477  33.527  1.00  0.00     0.074 A 
ATOM     67  C   UNL A   1      37.827  32.207  33.316  1.00  0.00     0.031 C 
ATOM     68  C   UNL A   1      39.717  31.412  34.710  1.00  0.00     0.037 A 
BRANCH  55  69
ATOM     69  C   UNL A   1      44.830  27.941  34.578  1.00  0.00     0.057 A 
ATOM     70  C   UNL A   1      46.039  28.637  34.708  1.00  0.00     0.134 A 
ATOM     71  C   UNL A   1      44.733  26.694  35.212  1.00  0.00     0.134 A 
ATOM     72  F   UNL A   1      46.204  29.829  34.117  1.00  0.00    -0.206 F 
ATOM     73  C   UNL A   1      47.116  28.101  35.417  1.00  0.00     0.040 A 
ATOM     74  C   UNL A   1      45.794  26.162  35.948  1.00  0.00     0.040 A 
ATOM     75  F   UNL A   1      43.603  25.977  35.137  1.00  0.00    -0.206 F 
ATOM     76  C   UNL A   1      46.993  26.864  36.046  1.00  0.00     0.006 A 
ENDBRANCH  55  69
BRANCH  56  77
ATOM     77  C   UNL A   1      37.110  31.365  29.250  1.00  0.00     0.057 A 
ATOM     78  C   UNL A   1      35.995  30.547  29.033  1.00  0.00     0.134 A 
ATOM     79  C   UNL A   1      37.076  32.656  28.705  1.00  0.00     0.134 A 
ATOM     80  F   UNL A   1      35.976  29.293  29.507  1.00  0.00    -0.206 F 
ATOM     81  C   UNL A   1      34.898  30.989  28.291  1.00  0.00     0.040 A 
ATOM     82  C   UNL A   1      35.971  33.122  27.989  1.00  0.00     0.040 A 
ATOM     83  F   UNL A   1      38.111  33.491  28.876  1.00  0.00    -0.206 F 
ATOM     84  C   UNL A   1      34.880  32.283  27.775  1.00  0.00     0.006 A 
ENDBRANCH  56  77
BRANCH  68  85
ATOM     85  C   UNL A   1      39.140  32.191  35.856  1.00  0.00     0.057 A 
ATOM     86  C   UNL A   1      38.253  31.614  36.773  1.00  0.00     0.134 A 
ATOM     87  C   UNL A   1      39.503  33.528  36.060  1.00  0.00     0.134 A 
ATOM     88  F   UNL A   1      37.854  30.342  36.625  1.00  0.00    -0.206 F 
ATOM     89  C   UNL A   1      37.728  32.348  37.838  1.00  0.00     0.040 A 
ATOM     90  C   UNL A   1      39.007  34.263  37.136  1.00  0.00     0.040 A 
ATOM     91  F   UNL A   1      40.355  34.139  35.221  1.00  0.00    -0.206 F 
ATOM     92  C   UNL A   1      38.111  33.675  38.025  1.00  0.00     0.006 A 
ENDBRANCH  68  85
ENDBRANCH  42  43
ENDBRANCH  35  37
ENDBRANCH  34  35
ENDBRANCH  33  34
ENDBRANCH  32  33
ENDBRANCH  31  32
ENDBRANCH   1  31
TORSDOF 17
ENDMDL
MODEL 3
REMARK VINA RESULT:     -12.3      4.775      7.011
REMARK SMILES O=C(CCCN1C(=O)/C(=C/c2ccccc2Cl)SC1=S)Nc1cccc(C(=O)OCCOC(=O)c2ccc(-c3c4nc(c(-c5c(F)cccc5F)c5ccc([nH]5)c(-c5c(F)cccc5F)c5nc(c(-c6c(F)cccc6F)c6ccc3[nH]6)C=C5)C=C4)cc2)c1
REMARK SMILES IDX 27 1 28 2 26 3 22 4 23 5 89 6 24 7 25 8 21 9 1 10 2 11 3 13
REMARK SMILES IDX 4 14 5 15 6 16 7 17 19 18 8 19 9 20 18 21 20 22 10 23 11 24
REMARK SMILES IDX 12 25 16 26 13 27 15 28 17 29 14 30 29 31 30 32 31 33 32 34
REMARK SMILES IDX 33 35 34 36 35 37 36 38 88 39 37 40 87 41 38 42 39 43 40 44
REMARK SMILES IDX 81 45 41 46 86 47 80 48 82 49 42 50 85 51 79 52 78 53 43 55
REMARK SMILES IDX 69 56 52 57 68 58 53 59 56 60 67 61 83 62 54 63 55 64 66 66
REMARK SMILES IDX 84 67 57 68 44 69 45 70 50 71 46 72 47 73 49 74 51 75 48 76
REMARK SMILES IDX 70 77 71 78 76 79 72 80 73 81 75 82 77 83 74 84 58 85 59 86
REMARK SMILES IDX 64 87 60 88 61 89 63 90 65 91 62 92
REMARK H PARENT 21 12 82 54 56 65
REMARK Flexibility Score: inf
ROOT
ATOM      1  C   UNL A   1      35.252  33.393  28.757  1.00  0.00     0.338 C 
ATOM      2  O   UNL A   1      36.196  34.143  28.929  1.00  0.00    -0.246 OA
ENDROOT
BRANCH   1   3
ATOM      3  C   UNL A   1      35.376  32.020  28.219  1.00  0.00     0.062 A 
ATOM      4  C   UNL A   1      34.369  29.934  27.602  1.00  0.00     0.042 A 
ATOM      5  C   UNL A   1      35.629  29.325  27.578  1.00  0.00     0.026 A 
ATOM      6  C   UNL A   1      34.234  31.270  27.956  1.00  0.00     0.041 A 
ATOM      7  C   UNL A   1      36.772  30.095  27.744  1.00  0.00     0.003 A 
ATOM      8  C   UNL A   1      36.642  31.454  28.013  1.00  0.00     0.016 A 
BRANCH   4   9
ATOM      9  N   UNL A   1      33.274  29.137  27.265  1.00  0.00    -0.326 N 
ATOM     10  O   UNL A   1      33.291  29.347  24.958  1.00  0.00    -0.275 OA
ATOM     11  C   UNL A   1      32.830  28.869  25.991  1.00  0.00     0.224 C 
ATOM     12  H   UNL A   1      32.773  28.728  28.006  1.00  0.00     0.169 HD
BRANCH  11  13
ATOM     13  C   UNL A   1      31.693  27.869  25.939  1.00  0.00     0.102 C 
BRANCH  13  14
ATOM     14  C   UNL A   1      32.122  26.401  26.066  1.00  0.00     0.032 C 
BRANCH  14  15
ATOM     15  C   UNL A   1      33.478  26.008  25.451  1.00  0.00     0.128 C 
BRANCH  15  16
ATOM     16  N   UNL A   1      33.497  24.649  24.899  1.00  0.00    -0.293 N 
ATOM     17  C   UNL A   1      33.818  23.592  25.730  1.00  0.00     0.266 C 
ATOM     18  C   UNL A   1      33.221  24.324  23.587  1.00  0.00     0.148 C 
ATOM     19  O   UNL A   1      34.163  23.699  26.899  1.00  0.00    -0.268 OA
ATOM     20  C   UNL A   1      33.662  22.297  25.030  1.00  0.00     0.081 C 
ATOM     21  S   UNL A   1      33.227  22.574  23.393  1.00  0.00    -0.054 SA
ATOM     22  S   UNL A   1      32.907  25.358  22.319  1.00  0.00    -0.052 S 
ATOM     23  C   UNL A   1      33.847  21.129  25.660  1.00  0.00     0.031 C 
BRANCH  23  24
ATOM     24  C   UNL A   1      33.785  19.809  25.015  1.00  0.00    -0.006 A 
ATOM     25  C   UNL A   1      32.527  19.242  24.764  1.00  0.00     0.010 A 
ATOM     26  C   UNL A   1      34.939  19.096  24.646  1.00  0.00     0.048 A 
ATOM     27  C   UNL A   1      32.425  18.004  24.125  1.00  0.00     0.001 A 
ATOM     28  C   UNL A   1      34.831  17.865  23.996  1.00  0.00     0.021 A 
ATOM     29  Cl  UNL A   1      36.531  19.679  25.000  1.00  0.00    -0.084 Cl
ATOM     30  C   UNL A   1      33.575  17.322  23.731  1.00  0.00     0.002 A 
ENDBRANCH  23  24
ENDBRANCH  15  16
ENDBRANCH  14  15
ENDBRANCH  13  14
ENDBRANCH  11  13
ENDBRANCH   4   9
ENDBRANCH   1   3
BRANCH   1  31
ATOM     31  O   UNL A   1      33.965  33.591  29.147  1.00  0.00    -0.458 OA
BRANCH  31  32
ATOM     32  C   UNL A   1      33.254  34.691  28.546  1.00  0.00     0.275 C 
BRANCH  32  33
ATOM     33  C   UNL A   1      33.024  35.819  29.553  1.00  0.00     0.275 C 
BRANCH  33  34
ATOM     34  O   UNL A   1      32.264  35.334  30.676  1.00  0.00    -0.458 OA
BRANCH  34  35
ATOM     35  C   UNL A   1      32.545  35.916  31.862  1.00  0.00     0.338 C 
ATOM     36  O   UNL A   1      31.980  36.857  32.391  1.00  0.00    -0.246 OA
BRANCH  35  37
ATOM     37  C   UNL A   1      33.609  35.158  32.536  1.00  0.00     0.060 A 
ATOM     38  C   UNL A   1      34.886  35.698  32.506  1.00  0.00     0.016 A 
ATOM     39  C   UNL A   1      33.408  33.875  33.029  1.00  0.00     0.016 A 
ATOM     40  C   UNL A   1      35.993  34.931  32.848  1.00  0.00     0.010 A 
ATOM     41  C   UNL A   1      34.511  33.145  33.496  1.00  0.00     0.010 A 
ATOM     42  C   UNL A   1      35.823  33.646  33.372  1.00  0.00    -0.014 A 
BRANCH  42  43
ATOM     43  C   UNL A   1      37.013  32.829  33.751  1.00  0.00     0.031 A 
ATOM     44  C   UNL A   1      37.718  33.081  35.059  1.00  0.00     0.074 A 
ATOM     45  C   UNL A   1      37.459  31.845  32.942  1.00  0.00     0.049 A 
ATOM     46  N   UNL A   1      38.873  32.629  35.482  1.00  0.00    -0.248 NA
ATOM     47  C   UNL A   1      37.042  33.974  36.014  1.00  0.00     0.031 C 
ATOM     48  C   UNL A   1      36.845  31.438  31.676  1.00  0.00     0.029 A 
ATOM     49  N   UNL A   1      38.537  31.001  33.066  1.00  0.00    -0.354 N 
ATOM     50  C   UNL A   1      39.089  33.231  36.716  1.00  0.00     0.074 A 
ATOM     51  C   UNL A   1      37.949  34.086  36.973  1.00  0.00     0.031 C 
ATOM     52  C   UNL A   1      37.529  30.407  31.161  1.00  0.00     0.029 A 
ATOM     53  C   UNL A   1      38.693  30.148  31.998  1.00  0.00     0.049 A 
ATOM     54  H   UNL A   1      39.141  31.007  33.844  1.00  0.00     0.167 HD
ATOM     55  C   UNL A   1      40.142  33.084  37.556  1.00  0.00     0.037 A 
ATOM     56  C   UNL A   1      39.687  29.294  31.689  1.00  0.00     0.037 A 
ATOM     57  C   UNL A   1      41.247  32.190  37.319  1.00  0.00     0.049 A 
ATOM     58  C   UNL A   1      40.872  29.192  32.606  1.00  0.00     0.074 A 
ATOM     59  C   UNL A   1      42.354  31.957  38.116  1.00  0.00     0.029 A 
ATOM     60  N   UNL A   1      41.379  31.373  36.205  1.00  0.00    -0.354 N 
ATOM     61  N   UNL A   1      41.092  29.805  33.743  1.00  0.00    -0.248 NA
ATOM     62  C   UNL A   1      41.957  28.294  32.186  1.00  0.00     0.031 C 
ATOM     63  C   UNL A   1      43.179  31.036  37.462  1.00  0.00     0.029 A 
ATOM     64  C   UNL A   1      42.559  30.651  36.285  1.00  0.00     0.049 A 
ATOM     65  H   UNL A   1      40.730  31.316  35.466  1.00  0.00     0.167 HD
ATOM     66  C   UNL A   1      42.328  29.352  34.186  1.00  0.00     0.074 A 
ATOM     67  C   UNL A   1      42.801  28.400  33.202  1.00  0.00     0.031 C 
ATOM     68  C   UNL A   1      43.012  29.699  35.303  1.00  0.00     0.037 A 
BRANCH  55  69
ATOM     69  C   UNL A   1      40.173  33.938  38.792  1.00  0.00     0.057 A 
ATOM     70  C   UNL A   1      40.814  35.183  38.829  1.00  0.00     0.134 A 
ATOM     71  C   UNL A   1      39.518  33.516  39.958  1.00  0.00     0.134 A 
ATOM     72  F   UNL A   1      41.470  35.643  37.754  1.00  0.00    -0.206 F 
ATOM     73  C   UNL A   1      40.826  35.963  39.988  1.00  0.00     0.040 A 
ATOM     74  C   UNL A   1      39.499  34.301  41.113  1.00  0.00     0.040 A 
ATOM     75  F   UNL A   1      38.877  32.339  39.991  1.00  0.00    -0.206 F 
ATOM     76  C   UNL A   1      40.161  35.526  41.132  1.00  0.00     0.006 A 
ENDBRANCH  55  69
BRANCH  56  77
ATOM     77  C   UNL A   1      39.631  28.511  30.428  1.00  0.00     0.057 A 
ATOM     78  C   UNL A   1      39.042  27.242  30.386  1.00  0.00     0.134 A 
ATOM     79  C   UNL A   1      40.167  29.010  29.233  1.00  0.00     0.134 A 
ATOM     80  F   UNL A   1      38.533  26.697  31.501  1.00  0.00    -0.206 F 
ATOM     81  C   UNL A   1      39.000  26.494  29.208  1.00  0.00     0.040 A 
ATOM     82  C   UNL A   1      40.102  28.287  28.041  1.00  0.00     0.040 A 
ATOM     83  F   UNL A   1      40.745  30.220  29.203  1.00  0.00    -0.206 F 
ATOM     84  C   UNL A   1      39.524  27.021  28.028  1.00  0.00     0.006 A 
ENDBRANCH  56  77
BRANCH  68  85
ATOM     85  C   UNL A   1      44.321  29.006  35.546  1.00  0.00     0.057 A 
ATOM     86  C   UNL A   1      45.535  29.533  35.088  1.00  0.00     0.134 A 
ATOM     87  C   UNL A   1      44.368  27.812  36.275  1.00  0.00     0.134 A 
ATOM     88  F   UNL A   1      45.557  30.666  34.370  1.00  0.00    -0.206 F 
ATOM     89  C   UNL A   1      46.747  28.881  35.326  1.00  0.00     0.040 A 
ATOM     90  C   UNL A   1      45.574  27.167  36.544  1.00  0.00     0.040 A 
ATOM     91  F   UNL A   1      43.240  27.258  36.750  1.00  0.00    -0.206 F 
ATOM     92  C   UNL A   1      46.769  27.698  36.062  1.00  0.00     0.006 A 
ENDBRANCH  68  85
ENDBRANCH  42  43
ENDBRANCH  35  37
ENDBRANCH  34  35
ENDBRANCH  33  34
ENDBRANCH  32  33
ENDBRANCH  31  32
ENDBRANCH   1  31
TORSDOF 17
ENDMDL
