MODEL 1
REMARK VINA RESULT:      -9.1      0.000      0.000
REMARK SMILES CCC([NH3+])(CC)C(=O)N(CCC(=O)OCCOC(=O)c1ccc(-c2c3nc(c(-c4c(F)cccc4F)c4ccc([nH]4)c(-c4c(F)cccc4F)c4nc(c(-c5c(F)cccc5F)c5ccc2[nH]5)C=C4)C=C3)cc1)C(C)C
REMARK SMILES IDX 14 1 12 2 13 3 11 4 10 5 9 6 7 7 8 8 3 9 2 10 1 11 4 12 5 16
REMARK SMILES IDX 6 17 74 18 75 19 76 20 15 21 16 22 17 23 18 24 19 25 20 26
REMARK SMILES IDX 21 27 73 28 22 29 72 30 23 31 24 32 25 33 66 34 26 35 71 36
REMARK SMILES IDX 65 37 67 38 27 39 70 40 64 41 63 42 28 44 54 45 37 46 53 47
REMARK SMILES IDX 38 48 41 49 52 50 68 51 39 52 40 53 51 55 69 56 42 57 29 58
REMARK SMILES IDX 30 59 35 60 31 61 32 62 34 63 36 64 33 65 55 66 56 67 61 68
REMARK SMILES IDX 57 69 58 70 60 71 62 72 59 73 43 74 44 75 49 76 45 77 46 78
REMARK SMILES IDX 48 79 50 80 47 81
REMARK H PARENT 4 13 4 14 4 15 67 43 41 54
REMARK Flexibility Score: inf
ROOT
ATOM      1  O   UNL A   1      32.993  30.785  26.576  1.00  0.00    -0.462 OA
ENDROOT
BRANCH   1   2
ATOM      2  C   UNL A   1      33.200  29.490  26.915  1.00  0.00     0.307 C 
ATOM      3  O   UNL A   1      34.212  29.057  27.448  1.00  0.00    -0.252 OA
BRANCH   2   4
ATOM      4  C   UNL A   1      32.024  28.622  26.531  1.00  0.00     0.144 C 
BRANCH   4   5
ATOM      5  C   UNL A   1      32.158  27.163  26.979  1.00  0.00     0.131 C 
BRANCH   5   6
ATOM      6  N   UNL A   1      31.669  26.183  25.994  1.00  0.00    -0.334 N 
BRANCH   6   7
ATOM      7  C   UNL A   1      30.342  25.982  25.599  1.00  0.00     0.284 C 
ATOM      8  O   UNL A   1      29.515  25.597  26.436  1.00  0.00    -0.268 OA
BRANCH   7   9
ATOM      9  C   UNL A   1      29.859  26.203  24.111  1.00  0.00     0.173 C 
BRANCH   9  10
ATOM     10  C   UNL A   1      30.257  27.646  23.643  1.00  0.00     0.075 C 
ATOM     11  C   UNL A   1      29.137  28.513  23.061  1.00  0.00     0.011 C 
ENDBRANCH   9  10
BRANCH   9  12
ATOM     12  N   UNL A   1      28.376  26.128  24.030  1.00  0.00    -0.345 N 
ATOM     13  H   UNL A   1      28.026  26.915  23.482  1.00  0.00     0.345 HD
ATOM     14  H   UNL A   1      27.982  26.166  24.970  1.00  0.00     0.345 HD
ATOM     15  H   UNL A   1      28.105  25.253  23.581  1.00  0.00     0.345 HD
ENDBRANCH   9  12
BRANCH   9  16
ATOM     16  C   UNL A   1      30.485  25.194  23.115  1.00  0.00     0.075 C 
ATOM     17  C   UNL A   1      31.452  25.811  22.109  1.00  0.00     0.011 C 
ENDBRANCH   9  16
ENDBRANCH   7   9
ENDBRANCH   6   7
BRANCH   6  18
ATOM     18  C   UNL A   1      32.692  25.236  25.487  1.00  0.00     0.079 C 
ATOM     19  C   UNL A   1      33.962  25.933  24.989  1.00  0.00     0.031 C 
ATOM     20  C   UNL A   1      33.009  24.109  26.472  1.00  0.00     0.031 C 
ENDBRANCH   6  18
ENDBRANCH   5   6
ENDBRANCH   4   5
ENDBRANCH   2   4
ENDBRANCH   1   2
BRANCH   1  21
ATOM     21  C   UNL A   1      31.646  31.293  26.609  1.00  0.00     0.274 C 
BRANCH  21  22
ATOM     22  C   UNL A   1      31.638  32.805  26.845  1.00  0.00     0.275 C 
BRANCH  22  23
ATOM     23  O   UNL A   1      32.986  33.307  26.886  1.00  0.00    -0.458 OA
BRANCH  23  24
ATOM     24  C   UNL A   1      33.340  33.971  28.009  1.00  0.00     0.338 C 
ATOM     25  O   UNL A   1      32.744  34.880  28.556  1.00  0.00    -0.246 OA
BRANCH  24  26
ATOM     26  C   UNL A   1      34.515  33.307  28.594  1.00  0.00     0.060 A 
ATOM     27  C   UNL A   1      34.313  32.159  29.363  1.00  0.00     0.016 A 
ATOM     28  C   UNL A   1      35.799  33.821  28.402  1.00  0.00     0.016 A 
ATOM     29  C   UNL A   1      35.399  31.505  29.936  1.00  0.00     0.010 A 
ATOM     30  C   UNL A   1      36.889  33.163  28.978  1.00  0.00     0.010 A 
ATOM     31  C   UNL A   1      36.695  32.002  29.747  1.00  0.00    -0.014 A 
BRANCH  31  32
ATOM     32  C   UNL A   1      37.840  31.311  30.383  1.00  0.00     0.031 A 
ATOM     33  C   UNL A   1      38.187  31.597  31.814  1.00  0.00     0.074 A 
ATOM     34  C   UNL A   1      38.545  30.407  29.677  1.00  0.00     0.049 A 
ATOM     35  N   UNL A   1      39.171  31.127  32.535  1.00  0.00    -0.248 NA
ATOM     36  C   UNL A   1      37.309  32.537  32.527  1.00  0.00     0.031 C 
ATOM     37  C   UNL A   1      38.282  30.028  28.288  1.00  0.00     0.029 A 
ATOM     38  N   UNL A   1      39.628  29.644  30.033  1.00  0.00    -0.354 N 
ATOM     39  C   UNL A   1      39.033  31.711  33.788  1.00  0.00     0.074 A 
ATOM     40  C   UNL A   1      37.889  32.595  33.718  1.00  0.00     0.031 C 
ATOM     41  C   UNL A   1      39.183  29.106  27.908  1.00  0.00     0.029 A 
ATOM     42  C   UNL A   1      40.104  28.857  29.013  1.00  0.00     0.049 A 
ATOM     43  H   UNL A   1      40.026  29.660  30.933  1.00  0.00     0.167 HD
ATOM     44  C   UNL A   1      39.787  31.518  34.895  1.00  0.00     0.037 A 
ATOM     45  C   UNL A   1      41.177  28.044  28.971  1.00  0.00     0.037 A 
ATOM     46  C   UNL A   1      40.928  30.642  34.958  1.00  0.00     0.049 A 
ATOM     47  C   UNL A   1      42.029  27.892  30.201  1.00  0.00     0.074 A 
ATOM     48  C   UNL A   1      41.765  30.387  36.031  1.00  0.00     0.029 A 
ATOM     49  N   UNL A   1      41.391  29.874  33.899  1.00  0.00    -0.354 N 
ATOM     50  N   UNL A   1      41.888  28.449  31.380  1.00  0.00    -0.248 NA
ATOM     51  C   UNL A   1      43.189  26.996  30.095  1.00  0.00     0.031 C 
ATOM     52  C   UNL A   1      42.755  29.493  35.611  1.00  0.00     0.029 A 
ATOM     53  C   UNL A   1      42.510  29.156  34.290  1.00  0.00     0.049 A 
ATOM     54  H   UNL A   1      40.985  29.844  33.002  1.00  0.00     0.167 HD
ATOM     55  C   UNL A   1      42.927  27.958  32.159  1.00  0.00     0.074 A 
ATOM     56  C   UNL A   1      43.675  27.040  31.327  1.00  0.00     0.031 C 
ATOM     57  C   UNL A   1      43.240  28.247  33.445  1.00  0.00     0.037 A 
BRANCH  44  58
ATOM     58  C   UNL A   1      39.408  32.280  36.131  1.00  0.00     0.057 A 
ATOM     59  C   UNL A   1      39.977  33.525  36.429  1.00  0.00     0.134 A 
ATOM     60  C   UNL A   1      38.434  31.787  37.006  1.00  0.00     0.134 A 
ATOM     61  F   UNL A   1      40.927  34.046  35.639  1.00  0.00    -0.206 F 
ATOM     62  C   UNL A   1      39.599  34.245  37.565  1.00  0.00     0.040 A 
ATOM     63  C   UNL A   1      38.031  32.508  38.132  1.00  0.00     0.040 A 
ATOM     64  F   UNL A   1      37.849  30.602  36.776  1.00  0.00    -0.206 F 
ATOM     65  C   UNL A   1      38.617  33.740  38.414  1.00  0.00     0.006 A 
ENDBRANCH  44  58
BRANCH  45  66
ATOM     66  C   UNL A   1      41.523  27.330  27.716  1.00  0.00     0.057 A 
ATOM     67  C   UNL A   1      42.350  27.913  26.749  1.00  0.00     0.134 A 
ATOM     68  C   UNL A   1      41.006  26.058  27.439  1.00  0.00     0.134 A 
ATOM     69  F   UNL A   1      42.856  29.140  26.946  1.00  0.00    -0.206 F 
ATOM     70  C   UNL A   1      42.631  27.270  25.542  1.00  0.00     0.040 A 
ATOM     71  C   UNL A   1      41.300  25.392  26.249  1.00  0.00     0.040 A 
ATOM     72  F   UNL A   1      40.207  25.444  28.325  1.00  0.00    -0.206 F 
ATOM     73  C   UNL A   1      42.107  26.003  25.293  1.00  0.00     0.006 A 
ENDBRANCH  45  66
BRANCH  57  74
ATOM     74  C   UNL A   1      44.428  27.540  34.029  1.00  0.00     0.057 A 
ATOM     75  C   UNL A   1      44.312  26.292  34.651  1.00  0.00     0.134 A 
ATOM     76  C   UNL A   1      45.706  28.112  33.958  1.00  0.00     0.134 A 
ATOM     77  F   UNL A   1      43.114  25.697  34.765  1.00  0.00    -0.206 F 
ATOM     78  C   UNL A   1      45.418  25.649  35.210  1.00  0.00     0.040 A 
ATOM     79  C   UNL A   1      46.823  27.467  34.489  1.00  0.00     0.040 A 
ATOM     80  F   UNL A   1      45.888  29.303  33.368  1.00  0.00    -0.206 F 
ATOM     81  C   UNL A   1      46.680  26.236  35.125  1.00  0.00     0.006 A 
ENDBRANCH  57  74
ENDBRANCH  31  32
ENDBRANCH  24  26
ENDBRANCH  23  24
ENDBRANCH  22  23
ENDBRANCH  21  22
ENDBRANCH   1  21
TORSDOF 19
ENDMDL
MODEL 2
REMARK VINA RESULT:      -8.9      5.124      8.871
REMARK SMILES CCC([NH3+])(CC)C(=O)N(CCC(=O)OCCOC(=O)c1ccc(-c2c3nc(c(-c4c(F)cccc4F)c4ccc([nH]4)c(-c4c(F)cccc4F)c4nc(c(-c5c(F)cccc5F)c5ccc2[nH]5)C=C4)C=C3)cc1)C(C)C
REMARK SMILES IDX 14 1 12 2 13 3 11 4 10 5 9 6 7 7 8 8 3 9 2 10 1 11 4 12 5 16
REMARK SMILES IDX 6 17 74 18 75 19 76 20 15 21 16 22 17 23 18 24 19 25 20 26
REMARK SMILES IDX 21 27 73 28 22 29 72 30 23 31 24 32 25 33 66 34 26 35 71 36
REMARK SMILES IDX 65 37 67 38 27 39 70 40 64 41 63 42 28 44 54 45 37 46 53 47
REMARK SMILES IDX 38 48 41 49 52 50 68 51 39 52 40 53 51 55 69 56 42 57 29 58
REMARK SMILES IDX 30 59 35 60 31 61 32 62 34 63 36 64 33 65 55 66 56 67 61 68
REMARK SMILES IDX 57 69 58 70 60 71 62 72 59 73 43 74 44 75 49 76 45 77 46 78
REMARK SMILES IDX 48 79 50 80 47 81
REMARK H PARENT 4 13 4 14 4 15 67 43 41 54
REMARK Flexibility Score: inf
ROOT
ATOM      1  O   UNL A   1      38.404  21.631  25.496  1.00  0.00    -0.462 OA
ENDROOT
BRANCH   1   2
ATOM      2  C   UNL A   1      37.327  22.451  25.458  1.00  0.00     0.307 C 
ATOM      3  O   UNL A   1      37.185  23.455  26.141  1.00  0.00    -0.252 OA
BRANCH   2   4
ATOM      4  C   UNL A   1      36.291  21.960  24.472  1.00  0.00     0.144 C 
BRANCH   4   5
ATOM      5  C   UNL A   1      35.578  23.083  23.712  1.00  0.00     0.131 C 
BRANCH   5   6
ATOM      6  N   UNL A   1      34.145  23.209  24.029  1.00  0.00    -0.334 N 
BRANCH   6   7
ATOM      7  C   UNL A   1      33.224  22.166  24.173  1.00  0.00     0.284 C 
ATOM      8  O   UNL A   1      32.888  21.515  23.176  1.00  0.00    -0.268 OA
BRANCH   7   9
ATOM      9  C   UNL A   1      32.570  21.801  25.565  1.00  0.00     0.173 C 
BRANCH   9  10
ATOM     10  C   UNL A   1      33.367  22.509  26.716  1.00  0.00     0.075 C 
ATOM     11  C   UNL A   1      34.200  21.606  27.631  1.00  0.00     0.011 C 
ENDBRANCH   9  10
BRANCH   9  12
ATOM     12  N   UNL A   1      32.672  20.340  25.818  1.00  0.00    -0.345 N 
ATOM     13  H   UNL A   1      31.917  19.857  25.330  1.00  0.00     0.345 HD
ATOM     14  H   UNL A   1      32.597  20.162  26.820  1.00  0.00     0.345 HD
ATOM     15  H   UNL A   1      33.570  19.998  25.478  1.00  0.00     0.345 HD
ENDBRANCH   9  12
BRANCH   9  16
ATOM     16  C   UNL A   1      31.089  22.245  25.673  1.00  0.00     0.075 C 
ATOM     17  C   UNL A   1      30.793  23.196  26.828  1.00  0.00     0.011 C 
ENDBRANCH   9  16
ENDBRANCH   7   9
ENDBRANCH   6   7
BRANCH   6  18
ATOM     18  C   UNL A   1      33.626  24.598  24.058  1.00  0.00     0.079 C 
ATOM     19  C   UNL A   1      34.333  25.482  25.090  1.00  0.00     0.031 C 
ATOM     20  C   UNL A   1      33.588  25.255  22.676  1.00  0.00     0.031 C 
ENDBRANCH   6  18
ENDBRANCH   5   6
ENDBRANCH   4   5
ENDBRANCH   2   4
ENDBRANCH   1   2
BRANCH   1  21
ATOM     21  C   UNL A   1      38.215  20.240  25.172  1.00  0.00     0.274 C 
BRANCH  21  22
ATOM     22  C   UNL A   1      39.213  19.362  25.932  1.00  0.00     0.275 C 
BRANCH  22  23
ATOM     23  O   UNL A   1      40.472  19.330  25.238  1.00  0.00    -0.458 OA
BRANCH  23  24
ATOM     24  C   UNL A   1      41.575  19.205  26.011  1.00  0.00     0.338 C 
ATOM     25  O   UNL A   1      42.225  18.199  26.225  1.00  0.00    -0.246 OA
BRANCH  24  26
ATOM     26  C   UNL A   1      41.991  20.546  26.450  1.00  0.00     0.060 A 
ATOM     27  C   UNL A   1      42.314  21.492  25.475  1.00  0.00     0.016 A 
ATOM     28  C   UNL A   1      42.080  20.862  27.807  1.00  0.00     0.016 A 
ATOM     29  C   UNL A   1      42.716  22.770  25.851  1.00  0.00     0.010 A 
ATOM     30  C   UNL A   1      42.484  22.146  28.184  1.00  0.00     0.010 A 
ATOM     31  C   UNL A   1      42.803  23.106  27.208  1.00  0.00    -0.014 A 
BRANCH  31  32
ATOM     32  C   UNL A   1      43.256  24.462  27.595  1.00  0.00     0.031 A 
ATOM     33  C   UNL A   1      42.252  25.497  28.008  1.00  0.00     0.074 A 
ATOM     34  C   UNL A   1      44.571  24.747  27.600  1.00  0.00     0.049 A 
ATOM     35  N   UNL A   1      42.443  26.746  28.344  1.00  0.00    -0.248 NA
ATOM     36  C   UNL A   1      40.845  25.068  28.051  1.00  0.00     0.031 C 
ATOM     37  C   UNL A   1      45.640  23.812  27.243  1.00  0.00     0.029 A 
ATOM     38  N   UNL A   1      45.232  25.907  27.916  1.00  0.00    -0.354 N 
ATOM     39  C   UNL A   1      41.185  27.255  28.638  1.00  0.00     0.074 A 
ATOM     40  C   UNL A   1      40.233  26.187  28.410  1.00  0.00     0.031 C 
ATOM     41  C   UNL A   1      46.824  24.437  27.357  1.00  0.00     0.029 A 
ATOM     42  C   UNL A   1      46.594  25.822  27.760  1.00  0.00     0.049 A 
ATOM     43  H   UNL A   1      44.774  26.721  28.225  1.00  0.00     0.167 HD
ATOM     44  C   UNL A   1      40.857  28.496  29.068  1.00  0.00     0.037 A 
ATOM     45  C   UNL A   1      47.546  26.764  27.903  1.00  0.00     0.037 A 
ATOM     46  C   UNL A   1      41.807  29.556  29.287  1.00  0.00     0.049 A 
ATOM     47  C   UNL A   1      47.145  28.149  28.328  1.00  0.00     0.074 A 
ATOM     48  C   UNL A   1      41.572  30.853  29.710  1.00  0.00     0.029 A 
ATOM     49  N   UNL A   1      43.176  29.439  29.101  1.00  0.00    -0.354 N 
ATOM     50  N   UNL A   1      45.952  28.619  28.605  1.00  0.00    -0.248 NA
ATOM     51  C   UNL A   1      48.225  29.138  28.465  1.00  0.00     0.031 C 
ATOM     52  C   UNL A   1      42.795  31.530  29.746  1.00  0.00     0.029 A 
ATOM     53  C   UNL A   1      43.797  30.643  29.387  1.00  0.00     0.049 A 
ATOM     54  H   UNL A   1      43.639  28.620  28.807  1.00  0.00     0.167 HD
ATOM     55  C   UNL A   1      46.139  29.946  28.964  1.00  0.00     0.074 A 
ATOM     56  C   UNL A   1      47.563  30.202  28.895  1.00  0.00     0.031 C 
ATOM     57  C   UNL A   1      45.216  30.876  29.312  1.00  0.00     0.037 A 
BRANCH  44  58
ATOM     58  C   UNL A   1      39.405  28.779  29.319  1.00  0.00     0.057 A 
ATOM     59  C   UNL A   1      38.829  28.594  30.582  1.00  0.00     0.134 A 
ATOM     60  C   UNL A   1      38.587  29.283  28.301  1.00  0.00     0.134 A 
ATOM     61  F   UNL A   1      39.554  28.100  31.595  1.00  0.00    -0.206 F 
ATOM     62  C   UNL A   1      37.483  28.887  30.819  1.00  0.00     0.040 A 
ATOM     63  C   UNL A   1      37.247  29.601  28.531  1.00  0.00     0.040 A 
ATOM     64  F   UNL A   1      39.078  29.485  27.069  1.00  0.00    -0.206 F 
ATOM     65  C   UNL A   1      36.692  29.401  29.793  1.00  0.00     0.006 A 
ENDBRANCH  44  58
BRANCH  45  66
ATOM     66  C   UNL A   1      48.967  26.439  27.620  1.00  0.00     0.057 A 
ATOM     67  C   UNL A   1      49.531  26.674  26.361  1.00  0.00     0.134 A 
ATOM     68  C   UNL A   1      49.785  25.853  28.593  1.00  0.00     0.134 A 
ATOM     69  F   UNL A   1      48.791  27.211  25.379  1.00  0.00    -0.206 F 
ATOM     70  C   UNL A   1      50.849  26.316  26.072  1.00  0.00     0.040 A 
ATOM     71  C   UNL A   1      51.112  25.515  28.327  1.00  0.00     0.040 A 
ATOM     72  F   UNL A   1      49.304  25.602  29.820  1.00  0.00    -0.206 F 
ATOM     73  C   UNL A   1      51.644  25.739  27.060  1.00  0.00     0.006 A 
ENDBRANCH  45  66
BRANCH  57  74
ATOM     74  C   UNL A   1      45.728  32.241  29.665  1.00  0.00     0.057 A 
ATOM     75  C   UNL A   1      46.123  32.567  30.969  1.00  0.00     0.134 A 
ATOM     76  C   UNL A   1      45.837  33.239  28.688  1.00  0.00     0.134 A 
ATOM     77  F   UNL A   1      46.029  31.661  31.955  1.00  0.00    -0.206 F 
ATOM     78  C   UNL A   1      46.579  33.845  31.295  1.00  0.00     0.040 A 
ATOM     79  C   UNL A   1      46.317  34.512  28.995  1.00  0.00     0.040 A 
ATOM     80  F   UNL A   1      45.484  32.990  27.417  1.00  0.00    -0.206 F 
ATOM     81  C   UNL A   1      46.682  34.820  30.304  1.00  0.00     0.006 A 
ENDBRANCH  57  74
ENDBRANCH  31  32
ENDBRANCH  24  26
ENDBRANCH  23  24
ENDBRANCH  22  23
ENDBRANCH  21  22
ENDBRANCH   1  21
TORSDOF 19
ENDMDL
MODEL 3
REMARK VINA RESULT:      -8.9      5.257     10.091
REMARK SMILES CCC([NH3+])(CC)C(=O)N(CCC(=O)OCCOC(=O)c1ccc(-c2c3nc(c(-c4c(F)cccc4F)c4ccc([nH]4)c(-c4c(F)cccc4F)c4nc(c(-c5c(F)cccc5F)c5ccc2[nH]5)C=C4)C=C3)cc1)C(C)C
REMARK SMILES IDX 14 1 12 2 13 3 11 4 10 5 9 6 7 7 8 8 3 9 2 10 1 11 4 12 5 16
REMARK SMILES IDX 6 17 74 18 75 19 76 20 15 21 16 22 17 23 18 24 19 25 20 26
REMARK SMILES IDX 21 27 73 28 22 29 72 30 23 31 24 32 25 33 66 34 26 35 71 36
REMARK SMILES IDX 65 37 67 38 27 39 70 40 64 41 63 42 28 44 54 45 37 46 53 47
REMARK SMILES IDX 38 48 41 49 52 50 68 51 39 52 40 53 51 55 69 56 42 57 29 58
REMARK SMILES IDX 30 59 35 60 31 61 32 62 34 63 36 64 33 65 55 66 56 67 61 68
REMARK SMILES IDX 57 69 58 70 60 71 62 72 59 73 43 74 44 75 49 76 45 77 46 78
REMARK SMILES IDX 48 79 50 80 47 81
REMARK H PARENT 4 13 4 14 4 15 67 43 41 54
REMARK Flexibility Score: inf
ROOT
ATOM      1  O   UNL A   1      41.271  20.581  27.219  1.00  0.00    -0.462 OA
ENDROOT
BRANCH   1   2
ATOM      2  C   UNL A   1      41.112  19.758  26.156  1.00  0.00     0.307 C 
ATOM      3  O   UNL A   1      40.040  19.328  25.756  1.00  0.00    -0.252 OA
BRANCH   2   4
ATOM      4  C   UNL A   1      42.439  19.405  25.525  1.00  0.00     0.144 C 
BRANCH   4   5
ATOM      5  C   UNL A   1      43.637  20.121  26.157  1.00  0.00     0.131 C 
BRANCH   5   6
ATOM      6  N   UNL A   1      44.448  20.896  25.202  1.00  0.00    -0.334 N 
BRANCH   6   7
ATOM      7  C   UNL A   1      44.240  22.222  24.810  1.00  0.00     0.284 C 
ATOM      8  O   UNL A   1      43.447  22.463  23.890  1.00  0.00    -0.268 OA
BRANCH   7   9
ATOM      9  C   UNL A   1      45.002  23.433  25.481  1.00  0.00     0.173 C 
BRANCH   9  10
ATOM     10  C   UNL A   1      44.939  23.287  27.041  1.00  0.00     0.075 C 
ATOM     11  C   UNL A   1      44.963  24.585  27.854  1.00  0.00     0.011 C 
ENDBRANCH   9  10
BRANCH   9  12
ATOM     12  N   UNL A   1      44.330  24.717  25.149  1.00  0.00    -0.345 N 
ATOM     13  H   UNL A   1      43.686  24.571  24.371  1.00  0.00     0.345 HD
ATOM     14  H   UNL A   1      45.030  25.410  24.886  1.00  0.00     0.345 HD
ATOM     15  H   UNL A   1      43.811  25.048  25.962  1.00  0.00     0.345 HD
ENDBRANCH   9  12
BRANCH   9  16
ATOM     16  C   UNL A   1      46.496  23.509  25.073  1.00  0.00     0.075 C 
ATOM     17  C   UNL A   1      47.052  24.924  24.957  1.00  0.00     0.011 C 
ENDBRANCH   9  16
ENDBRANCH   7   9
ENDBRANCH   6   7
BRANCH   6  18
ATOM     18  C   UNL A   1      45.503  20.125  24.501  1.00  0.00     0.079 C 
ATOM     19  C   UNL A   1      46.357  19.276  25.447  1.00  0.00     0.031 C 
ATOM     20  C   UNL A   1      44.968  19.304  23.325  1.00  0.00     0.031 C 
ENDBRANCH   6  18
ENDBRANCH   5   6
ENDBRANCH   4   5
ENDBRANCH   2   4
ENDBRANCH   1   2
BRANCH   1  21
ATOM     21  C   UNL A   1      40.489  21.790  27.269  1.00  0.00     0.274 C 
BRANCH  21  22
ATOM     22  C   UNL A   1      41.301  22.986  26.764  1.00  0.00     0.275 C 
BRANCH  22  23
ATOM     23  O   UNL A   1      40.436  24.113  26.542  1.00  0.00    -0.458 OA
BRANCH  23  24
ATOM     24  C   UNL A   1      41.043  25.267  26.182  1.00  0.00     0.338 C 
ATOM     25  O   UNL A   1      41.493  25.564  25.092  1.00  0.00    -0.246 OA
BRANCH  24  26
ATOM     26  C   UNL A   1      40.935  26.219  27.299  1.00  0.00     0.060 A 
ATOM     27  C   UNL A   1      39.934  26.013  28.251  1.00  0.00     0.016 A 
ATOM     28  C   UNL A   1      41.799  27.311  27.398  1.00  0.00     0.016 A 
ATOM     29  C   UNL A   1      39.798  26.893  29.320  1.00  0.00     0.010 A 
ATOM     30  C   UNL A   1      41.662  28.195  28.472  1.00  0.00     0.010 A 
ATOM     31  C   UNL A   1      40.661  27.990  29.438  1.00  0.00    -0.014 A 
BRANCH  31  32
ATOM     32  C   UNL A   1      40.490  28.933  30.567  1.00  0.00     0.031 A 
ATOM     33  C   UNL A   1      39.439  30.000  30.499  1.00  0.00     0.074 A 
ATOM     34  C   UNL A   1      41.264  28.807  31.661  1.00  0.00     0.049 A 
ATOM     35  N   UNL A   1      39.159  30.941  31.362  1.00  0.00    -0.248 NA
ATOM     36  C   UNL A   1      38.587  30.007  29.299  1.00  0.00     0.031 C 
ATOM     37  C   UNL A   1      42.301  27.790  31.850  1.00  0.00     0.029 A 
ATOM     38  N   UNL A   1      41.299  29.540  32.820  1.00  0.00    -0.354 N 
ATOM     39  C   UNL A   1      38.101  31.655  30.813  1.00  0.00     0.074 A 
ATOM     40  C   UNL A   1      37.809  31.056  29.528  1.00  0.00     0.031 C 
ATOM     41  C   UNL A   1      42.872  27.967  33.053  1.00  0.00     0.029 A 
ATOM     42  C   UNL A   1      42.267  29.127  33.702  1.00  0.00     0.049 A 
ATOM     43  H   UNL A   1      40.688  30.290  33.001  1.00  0.00     0.167 HD
ATOM     44  C   UNL A   1      37.430  32.705  31.341  1.00  0.00     0.037 A 
ATOM     45  C   UNL A   1      42.638  29.643  34.889  1.00  0.00     0.037 A 
ATOM     46  C   UNL A   1      37.728  33.301  32.618  1.00  0.00     0.049 A 
ATOM     47  C   UNL A   1      41.910  30.845  35.424  1.00  0.00     0.074 A 
ATOM     48  C   UNL A   1      37.113  34.377  33.234  1.00  0.00     0.029 A 
ATOM     49  N   UNL A   1      38.728  32.867  33.475  1.00  0.00    -0.354 N 
ATOM     50  N   UNL A   1      40.910  31.510  34.897  1.00  0.00    -0.248 NA
ATOM     51  C   UNL A   1      42.361  31.368  36.722  1.00  0.00     0.031 C 
ATOM     52  C   UNL A   1      37.764  34.616  34.448  1.00  0.00     0.029 A 
ATOM     53  C   UNL A   1      38.756  33.662  34.609  1.00  0.00     0.049 A 
ATOM     54  H   UNL A   1      39.330  32.106  33.303  1.00  0.00     0.167 HD
ATOM     55  C   UNL A   1      40.602  32.515  35.804  1.00  0.00     0.074 A 
ATOM     56  C   UNL A   1      41.503  32.357  36.925  1.00  0.00     0.031 C 
ATOM     57  C   UNL A   1      39.662  33.487  35.715  1.00  0.00     0.037 A 
BRANCH  44  58
ATOM     58  C   UNL A   1      36.311  33.288  30.529  1.00  0.00     0.057 A 
ATOM     59  C   UNL A   1      34.969  33.030  30.837  1.00  0.00     0.134 A 
ATOM     60  C   UNL A   1      36.576  34.149  29.458  1.00  0.00     0.134 A 
ATOM     61  F   UNL A   1      34.648  32.201  31.841  1.00  0.00    -0.206 F 
ATOM     62  C   UNL A   1      33.929  33.598  30.096  1.00  0.00     0.040 A 
ATOM     63  C   UNL A   1      35.545  34.741  28.725  1.00  0.00     0.040 A 
ATOM     64  F   UNL A   1      37.839  34.439  29.113  1.00  0.00    -0.206 F 
ATOM     65  C   UNL A   1      34.217  34.464  29.043  1.00  0.00     0.006 A 
ENDBRANCH  44  58
BRANCH  45  66
ATOM     66  C   UNL A   1      43.769  29.044  35.643  1.00  0.00     0.057 A 
ATOM     67  C   UNL A   1      45.087  29.467  35.439  1.00  0.00     0.134 A 
ATOM     68  C   UNL A   1      43.559  28.008  36.562  1.00  0.00     0.134 A 
ATOM     69  F   UNL A   1      45.354  30.438  34.553  1.00  0.00    -0.206 F 
ATOM     70  C   UNL A   1      46.159  28.866  36.102  1.00  0.00     0.040 A 
ATOM     71  C   UNL A   1      44.618  27.418  37.252  1.00  0.00     0.040 A 
ATOM     72  F   UNL A   1      42.319  27.557  36.803  1.00  0.00    -0.206 F 
ATOM     73  C   UNL A   1      45.923  27.840  37.015  1.00  0.00     0.006 A 
ENDBRANCH  45  66
BRANCH  57  74
ATOM     74  C   UNL A   1      39.553  34.435  36.874  1.00  0.00     0.057 A 
ATOM     75  C   UNL A   1      38.843  34.102  38.033  1.00  0.00     0.134 A 
ATOM     76  C   UNL A   1      40.176  35.689  36.833  1.00  0.00     0.134 A 
ATOM     77  F   UNL A   1      38.211  32.922  38.130  1.00  0.00    -0.206 F 
ATOM     78  C   UNL A   1      38.729  34.996  39.100  1.00  0.00     0.040 A 
ATOM     79  C   UNL A   1      40.092  36.580  37.903  1.00  0.00     0.040 A 
ATOM     80  F   UNL A   1      40.879  36.066  35.754  1.00  0.00    -0.206 F 
ATOM     81  C   UNL A   1      39.359  36.237  39.038  1.00  0.00     0.006 A 
ENDBRANCH  57  74
ENDBRANCH  31  32
ENDBRANCH  24  26
ENDBRANCH  23  24
ENDBRANCH  22  23
ENDBRANCH  21  22
ENDBRANCH   1  21
TORSDOF 19
ENDMDL
