MODEL 1
REMARK VINA RESULT:     -12.8      0.000      0.000
REMARK SMILES O=C(OCCOC(=O)c1cc(Cl)cc(Cl)c1NC(=S)NC(=O)c1cccc2ccccc12)c1ccc(-c2c3nc(c(-c4c(F)cccc4F)c4ccc([nH]4)c(-c4c(F)cccc4F)c4nc(c(-c5c(F)cccc5F)c5ccc2[nH]5)C=C4)C=C3)cc1
REMARK SMILES IDX 5 1 4 2 3 3 2 4 1 5 33 6 34 7 86 8 35 9 85 10 36 11 37 12
REMARK SMILES IDX 38 13 79 14 39 15 84 16 78 17 80 18 40 19 83 20 77 21 76 22
REMARK SMILES IDX 41 24 67 25 50 26 66 27 51 28 54 29 65 30 81 31 52 32 53 33
REMARK SMILES IDX 64 35 82 36 55 37 42 38 43 39 48 40 44 41 45 42 47 43 49 44
REMARK SMILES IDX 46 45 68 46 69 47 74 48 70 49 71 50 73 51 75 52 72 53 56 54
REMARK SMILES IDX 57 55 62 56 58 57 59 58 61 59 63 60 60 61 6 62 7 63 8 64
REMARK SMILES IDX 9 65 10 66 16 67 11 68 14 69 12 70 13 71 15 72 17 73 18 75
REMARK SMILES IDX 19 76 20 77 21 78 22 80 23 81 24 82 32 83 25 84 27 85 31 86
REMARK SMILES IDX 26 87 28 88 30 89 29 90
REMARK H PARENT 80 23 54 34 17 74 20 79
REMARK Flexibility Score: inf
ROOT
ATOM      1  C   UNL A   1      33.010  29.775  26.664  1.00  0.00     0.275 C 
ENDROOT
BRANCH   1   2
ATOM      2  C   UNL A   1      32.052  30.820  27.263  1.00  0.00     0.275 C 
BRANCH   2   3
ATOM      3  O   UNL A   1      32.410  32.178  26.988  1.00  0.00    -0.458 OA
BRANCH   3   4
ATOM      4  C   UNL A   1      33.024  33.064  27.800  1.00  0.00     0.338 C 
ATOM      5  O   UNL A   1      32.459  34.136  28.014  1.00  0.00    -0.246 OA
BRANCH   4   6
ATOM      6  C   UNL A   1      34.433  32.893  28.303  1.00  0.00     0.060 A 
ATOM      7  C   UNL A   1      35.594  33.586  27.919  1.00  0.00     0.016 A 
ATOM      8  C   UNL A   1      34.560  31.979  29.346  1.00  0.00     0.016 A 
ATOM      9  C   UNL A   1      36.818  33.455  28.608  1.00  0.00     0.010 A 
ATOM     10  C   UNL A   1      35.762  31.857  30.038  1.00  0.00     0.010 A 
ATOM     11  C   UNL A   1      36.921  32.580  29.677  1.00  0.00    -0.014 A 
BRANCH  11  12
ATOM     12  C   UNL A   1      38.216  32.192  30.324  1.00  0.00     0.031 A 
ATOM     13  C   UNL A   1      38.807  30.906  29.803  1.00  0.00     0.074 A 
ATOM     14  C   UNL A   1      38.701  32.748  31.462  1.00  0.00     0.049 A 
ATOM     15  N   UNL A   1      39.587  30.044  30.391  1.00  0.00    -0.248 NA
ATOM     16  C   UNL A   1      38.333  30.484  28.465  1.00  0.00     0.031 C 
ATOM     17  C   UNL A   1      38.155  33.911  32.165  1.00  0.00     0.029 A 
ATOM     18  N   UNL A   1      39.617  32.227  32.367  1.00  0.00    -0.354 N 
ATOM     19  C   UNL A   1      39.710  29.010  29.472  1.00  0.00     0.074 A 
ATOM     20  C   UNL A   1      38.720  29.222  28.447  1.00  0.00     0.031 C 
ATOM     21  C   UNL A   1      38.563  33.881  33.450  1.00  0.00     0.029 A 
ATOM     22  C   UNL A   1      39.440  32.728  33.648  1.00  0.00     0.049 A 
ATOM     23  H   UNL A   1      40.315  31.575  32.125  1.00  0.00     0.167 HD
ATOM     24  C   UNL A   1      40.675  28.068  29.386  1.00  0.00     0.037 A 
ATOM     25  C   UNL A   1      39.865  32.257  34.842  1.00  0.00     0.037 A 
ATOM     26  C   UNL A   1      41.675  27.899  30.394  1.00  0.00     0.049 A 
ATOM     27  C   UNL A   1      40.823  31.096  34.870  1.00  0.00     0.074 A 
ATOM     28  C   UNL A   1      42.825  27.137  30.366  1.00  0.00     0.029 A 
ATOM     29  N   UNL A   1      41.615  28.511  31.635  1.00  0.00    -0.354 N 
ATOM     30  N   UNL A   1      41.127  30.253  33.913  1.00  0.00    -0.248 NA
ATOM     31  C   UNL A   1      41.573  30.881  36.118  1.00  0.00     0.031 C 
ATOM     32  C   UNL A   1      43.442  27.254  31.618  1.00  0.00     0.029 A 
ATOM     33  C   UNL A   1      42.703  28.136  32.393  1.00  0.00     0.049 A 
ATOM     34  H   UNL A   1      40.902  29.122  31.930  1.00  0.00     0.167 HD
ATOM     35  C   UNL A   1      42.193  29.500  34.398  1.00  0.00     0.074 A 
ATOM     36  C   UNL A   1      42.418  29.921  35.763  1.00  0.00     0.031 C 
ATOM     37  C   UNL A   1      42.956  28.599  33.733  1.00  0.00     0.037 A 
BRANCH  24  38
ATOM     38  C   UNL A   1      40.731  27.280  28.109  1.00  0.00     0.057 A 
ATOM     39  C   UNL A   1      40.063  26.046  27.989  1.00  0.00     0.134 A 
ATOM     40  C   UNL A   1      41.481  27.710  27.013  1.00  0.00     0.134 A 
ATOM     41  F   UNL A   1      39.315  25.574  29.000  1.00  0.00    -0.206 F 
ATOM     42  C   UNL A   1      40.216  25.233  26.868  1.00  0.00     0.040 A 
ATOM     43  C   UNL A   1      41.600  26.926  25.863  1.00  0.00     0.040 A 
ATOM     44  F   UNL A   1      42.125  28.886  27.044  1.00  0.00    -0.206 F 
ATOM     45  C   UNL A   1      40.986  25.674  25.799  1.00  0.00     0.006 A 
ENDBRANCH  24  38
BRANCH  25  46
ATOM     46  C   UNL A   1      39.450  32.886  36.126  1.00  0.00     0.057 A 
ATOM     47  C   UNL A   1      38.446  32.316  36.919  1.00  0.00     0.134 A 
ATOM     48  C   UNL A   1      39.982  34.111  36.550  1.00  0.00     0.134 A 
ATOM     49  F   UNL A   1      37.861  31.171  36.538  1.00  0.00    -0.206 F 
ATOM     50  C   UNL A   1      37.984  32.938  38.082  1.00  0.00     0.040 A 
ATOM     51  C   UNL A   1      39.537  34.738  37.720  1.00  0.00     0.040 A 
ATOM     52  F   UNL A   1      40.919  34.731  35.819  1.00  0.00    -0.206 F 
ATOM     53  C   UNL A   1      38.533  34.153  38.489  1.00  0.00     0.006 A 
ENDBRANCH  25  46
BRANCH  37  54
ATOM     54  C   UNL A   1      44.224  28.133  34.381  1.00  0.00     0.057 A 
ATOM     55  C   UNL A   1      45.422  28.846  34.315  1.00  0.00     0.134 A 
ATOM     56  C   UNL A   1      44.193  26.981  35.181  1.00  0.00     0.134 A 
ATOM     57  F   UNL A   1      45.520  29.946  33.553  1.00  0.00    -0.206 F 
ATOM     58  C   UNL A   1      46.550  28.430  35.027  1.00  0.00     0.040 A 
ATOM     59  C   UNL A   1      45.300  26.574  35.921  1.00  0.00     0.040 A 
ATOM     60  F   UNL A   1      43.068  26.256  35.288  1.00  0.00    -0.206 F 
ATOM     61  C   UNL A   1      46.485  27.301  35.845  1.00  0.00     0.006 A 
ENDBRANCH  37  54
ENDBRANCH  11  12
ENDBRANCH   4   6
ENDBRANCH   3   4
ENDBRANCH   2   3
ENDBRANCH   1   2
BRANCH   1  62
ATOM     62  O   UNL A   1      33.417  30.018  25.291  1.00  0.00    -0.458 OA
BRANCH  62  63
ATOM     63  C   UNL A   1      32.936  29.124  24.392  1.00  0.00     0.340 C 
ATOM     64  O   UNL A   1      33.598  28.577  23.522  1.00  0.00    -0.246 OA
BRANCH  63  65
ATOM     65  C   UNL A   1      31.491  28.787  24.556  1.00  0.00     0.086 A 
ATOM     66  C   UNL A   1      30.310  30.069  24.094  1.00  0.00     0.038 A 
ATOM     67  C   UNL A   1      31.190  27.088  24.319  1.00  0.00     0.074 A 
ATOM     68  C   UNL A   1      28.755  29.722  23.256  1.00  0.00     0.043 A 
ATOM     69  C   UNL A   1      29.688  26.644  23.723  1.00  0.00     0.066 A 
ATOM     70  Cl  UNL A   1      27.679  30.989  22.856  1.00  0.00    -0.084 Cl
ATOM     71  C   UNL A   1      28.345  27.968  22.958  1.00  0.00     0.043 A 
ATOM     72  Cl  UNL A   1      29.634  25.652  25.688  1.00  0.00    -0.082 Cl
BRANCH  67  73
ATOM     73  N   UNL A   1      32.002  25.933  24.107  1.00  0.00    -0.330 N 
ATOM     74  H   UNL A   1      32.530  25.627  24.880  1.00  0.00     0.169 HD
BRANCH  73  75
ATOM     75  C   UNL A   1      32.139  25.174  22.920  1.00  0.00     0.177 C 
ATOM     76  S   UNL A   1      32.743  25.969  21.567  1.00  0.00    -0.040 S 
BRANCH  75  77
ATOM     77  N   UNL A   1      31.896  23.716  22.747  1.00  0.00    -0.299 N 
ATOM     78  C   UNL A   1      32.197  22.188  22.954  1.00  0.00     0.258 C 
ATOM     79  H   UNL A   1      31.091  23.699  22.182  1.00  0.00     0.172 HD
ATOM     80  O   UNL A   1      31.803  21.380  22.116  1.00  0.00    -0.269 OA
BRANCH  78  81
ATOM     81  C   UNL A   1      32.940  21.647  24.254  1.00  0.00     0.048 A 
ATOM     82  C   UNL A   1      31.560  21.754  25.286  1.00  0.00     0.014 A 
ATOM     83  C   UNL A   1      34.535  22.436  24.579  1.00  0.00    -0.006 A 
ATOM     84  C   UNL A   1      31.417  22.823  26.513  1.00  0.00     0.001 A 
ATOM     85  C   UNL A   1      34.535  23.797  25.855  1.00  0.00    -0.018 A 
ATOM     86  C   UNL A   1      35.661  22.027  23.857  1.00  0.00     0.009 A 
ATOM     87  C   UNL A   1      32.751  23.878  26.855  1.00  0.00     0.009 A 
ATOM     88  C   UNL A   1      35.934  24.264  25.796  1.00  0.00     0.009 A 
ATOM     89  C   UNL A   1      36.865  22.650  24.079  1.00  0.00     0.001 A 
ATOM     90  C   UNL A   1      36.980  23.693  25.001  1.00  0.00     0.001 A 
ENDBRANCH  78  81
ENDBRANCH  75  77
ENDBRANCH  73  75
ENDBRANCH  67  73
ENDBRANCH  63  65
ENDBRANCH  62  63
ENDBRANCH   1  62
TORSDOF 15
ENDMDL
MODEL 2
REMARK VINA RESULT:     -12.7      4.712      9.607
REMARK SMILES O=C(OCCOC(=O)c1cc(Cl)cc(Cl)c1NC(=S)NC(=O)c1cccc2ccccc12)c1ccc(-c2c3nc(c(-c4c(F)cccc4F)c4ccc([nH]4)c(-c4c(F)cccc4F)c4nc(c(-c5c(F)cccc5F)c5ccc2[nH]5)C=C4)C=C3)cc1
REMARK SMILES IDX 5 1 4 2 3 3 2 4 1 5 33 6 34 7 86 8 35 9 85 10 36 11 37 12
REMARK SMILES IDX 38 13 79 14 39 15 84 16 78 17 80 18 40 19 83 20 77 21 76 22
REMARK SMILES IDX 41 24 67 25 50 26 66 27 51 28 54 29 65 30 81 31 52 32 53 33
REMARK SMILES IDX 64 35 82 36 55 37 42 38 43 39 48 40 44 41 45 42 47 43 49 44
REMARK SMILES IDX 46 45 68 46 69 47 74 48 70 49 71 50 73 51 75 52 72 53 56 54
REMARK SMILES IDX 57 55 62 56 58 57 59 58 61 59 63 60 60 61 6 62 7 63 8 64
REMARK SMILES IDX 9 65 10 66 16 67 11 68 14 69 12 70 13 71 15 72 17 73 18 75
REMARK SMILES IDX 19 76 20 77 21 78 22 80 23 81 24 82 32 83 25 84 27 85 31 86
REMARK SMILES IDX 26 87 28 88 30 89 29 90
REMARK H PARENT 80 23 54 34 17 74 20 79
REMARK Flexibility Score: inf
ROOT
ATOM      1  C   UNL A   1      37.563  21.882  25.146  1.00  0.00     0.275 C 
ENDROOT
BRANCH   1   2
ATOM      2  C   UNL A   1      38.017  20.629  25.915  1.00  0.00     0.275 C 
BRANCH   2   3
ATOM      3  O   UNL A   1      39.154  19.967  25.354  1.00  0.00    -0.458 OA
BRANCH   3   4
ATOM      4  C   UNL A   1      40.421  19.937  25.817  1.00  0.00     0.338 C 
ATOM      5  O   UNL A   1      41.033  18.872  25.750  1.00  0.00    -0.246 OA
BRANCH   4   6
ATOM      6  C   UNL A   1      41.056  21.073  26.574  1.00  0.00     0.060 A 
ATOM      7  C   UNL A   1      41.374  21.150  27.941  1.00  0.00     0.016 A 
ATOM      8  C   UNL A   1      41.447  22.145  25.775  1.00  0.00     0.016 A 
ATOM      9  C   UNL A   1      42.140  22.203  28.483  1.00  0.00     0.010 A 
ATOM     10  C   UNL A   1      42.217  23.178  26.303  1.00  0.00     0.010 A 
ATOM     11  C   UNL A   1      42.568  23.239  27.670  1.00  0.00    -0.014 A 
BRANCH  11  12
ATOM     12  C   UNL A   1      43.179  24.509  28.177  1.00  0.00     0.031 A 
ATOM     13  C   UNL A   1      42.202  25.648  28.330  1.00  0.00     0.074 A 
ATOM     14  C   UNL A   1      44.512  24.750  28.234  1.00  0.00     0.049 A 
ATOM     15  N   UNL A   1      42.399  26.936  28.270  1.00  0.00    -0.248 NA
ATOM     16  C   UNL A   1      40.778  25.255  28.436  1.00  0.00     0.031 C 
ATOM     17  C   UNL A   1      45.583  23.785  27.976  1.00  0.00     0.029 A 
ATOM     18  N   UNL A   1      45.180  25.967  28.272  1.00  0.00    -0.354 N 
ATOM     19  C   UNL A   1      41.127  27.482  28.367  1.00  0.00     0.074 A 
ATOM     20  C   UNL A   1      40.180  26.409  28.199  1.00  0.00     0.031 C 
ATOM     21  C   UNL A   1      46.710  24.452  27.651  1.00  0.00     0.029 A 
ATOM     22  C   UNL A   1      46.455  25.889  27.731  1.00  0.00     0.049 A 
ATOM     23  H   UNL A   1      44.792  26.793  28.642  1.00  0.00     0.167 HD
ATOM     24  C   UNL A   1      40.771  28.730  28.741  1.00  0.00     0.037 A 
ATOM     25  C   UNL A   1      47.276  26.862  27.274  1.00  0.00     0.037 A 
ATOM     26  C   UNL A   1      41.728  29.774  28.943  1.00  0.00     0.049 A 
ATOM     27  C   UNL A   1      46.896  28.302  27.495  1.00  0.00     0.074 A 
ATOM     28  C   UNL A   1      41.556  31.021  29.507  1.00  0.00     0.029 A 
ATOM     29  N   UNL A   1      43.054  29.673  28.558  1.00  0.00    -0.354 N 
ATOM     30  N   UNL A   1      45.734  28.807  27.828  1.00  0.00    -0.248 NA
ATOM     31  C   UNL A   1      47.970  29.301  27.369  1.00  0.00     0.031 C 
ATOM     32  C   UNL A   1      42.779  31.697  29.421  1.00  0.00     0.029 A 
ATOM     33  C   UNL A   1      43.718  30.843  28.860  1.00  0.00     0.049 A 
ATOM     34  H   UNL A   1      43.462  28.885  28.133  1.00  0.00     0.167 HD
ATOM     35  C   UNL A   1      45.968  30.155  28.084  1.00  0.00     0.074 A 
ATOM     36  C   UNL A   1      47.358  30.406  27.774  1.00  0.00     0.031 C 
ATOM     37  C   UNL A   1      45.116  31.073  28.602  1.00  0.00     0.037 A 
BRANCH  24  38
ATOM     38  C   UNL A   1      39.320  28.946  29.064  1.00  0.00     0.057 A 
ATOM     39  C   UNL A   1      38.430  29.453  28.098  1.00  0.00     0.134 A 
ATOM     40  C   UNL A   1      38.808  28.702  30.340  1.00  0.00     0.134 A 
ATOM     41  F   UNL A   1      38.849  29.702  26.847  1.00  0.00    -0.206 F 
ATOM     42  C   UNL A   1      37.116  29.792  28.415  1.00  0.00     0.040 A 
ATOM     43  C   UNL A   1      37.479  28.993  30.655  1.00  0.00     0.040 A 
ATOM     44  F   UNL A   1      39.590  28.198  31.306  1.00  0.00    -0.206 F 
ATOM     45  C   UNL A   1      36.637  29.561  29.698  1.00  0.00     0.006 A 
ENDBRANCH  24  38
BRANCH  25  46
ATOM     46  C   UNL A   1      48.568  26.546  26.605  1.00  0.00     0.057 A 
ATOM     47  C   UNL A   1      49.729  26.305  27.349  1.00  0.00     0.134 A 
ATOM     48  C   UNL A   1      48.695  26.563  25.209  1.00  0.00     0.134 A 
ATOM     49  F   UNL A   1      49.682  26.329  28.689  1.00  0.00    -0.206 F 
ATOM     50  C   UNL A   1      50.967  26.094  26.737  1.00  0.00     0.040 A 
ATOM     51  C   UNL A   1      49.927  26.340  24.582  1.00  0.00     0.040 A 
ATOM     52  F   UNL A   1      47.633  26.825  24.436  1.00  0.00    -0.206 F 
ATOM     53  C   UNL A   1      51.069  26.107  25.347  1.00  0.00     0.006 A 
ENDBRANCH  25  46
BRANCH  37  54
ATOM     54  C   UNL A   1      45.680  32.384  29.056  1.00  0.00     0.057 A 
ATOM     55  C   UNL A   1      45.651  33.539  28.274  1.00  0.00     0.134 A 
ATOM     56  C   UNL A   1      46.172  32.494  30.365  1.00  0.00     0.134 A 
ATOM     57  F   UNL A   1      45.208  33.496  27.008  1.00  0.00    -0.206 F 
ATOM     58  C   UNL A   1      46.089  34.765  28.780  1.00  0.00     0.040 A 
ATOM     59  C   UNL A   1      46.582  33.716  30.893  1.00  0.00     0.040 A 
ATOM     60  F   UNL A   1      46.222  31.418  31.167  1.00  0.00    -0.206 F 
ATOM     61  C   UNL A   1      46.540  34.858  30.098  1.00  0.00     0.006 A 
ENDBRANCH  37  54
ENDBRANCH  11  12
ENDBRANCH   4   6
ENDBRANCH   3   4
ENDBRANCH   2   3
ENDBRANCH   1   2
BRANCH   1  62
ATOM     62  O   UNL A   1      36.497  22.645  25.773  1.00  0.00    -0.458 OA
BRANCH  62  63
ATOM     63  C   UNL A   1      35.346  21.955  25.963  1.00  0.00     0.340 C 
ATOM     64  O   UNL A   1      34.758  21.849  27.030  1.00  0.00    -0.246 OA
BRANCH  63  65
ATOM     65  C   UNL A   1      34.775  21.338  24.729  1.00  0.00     0.086 A 
ATOM     66  C   UNL A   1      34.841  19.539  24.626  1.00  0.00     0.038 A 
ATOM     67  C   UNL A   1      33.458  22.279  24.083  1.00  0.00     0.074 A 
ATOM     68  C   UNL A   1      33.512  18.541  23.936  1.00  0.00     0.043 A 
ATOM     69  C   UNL A   1      32.260  21.460  23.246  1.00  0.00     0.066 A 
ATOM     70  Cl  UNL A   1      33.649  16.838  23.863  1.00  0.00    -0.084 Cl
ATOM     71  C   UNL A   1      32.082  19.432  23.232  1.00  0.00     0.043 A 
ATOM     72  Cl  UNL A   1      33.034  22.756  21.644  1.00  0.00    -0.082 Cl
BRANCH  67  73
ATOM     73  N   UNL A   1      32.865  23.541  24.390  1.00  0.00    -0.330 N 
ATOM     74  H   UNL A   1      33.382  24.337  24.128  1.00  0.00     0.169 HD
BRANCH  73  75
ATOM     75  C   UNL A   1      31.624  23.785  25.026  1.00  0.00     0.177 C 
ATOM     76  S   UNL A   1      31.376  23.068  26.526  1.00  0.00    -0.040 S 
BRANCH  75  77
ATOM     77  N   UNL A   1      30.534  24.687  24.562  1.00  0.00    -0.299 N 
ATOM     78  C   UNL A   1      29.870  26.077  24.255  1.00  0.00     0.258 C 
ATOM     79  H   UNL A   1      29.830  24.052  24.299  1.00  0.00     0.172 HD
ATOM     80  O   UNL A   1      28.644  26.169  24.256  1.00  0.00    -0.269 OA
BRANCH  78  81
ATOM     81  C   UNL A   1      30.737  27.356  23.875  1.00  0.00     0.048 A 
ATOM     82  C   UNL A   1      31.208  26.777  22.318  1.00  0.00     0.014 A 
ATOM     83  C   UNL A   1      31.886  27.885  25.169  1.00  0.00    -0.006 A 
ATOM     84  C   UNL A   1      32.732  26.339  21.927  1.00  0.00     0.001 A 
ATOM     85  C   UNL A   1      33.660  27.343  24.966  1.00  0.00    -0.018 A 
ATOM     86  C   UNL A   1      31.402  28.627  26.251  1.00  0.00     0.009 A 
ATOM     87  C   UNL A   1      33.980  26.523  23.119  1.00  0.00     0.009 A 
ATOM     88  C   UNL A   1      34.273  27.852  26.209  1.00  0.00     0.009 A 
ATOM     89  C   UNL A   1      32.268  28.998  27.252  1.00  0.00     0.001 A 
ATOM     90  C   UNL A   1      33.616  28.635  27.213  1.00  0.00     0.001 A 
ENDBRANCH  78  81
ENDBRANCH  75  77
ENDBRANCH  73  75
ENDBRANCH  67  73
ENDBRANCH  63  65
ENDBRANCH  62  63
ENDBRANCH   1  62
TORSDOF 15
ENDMDL
MODEL 3
REMARK VINA RESULT:     -12.4      2.885      7.755
REMARK SMILES O=C(OCCOC(=O)c1cc(Cl)cc(Cl)c1NC(=S)NC(=O)c1cccc2ccccc12)c1ccc(-c2c3nc(c(-c4c(F)cccc4F)c4ccc([nH]4)c(-c4c(F)cccc4F)c4nc(c(-c5c(F)cccc5F)c5ccc2[nH]5)C=C4)C=C3)cc1
REMARK SMILES IDX 5 1 4 2 3 3 2 4 1 5 33 6 34 7 86 8 35 9 85 10 36 11 37 12
REMARK SMILES IDX 38 13 79 14 39 15 84 16 78 17 80 18 40 19 83 20 77 21 76 22
REMARK SMILES IDX 41 24 67 25 50 26 66 27 51 28 54 29 65 30 81 31 52 32 53 33
REMARK SMILES IDX 64 35 82 36 55 37 42 38 43 39 48 40 44 41 45 42 47 43 49 44
REMARK SMILES IDX 46 45 68 46 69 47 74 48 70 49 71 50 73 51 75 52 72 53 56 54
REMARK SMILES IDX 57 55 62 56 58 57 59 58 61 59 63 60 60 61 6 62 7 63 8 64
REMARK SMILES IDX 9 65 10 66 16 67 11 68 14 69 12 70 13 71 15 72 17 73 18 75
REMARK SMILES IDX 19 76 20 77 21 78 22 80 23 81 24 82 32 83 25 84 27 85 31 86
REMARK SMILES IDX 26 87 28 88 30 89 29 90
REMARK H PARENT 80 23 54 34 17 74 20 79
REMARK Flexibility Score: inf
ROOT
ATOM      1  C   UNL A   1      37.495  23.054  25.661  1.00  0.00     0.275 C 
ENDROOT
BRANCH   1   2
ATOM      2  C   UNL A   1      38.581  23.298  26.722  1.00  0.00     0.275 C 
BRANCH   2   3
ATOM      3  O   UNL A   1      39.826  23.771  26.200  1.00  0.00    -0.458 OA
BRANCH   3   4
ATOM      4  C   UNL A   1      40.842  24.366  26.860  1.00  0.00     0.338 C 
ATOM      5  O   UNL A   1      41.953  23.841  26.798  1.00  0.00    -0.246 OA
BRANCH   4   6
ATOM      6  C   UNL A   1      40.654  25.518  27.811  1.00  0.00     0.060 A 
ATOM      7  C   UNL A   1      39.582  25.774  28.682  1.00  0.00     0.016 A 
ATOM      8  C   UNL A   1      41.741  26.388  27.876  1.00  0.00     0.016 A 
ATOM      9  C   UNL A   1      39.622  26.793  29.656  1.00  0.00     0.010 A 
ATOM     10  C   UNL A   1      41.791  27.385  28.846  1.00  0.00     0.010 A 
ATOM     11  C   UNL A   1      40.728  27.621  29.747  1.00  0.00    -0.014 A 
BRANCH  11  12
ATOM     12  C   UNL A   1      40.780  28.867  30.577  1.00  0.00     0.031 A 
ATOM     13  C   UNL A   1      41.341  28.665  31.962  1.00  0.00     0.074 A 
ATOM     14  C   UNL A   1      40.139  30.021  30.269  1.00  0.00     0.049 A 
ATOM     15  N   UNL A   1      41.115  29.327  33.063  1.00  0.00    -0.248 NA
ATOM     16  C   UNL A   1      42.178  27.457  32.140  1.00  0.00     0.031 C 
ATOM     17  C   UNL A   1      39.429  30.317  29.022  1.00  0.00     0.029 A 
ATOM     18  N   UNL A   1      39.761  31.062  31.107  1.00  0.00    -0.354 N 
ATOM     19  C   UNL A   1      41.812  28.622  34.035  1.00  0.00     0.074 A 
ATOM     20  C   UNL A   1      42.210  27.364  33.457  1.00  0.00     0.031 C 
ATOM     21  C   UNL A   1      38.539  31.306  29.245  1.00  0.00     0.029 A 
ATOM     22  C   UNL A   1      38.654  31.749  30.633  1.00  0.00     0.049 A 
ATOM     23  H   UNL A   1      40.228  31.287  31.945  1.00  0.00     0.167 HD
ATOM     24  C   UNL A   1      42.242  29.051  35.242  1.00  0.00     0.037 A 
ATOM     25  C   UNL A   1      37.787  32.568  31.272  1.00  0.00     0.037 A 
ATOM     26  C   UNL A   1      41.869  30.321  35.783  1.00  0.00     0.049 A 
ATOM     27  C   UNL A   1      38.086  32.984  32.689  1.00  0.00     0.074 A 
ATOM     28  C   UNL A   1      42.368  30.983  36.886  1.00  0.00     0.029 A 
ATOM     29  N   UNL A   1      40.871  31.114  35.243  1.00  0.00    -0.354 N 
ATOM     30  N   UNL A   1      38.933  32.462  33.541  1.00  0.00    -0.248 NA
ATOM     31  C   UNL A   1      37.375  34.168  33.199  1.00  0.00     0.031 C 
ATOM     32  C   UNL A   1      41.634  32.166  37.040  1.00  0.00     0.029 A 
ATOM     33  C   UNL A   1      40.725  32.260  35.995  1.00  0.00     0.049 A 
ATOM     34  H   UNL A   1      40.344  30.893  34.441  1.00  0.00     0.167 HD
ATOM     35  C   UNL A   1      38.956  33.329  34.630  1.00  0.00     0.074 A 
ATOM     36  C   UNL A   1      37.969  34.355  34.370  1.00  0.00     0.031 C 
ATOM     37  C   UNL A   1      39.781  33.307  35.705  1.00  0.00     0.037 A 
BRANCH  24  38
ATOM     38  C   UNL A   1      43.243  28.181  35.946  1.00  0.00     0.057 A 
ATOM     39  C   UNL A   1      42.828  27.125  36.779  1.00  0.00     0.134 A 
ATOM     40  C   UNL A   1      44.616  28.412  35.843  1.00  0.00     0.134 A 
ATOM     41  F   UNL A   1      41.523  26.838  36.918  1.00  0.00    -0.206 F 
ATOM     42  C   UNL A   1      43.731  26.396  37.550  1.00  0.00     0.040 A 
ATOM     43  C   UNL A   1      45.535  27.655  36.574  1.00  0.00     0.040 A 
ATOM     44  F   UNL A   1      45.089  29.385  35.051  1.00  0.00    -0.206 F 
ATOM     45  C   UNL A   1      45.091  26.661  37.447  1.00  0.00     0.006 A 
ENDBRANCH  24  38
BRANCH  25  46
ATOM     46  C   UNL A   1      36.575  33.107  30.598  1.00  0.00     0.057 A 
ATOM     47  C   UNL A   1      35.302  32.601  30.886  1.00  0.00     0.134 A 
ATOM     48  C   UNL A   1      36.665  34.078  29.592  1.00  0.00     0.134 A 
ATOM     49  F   UNL A   1      35.158  31.632  31.802  1.00  0.00    -0.206 F 
ATOM     50  C   UNL A   1      34.164  33.034  30.201  1.00  0.00     0.040 A 
ATOM     51  C   UNL A   1      35.531  34.531  28.906  1.00  0.00     0.040 A 
ATOM     52  F   UNL A   1      37.856  34.579  29.238  1.00  0.00    -0.206 F 
ATOM     53  C   UNL A   1      34.275  34.007  29.209  1.00  0.00     0.006 A 
ENDBRANCH  25  46
BRANCH  37  54
ATOM     54  C   UNL A   1      39.808  34.509  36.599  1.00  0.00     0.057 A 
ATOM     55  C   UNL A   1      39.055  34.606  37.770  1.00  0.00     0.134 A 
ATOM     56  C   UNL A   1      40.704  35.549  36.310  1.00  0.00     0.134 A 
ATOM     57  F   UNL A   1      38.168  33.653  38.092  1.00  0.00    -0.206 F 
ATOM     58  C   UNL A   1      39.195  35.698  38.630  1.00  0.00     0.040 A 
ATOM     59  C   UNL A   1      40.878  36.627  37.175  1.00  0.00     0.040 A 
ATOM     60  F   UNL A   1      41.458  35.509  35.200  1.00  0.00    -0.206 F 
ATOM     61  C   UNL A   1      40.120  36.703  38.340  1.00  0.00     0.006 A 
ENDBRANCH  37  54
ENDBRANCH  11  12
ENDBRANCH   4   6
ENDBRANCH   3   4
ENDBRANCH   2   3
ENDBRANCH   1   2
BRANCH   1  62
ATOM     62  O   UNL A   1      36.170  23.541  26.003  1.00  0.00    -0.458 OA
BRANCH  62  63
ATOM     63  C   UNL A   1      35.251  22.569  26.227  1.00  0.00     0.340 C 
ATOM     64  O   UNL A   1      34.770  22.294  27.317  1.00  0.00    -0.246 OA
BRANCH  63  65
ATOM     65  C   UNL A   1      34.797  21.843  25.004  1.00  0.00     0.086 A 
ATOM     66  C   UNL A   1      35.066  20.060  24.982  1.00  0.00     0.038 A 
ATOM     67  C   UNL A   1      33.410  22.605  24.276  1.00  0.00     0.074 A 
ATOM     68  C   UNL A   1      33.881  18.893  24.294  1.00  0.00     0.043 A 
ATOM     69  C   UNL A   1      32.340  21.624  23.438  1.00  0.00     0.066 A 
ATOM     70  Cl  UNL A   1      34.208  17.214  24.300  1.00  0.00    -0.084 Cl
ATOM     71  C   UNL A   1      32.388  19.590  23.507  1.00  0.00     0.043 A 
ATOM     72  Cl  UNL A   1      33.025  22.933  21.806  1.00  0.00    -0.082 Cl
BRANCH  67  73
ATOM     73  N   UNL A   1      32.670  23.803  24.508  1.00  0.00    -0.330 N 
ATOM     74  H   UNL A   1      33.120  24.644  24.263  1.00  0.00     0.169 HD
BRANCH  73  75
ATOM     75  C   UNL A   1      31.368  23.929  25.050  1.00  0.00     0.177 C 
ATOM     76  S   UNL A   1      31.021  23.035  26.431  1.00  0.00    -0.040 S 
BRANCH  75  77
ATOM     77  N   UNL A   1      30.284  24.840  24.590  1.00  0.00    -0.299 N 
ATOM     78  C   UNL A   1      29.624  26.235  24.301  1.00  0.00     0.258 C 
ATOM     79  H   UNL A   1      29.582  24.210  24.308  1.00  0.00     0.172 HD
ATOM     80  O   UNL A   1      28.398  26.328  24.290  1.00  0.00    -0.269 OA
BRANCH  78  81
ATOM     81  C   UNL A   1      30.496  27.521  23.954  1.00  0.00     0.048 A 
ATOM     82  C   UNL A   1      30.855  27.041  22.335  1.00  0.00     0.014 A 
ATOM     83  C   UNL A   1      31.734  27.937  25.205  1.00  0.00    -0.006 A 
ATOM     84  C   UNL A   1      32.341  26.602  21.820  1.00  0.00     0.001 A 
ATOM     85  C   UNL A   1      33.479  27.376  24.854  1.00  0.00    -0.018 A 
ATOM     86  C   UNL A   1      31.336  28.613  26.364  1.00  0.00     0.009 A 
ATOM     87  C   UNL A   1      33.664  26.679  22.939  1.00  0.00     0.009 A 
ATOM     88  C   UNL A   1      34.179  27.787  26.087  1.00  0.00     0.009 A 
ATOM     89  C   UNL A   1      32.271  28.898  27.330  1.00  0.00     0.001 A 
ATOM     90  C   UNL A   1      33.605  28.512  27.181  1.00  0.00     0.001 A 
ENDBRANCH  78  81
ENDBRANCH  75  77
ENDBRANCH  73  75
ENDBRANCH  67  73
ENDBRANCH  63  65
ENDBRANCH  62  63
ENDBRANCH   1  62
TORSDOF 15
ENDMDL
