MODEL 1
REMARK VINA RESULT:     -13.6      0.000      0.000
REMARK SMILES C[C@@H](Oc1ccc(/C=C2\C(=O)[NH+]=C(OCCOC(=O)c3ccc(-c4c5nc(c(-c6c(F)cccc6F)c6ccc([nH]6)c(-c6c(F)cccc6F)c6nc(c(-c7c(F)cccc7F)c7ccc4[nH]7)C=C6)C=C5)cc3)N(c3ccc4c(c3)OCO4)C2=O)cc1)C(=O)[O-]
REMARK SMILES IDX 15 1 14 2 13 3 8 4 9 5 10 6 84 7 11 8 12 9 74 10 85 11 7 13
REMARK SMILES IDX 4 14 5 15 87 16 6 17 86 18 3 19 2 20 1 21 88 22 89 23 90 24
REMARK SMILES IDX 75 25 76 26 80 27 77 28 79 29 78 30 81 31 83 32 82 33 16 34
REMARK SMILES IDX 17 35 18 36 19 37 20 38 21 39 73 40 22 41 72 42 23 43 24 44
REMARK SMILES IDX 25 45 66 46 26 47 71 48 65 49 67 50 27 51 70 52 64 53 63 54
REMARK SMILES IDX 28 56 54 57 37 58 53 59 38 60 41 61 52 62 68 63 39 64 40 65
REMARK SMILES IDX 51 67 69 68 42 69 29 70 30 71 35 72 31 73 32 74 34 75 36 76
REMARK SMILES IDX 33 77 55 78 56 79 61 80 57 81 58 82 60 83 62 84 59 85 43 86
REMARK SMILES IDX 44 87 49 88 45 89 46 90 48 91 50 92 47 93
REMARK H PARENT 12 12 67 55 41 66
REMARK Flexibility Score: inf
ROOT
ATOM      1  C   UNL A   1      31.932  28.479  27.217  1.00  0.00     0.279 C 
ENDROOT
BRANCH   1   2
ATOM      2  O   UNL A   1      31.001  27.589  26.554  1.00  0.00    -0.427 OA
BRANCH   2   3
ATOM      3  C   UNL A   1      31.418  26.461  25.928  1.00  0.00     0.465 C 
ATOM      4  C   UNL A   1      32.077  22.928  23.974  1.00  0.00     0.032 C 
ATOM      5  C   UNL A   1      31.855  24.059  24.689  1.00  0.00     0.155 C 
ATOM      6  C   UNL A   1      32.276  24.319  26.088  1.00  0.00     0.349 C 
ATOM      7  C   UNL A   1      31.253  25.186  23.909  1.00  0.00     0.357 C 
ATOM      8  O   UNL A   1      32.947  23.512  26.726  1.00  0.00    -0.240 OA
ATOM      9  N   UNL A   1      31.898  25.506  26.644  1.00  0.00    -0.171 N 
ATOM     10  N   UNL A   1      31.152  26.389  24.581  1.00  0.00    -0.123 N 
ATOM     11  O   UNL A   1      30.926  25.038  22.729  1.00  0.00    -0.240 OA
ATOM     12  H   UNL A   1      31.995  25.635  27.615  1.00  0.00     0.319 HD
BRANCH   4  13
ATOM     13  C   UNL A   1      32.778  21.651  24.236  1.00  0.00    -0.024 A 
ATOM     14  C   UNL A   1      33.887  19.132  24.920  1.00  0.00     0.120 A 
ATOM     15  C   UNL A   1      34.709  20.231  24.664  1.00  0.00     0.047 A 
ATOM     16  C   UNL A   1      32.512  19.290  24.858  1.00  0.00     0.047 A 
ATOM     17  C   UNL A   1      34.160  21.484  24.331  1.00  0.00     0.012 A 
ATOM     18  C   UNL A   1      31.970  20.534  24.521  1.00  0.00     0.012 A 
BRANCH  14  19
ATOM     19  O   UNL A   1      34.472  18.005  25.421  1.00  0.00    -0.485 OA
BRANCH  19  20
ATOM     20  C   UNL A   1      34.969  17.055  24.466  1.00  0.00     0.216 C 
ATOM     21  C   UNL A   1      33.954  16.686  23.387  1.00  0.00     0.059 C 
BRANCH  20  22
ATOM     22  C   UNL A   1      35.279  15.783  25.248  1.00  0.00     0.082 C 
ATOM     23  O   UNL A   1      36.329  15.526  25.820  1.00  0.00    -0.546 OA
ATOM     24  O   UNL A   1      34.288  14.865  25.220  1.00  0.00    -0.546 OA
ENDBRANCH  20  22
ENDBRANCH  19  20
ENDBRANCH  14  19
ENDBRANCH   4  13
BRANCH  10  25
ATOM     25  C   UNL A   1      30.727  27.538  23.850  1.00  0.00     0.144 A 
ATOM     26  C   UNL A   1      31.687  28.391  23.255  1.00  0.00     0.056 A 
ATOM     27  C   UNL A   1      29.367  27.787  23.648  1.00  0.00     0.103 A 
ATOM     28  C   UNL A   1      31.317  29.495  22.488  1.00  0.00     0.055 A 
ATOM     29  C   UNL A   1      29.028  28.869  22.862  1.00  0.00     0.170 A 
ATOM     30  C   UNL A   1      29.974  29.698  22.300  1.00  0.00     0.166 A 
ATOM     31  O   UNL A   1      27.764  29.235  22.516  1.00  0.00    -0.453 OA
ATOM     32  O   UNL A   1      29.424  30.677  21.536  1.00  0.00    -0.454 OA
ATOM     33  C   UNL A   1      28.047  30.250  21.530  1.00  0.00     0.468 C 
ENDBRANCH  10  25
ENDBRANCH   2   3
ENDBRANCH   1   2
BRANCH   1  34
ATOM     34  C   UNL A   1      31.844  29.972  26.895  1.00  0.00     0.275 C 
BRANCH  34  35
ATOM     35  O   UNL A   1      33.152  30.490  26.589  1.00  0.00    -0.458 OA
BRANCH  35  36
ATOM     36  C   UNL A   1      33.560  31.524  27.362  1.00  0.00     0.338 C 
ATOM     37  O   UNL A   1      32.862  32.428  27.785  1.00  0.00    -0.246 OA
BRANCH  36  38
ATOM     38  C   UNL A   1      34.967  31.306  27.780  1.00  0.00     0.060 A 
ATOM     39  C   UNL A   1      35.365  29.984  27.980  1.00  0.00     0.016 A 
ATOM     40  C   UNL A   1      35.887  32.344  27.990  1.00  0.00     0.016 A 
ATOM     41  C   UNL A   1      36.666  29.699  28.390  1.00  0.00     0.010 A 
ATOM     42  C   UNL A   1      37.200  32.055  28.407  1.00  0.00     0.010 A 
ATOM     43  C   UNL A   1      37.591  30.727  28.626  1.00  0.00    -0.014 A 
BRANCH  43  44
ATOM     44  C   UNL A   1      38.837  30.348  29.344  1.00  0.00     0.031 A 
ATOM     45  C   UNL A   1      38.996  30.851  30.753  1.00  0.00     0.074 A 
ATOM     46  C   UNL A   1      39.713  29.448  28.862  1.00  0.00     0.049 A 
ATOM     47  N   UNL A   1      39.800  30.441  31.700  1.00  0.00    -0.248 NA
ATOM     48  C   UNL A   1      38.096  31.946  31.150  1.00  0.00     0.031 C 
ATOM     49  C   UNL A   1      39.681  28.851  27.530  1.00  0.00     0.029 A 
ATOM     50  N   UNL A   1      40.782  28.840  29.479  1.00  0.00    -0.354 N 
ATOM     51  C   UNL A   1      39.458  31.185  32.822  1.00  0.00     0.074 A 
ATOM     52  C   UNL A   1      38.413  32.104  32.423  1.00  0.00     0.031 C 
ATOM     53  C   UNL A   1      40.661  27.932  27.442  1.00  0.00     0.029 A 
ATOM     54  C   UNL A   1      41.398  27.884  28.706  1.00  0.00     0.049 A 
ATOM     55  H   UNL A   1      41.079  29.068  30.389  1.00  0.00     0.167 HD
ATOM     56  C   UNL A   1      39.955  31.108  34.078  1.00  0.00     0.037 A 
ATOM     57  C   UNL A   1      42.427  27.058  28.994  1.00  0.00     0.037 A 
ATOM     58  C   UNL A   1      41.051  30.270  34.472  1.00  0.00     0.049 A 
ATOM     59  C   UNL A   1      43.048  27.075  30.371  1.00  0.00     0.074 A 
ATOM     60  C   UNL A   1      41.680  30.192  35.703  1.00  0.00     0.029 A 
ATOM     61  N   UNL A   1      41.703  29.382  33.632  1.00  0.00    -0.354 N 
ATOM     62  N   UNL A   1      42.688  27.746  31.438  1.00  0.00    -0.248 NA
ATOM     63  C   UNL A   1      44.216  26.205  30.583  1.00  0.00     0.031 C 
ATOM     64  C   UNL A   1      42.744  29.289  35.592  1.00  0.00     0.029 A 
ATOM     65  C   UNL A   1      42.740  28.765  34.311  1.00  0.00     0.049 A 
ATOM     66  H   UNL A   1      41.464  29.214  32.692  1.00  0.00     0.167 HD
ATOM     67  C   UNL A   1      43.562  27.358  32.449  1.00  0.00     0.074 A 
ATOM     68  C   UNL A   1      44.459  26.379  31.875  1.00  0.00     0.031 C 
ATOM     69  C   UNL A   1      43.617  27.776  33.739  1.00  0.00     0.037 A 
BRANCH  56  70
ATOM     70  C   UNL A   1      39.322  32.005  35.095  1.00  0.00     0.057 A 
ATOM     71  C   UNL A   1      39.677  33.357  35.198  1.00  0.00     0.134 A 
ATOM     72  C   UNL A   1      38.385  31.506  36.007  1.00  0.00     0.134 A 
ATOM     73  F   UNL A   1      40.588  33.885  34.367  1.00  0.00    -0.206 F 
ATOM     74  C   UNL A   1      39.144  34.175  36.195  1.00  0.00     0.040 A 
ATOM     75  C   UNL A   1      37.829  32.319  36.994  1.00  0.00     0.040 A 
ATOM     76  F   UNL A   1      38.011  30.219  35.962  1.00  0.00    -0.206 F 
ATOM     77  C   UNL A   1      38.216  33.655  37.096  1.00  0.00     0.006 A 
ENDBRANCH  56  70
BRANCH  57  78
ATOM     78  C   UNL A   1      42.961  26.129  27.961  1.00  0.00     0.057 A 
ATOM     79  C   UNL A   1      43.922  26.543  27.028  1.00  0.00     0.134 A 
ATOM     80  C   UNL A   1      42.458  24.830  27.829  1.00  0.00     0.134 A 
ATOM     81  F   UNL A   1      44.417  27.788  27.079  1.00  0.00    -0.206 F 
ATOM     82  C   UNL A   1      44.340  25.710  25.989  1.00  0.00     0.040 A 
ATOM     83  C   UNL A   1      42.888  23.977  26.811  1.00  0.00     0.040 A 
ATOM     84  F   UNL A   1      41.528  24.375  28.682  1.00  0.00    -0.206 F 
ATOM     85  C   UNL A   1      43.824  24.420  25.881  1.00  0.00     0.006 A 
ENDBRANCH  57  78
BRANCH  69  86
ATOM     86  C   UNL A   1      44.648  27.150  34.638  1.00  0.00     0.057 A 
ATOM     87  C   UNL A   1      45.920  27.708  34.815  1.00  0.00     0.134 A 
ATOM     88  C   UNL A   1      44.340  26.002  35.379  1.00  0.00     0.134 A 
ATOM     89  F   UNL A   1      46.284  28.803  34.131  1.00  0.00    -0.206 F 
ATOM     90  C   UNL A   1      46.857  27.133  35.678  1.00  0.00     0.040 A 
ATOM     91  C   UNL A   1      45.257  25.434  36.265  1.00  0.00     0.040 A 
ATOM     92  F   UNL A   1      43.136  25.421  35.267  1.00  0.00    -0.206 F 
ATOM     93  C   UNL A   1      46.522  25.997  36.411  1.00  0.00     0.006 A 
ENDBRANCH  69  86
ENDBRANCH  43  44
ENDBRANCH  36  38
ENDBRANCH  35  36
ENDBRANCH  34  35
ENDBRANCH   1  34
TORSDOF 15
ENDMDL
MODEL 2
REMARK VINA RESULT:     -13.3      3.658     10.138
REMARK SMILES C[C@@H](Oc1ccc(/C=C2\C(=O)[NH+]=C(OCCOC(=O)c3ccc(-c4c5nc(c(-c6c(F)cccc6F)c6ccc([nH]6)c(-c6c(F)cccc6F)c6nc(c(-c7c(F)cccc7F)c7ccc4[nH]7)C=C6)C=C5)cc3)N(c3ccc4c(c3)OCO4)C2=O)cc1)C(=O)[O-]
REMARK SMILES IDX 15 1 14 2 13 3 8 4 9 5 10 6 84 7 11 8 12 9 74 10 85 11 7 13
REMARK SMILES IDX 4 14 5 15 87 16 6 17 86 18 3 19 2 20 1 21 88 22 89 23 90 24
REMARK SMILES IDX 75 25 76 26 80 27 77 28 79 29 78 30 81 31 83 32 82 33 16 34
REMARK SMILES IDX 17 35 18 36 19 37 20 38 21 39 73 40 22 41 72 42 23 43 24 44
REMARK SMILES IDX 25 45 66 46 26 47 71 48 65 49 67 50 27 51 70 52 64 53 63 54
REMARK SMILES IDX 28 56 54 57 37 58 53 59 38 60 41 61 52 62 68 63 39 64 40 65
REMARK SMILES IDX 51 67 69 68 42 69 29 70 30 71 35 72 31 73 32 74 34 75 36 76
REMARK SMILES IDX 33 77 55 78 56 79 61 80 57 81 58 82 60 83 62 84 59 85 43 86
REMARK SMILES IDX 44 87 49 88 45 89 46 90 48 91 50 92 47 93
REMARK H PARENT 12 12 67 55 41 66
REMARK Flexibility Score: inf
ROOT
ATOM      1  C   UNL A   1      36.929  20.296  24.583  1.00  0.00     0.279 C 
ENDROOT
BRANCH   1   2
ATOM      2  O   UNL A   1      35.698  20.350  25.345  1.00  0.00    -0.427 OA
BRANCH   2   3
ATOM      3  C   UNL A   1      34.681  21.174  24.995  1.00  0.00     0.465 C 
ATOM      4  C   UNL A   1      31.768  23.536  23.360  1.00  0.00     0.032 C 
ATOM      5  C   UNL A   1      32.782  22.814  23.897  1.00  0.00     0.155 C 
ATOM      6  C   UNL A   1      33.891  23.333  24.736  1.00  0.00     0.349 C 
ATOM      7  C   UNL A   1      32.655  21.332  23.728  1.00  0.00     0.357 C 
ATOM      8  O   UNL A   1      33.951  24.511  25.079  1.00  0.00    -0.240 OA
ATOM      9  N   UNL A   1      34.848  22.443  25.128  1.00  0.00    -0.171 N 
ATOM     10  N   UNL A   1      33.602  20.573  24.390  1.00  0.00    -0.123 N 
ATOM     11  O   UNL A   1      31.728  20.844  23.078  1.00  0.00    -0.240 OA
ATOM     12  H   UNL A   1      35.686  22.779  25.521  1.00  0.00     0.319 HD
BRANCH   4  13
ATOM     13  C   UNL A   1      31.362  24.959  23.407  1.00  0.00    -0.024 A 
ATOM     14  C   UNL A   1      30.323  27.589  23.621  1.00  0.00     0.120 A 
ATOM     15  C   UNL A   1      31.167  27.236  22.566  1.00  0.00     0.047 A 
ATOM     16  C   UNL A   1      29.977  26.629  24.557  1.00  0.00     0.047 A 
ATOM     17  C   UNL A   1      31.677  25.928  22.455  1.00  0.00     0.012 A 
ATOM     18  C   UNL A   1      30.491  25.333  24.447  1.00  0.00     0.012 A 
BRANCH  14  19
ATOM     19  O   UNL A   1      29.713  28.809  23.564  1.00  0.00    -0.485 OA
BRANCH  19  20
ATOM     20  C   UNL A   1      28.791  29.021  22.486  1.00  0.00     0.216 C 
ATOM     21  C   UNL A   1      29.155  30.207  21.596  1.00  0.00     0.059 C 
BRANCH  20  22
ATOM     22  C   UNL A   1      27.444  29.336  23.128  1.00  0.00     0.082 C 
ATOM     23  O   UNL A   1      26.549  28.535  23.356  1.00  0.00    -0.546 OA
ATOM     24  O   UNL A   1      27.254  30.648  23.392  1.00  0.00    -0.546 OA
ENDBRANCH  20  22
ENDBRANCH  19  20
ENDBRANCH  14  19
ENDBRANCH   4  13
BRANCH  10  25
ATOM     25  C   UNL A   1      33.450  19.154  24.393  1.00  0.00     0.144 A 
ATOM     26  C   UNL A   1      34.073  18.376  23.388  1.00  0.00     0.056 A 
ATOM     27  C   UNL A   1      32.756  18.518  25.425  1.00  0.00     0.103 A 
ATOM     28  C   UNL A   1      33.996  16.984  23.380  1.00  0.00     0.055 A 
ATOM     29  C   UNL A   1      32.719  17.138  25.410  1.00  0.00     0.170 A 
ATOM     30  C   UNL A   1      33.319  16.395  24.417  1.00  0.00     0.166 A 
ATOM     31  O   UNL A   1      32.136  16.349  26.352  1.00  0.00    -0.453 OA
ATOM     32  O   UNL A   1      33.191  15.058  24.616  1.00  0.00    -0.454 OA
ATOM     33  C   UNL A   1      32.612  15.051  25.936  1.00  0.00     0.468 C 
ENDBRANCH  10  25
ENDBRANCH   2   3
ENDBRANCH   1   2
BRANCH   1  34
ATOM     34  C   UNL A   1      38.215  19.931  25.329  1.00  0.00     0.275 C 
BRANCH  34  35
ATOM     35  O   UNL A   1      38.895  21.126  25.755  1.00  0.00    -0.458 OA
BRANCH  35  36
ATOM     36  C   UNL A   1      40.124  20.933  26.288  1.00  0.00     0.338 C 
ATOM     37  O   UNL A   1      40.844  19.966  26.111  1.00  0.00    -0.246 OA
BRANCH  36  38
ATOM     38  C   UNL A   1      40.559  22.166  26.991  1.00  0.00     0.060 A 
ATOM     39  C   UNL A   1      40.016  23.369  26.542  1.00  0.00     0.016 A 
ATOM     40  C   UNL A   1      41.479  22.174  28.050  1.00  0.00     0.016 A 
ATOM     41  C   UNL A   1      40.388  24.572  27.140  1.00  0.00     0.010 A 
ATOM     42  C   UNL A   1      41.857  23.390  28.651  1.00  0.00     0.010 A 
ATOM     43  C   UNL A   1      41.324  24.600  28.185  1.00  0.00    -0.014 A 
BRANCH  43  44
ATOM     44  C   UNL A   1      41.879  25.931  28.545  1.00  0.00     0.031 A 
ATOM     45  C   UNL A   1      43.241  26.274  28.007  1.00  0.00     0.074 A 
ATOM     46  C   UNL A   1      41.153  26.883  29.159  1.00  0.00     0.049 A 
ATOM     47  N   UNL A   1      43.827  27.439  27.897  1.00  0.00    -0.248 NA
ATOM     48  C   UNL A   1      44.032  25.144  27.492  1.00  0.00     0.031 C 
ATOM     49  C   UNL A   1      39.813  26.714  29.712  1.00  0.00     0.029 A 
ATOM     50  N   UNL A   1      41.440  28.213  29.369  1.00  0.00    -0.354 N 
ATOM     51  C   UNL A   1      45.027  27.189  27.245  1.00  0.00     0.074 A 
ATOM     52  C   UNL A   1      45.107  25.759  27.030  1.00  0.00     0.031 C 
ATOM     53  C   UNL A   1      39.376  27.904  30.165  1.00  0.00     0.029 A 
ATOM     54  C   UNL A   1      40.409  28.918  29.945  1.00  0.00     0.049 A 
ATOM     55  H   UNL A   1      42.303  28.621  29.131  1.00  0.00     0.167 HD
ATOM     56  C   UNL A   1      45.976  28.065  26.844  1.00  0.00     0.037 A 
ATOM     57  C   UNL A   1      40.310  30.231  30.244  1.00  0.00     0.037 A 
ATOM     58  C   UNL A   1      45.960  29.472  27.126  1.00  0.00     0.049 A 
ATOM     59  C   UNL A   1      41.438  31.174  29.895  1.00  0.00     0.074 A 
ATOM     60  C   UNL A   1      46.924  30.422  26.836  1.00  0.00     0.029 A 
ATOM     61  N   UNL A   1      44.937  30.128  27.791  1.00  0.00    -0.354 N 
ATOM     62  N   UNL A   1      42.546  30.938  29.236  1.00  0.00    -0.248 NA
ATOM     63  C   UNL A   1      41.291  32.574  30.326  1.00  0.00     0.031 C 
ATOM     64  C   UNL A   1      46.503  31.647  27.368  1.00  0.00     0.029 A 
ATOM     65  C   UNL A   1      45.253  31.468  27.939  1.00  0.00     0.049 A 
ATOM     66  H   UNL A   1      44.107  29.705  28.110  1.00  0.00     0.167 HD
ATOM     67  C   UNL A   1      43.209  32.159  29.149  1.00  0.00     0.074 A 
ATOM     68  C   UNL A   1      42.371  33.138  29.805  1.00  0.00     0.031 C 
ATOM     69  C   UNL A   1      44.405  32.443  28.575  1.00  0.00     0.037 A 
BRANCH  56  70
ATOM     70  C   UNL A   1      47.135  27.487  26.092  1.00  0.00     0.057 A 
ATOM     71  C   UNL A   1      47.132  27.409  24.693  1.00  0.00     0.134 A 
ATOM     72  C   UNL A   1      48.240  26.964  26.772  1.00  0.00     0.134 A 
ATOM     73  F   UNL A   1      46.087  27.873  23.989  1.00  0.00    -0.206 F 
ATOM     74  C   UNL A   1      48.177  26.803  23.996  1.00  0.00     0.040 A 
ATOM     75  C   UNL A   1      49.301  26.374  26.084  1.00  0.00     0.040 A 
ATOM     76  F   UNL A   1      48.298  27.002  28.111  1.00  0.00    -0.206 F 
ATOM     77  C   UNL A   1      49.266  26.284  24.693  1.00  0.00     0.006 A 
ENDBRANCH  56  70
BRANCH  57  78
ATOM     78  C   UNL A   1      39.095  30.760  30.922  1.00  0.00     0.057 A 
ATOM     79  C   UNL A   1      38.946  30.698  32.314  1.00  0.00     0.134 A 
ATOM     80  C   UNL A   1      38.018  31.264  30.183  1.00  0.00     0.134 A 
ATOM     81  F   UNL A   1      39.928  30.195  33.075  1.00  0.00    -0.206 F 
ATOM     82  C   UNL A   1      37.762  31.090  32.941  1.00  0.00     0.040 A 
ATOM     83  C   UNL A   1      36.839  31.684  30.800  1.00  0.00     0.040 A 
ATOM     84  F   UNL A   1      38.092  31.340  28.846  1.00  0.00    -0.206 F 
ATOM     85  C   UNL A   1      36.704  31.588  32.183  1.00  0.00     0.006 A 
ENDBRANCH  57  78
BRANCH  69  86
ATOM     86  C   UNL A   1      44.868  33.874  28.586  1.00  0.00     0.057 A 
ATOM     87  C   UNL A   1      45.690  34.384  29.599  1.00  0.00     0.134 A 
ATOM     88  C   UNL A   1      44.530  34.737  27.536  1.00  0.00     0.134 A 
ATOM     89  F   UNL A   1      46.048  33.614  30.638  1.00  0.00    -0.206 F 
ATOM     90  C   UNL A   1      46.139  35.707  29.579  1.00  0.00     0.040 A 
ATOM     91  C   UNL A   1      44.994  36.052  27.491  1.00  0.00     0.040 A 
ATOM     92  F   UNL A   1      43.755  34.311  26.527  1.00  0.00    -0.206 F 
ATOM     93  C   UNL A   1      45.797  36.542  28.518  1.00  0.00     0.006 A 
ENDBRANCH  69  86
ENDBRANCH  43  44
ENDBRANCH  36  38
ENDBRANCH  35  36
ENDBRANCH  34  35
ENDBRANCH   1  34
TORSDOF 15
ENDMDL
MODEL 3
REMARK VINA RESULT:     -13.3      3.794      9.889
REMARK SMILES C[C@@H](Oc1ccc(/C=C2\C(=O)[NH+]=C(OCCOC(=O)c3ccc(-c4c5nc(c(-c6c(F)cccc6F)c6ccc([nH]6)c(-c6c(F)cccc6F)c6nc(c(-c7c(F)cccc7F)c7ccc4[nH]7)C=C6)C=C5)cc3)N(c3ccc4c(c3)OCO4)C2=O)cc1)C(=O)[O-]
REMARK SMILES IDX 15 1 14 2 13 3 8 4 9 5 10 6 84 7 11 8 12 9 74 10 85 11 7 13
REMARK SMILES IDX 4 14 5 15 87 16 6 17 86 18 3 19 2 20 1 21 88 22 89 23 90 24
REMARK SMILES IDX 75 25 76 26 80 27 77 28 79 29 78 30 81 31 83 32 82 33 16 34
REMARK SMILES IDX 17 35 18 36 19 37 20 38 21 39 73 40 22 41 72 42 23 43 24 44
REMARK SMILES IDX 25 45 66 46 26 47 71 48 65 49 67 50 27 51 70 52 64 53 63 54
REMARK SMILES IDX 28 56 54 57 37 58 53 59 38 60 41 61 52 62 68 63 39 64 40 65
REMARK SMILES IDX 51 67 69 68 42 69 29 70 30 71 35 72 31 73 32 74 34 75 36 76
REMARK SMILES IDX 33 77 55 78 56 79 61 80 57 81 58 82 60 83 62 84 59 85 43 86
REMARK SMILES IDX 44 87 49 88 45 89 46 90 48 91 50 92 47 93
REMARK H PARENT 12 12 67 55 41 66
REMARK Flexibility Score: inf
ROOT
ATOM      1  C   UNL A   1      37.446  21.145  25.168  1.00  0.00     0.279 C 
ENDROOT
BRANCH   1   2
ATOM      2  O   UNL A   1      36.097  20.833  25.590  1.00  0.00    -0.427 OA
BRANCH   2   3
ATOM      3  C   UNL A   1      35.040  21.595  25.216  1.00  0.00     0.465 C 
ATOM      4  C   UNL A   1      32.015  23.759  23.511  1.00  0.00     0.032 C 
ATOM      5  C   UNL A   1      33.063  23.104  24.069  1.00  0.00     0.155 C 
ATOM      6  C   UNL A   1      34.145  23.704  24.890  1.00  0.00     0.349 C 
ATOM      7  C   UNL A   1      33.010  21.613  23.946  1.00  0.00     0.357 C 
ATOM      8  O   UNL A   1      34.146  24.893  25.197  1.00  0.00    -0.240 OA
ATOM      9  N   UNL A   1      35.144  22.874  25.309  1.00  0.00    -0.171 N 
ATOM     10  N   UNL A   1      33.992  20.923  24.631  1.00  0.00    -0.123 N 
ATOM     11  O   UNL A   1      32.108  21.060  23.312  1.00  0.00    -0.240 OA
ATOM     12  H   UNL A   1      35.964  23.263  25.691  1.00  0.00     0.319 HD
BRANCH   4  13
ATOM     13  C   UNL A   1      31.540  25.160  23.514  1.00  0.00    -0.024 A 
ATOM     14  C   UNL A   1      30.382  27.745  23.667  1.00  0.00     0.120 A 
ATOM     15  C   UNL A   1      31.167  27.375  22.573  1.00  0.00     0.047 A 
ATOM     16  C   UNL A   1      30.154  26.822  24.675  1.00  0.00     0.047 A 
ATOM     17  C   UNL A   1      31.736  26.090  22.492  1.00  0.00     0.012 A 
ATOM     18  C   UNL A   1      30.726  25.549  24.594  1.00  0.00     0.012 A 
BRANCH  14  19
ATOM     19  O   UNL A   1      29.707  28.928  23.593  1.00  0.00    -0.485 OA
BRANCH  19  20
ATOM     20  C   UNL A   1      28.749  29.061  22.532  1.00  0.00     0.216 C 
ATOM     21  C   UNL A   1      29.047  30.218  21.581  1.00  0.00     0.059 C 
BRANCH  20  22
ATOM     22  C   UNL A   1      27.410  29.358  23.198  1.00  0.00     0.082 C 
ATOM     23  O   UNL A   1      26.513  28.553  23.407  1.00  0.00    -0.546 OA
ATOM     24  O   UNL A   1      27.228  30.661  23.510  1.00  0.00    -0.546 OA
ENDBRANCH  20  22
ENDBRANCH  19  20
ENDBRANCH  14  19
ENDBRANCH   4  13
BRANCH  10  25
ATOM     25  C   UNL A   1      33.910  19.499  24.677  1.00  0.00     0.144 A 
ATOM     26  C   UNL A   1      35.016  18.715  24.272  1.00  0.00     0.056 A 
ATOM     27  C   UNL A   1      32.774  18.871  25.195  1.00  0.00     0.103 A 
ATOM     28  C   UNL A   1      35.001  17.323  24.350  1.00  0.00     0.055 A 
ATOM     29  C   UNL A   1      32.796  17.495  25.288  1.00  0.00     0.170 A 
ATOM     30  C   UNL A   1      33.875  16.744  24.877  1.00  0.00     0.166 A 
ATOM     31  O   UNL A   1      31.807  16.718  25.808  1.00  0.00    -0.453 OA
ATOM     32  O   UNL A   1      33.699  15.414  25.091  1.00  0.00    -0.454 OA
ATOM     33  C   UNL A   1      32.476  15.440  25.853  1.00  0.00     0.468 C 
ENDBRANCH  10  25
ENDBRANCH   2   3
ENDBRANCH   1   2
BRANCH   1  34
ATOM     34  C   UNL A   1      38.433  19.985  25.015  1.00  0.00     0.275 C 
BRANCH  34  35
ATOM     35  O   UNL A   1      39.141  19.773  26.250  1.00  0.00    -0.458 OA
BRANCH  35  36
ATOM     36  C   UNL A   1      40.487  19.679  26.137  1.00  0.00     0.338 C 
ATOM     37  O   UNL A   1      41.105  18.769  25.614  1.00  0.00    -0.246 OA
BRANCH  36  38
ATOM     38  C   UNL A   1      41.113  20.947  26.588  1.00  0.00     0.060 A 
ATOM     39  C   UNL A   1      41.226  21.136  27.965  1.00  0.00     0.016 A 
ATOM     40  C   UNL A   1      41.571  21.944  25.713  1.00  0.00     0.016 A 
ATOM     41  C   UNL A   1      41.787  22.309  28.467  1.00  0.00     0.010 A 
ATOM     42  C   UNL A   1      42.134  23.129  26.221  1.00  0.00     0.010 A 
ATOM     43  C   UNL A   1      42.229  23.325  27.606  1.00  0.00    -0.014 A 
BRANCH  43  44
ATOM     44  C   UNL A   1      42.523  24.642  28.228  1.00  0.00     0.031 A 
ATOM     45  C   UNL A   1      43.970  25.041  28.338  1.00  0.00     0.074 A 
ATOM     46  C   UNL A   1      41.567  25.543  28.518  1.00  0.00     0.049 A 
ATOM     47  N   UNL A   1      44.498  26.220  28.541  1.00  0.00    -0.248 NA
ATOM     48  C   UNL A   1      44.950  23.958  28.157  1.00  0.00     0.031 C 
ATOM     49  C   UNL A   1      40.127  25.317  28.440  1.00  0.00     0.029 A 
ATOM     50  N   UNL A   1      41.683  26.863  28.892  1.00  0.00    -0.354 N 
ATOM     51  C   UNL A   1      45.871  26.031  28.451  1.00  0.00     0.074 A 
ATOM     52  C   UNL A   1      46.093  24.618  28.225  1.00  0.00     0.031 C 
ATOM     53  C   UNL A   1      39.490  26.471  28.718  1.00  0.00     0.029 A 
ATOM     54  C   UNL A   1      40.477  27.514  29.006  1.00  0.00     0.049 A 
ATOM     55  H   UNL A   1      42.548  27.300  29.062  1.00  0.00     0.167 HD
ATOM     56  C   UNL A   1      46.863  26.946  28.533  1.00  0.00     0.037 A 
ATOM     57  C   UNL A   1      40.206  28.805  29.295  1.00  0.00     0.037 A 
ATOM     58  C   UNL A   1      46.671  28.334  28.845  1.00  0.00     0.049 A 
ATOM     59  C   UNL A   1      41.336  29.787  29.502  1.00  0.00     0.074 A 
ATOM     60  C   UNL A   1      47.627  29.316  29.037  1.00  0.00     0.029 A 
ATOM     61  N   UNL A   1      45.436  28.931  29.041  1.00  0.00    -0.354 N 
ATOM     62  N   UNL A   1      42.627  29.610  29.368  1.00  0.00    -0.248 NA
ATOM     63  C   UNL A   1      40.962  31.156  29.893  1.00  0.00     0.031 C 
ATOM     64  C   UNL A   1      46.969  30.499  29.395  1.00  0.00     0.029 A 
ATOM     65  C   UNL A   1      45.605  30.265  29.371  1.00  0.00     0.049 A 
ATOM     66  H   UNL A   1      44.568  28.474  28.957  1.00  0.00     0.167 HD
ATOM     67  C   UNL A   1      43.213  30.846  29.626  1.00  0.00     0.074 A 
ATOM     68  C   UNL A   1      42.137  31.770  29.909  1.00  0.00     0.031 C 
ATOM     69  C   UNL A   1      44.527  31.185  29.630  1.00  0.00     0.037 A 
BRANCH  56  70
ATOM     70  C   UNL A   1      48.254  26.434  28.319  1.00  0.00     0.057 A 
ATOM     71  C   UNL A   1      48.864  26.480  27.059  1.00  0.00     0.134 A 
ATOM     72  C   UNL A   1      48.972  25.852  29.370  1.00  0.00     0.134 A 
ATOM     73  F   UNL A   1      48.213  27.005  26.008  1.00  0.00    -0.206 F 
ATOM     74  C   UNL A   1      50.130  25.935  26.843  1.00  0.00     0.040 A 
ATOM     75  C   UNL A   1      50.247  25.323  29.171  1.00  0.00     0.040 A 
ATOM     76  F   UNL A   1      48.439  25.773  30.598  1.00  0.00    -0.206 F 
ATOM     77  C   UNL A   1      50.825  25.355  27.902  1.00  0.00     0.006 A 
ENDBRANCH  56  70
BRANCH  57  78
ATOM     78  C   UNL A   1      38.798  29.272  29.415  1.00  0.00     0.057 A 
ATOM     79  C   UNL A   1      38.106  29.210  30.632  1.00  0.00     0.134 A 
ATOM     80  C   UNL A   1      38.085  29.711  28.293  1.00  0.00     0.134 A 
ATOM     81  F   UNL A   1      38.722  28.765  31.736  1.00  0.00    -0.206 F 
ATOM     82  C   UNL A   1      36.752  29.541  30.722  1.00  0.00     0.040 A 
ATOM     83  C   UNL A   1      36.739  30.071  28.375  1.00  0.00     0.040 A 
ATOM     84  F   UNL A   1      38.685  29.784  27.096  1.00  0.00    -0.206 F 
ATOM     85  C   UNL A   1      36.065  29.975  29.590  1.00  0.00     0.006 A 
ENDBRANCH  57  78
BRANCH  69  86
ATOM     86  C   UNL A   1      44.882  32.621  29.903  1.00  0.00     0.057 A 
ATOM     87  C   UNL A   1      44.947  33.579  28.884  1.00  0.00     0.134 A 
ATOM     88  C   UNL A   1      45.109  33.059  31.214  1.00  0.00     0.134 A 
ATOM     89  F   UNL A   1      44.747  33.227  27.605  1.00  0.00    -0.206 F 
ATOM     90  C   UNL A   1      45.247  34.916  29.156  1.00  0.00     0.040 A 
ATOM     91  C   UNL A   1      45.382  34.397  31.502  1.00  0.00     0.040 A 
ATOM     92  F   UNL A   1      45.051  32.197  32.240  1.00  0.00    -0.206 F 
ATOM     93  C   UNL A   1      45.458  35.329  30.470  1.00  0.00     0.006 A 
ENDBRANCH  69  86
ENDBRANCH  43  44
ENDBRANCH  36  38
ENDBRANCH  35  36
ENDBRANCH  34  35
ENDBRANCH   1  34
TORSDOF 15
ENDMDL
