MODEL 1
REMARK VINA RESULT:     -11.0      0.000      0.000
REMARK SMILES COCCCNC(=O)/C(C#N)=C/c1ccc(C(=O)OCCOC(=O)c2ccc(-c3c4nc(c(-c5c(F)cccc5F)c5ccc([nH]5)c(-c5c(F)cccc5F)c5nc(c(-c6c(F)cccc6F)c6ccc3[nH]6)C=C5)C=C4)cc2)cc1
REMARK SMILES IDX 17 1 18 2 16 3 13 4 14 5 80 6 15 7 79 8 12 9 9 10 7 11 6 12
REMARK SMILES IDX 8 14 5 15 4 16 3 17 2 18 1 19 10 20 11 21 19 22 20 23 21 24
REMARK SMILES IDX 22 25 23 26 24 27 25 28 26 29 78 30 27 31 77 32 28 33 29 34
REMARK SMILES IDX 30 35 71 36 31 37 76 38 70 39 72 40 32 41 75 42 69 43 68 44
REMARK SMILES IDX 33 46 59 47 42 48 58 49 43 50 46 51 57 52 73 53 44 54 45 55
REMARK SMILES IDX 56 57 74 58 47 59 34 60 35 61 40 62 36 63 37 64 39 65 41 66
REMARK SMILES IDX 38 67 60 68 61 69 66 70 62 71 63 72 65 73 67 74 64 75 48 76
REMARK SMILES IDX 49 77 54 78 50 79 51 80 53 81 55 82 52 83
REMARK H PARENT 6 13 72 45 46 56
REMARK Flexibility Score: inf
ROOT
ATOM      1  C   UNL A   1      40.459  21.349  26.727  1.00  0.00     0.338 C 
ATOM      2  O   UNL A   1      40.638  21.284  27.933  1.00  0.00    -0.246 OA
ENDROOT
BRANCH   1   3
ATOM      3  C   UNL A   1      39.189  21.831  26.128  1.00  0.00     0.060 A 
ATOM      4  C   UNL A   1      36.917  22.719  24.764  1.00  0.00    -0.024 A 
ATOM      5  C   UNL A   1      37.337  21.400  24.609  1.00  0.00     0.009 A 
ATOM      6  C   UNL A   1      37.569  23.562  25.678  1.00  0.00     0.009 A 
ATOM      7  C   UNL A   1      38.493  20.980  25.255  1.00  0.00     0.016 A 
ATOM      8  C   UNL A   1      38.706  23.120  26.358  1.00  0.00     0.016 A 
BRANCH   4   9
ATOM      9  C   UNL A   1      36.023  23.263  23.734  1.00  0.00     0.033 C 
ATOM     10  C   UNL A   1      34.682  23.152  23.877  1.00  0.00     0.117 C 
BRANCH  10  11
ATOM     11  C   UNL A   1      33.824  23.853  22.875  1.00  0.00     0.261 C 
ATOM     12  N   UNL A   1      33.201  25.040  23.130  1.00  0.00    -0.351 N 
ATOM     13  H   UNL A   1      32.748  25.431  22.349  1.00  0.00     0.163 HD
ATOM     14  O   UNL A   1      33.647  23.368  21.754  1.00  0.00    -0.268 OA
BRANCH  12  15
ATOM     15  C   UNL A   1      33.082  25.836  24.343  1.00  0.00     0.118 C 
BRANCH  15  16
ATOM     16  C   UNL A   1      31.751  25.694  25.065  1.00  0.00     0.050 C 
BRANCH  16  17
ATOM     17  C   UNL A   1      31.782  25.030  26.433  1.00  0.00     0.161 C 
BRANCH  17  18
ATOM     18  O   UNL A   1      30.540  24.449  26.809  1.00  0.00    -0.385 OA
ATOM     19  C   UNL A   1      30.436  23.055  26.568  1.00  0.00     0.194 C 
ENDBRANCH  17  18
ENDBRANCH  16  17
ENDBRANCH  15  16
ENDBRANCH  12  15
ENDBRANCH  10  11
BRANCH  10  20
ATOM     20  C   UNL A   1      34.144  22.429  24.981  1.00  0.00     0.105 C 
ATOM     21  N   UNL A   1      33.735  21.800  25.868  1.00  0.00    -0.192 NA
ENDBRANCH  10  20
ENDBRANCH   4   9
ENDBRANCH   1   3
BRANCH   1  22
ATOM     22  O   UNL A   1      41.379  21.097  25.765  1.00  0.00    -0.458 OA
BRANCH  22  23
ATOM     23  C   UNL A   1      42.738  20.947  26.220  1.00  0.00     0.275 C 
BRANCH  23  24
ATOM     24  C   UNL A   1      43.703  21.739  25.335  1.00  0.00     0.275 C 
BRANCH  24  25
ATOM     25  O   UNL A   1      43.056  22.878  24.732  1.00  0.00    -0.458 OA
BRANCH  25  26
ATOM     26  C   UNL A   1      43.669  24.058  24.971  1.00  0.00     0.338 C 
ATOM     27  O   UNL A   1      44.758  24.423  24.557  1.00  0.00    -0.246 OA
BRANCH  26  28
ATOM     28  C   UNL A   1      42.810  24.970  25.739  1.00  0.00     0.060 A 
ATOM     29  C   UNL A   1      43.175  26.306  25.751  1.00  0.00     0.016 A 
ATOM     30  C   UNL A   1      41.896  24.493  26.671  1.00  0.00     0.016 A 
ATOM     31  C   UNL A   1      42.811  27.122  26.814  1.00  0.00     0.010 A 
ATOM     32  C   UNL A   1      41.389  25.369  27.642  1.00  0.00     0.010 A 
ATOM     33  C   UNL A   1      41.900  26.676  27.778  1.00  0.00    -0.014 A 
BRANCH  33  34
ATOM     34  C   UNL A   1      41.536  27.553  28.935  1.00  0.00     0.031 A 
ATOM     35  C   UNL A   1      42.349  27.520  30.211  1.00  0.00     0.074 A 
ATOM     36  C   UNL A   1      40.496  28.410  28.844  1.00  0.00     0.049 A 
ATOM     37  N   UNL A   1      42.104  28.089  31.367  1.00  0.00    -0.248 NA
ATOM     38  C   UNL A   1      43.587  26.726  30.195  1.00  0.00     0.031 C 
ATOM     39  C   UNL A   1      39.645  28.596  27.667  1.00  0.00     0.029 A 
ATOM     40  N   UNL A   1      39.981  29.298  29.759  1.00  0.00    -0.354 N 
ATOM     41  C   UNL A   1      43.114  27.666  32.226  1.00  0.00     0.074 A 
ATOM     42  C   UNL A   1      43.964  26.778  31.464  1.00  0.00     0.031 C 
ATOM     43  C   UNL A   1      38.760  29.573  27.906  1.00  0.00     0.029 A 
ATOM     44  C   UNL A   1      38.897  30.003  29.290  1.00  0.00     0.049 A 
ATOM     45  H   UNL A   1      40.353  29.419  30.662  1.00  0.00     0.167 HD
ATOM     46  C   UNL A   1      43.317  27.989  33.527  1.00  0.00     0.037 A 
ATOM     47  C   UNL A   1      38.067  30.863  29.909  1.00  0.00     0.037 A 
ATOM     48  C   UNL A   1      42.499  28.918  34.268  1.00  0.00     0.049 A 
ATOM     49  C   UNL A   1      38.280  31.161  31.365  1.00  0.00     0.074 A 
ATOM     50  C   UNL A   1      42.643  29.336  35.580  1.00  0.00     0.029 A 
ATOM     51  N   UNL A   1      41.386  29.573  33.761  1.00  0.00    -0.354 N 
ATOM     52  N   UNL A   1      39.221  30.732  32.169  1.00  0.00    -0.248 NA
ATOM     53  C   UNL A   1      37.305  32.057  32.001  1.00  0.00     0.031 C 
ATOM     54  C   UNL A   1      41.579  30.191  35.886  1.00  0.00     0.029 A 
ATOM     55  C   UNL A   1      40.817  30.369  34.742  1.00  0.00     0.049 A 
ATOM     56  H   UNL A   1      41.051  29.487  32.839  1.00  0.00     0.167 HD
ATOM     57  C   UNL A   1      38.975  31.334  33.396  1.00  0.00     0.074 A 
ATOM     58  C   UNL A   1      37.805  32.170  33.223  1.00  0.00     0.031 C 
ATOM     59  C   UNL A   1      39.658  31.207  34.559  1.00  0.00     0.037 A 
BRANCH  46  60
ATOM     60  C   UNL A   1      44.441  27.298  34.254  1.00  0.00     0.057 A 
ATOM     61  C   UNL A   1      45.713  27.867  34.397  1.00  0.00     0.134 A 
ATOM     62  C   UNL A   1      44.231  26.045  34.847  1.00  0.00     0.134 A 
ATOM     63  F   UNL A   1      45.991  29.060  33.850  1.00  0.00    -0.206 F 
ATOM     64  C   UNL A   1      46.743  27.200  35.067  1.00  0.00     0.040 A 
ATOM     65  C   UNL A   1      45.240  25.385  35.550  1.00  0.00     0.040 A 
ATOM     66  F   UNL A   1      43.035  25.443  34.764  1.00  0.00    -0.206 F 
ATOM     67  C   UNL A   1      46.506  25.958  35.651  1.00  0.00     0.006 A 
ENDBRANCH  46  60
BRANCH  47  68
ATOM     68  C   UNL A   1      36.935  31.478  29.165  1.00  0.00     0.057 A 
ATOM     69  C   UNL A   1      35.775  30.747  28.882  1.00  0.00     0.134 A 
ATOM     70  C   UNL A   1      36.987  32.802  28.707  1.00  0.00     0.134 A 
ATOM     71  F   UNL A   1      35.671  29.468  29.274  1.00  0.00    -0.206 F 
ATOM     72  C   UNL A   1      34.720  31.300  28.153  1.00  0.00     0.040 A 
ATOM     73  C   UNL A   1      35.924  33.379  28.011  1.00  0.00     0.040 A 
ATOM     74  F   UNL A   1      38.065  33.561  28.949  1.00  0.00    -0.206 F 
ATOM     75  C   UNL A   1      34.790  32.623  27.722  1.00  0.00     0.006 A 
ENDBRANCH  47  68
BRANCH  59  76
ATOM     76  C   UNL A   1      39.197  32.046  35.718  1.00  0.00     0.057 A 
ATOM     77  C   UNL A   1      39.629  33.365  35.909  1.00  0.00     0.134 A 
ATOM     78  C   UNL A   1      38.299  31.519  36.656  1.00  0.00     0.134 A 
ATOM     79  F   UNL A   1      40.498  33.927  35.057  1.00  0.00    -0.206 F 
ATOM     80  C   UNL A   1      39.218  34.114  37.014  1.00  0.00     0.040 A 
ATOM     81  C   UNL A   1      37.851  32.271  37.743  1.00  0.00     0.040 A 
ATOM     82  F   UNL A   1      37.837  30.266  36.530  1.00  0.00    -0.206 F 
ATOM     83  C   UNL A   1      38.320  33.568  37.931  1.00  0.00     0.006 A 
ENDBRANCH  59  76
ENDBRANCH  33  34
ENDBRANCH  26  28
ENDBRANCH  25  26
ENDBRANCH  24  25
ENDBRANCH  23  24
ENDBRANCH  22  23
ENDBRANCH   1  22
TORSDOF 18
ENDMDL
MODEL 2
REMARK VINA RESULT:     -10.6      4.500      9.836
REMARK SMILES COCCCNC(=O)/C(C#N)=C/c1ccc(C(=O)OCCOC(=O)c2ccc(-c3c4nc(c(-c5c(F)cccc5F)c5ccc([nH]5)c(-c5c(F)cccc5F)c5nc(c(-c6c(F)cccc6F)c6ccc3[nH]6)C=C5)C=C4)cc2)cc1
REMARK SMILES IDX 17 1 18 2 16 3 13 4 14 5 80 6 15 7 79 8 12 9 9 10 7 11 6 12
REMARK SMILES IDX 8 14 5 15 4 16 3 17 2 18 1 19 10 20 11 21 19 22 20 23 21 24
REMARK SMILES IDX 22 25 23 26 24 27 25 28 26 29 78 30 27 31 77 32 28 33 29 34
REMARK SMILES IDX 30 35 71 36 31 37 76 38 70 39 72 40 32 41 75 42 69 43 68 44
REMARK SMILES IDX 33 46 59 47 42 48 58 49 43 50 46 51 57 52 73 53 44 54 45 55
REMARK SMILES IDX 56 57 74 58 47 59 34 60 35 61 40 62 36 63 37 64 39 65 41 66
REMARK SMILES IDX 38 67 60 68 61 69 66 70 62 71 63 72 65 73 67 74 64 75 48 76
REMARK SMILES IDX 49 77 54 78 50 79 51 80 53 81 55 82 52 83
REMARK H PARENT 6 13 72 45 46 56
REMARK Flexibility Score: inf
ROOT
ATOM      1  C   UNL A   1      34.558  32.379  28.004  1.00  0.00     0.338 C 
ATOM      2  O   UNL A   1      35.618  32.802  27.569  1.00  0.00    -0.246 OA
ENDROOT
BRANCH   1   3
ATOM      3  C   UNL A   1      33.946  31.112  27.533  1.00  0.00     0.060 A 
ATOM      4  C   UNL A   1      32.643  28.730  26.867  1.00  0.00    -0.024 A 
ATOM      5  C   UNL A   1      31.925  29.924  26.876  1.00  0.00     0.009 A 
ATOM      6  C   UNL A   1      34.030  28.742  27.090  1.00  0.00     0.009 A 
ATOM      7  C   UNL A   1      32.571  31.096  27.252  1.00  0.00     0.016 A 
ATOM      8  C   UNL A   1      34.681  29.931  27.425  1.00  0.00     0.016 A 
BRANCH   4   9
ATOM      9  C   UNL A   1      31.872  27.483  26.949  1.00  0.00     0.033 C 
ATOM     10  C   UNL A   1      31.508  26.839  25.816  1.00  0.00     0.117 C 
BRANCH  10  11
ATOM     11  C   UNL A   1      30.856  25.503  25.965  1.00  0.00     0.261 C 
ATOM     12  N   UNL A   1      31.480  24.332  25.647  1.00  0.00    -0.351 N 
ATOM     13  H   UNL A   1      30.966  23.527  25.885  1.00  0.00     0.163 HD
ATOM     14  O   UNL A   1      29.702  25.414  26.391  1.00  0.00    -0.268 OA
BRANCH  12  15
ATOM     15  C   UNL A   1      32.765  24.051  25.023  1.00  0.00     0.118 C 
BRANCH  15  16
ATOM     16  C   UNL A   1      33.973  24.407  25.876  1.00  0.00     0.050 C 
BRANCH  16  17
ATOM     17  C   UNL A   1      34.550  23.299  26.743  1.00  0.00     0.161 C 
BRANCH  17  18
ATOM     18  O   UNL A   1      33.567  22.398  27.239  1.00  0.00    -0.385 OA
ATOM     19  C   UNL A   1      33.623  21.092  26.689  1.00  0.00     0.194 C 
ENDBRANCH  17  18
ENDBRANCH  16  17
ENDBRANCH  15  16
ENDBRANCH  12  15
ENDBRANCH  10  11
BRANCH  10  20
ATOM     20  C   UNL A   1      31.797  27.419  24.546  1.00  0.00     0.105 C 
ATOM     21  N   UNL A   1      32.037  27.843  23.493  1.00  0.00    -0.192 NA
ENDBRANCH  10  20
ENDBRANCH   4   9
ENDBRANCH   1   3
BRANCH   1  22
ATOM     22  O   UNL A   1      33.836  32.916  29.016  1.00  0.00    -0.458 OA
BRANCH  22  23
ATOM     23  C   UNL A   1      34.421  34.061  29.667  1.00  0.00     0.275 C 
BRANCH  23  24
ATOM     24  C   UNL A   1      34.560  33.825  31.173  1.00  0.00     0.275 C 
BRANCH  24  25
ATOM     25  O   UNL A   1      34.517  32.420  31.496  1.00  0.00    -0.458 OA
BRANCH  25  26
ATOM     26  C   UNL A   1      35.491  32.012  32.338  1.00  0.00     0.338 C 
ATOM     27  O   UNL A   1      35.609  32.288  33.522  1.00  0.00    -0.246 OA
BRANCH  26  28
ATOM     28  C   UNL A   1      36.403  31.059  31.693  1.00  0.00     0.060 A 
ATOM     29  C   UNL A   1      37.424  30.546  32.476  1.00  0.00     0.016 A 
ATOM     30  C   UNL A   1      36.462  30.933  30.310  1.00  0.00     0.016 A 
ATOM     31  C   UNL A   1      38.605  30.107  31.890  1.00  0.00     0.010 A 
ATOM     32  C   UNL A   1      37.583  30.325  29.724  1.00  0.00     0.010 A 
ATOM     33  C   UNL A   1      38.707  29.976  30.501  1.00  0.00    -0.014 A 
BRANCH  33  34
ATOM     34  C   UNL A   1      39.993  29.529  29.878  1.00  0.00     0.031 A 
ATOM     35  C   UNL A   1      41.166  30.479  29.771  1.00  0.00     0.074 A 
ATOM     36  C   UNL A   1      40.135  28.262  29.432  1.00  0.00     0.049 A 
ATOM     37  N   UNL A   1      42.303  30.327  29.135  1.00  0.00    -0.248 NA
ATOM     38  C   UNL A   1      41.038  31.779  30.449  1.00  0.00     0.031 C 
ATOM     39  C   UNL A   1      39.115  27.214  29.506  1.00  0.00     0.029 A 
ATOM     40  N   UNL A   1      41.201  27.634  28.834  1.00  0.00    -0.354 N 
ATOM     41  C   UNL A   1      42.987  31.530  29.277  1.00  0.00     0.074 A 
ATOM     42  C   UNL A   1      42.132  32.409  30.045  1.00  0.00     0.031 C 
ATOM     43  C   UNL A   1      39.620  26.066  29.035  1.00  0.00     0.029 A 
ATOM     44  C   UNL A   1      40.955  26.319  28.514  1.00  0.00     0.049 A 
ATOM     45  H   UNL A   1      42.059  28.082  28.653  1.00  0.00     0.167 HD
ATOM     46  C   UNL A   1      44.217  31.872  28.816  1.00  0.00     0.037 A 
ATOM     47  C   UNL A   1      41.693  25.423  27.832  1.00  0.00     0.037 A 
ATOM     48  C   UNL A   1      45.089  30.975  28.098  1.00  0.00     0.049 A 
ATOM     49  C   UNL A   1      43.026  25.843  27.283  1.00  0.00     0.074 A 
ATOM     50  C   UNL A   1      46.365  31.215  27.618  1.00  0.00     0.029 A 
ATOM     51  N   UNL A   1      44.777  29.666  27.761  1.00  0.00    -0.354 N 
ATOM     52  N   UNL A   1      43.646  26.991  27.402  1.00  0.00    -0.248 NA
ATOM     53  C   UNL A   1      43.755  24.842  26.494  1.00  0.00     0.031 C 
ATOM     54  C   UNL A   1      46.797  30.076  26.932  1.00  0.00     0.029 A 
ATOM     55  C   UNL A   1      45.824  29.097  27.053  1.00  0.00     0.049 A 
ATOM     56  H   UNL A   1      43.937  29.208  27.991  1.00  0.00     0.167 HD
ATOM     57  C   UNL A   1      44.855  26.839  26.736  1.00  0.00     0.074 A 
ATOM     58  C   UNL A   1      44.885  25.483  26.230  1.00  0.00     0.031 C 
ATOM     59  C   UNL A   1      45.851  27.742  26.562  1.00  0.00     0.037 A 
BRANCH  46  60
ATOM     60  C   UNL A   1      44.676  33.291  29.028  1.00  0.00     0.057 A 
ATOM     61  C   UNL A   1      44.408  34.317  28.113  1.00  0.00     0.134 A 
ATOM     62  C   UNL A   1      45.378  33.637  30.191  1.00  0.00     0.134 A 
ATOM     63  F   UNL A   1      43.748  34.059  26.974  1.00  0.00    -0.206 F 
ATOM     64  C   UNL A   1      44.856  35.624  28.327  1.00  0.00     0.040 A 
ATOM     65  C   UNL A   1      45.798  34.946  30.434  1.00  0.00     0.040 A 
ATOM     66  F   UNL A   1      45.659  32.711  31.120  1.00  0.00    -0.206 F 
ATOM     67  C   UNL A   1      45.546  35.943  29.494  1.00  0.00     0.006 A 
ENDBRANCH  46  60
BRANCH  47  68
ATOM     68  C   UNL A   1      41.174  24.049  27.598  1.00  0.00     0.057 A 
ATOM     69  C   UNL A   1      41.681  22.954  28.308  1.00  0.00     0.134 A 
ATOM     70  C   UNL A   1      40.172  23.791  26.652  1.00  0.00     0.134 A 
ATOM     71  F   UNL A   1      42.657  23.130  29.213  1.00  0.00    -0.206 F 
ATOM     72  C   UNL A   1      41.229  21.655  28.073  1.00  0.00     0.040 A 
ATOM     73  C   UNL A   1      39.684  22.502  26.434  1.00  0.00     0.040 A 
ATOM     74  F   UNL A   1      39.637  24.794  25.941  1.00  0.00    -0.206 F 
ATOM     75  C   UNL A   1      40.221  21.427  27.138  1.00  0.00     0.006 A 
ENDBRANCH  47  68
BRANCH  59  76
ATOM     76  C   UNL A   1      47.087  27.267  25.851  1.00  0.00     0.057 A 
ATOM     77  C   UNL A   1      48.126  26.602  26.515  1.00  0.00     0.134 A 
ATOM     78  C   UNL A   1      47.234  27.479  24.474  1.00  0.00     0.134 A 
ATOM     79  F   UNL A   1      48.057  26.379  27.836  1.00  0.00    -0.206 F 
ATOM     80  C   UNL A   1      49.284  26.203  25.843  1.00  0.00     0.040 A 
ATOM     81  C   UNL A   1      48.369  27.050  23.784  1.00  0.00     0.040 A 
ATOM     82  F   UNL A   1      46.274  28.100  23.773  1.00  0.00    -0.206 F 
ATOM     83  C   UNL A   1      49.404  26.423  24.471  1.00  0.00     0.006 A 
ENDBRANCH  59  76
ENDBRANCH  33  34
ENDBRANCH  26  28
ENDBRANCH  25  26
ENDBRANCH  24  25
ENDBRANCH  23  24
ENDBRANCH  22  23
ENDBRANCH   1  22
TORSDOF 18
ENDMDL
MODEL 3
REMARK VINA RESULT:     -10.6      0.994      2.113
REMARK SMILES COCCCNC(=O)/C(C#N)=C/c1ccc(C(=O)OCCOC(=O)c2ccc(-c3c4nc(c(-c5c(F)cccc5F)c5ccc([nH]5)c(-c5c(F)cccc5F)c5nc(c(-c6c(F)cccc6F)c6ccc3[nH]6)C=C5)C=C4)cc2)cc1
REMARK SMILES IDX 17 1 18 2 16 3 13 4 14 5 80 6 15 7 79 8 12 9 9 10 7 11 6 12
REMARK SMILES IDX 8 14 5 15 4 16 3 17 2 18 1 19 10 20 11 21 19 22 20 23 21 24
REMARK SMILES IDX 22 25 23 26 24 27 25 28 26 29 78 30 27 31 77 32 28 33 29 34
REMARK SMILES IDX 30 35 71 36 31 37 76 38 70 39 72 40 32 41 75 42 69 43 68 44
REMARK SMILES IDX 33 46 59 47 42 48 58 49 43 50 46 51 57 52 73 53 44 54 45 55
REMARK SMILES IDX 56 57 74 58 47 59 34 60 35 61 40 62 36 63 37 64 39 65 41 66
REMARK SMILES IDX 38 67 60 68 61 69 66 70 62 71 63 72 65 73 67 74 64 75 48 76
REMARK SMILES IDX 49 77 54 78 50 79 51 80 53 81 55 82 52 83
REMARK H PARENT 6 13 72 45 46 56
REMARK Flexibility Score: inf
ROOT
ATOM      1  C   UNL A   1      40.569  20.432  25.967  1.00  0.00     0.338 C 
ATOM      2  O   UNL A   1      40.590  19.224  25.793  1.00  0.00    -0.246 OA
ENDROOT
BRANCH   1   3
ATOM      3  C   UNL A   1      39.332  21.241  25.837  1.00  0.00     0.060 A 
ATOM      4  C   UNL A   1      37.045  22.766  25.328  1.00  0.00    -0.024 A 
ATOM      5  C   UNL A   1      37.097  21.444  24.893  1.00  0.00     0.009 A 
ATOM      6  C   UNL A   1      38.090  23.292  26.105  1.00  0.00     0.009 A 
ATOM      7  C   UNL A   1      38.255  20.708  25.111  1.00  0.00     0.016 A 
ATOM      8  C   UNL A   1      39.234  22.531  26.358  1.00  0.00     0.016 A 
BRANCH   4   9
ATOM      9  C   UNL A   1      36.061  23.645  24.685  1.00  0.00     0.033 C 
ATOM     10  C   UNL A   1      34.880  23.897  25.296  1.00  0.00     0.117 C 
BRANCH  10  11
ATOM     11  C   UNL A   1      33.984  24.914  24.667  1.00  0.00     0.261 C 
ATOM     12  N   UNL A   1      33.007  24.590  23.770  1.00  0.00    -0.351 N 
ATOM     13  H   UNL A   1      32.434  25.347  23.513  1.00  0.00     0.163 HD
ATOM     14  O   UNL A   1      34.101  26.110  24.946  1.00  0.00    -0.268 OA
BRANCH  12  15
ATOM     15  C   UNL A   1      32.654  23.334  23.126  1.00  0.00     0.118 C 
BRANCH  15  16
ATOM     16  C   UNL A   1      31.939  22.340  24.029  1.00  0.00     0.050 C 
BRANCH  16  17
ATOM     17  C   UNL A   1      32.355  20.882  23.909  1.00  0.00     0.161 C 
BRANCH  17  18
ATOM     18  O   UNL A   1      33.654  20.620  24.424  1.00  0.00    -0.385 OA
ATOM     19  C   UNL A   1      33.980  19.245  24.551  1.00  0.00     0.194 C 
ENDBRANCH  17  18
ENDBRANCH  16  17
ENDBRANCH  15  16
ENDBRANCH  12  15
ENDBRANCH  10  11
BRANCH  10  20
ATOM     20  C   UNL A   1      34.559  23.238  26.518  1.00  0.00     0.105 C 
ATOM     21  N   UNL A   1      34.273  22.665  27.487  1.00  0.00    -0.192 NA
ENDBRANCH  10  20
ENDBRANCH   4   9
ENDBRANCH   1   3
BRANCH   1  22
ATOM     22  O   UNL A   1      41.604  21.199  26.386  1.00  0.00    -0.458 OA
BRANCH  22  23
ATOM     23  C   UNL A   1      42.920  20.674  26.126  1.00  0.00     0.275 C 
BRANCH  23  24
ATOM     24  C   UNL A   1      43.703  21.594  25.185  1.00  0.00     0.275 C 
BRANCH  24  25
ATOM     25  O   UNL A   1      42.926  22.749  24.806  1.00  0.00    -0.458 OA
BRANCH  25  26
ATOM     26  C   UNL A   1      43.549  23.930  25.007  1.00  0.00     0.338 C 
ATOM     27  O   UNL A   1      44.634  24.278  24.569  1.00  0.00    -0.246 OA
BRANCH  26  28
ATOM     28  C   UNL A   1      42.708  24.866  25.766  1.00  0.00     0.060 A 
ATOM     29  C   UNL A   1      43.099  26.195  25.766  1.00  0.00     0.016 A 
ATOM     30  C   UNL A   1      41.784  24.416  26.701  1.00  0.00     0.016 A 
ATOM     31  C   UNL A   1      42.750  27.028  26.821  1.00  0.00     0.010 A 
ATOM     32  C   UNL A   1      41.293  25.311  27.664  1.00  0.00     0.010 A 
ATOM     33  C   UNL A   1      41.829  26.608  27.788  1.00  0.00    -0.014 A 
BRANCH  33  34
ATOM     34  C   UNL A   1      41.482  27.504  28.936  1.00  0.00     0.031 A 
ATOM     35  C   UNL A   1      42.298  27.473  30.210  1.00  0.00     0.074 A 
ATOM     36  C   UNL A   1      40.454  28.374  28.839  1.00  0.00     0.049 A 
ATOM     37  N   UNL A   1      42.065  28.059  31.360  1.00  0.00    -0.248 NA
ATOM     38  C   UNL A   1      43.525  26.661  30.199  1.00  0.00     0.031 C 
ATOM     39  C   UNL A   1      39.601  28.559  27.663  1.00  0.00     0.029 A 
ATOM     40  N   UNL A   1      39.955  29.279  29.745  1.00  0.00    -0.354 N 
ATOM     41  C   UNL A   1      43.072  27.630  32.221  1.00  0.00     0.074 A 
ATOM     42  C   UNL A   1      43.907  26.722  31.466  1.00  0.00     0.031 C 
ATOM     43  C   UNL A   1      38.731  29.550  27.893  1.00  0.00     0.029 A 
ATOM     44  C   UNL A   1      38.879  29.994  29.272  1.00  0.00     0.049 A 
ATOM     45  H   UNL A   1      40.331  29.405  30.646  1.00  0.00     0.167 HD
ATOM     46  C   UNL A   1      43.285  27.965  33.518  1.00  0.00     0.037 A 
ATOM     47  C   UNL A   1      38.063  30.873  29.884  1.00  0.00     0.037 A 
ATOM     48  C   UNL A   1      42.481  28.913  34.250  1.00  0.00     0.049 A 
ATOM     49  C   UNL A   1      38.285  31.184  31.336  1.00  0.00     0.074 A 
ATOM     50  C   UNL A   1      42.636  29.345  35.557  1.00  0.00     0.029 A 
ATOM     51  N   UNL A   1      41.377  29.579  33.740  1.00  0.00    -0.354 N 
ATOM     52  N   UNL A   1      39.222  30.750  32.142  1.00  0.00    -0.248 NA
ATOM     53  C   UNL A   1      37.324  32.100  31.965  1.00  0.00     0.031 C 
ATOM     54  C   UNL A   1      41.585  30.217  35.857  1.00  0.00     0.029 A 
ATOM     55  C   UNL A   1      40.822  30.394  34.714  1.00  0.00     0.049 A 
ATOM     56  H   UNL A   1      41.037  29.487  32.820  1.00  0.00     0.167 HD
ATOM     57  C   UNL A   1      38.989  31.369  33.363  1.00  0.00     0.074 A 
ATOM     58  C   UNL A   1      37.830  32.219  33.184  1.00  0.00     0.031 C 
ATOM     59  C   UNL A   1      39.674  31.245  34.525  1.00  0.00     0.037 A 
BRANCH  46  60
ATOM     60  C   UNL A   1      44.401  27.267  34.248  1.00  0.00     0.057 A 
ATOM     61  C   UNL A   1      44.224  26.046  34.912  1.00  0.00     0.134 A 
ATOM     62  C   UNL A   1      45.690  27.820  34.260  1.00  0.00     0.134 A 
ATOM     63  F   UNL A   1      43.018  25.460  34.949  1.00  0.00    -0.206 F 
ATOM     64  C   UNL A   1      45.274  25.423  35.593  1.00  0.00     0.040 A 
ATOM     65  C   UNL A   1      46.755  27.190  34.905  1.00  0.00     0.040 A 
ATOM     66  F   UNL A   1      45.940  28.980  33.635  1.00  0.00    -0.206 F 
ATOM     67  C   UNL A   1      46.546  25.992  35.585  1.00  0.00     0.006 A 
ENDBRANCH  46  60
BRANCH  47  68
ATOM     68  C   UNL A   1      36.937  31.495  29.137  1.00  0.00     0.057 A 
ATOM     69  C   UNL A   1      37.012  32.821  28.692  1.00  0.00     0.134 A 
ATOM     70  C   UNL A   1      35.756  30.792  28.864  1.00  0.00     0.134 A 
ATOM     71  F   UNL A   1      38.106  33.556  28.940  1.00  0.00    -0.206 F 
ATOM     72  C   UNL A   1      35.948  33.428  28.021  1.00  0.00     0.040 A 
ATOM     73  C   UNL A   1      34.701  31.376  28.162  1.00  0.00     0.040 A 
ATOM     74  F   UNL A   1      35.620  29.517  29.257  1.00  0.00    -0.206 F 
ATOM     75  C   UNL A   1      34.791  32.702  27.748  1.00  0.00     0.006 A 
ENDBRANCH  47  68
BRANCH  59  76
ATOM     76  C   UNL A   1      39.229  32.103  35.676  1.00  0.00     0.057 A 
ATOM     77  C   UNL A   1      38.331  31.646  36.650  1.00  0.00     0.134 A 
ATOM     78  C   UNL A   1      39.714  33.411  35.809  1.00  0.00     0.134 A 
ATOM     79  F   UNL A   1      37.818  30.409  36.576  1.00  0.00    -0.206 F 
ATOM     80  C   UNL A   1      37.901  32.473  37.691  1.00  0.00     0.040 A 
ATOM     81  C   UNL A   1      39.320  34.233  36.866  1.00  0.00     0.040 A 
ATOM     82  F   UNL A   1      40.583  33.911  34.918  1.00  0.00    -0.206 F 
ATOM     83  C   UNL A   1      38.402  33.769  37.803  1.00  0.00     0.006 A 
ENDBRANCH  59  76
ENDBRANCH  33  34
ENDBRANCH  26  28
ENDBRANCH  25  26
ENDBRANCH  24  25
ENDBRANCH  23  24
ENDBRANCH  22  23
ENDBRANCH   1  22
TORSDOF 18
ENDMDL
