MODEL 1
REMARK VINA RESULT:     -14.7      0.000      0.000
REMARK SMILES O=C(OCCOC(=O)[C@H]1[C@H](C(=O)NC2CC[NH+](Cc3ccccc3)CC2)[C@H]2C=C[C@@H]1C2)c1ccc(-c2c3nc(c(-c4c(F)cccc4F)c4ccc([nH]4)c(-c4c(F)cccc4F)c4nc(c(-c5c(F)cccc5F)c5ccc2[nH]5)C=C4)C=C3)cc1
REMARK SMILES IDX 5 1 4 2 3 3 2 4 1 5 32 6 33 7 85 8 34 9 84 10 35 11 36 12
REMARK SMILES IDX 37 13 78 14 38 15 83 16 77 17 79 18 39 19 82 20 76 21 75 22
REMARK SMILES IDX 40 24 66 25 49 26 65 27 50 28 53 29 64 30 80 31 51 32 52 33
REMARK SMILES IDX 63 35 81 36 54 37 41 38 42 39 47 40 43 41 44 42 46 43 48 44
REMARK SMILES IDX 45 45 67 46 68 47 73 48 69 49 70 50 72 51 74 52 71 53 55 54
REMARK SMILES IDX 56 55 61 56 57 57 58 58 60 59 62 60 59 61 6 62 7 63 8 64
REMARK SMILES IDX 9 65 10 66 30 67 27 68 29 69 31 70 28 71 11 72 12 73 13 74
REMARK SMILES IDX 14 76 15 77 26 78 16 79 25 80 17 81 18 83 19 84 20 85 24 86
REMARK SMILES IDX 21 87 23 88 22 89
REMARK H PARENT 79 23 53 34 13 75 17 82
REMARK Flexibility Score: inf
ROOT
ATOM      1  C   UNL A   1      33.726  30.495  27.591  1.00  0.00     0.274 C 
ENDROOT
BRANCH   1   2
ATOM      2  C   UNL A   1      33.846  32.030  27.761  1.00  0.00     0.275 C 
BRANCH   2   3
ATOM      3  O   UNL A   1      35.167  32.454  28.108  1.00  0.00    -0.458 OA
BRANCH   3   4
ATOM      4  C   UNL A   1      35.901  31.940  29.118  1.00  0.00     0.338 C 
ATOM      5  O   UNL A   1      35.639  32.220  30.282  1.00  0.00    -0.246 OA
BRANCH   4   6
ATOM      6  C   UNL A   1      37.103  31.077  28.881  1.00  0.00     0.060 A 
ATOM      7  C   UNL A   1      37.309  29.721  27.625  1.00  0.00     0.016 A 
ATOM      8  C   UNL A   1      38.539  31.406  29.996  1.00  0.00     0.016 A 
ATOM      9  C   UNL A   1      38.923  28.927  27.314  1.00  0.00     0.010 A 
ATOM     10  C   UNL A   1      40.186  30.609  29.621  1.00  0.00     0.010 A 
ATOM     11  C   UNL A   1      40.413  29.435  28.213  1.00  0.00    -0.014 A 
BRANCH  11  12
ATOM     12  C   UNL A   1      41.924  28.963  27.806  1.00  0.00     0.031 A 
ATOM     13  C   UNL A   1      42.219  27.517  28.024  1.00  0.00     0.074 A 
ATOM     14  C   UNL A   1      43.066  29.686  27.454  1.00  0.00     0.049 A 
ATOM     15  N   UNL A   1      43.290  26.901  27.614  1.00  0.00    -0.248 NA
ATOM     16  C   UNL A   1      41.185  26.617  28.530  1.00  0.00     0.031 C 
ATOM     17  C   UNL A   1      43.246  30.975  26.780  1.00  0.00     0.029 A 
ATOM     18  N   UNL A   1      44.377  29.529  27.935  1.00  0.00    -0.354 N 
ATOM     19  C   UNL A   1      42.952  25.569  27.608  1.00  0.00     0.074 A 
ATOM     20  C   UNL A   1      41.631  25.436  28.150  1.00  0.00     0.031 C 
ATOM     21  C   UNL A   1      44.311  31.651  27.247  1.00  0.00     0.029 A 
ATOM     22  C   UNL A   1      45.123  30.716  27.977  1.00  0.00     0.049 A 
ATOM     23  H   UNL A   1      44.741  28.660  28.220  1.00  0.00     0.167 HD
ATOM     24  C   UNL A   1      43.702  24.564  27.138  1.00  0.00     0.037 A 
ATOM     25  C   UNL A   1      46.403  31.026  28.296  1.00  0.00     0.037 A 
ATOM     26  C   UNL A   1      45.090  24.734  26.845  1.00  0.00     0.049 A 
ATOM     27  C   UNL A   1      47.307  29.872  28.006  1.00  0.00     0.074 A 
ATOM     28  C   UNL A   1      46.007  23.775  26.479  1.00  0.00     0.029 A 
ATOM     29  N   UNL A   1      45.779  25.935  26.998  1.00  0.00    -0.354 N 
ATOM     30  N   UNL A   1      46.937  28.637  27.773  1.00  0.00    -0.248 NA
ATOM     31  C   UNL A   1      48.735  30.136  27.793  1.00  0.00     0.031 C 
ATOM     32  C   UNL A   1      47.269  24.363  26.541  1.00  0.00     0.029 A 
ATOM     33  C   UNL A   1      47.132  25.712  26.839  1.00  0.00     0.049 A 
ATOM     34  H   UNL A   1      45.366  26.807  27.189  1.00  0.00     0.167 HD
ATOM     35  C   UNL A   1      48.054  27.992  27.309  1.00  0.00     0.074 A 
ATOM     36  C   UNL A   1      49.126  28.974  27.289  1.00  0.00     0.031 C 
ATOM     37  C   UNL A   1      48.173  26.702  26.928  1.00  0.00     0.037 A 
BRANCH  24  38
ATOM     38  C   UNL A   1      43.042  23.235  27.076  1.00  0.00     0.057 A 
ATOM     39  C   UNL A   1      42.859  22.445  28.221  1.00  0.00     0.134 A 
ATOM     40  C   UNL A   1      42.659  22.706  25.844  1.00  0.00     0.134 A 
ATOM     41  F   UNL A   1      43.285  22.870  29.421  1.00  0.00    -0.206 F 
ATOM     42  C   UNL A   1      42.291  21.175  28.137  1.00  0.00     0.040 A 
ATOM     43  C   UNL A   1      42.071  21.449  25.750  1.00  0.00     0.040 A 
ATOM     44  F   UNL A   1      42.882  23.392  24.713  1.00  0.00    -0.206 F 
ATOM     45  C   UNL A   1      41.883  20.682  26.898  1.00  0.00     0.006 A 
ENDBRANCH  24  38
BRANCH  25  46
ATOM     46  C   UNL A   1      46.933  32.432  28.453  1.00  0.00     0.057 A 
ATOM     47  C   UNL A   1      47.488  33.180  27.401  1.00  0.00     0.134 A 
ATOM     48  C   UNL A   1      46.937  33.057  29.711  1.00  0.00     0.134 A 
ATOM     49  F   UNL A   1      47.511  32.679  26.158  1.00  0.00    -0.206 F 
ATOM     50  C   UNL A   1      48.070  34.445  27.596  1.00  0.00     0.040 A 
ATOM     51  C   UNL A   1      47.500  34.329  29.919  1.00  0.00     0.040 A 
ATOM     52  F   UNL A   1      46.412  32.434  30.778  1.00  0.00    -0.206 F 
ATOM     53  C   UNL A   1      48.084  35.022  28.862  1.00  0.00     0.006 A 
ENDBRANCH  25  46
BRANCH  37  54
ATOM     54  C   UNL A   1      49.555  26.260  26.623  1.00  0.00     0.057 A 
ATOM     55  C   UNL A   1      50.034  26.307  25.309  1.00  0.00     0.134 A 
ATOM     56  C   UNL A   1      50.425  25.874  27.643  1.00  0.00     0.134 A 
ATOM     57  F   UNL A   1      49.226  26.670  24.299  1.00  0.00    -0.206 F 
ATOM     58  C   UNL A   1      51.342  25.952  25.013  1.00  0.00     0.040 A 
ATOM     59  C   UNL A   1      51.750  25.565  27.365  1.00  0.00     0.040 A 
ATOM     60  F   UNL A   1      50.011  25.829  28.919  1.00  0.00    -0.206 F 
ATOM     61  C   UNL A   1      52.206  25.595  26.047  1.00  0.00     0.006 A 
ENDBRANCH  37  54
ENDBRANCH  11  12
ENDBRANCH   4   6
ENDBRANCH   3   4
ENDBRANCH   2   3
ENDBRANCH   1   2
BRANCH   1  62
ATOM     62  O   UNL A   1      33.402  30.074  26.232  1.00  0.00    -0.462 OA
BRANCH  62  63
ATOM     63  C   UNL A   1      32.113  29.745  25.939  1.00  0.00     0.310 C 
ATOM     64  O   UNL A   1      31.196  30.525  26.185  1.00  0.00    -0.252 OA
BRANCH  63  65
ATOM     65  C   UNL A   1      31.850  28.263  25.301  1.00  0.00     0.119 C 
ATOM     66  C   UNL A   1      30.657  26.582  25.737  1.00  0.00     0.100 C 
ATOM     67  C   UNL A   1      31.540  28.780  23.445  1.00  0.00     0.027 C 
ATOM     68  C   UNL A   1      29.534  27.013  23.823  1.00  0.00     0.025 C 
ATOM     69  C   UNL A   1      30.317  29.546  23.101  1.00  0.00    -0.027 C 
ATOM     70  C   UNL A   1      30.797  27.527  22.442  1.00  0.00     0.017 C 
ATOM     71  C   UNL A   1      29.281  28.672  23.089  1.00  0.00    -0.027 C 
BRANCH  66  72
ATOM     72  C   UNL A   1      31.632  25.274  26.356  1.00  0.00     0.224 C 
ATOM     73  O   UNL A   1      31.097  24.413  27.076  1.00  0.00    -0.275 OA
ATOM     74  N   UNL A   1      32.909  24.904  25.993  1.00  0.00    -0.353 N 
ATOM     75  H   UNL A   1      33.131  23.983  26.260  1.00  0.00     0.163 HD
BRANCH  74  76
ATOM     76  C   UNL A   1      34.012  25.575  25.297  1.00  0.00     0.093 C 
ATOM     77  C   UNL A   1      33.746  25.808  23.843  1.00  0.00     0.086 C 
ATOM     78  C   UNL A   1      35.261  24.788  25.305  1.00  0.00     0.086 C 
ATOM     79  C   UNL A   1      33.036  24.591  23.317  1.00  0.00     0.264 C 
ATOM     80  C   UNL A   1      34.936  23.408  24.805  1.00  0.00     0.264 C 
ATOM     81  N   UNL A   1      33.565  22.998  23.609  1.00  0.00    -0.331 N 
ATOM     82  H   UNL A   1      33.519  22.592  22.674  1.00  0.00     0.348 HD
BRANCH  81  83
ATOM     83  C   UNL A   1      32.676  20.956  23.806  1.00  0.00     0.299 C 
BRANCH  83  84
ATOM     84  C   UNL A   1      32.808  18.754  23.990  1.00  0.00     0.006 A 
ATOM     85  C   UNL A   1      33.246  17.561  23.130  1.00  0.00     0.009 A 
ATOM     86  C   UNL A   1      32.534  17.746  25.266  1.00  0.00     0.009 A 
ATOM     87  C   UNL A   1      33.890  16.326  23.559  1.00  0.00     0.001 A 
ATOM     88  C   UNL A   1      33.268  16.643  25.751  1.00  0.00     0.001 A 
ATOM     89  C   UNL A   1      34.084  16.001  24.885  1.00  0.00     0.000 A 
ENDBRANCH  83  84
ENDBRANCH  81  83
ENDBRANCH  74  76
ENDBRANCH  66  72
ENDBRANCH  63  65
ENDBRANCH  62  63
ENDBRANCH   1  62
TORSDOF 15
ENDMDL
MODEL 2
REMARK VINA RESULT:     -14.4      3.009      8.592
REMARK SMILES O=C(OCCOC(=O)[C@H]1[C@H](C(=O)NC2CC[NH+](Cc3ccccc3)CC2)[C@H]2C=C[C@@H]1C2)c1ccc(-c2c3nc(c(-c4c(F)cccc4F)c4ccc([nH]4)c(-c4c(F)cccc4F)c4nc(c(-c5c(F)cccc5F)c5ccc2[nH]5)C=C4)C=C3)cc1
REMARK SMILES IDX 5 1 4 2 3 3 2 4 1 5 32 6 33 7 85 8 34 9 84 10 35 11 36 12
REMARK SMILES IDX 37 13 78 14 38 15 83 16 77 17 79 18 39 19 82 20 76 21 75 22
REMARK SMILES IDX 40 24 66 25 49 26 65 27 50 28 53 29 64 30 80 31 51 32 52 33
REMARK SMILES IDX 63 35 81 36 54 37 41 38 42 39 47 40 43 41 44 42 46 43 48 44
REMARK SMILES IDX 45 45 67 46 68 47 73 48 69 49 70 50 72 51 74 52 71 53 55 54
REMARK SMILES IDX 56 55 61 56 57 57 58 58 60 59 62 60 59 61 6 62 7 63 8 64
REMARK SMILES IDX 9 65 10 66 30 67 27 68 29 69 31 70 28 71 11 72 12 73 13 74
REMARK SMILES IDX 14 76 15 77 26 78 16 79 25 80 17 81 18 83 19 84 20 85 24 86
REMARK SMILES IDX 21 87 23 88 22 89
REMARK H PARENT 79 23 53 34 13 75 17 82
REMARK Flexibility Score: inf
ROOT
ATOM      1  C   UNL A   1      37.791  20.068  24.978  1.00  0.00     0.274 C 
ENDROOT
BRANCH   1   2
ATOM      2  C   UNL A   1      39.256  20.381  25.373  1.00  0.00     0.275 C 
BRANCH   2   3
ATOM      3  O   UNL A   1      39.998  19.216  25.744  1.00  0.00    -0.458 OA
BRANCH   3   4
ATOM      4  C   UNL A   1      41.337  19.177  25.914  1.00  0.00     0.338 C 
ATOM      5  O   UNL A   1      41.951  18.127  25.768  1.00  0.00    -0.246 OA
BRANCH   4   6
ATOM      6  C   UNL A   1      42.127  20.370  26.357  1.00  0.00     0.060 A 
ATOM      7  C   UNL A   1      43.498  21.239  25.449  1.00  0.00     0.016 A 
ATOM      8  C   UNL A   1      41.678  21.036  28.022  1.00  0.00     0.016 A 
ATOM      9  C   UNL A   1      44.193  22.823  26.031  1.00  0.00     0.010 A 
ATOM     10  C   UNL A   1      42.377  22.680  28.566  1.00  0.00     0.010 A 
ATOM     11  C   UNL A   1      43.568  23.635  27.527  1.00  0.00    -0.014 A 
BRANCH  11  12
ATOM     12  C   UNL A   1      43.951  25.164  27.957  1.00  0.00     0.031 A 
ATOM     13  C   UNL A   1      42.830  26.146  27.885  1.00  0.00     0.074 A 
ATOM     14  C   UNL A   1      45.177  25.783  28.213  1.00  0.00     0.049 A 
ATOM     15  N   UNL A   1      42.871  27.365  28.339  1.00  0.00    -0.248 NA
ATOM     16  C   UNL A   1      41.491  25.714  27.491  1.00  0.00     0.031 C 
ATOM     17  C   UNL A   1      46.443  25.275  28.747  1.00  0.00     0.029 A 
ATOM     18  N   UNL A   1      45.646  27.017  27.730  1.00  0.00    -0.354 N 
ATOM     19  C   UNL A   1      41.556  27.733  28.488  1.00  0.00     0.074 A 
ATOM     20  C   UNL A   1      40.732  26.673  27.984  1.00  0.00     0.031 C 
ATOM     21  C   UNL A   1      47.511  25.881  28.196  1.00  0.00     0.029 A 
ATOM     22  C   UNL A   1      47.037  27.077  27.553  1.00  0.00     0.049 A 
ATOM     23  H   UNL A   1      45.050  27.774  27.531  1.00  0.00     0.167 HD
ATOM     24  C   UNL A   1      41.108  28.864  29.048  1.00  0.00     0.037 A 
ATOM     25  C   UNL A   1      47.909  28.046  27.184  1.00  0.00     0.037 A 
ATOM     26  C   UNL A   1      41.974  29.973  29.299  1.00  0.00     0.049 A 
ATOM     27  C   UNL A   1      47.391  29.391  27.577  1.00  0.00     0.074 A 
ATOM     28  C   UNL A   1      41.638  31.230  29.747  1.00  0.00     0.029 A 
ATOM     29  N   UNL A   1      43.337  29.981  29.012  1.00  0.00    -0.354 N 
ATOM     30  N   UNL A   1      46.166  29.674  27.943  1.00  0.00    -0.248 NA
ATOM     31  C   UNL A   1      48.350  30.491  27.738  1.00  0.00     0.031 C 
ATOM     32  C   UNL A   1      42.766  32.036  29.604  1.00  0.00     0.029 A 
ATOM     33  C   UNL A   1      43.833  31.259  29.171  1.00  0.00     0.049 A 
ATOM     34  H   UNL A   1      43.864  29.197  28.737  1.00  0.00     0.167 HD
ATOM     35  C   UNL A   1      46.210  30.945  28.453  1.00  0.00     0.074 A 
ATOM     36  C   UNL A   1      47.592  31.387  28.354  1.00  0.00     0.031 C 
ATOM     37  C   UNL A   1      45.194  31.674  28.964  1.00  0.00     0.037 A 
BRANCH  24  38
ATOM     38  C   UNL A   1      39.640  28.948  29.258  1.00  0.00     0.057 A 
ATOM     39  C   UNL A   1      38.766  29.325  28.227  1.00  0.00     0.134 A 
ATOM     40  C   UNL A   1      39.106  28.729  30.527  1.00  0.00     0.134 A 
ATOM     41  F   UNL A   1      39.235  29.628  27.006  1.00  0.00    -0.206 F 
ATOM     42  C   UNL A   1      37.397  29.456  28.456  1.00  0.00     0.040 A 
ATOM     43  C   UNL A   1      37.739  28.836  30.762  1.00  0.00     0.040 A 
ATOM     44  F   UNL A   1      39.910  28.441  31.561  1.00  0.00    -0.206 F 
ATOM     45  C   UNL A   1      36.881  29.196  29.725  1.00  0.00     0.006 A 
ENDBRANCH  24  38
BRANCH  25  46
ATOM     46  C   UNL A   1      49.369  27.813  26.874  1.00  0.00     0.057 A 
ATOM     47  C   UNL A   1      49.869  27.604  25.578  1.00  0.00     0.134 A 
ATOM     48  C   UNL A   1      50.317  27.746  27.909  1.00  0.00     0.134 A 
ATOM     49  F   UNL A   1      49.049  27.671  24.520  1.00  0.00    -0.206 F 
ATOM     50  C   UNL A   1      51.216  27.285  25.328  1.00  0.00     0.040 A 
ATOM     51  C   UNL A   1      51.670  27.444  27.674  1.00  0.00     0.040 A 
ATOM     52  F   UNL A   1      49.943  27.949  29.182  1.00  0.00    -0.206 F 
ATOM     53  C   UNL A   1      52.122  27.196  26.380  1.00  0.00     0.006 A 
ENDBRANCH  25  46
BRANCH  37  54
ATOM     54  C   UNL A   1      45.531  33.081  29.290  1.00  0.00     0.057 A 
ATOM     55  C   UNL A   1      45.363  34.084  28.330  1.00  0.00     0.134 A 
ATOM     56  C   UNL A   1      45.936  33.441  30.576  1.00  0.00     0.134 A 
ATOM     57  F   UNL A   1      44.979  33.778  27.079  1.00  0.00    -0.206 F 
ATOM     58  C   UNL A   1      45.618  35.413  28.634  1.00  0.00     0.040 A 
ATOM     59  C   UNL A   1      46.144  34.773  30.905  1.00  0.00     0.040 A 
ATOM     60  F   UNL A   1      46.095  32.512  31.532  1.00  0.00    -0.206 F 
ATOM     61  C   UNL A   1      45.995  35.760  29.930  1.00  0.00     0.006 A 
ENDBRANCH  37  54
ENDBRANCH  11  12
ENDBRANCH   4   6
ENDBRANCH   3   4
ENDBRANCH   2   3
ENDBRANCH   1   2
BRANCH   1  62
ATOM     62  O   UNL A   1      37.093  21.188  24.354  1.00  0.00    -0.462 OA
BRANCH  62  63
ATOM     63  C   UNL A   1      36.583  22.167  25.152  1.00  0.00     0.310 C 
ATOM     64  O   UNL A   1      37.197  22.549  26.145  1.00  0.00    -0.252 OA
BRANCH  63  65
ATOM     65  C   UNL A   1      35.112  22.758  24.754  1.00  0.00     0.119 C 
ATOM     66  C   UNL A   1      34.110  23.362  23.002  1.00  0.00     0.100 C 
ATOM     67  C   UNL A   1      33.998  21.459  25.692  1.00  0.00     0.027 C 
ATOM     68  C   UNL A   1      32.722  21.604  23.317  1.00  0.00     0.025 C 
ATOM     69  C   UNL A   1      33.966  20.055  25.215  1.00  0.00    -0.027 C 
ATOM     70  C   UNL A   1      32.297  21.454  25.204  1.00  0.00     0.017 C 
ATOM     71  C   UNL A   1      33.178  20.018  24.113  1.00  0.00    -0.027 C 
BRANCH  66  72
ATOM     72  C   UNL A   1      33.948  25.098  22.947  1.00  0.00     0.224 C 
ATOM     73  O   UNL A   1      33.812  25.655  21.844  1.00  0.00    -0.275 OA
ATOM     74  N   UNL A   1      33.726  25.976  23.985  1.00  0.00    -0.353 N 
ATOM     75  H   UNL A   1      33.385  26.849  23.682  1.00  0.00     0.163 HD
BRANCH  74  76
ATOM     76  C   UNL A   1      33.884  25.903  25.441  1.00  0.00     0.093 C 
ATOM     77  C   UNL A   1      32.787  25.149  26.124  1.00  0.00     0.086 C 
ATOM     78  C   UNL A   1      33.858  27.229  26.091  1.00  0.00     0.086 C 
ATOM     79  C   UNL A   1      31.499  25.510  25.434  1.00  0.00     0.264 C 
ATOM     80  C   UNL A   1      32.623  27.945  25.618  1.00  0.00     0.264 C 
ATOM     81  N   UNL A   1      31.038  27.114  25.092  1.00  0.00    -0.331 N 
ATOM     82  H   UNL A   1      30.073  27.125  25.422  1.00  0.00     0.348 HD
BRANCH  81  83
ATOM     83  C   UNL A   1      29.819  28.210  23.571  1.00  0.00     0.299 C 
BRANCH  83  84
ATOM     84  C   UNL A   1      28.637  29.943  22.864  1.00  0.00     0.006 A 
ATOM     85  C   UNL A   1      28.144  31.288  23.412  1.00  0.00     0.009 A 
ATOM     86  C   UNL A   1      28.008  30.304  21.383  1.00  0.00     0.009 A 
ATOM     87  C   UNL A   1      27.979  32.548  22.699  1.00  0.00     0.001 A 
ATOM     88  C   UNL A   1      28.000  31.508  20.647  1.00  0.00     0.001 A 
ATOM     89  C   UNL A   1      28.134  32.665  21.334  1.00  0.00     0.000 A 
ENDBRANCH  83  84
ENDBRANCH  81  83
ENDBRANCH  74  76
ENDBRANCH  66  72
ENDBRANCH  63  65
ENDBRANCH  62  63
ENDBRANCH   1  62
TORSDOF 15
ENDMDL
MODEL 3
REMARK VINA RESULT:     -14.4      3.134      9.112
REMARK SMILES O=C(OCCOC(=O)[C@H]1[C@H](C(=O)NC2CC[NH+](Cc3ccccc3)CC2)[C@H]2C=C[C@@H]1C2)c1ccc(-c2c3nc(c(-c4c(F)cccc4F)c4ccc([nH]4)c(-c4c(F)cccc4F)c4nc(c(-c5c(F)cccc5F)c5ccc2[nH]5)C=C4)C=C3)cc1
REMARK SMILES IDX 5 1 4 2 3 3 2 4 1 5 32 6 33 7 85 8 34 9 84 10 35 11 36 12
REMARK SMILES IDX 37 13 78 14 38 15 83 16 77 17 79 18 39 19 82 20 76 21 75 22
REMARK SMILES IDX 40 24 66 25 49 26 65 27 50 28 53 29 64 30 80 31 51 32 52 33
REMARK SMILES IDX 63 35 81 36 54 37 41 38 42 39 47 40 43 41 44 42 46 43 48 44
REMARK SMILES IDX 45 45 67 46 68 47 73 48 69 49 70 50 72 51 74 52 71 53 55 54
REMARK SMILES IDX 56 55 61 56 57 57 58 58 60 59 62 60 59 61 6 62 7 63 8 64
REMARK SMILES IDX 9 65 10 66 30 67 27 68 29 69 31 70 28 71 11 72 12 73 13 74
REMARK SMILES IDX 14 76 15 77 26 78 16 79 25 80 17 81 18 83 19 84 20 85 24 86
REMARK SMILES IDX 21 87 23 88 22 89
REMARK H PARENT 79 23 53 34 13 75 17 82
REMARK Flexibility Score: inf
ROOT
ATOM      1  C   UNL A   1      37.632  19.847  24.976  1.00  0.00     0.274 C 
ENDROOT
BRANCH   1   2
ATOM      2  C   UNL A   1      39.076  20.294  25.313  1.00  0.00     0.275 C 
BRANCH   2   3
ATOM      3  O   UNL A   1      39.931  19.205  25.671  1.00  0.00    -0.458 OA
BRANCH   3   4
ATOM      4  C   UNL A   1      41.250  19.315  25.935  1.00  0.00     0.338 C 
ATOM      5  O   UNL A   1      41.960  18.318  25.982  1.00  0.00    -0.246 OA
BRANCH   4   6
ATOM      6  C   UNL A   1      41.900  20.627  26.255  1.00  0.00     0.060 A 
ATOM      7  C   UNL A   1      43.221  21.517  25.294  1.00  0.00     0.016 A 
ATOM      8  C   UNL A   1      41.313  21.436  27.809  1.00  0.00     0.016 A 
ATOM      9  C   UNL A   1      43.732  23.221  25.701  1.00  0.00     0.010 A 
ATOM     10  C   UNL A   1      41.824  23.195  28.172  1.00  0.00     0.010 A 
ATOM     11  C   UNL A   1      42.963  24.137  27.064  1.00  0.00    -0.014 A 
BRANCH  11  12
ATOM     12  C   UNL A   1      43.177  25.737  27.317  1.00  0.00     0.031 A 
ATOM     13  C   UNL A   1      44.585  26.158  27.573  1.00  0.00     0.074 A 
ATOM     14  C   UNL A   1      42.271  26.780  27.518  1.00  0.00     0.049 A 
ATOM     15  N   UNL A   1      45.001  27.390  27.629  1.00  0.00    -0.248 NA
ATOM     16  C   UNL A   1      45.668  25.178  27.550  1.00  0.00     0.031 C 
ATOM     17  C   UNL A   1      40.902  27.000  27.044  1.00  0.00     0.029 A 
ATOM     18  N   UNL A   1      42.304  27.782  28.503  1.00  0.00    -0.354 N 
ATOM     19  C   UNL A   1      46.356  27.318  27.419  1.00  0.00     0.074 A 
ATOM     20  C   UNL A   1      46.728  25.935  27.341  1.00  0.00     0.031 C 
ATOM     21  C   UNL A   1      40.145  27.645  27.950  1.00  0.00     0.029 A 
ATOM     22  C   UNL A   1      41.039  28.230  28.913  1.00  0.00     0.049 A 
ATOM     23  H   UNL A   1      43.142  28.139  28.875  1.00  0.00     0.167 HD
ATOM     24  C   UNL A   1      47.191  28.354  27.267  1.00  0.00     0.037 A 
ATOM     25  C   UNL A   1      40.597  29.192  29.760  1.00  0.00     0.037 A 
ATOM     26  C   UNL A   1      46.802  29.688  27.601  1.00  0.00     0.049 A 
ATOM     27  C   UNL A   1      41.578  30.317  29.829  1.00  0.00     0.074 A 
ATOM     28  C   UNL A   1      47.581  30.823  27.615  1.00  0.00     0.029 A 
ATOM     29  N   UNL A   1      45.545  30.037  28.086  1.00  0.00    -0.354 N 
ATOM     30  N   UNL A   1      42.816  30.293  29.404  1.00  0.00    -0.248 NA
ATOM     31  C   UNL A   1      41.100  31.637  30.255  1.00  0.00     0.031 C 
ATOM     32  C   UNL A   1      46.839  31.827  28.235  1.00  0.00     0.029 A 
ATOM     33  C   UNL A   1      45.563  31.352  28.508  1.00  0.00     0.049 A 
ATOM     34  H   UNL A   1      44.764  29.440  28.124  1.00  0.00     0.167 HD
ATOM     35  C   UNL A   1      43.248  31.593  29.429  1.00  0.00     0.074 A 
ATOM     36  C   UNL A   1      42.134  32.394  29.912  1.00  0.00     0.031 C 
ATOM     37  C   UNL A   1      44.458  32.077  29.076  1.00  0.00     0.037 A 
BRANCH  24  38
ATOM     38  C   UNL A   1      48.582  28.016  26.869  1.00  0.00     0.057 A 
ATOM     39  C   UNL A   1      48.933  27.782  25.531  1.00  0.00     0.134 A 
ATOM     40  C   UNL A   1      49.561  27.844  27.846  1.00  0.00     0.134 A 
ATOM     41  F   UNL A   1      48.010  27.853  24.558  1.00  0.00    -0.206 F 
ATOM     42  C   UNL A   1      50.229  27.409  25.181  1.00  0.00     0.040 A 
ATOM     43  C   UNL A   1      50.863  27.492  27.507  1.00  0.00     0.040 A 
ATOM     44  F   UNL A   1      49.255  27.983  29.145  1.00  0.00    -0.206 F 
ATOM     45  C   UNL A   1      51.201  27.277  26.172  1.00  0.00     0.006 A 
ENDBRANCH  24  38
BRANCH  25  46
ATOM     46  C   UNL A   1      39.159  29.361  30.191  1.00  0.00     0.057 A 
ATOM     47  C   UNL A   1      38.194  30.052  29.439  1.00  0.00     0.134 A 
ATOM     48  C   UNL A   1      38.721  28.859  31.428  1.00  0.00     0.134 A 
ATOM     49  F   UNL A   1      38.508  30.549  28.235  1.00  0.00    -0.206 F 
ATOM     50  C   UNL A   1      36.891  30.286  29.913  1.00  0.00     0.040 A 
ATOM     51  C   UNL A   1      37.416  29.070  31.907  1.00  0.00     0.040 A 
ATOM     52  F   UNL A   1      39.562  28.168  32.213  1.00  0.00    -0.206 F 
ATOM     53  C   UNL A   1      36.499  29.801  31.156  1.00  0.00     0.006 A 
ENDBRANCH  25  46
BRANCH  37  54
ATOM     54  C   UNL A   1      44.671  33.515  29.368  1.00  0.00     0.057 A 
ATOM     55  C   UNL A   1      44.326  34.484  28.419  1.00  0.00     0.134 A 
ATOM     56  C   UNL A   1      45.136  33.932  30.616  1.00  0.00     0.134 A 
ATOM     57  F   UNL A   1      43.879  34.123  27.205  1.00  0.00    -0.206 F 
ATOM     58  C   UNL A   1      44.464  35.836  28.695  1.00  0.00     0.040 A 
ATOM     59  C   UNL A   1      45.230  35.283  30.922  1.00  0.00     0.040 A 
ATOM     60  F   UNL A   1      45.464  33.037  31.561  1.00  0.00    -0.206 F 
ATOM     61  C   UNL A   1      44.904  36.236  29.956  1.00  0.00     0.006 A 
ENDBRANCH  37  54
ENDBRANCH  11  12
ENDBRANCH   4   6
ENDBRANCH   3   4
ENDBRANCH   2   3
ENDBRANCH   1   2
BRANCH   1  62
ATOM     62  O   UNL A   1      36.821  20.887  24.350  1.00  0.00    -0.462 OA
BRANCH  62  63
ATOM     63  C   UNL A   1      36.353  21.906  25.123  1.00  0.00     0.310 C 
ATOM     64  O   UNL A   1      36.977  22.279  26.113  1.00  0.00    -0.252 OA
BRANCH  63  65
ATOM     65  C   UNL A   1      34.915  22.560  24.701  1.00  0.00     0.119 C 
ATOM     66  C   UNL A   1      33.983  23.237  22.937  1.00  0.00     0.100 C 
ATOM     67  C   UNL A   1      33.730  21.282  25.580  1.00  0.00     0.027 C 
ATOM     68  C   UNL A   1      32.524  21.526  23.176  1.00  0.00     0.025 C 
ATOM     69  C   UNL A   1      33.660  19.891  25.071  1.00  0.00    -0.027 C 
ATOM     70  C   UNL A   1      32.044  21.351  25.048  1.00  0.00     0.017 C 
ATOM     71  C   UNL A   1      32.901  19.908  23.948  1.00  0.00    -0.027 C 
BRANCH  66  72
ATOM     72  C   UNL A   1      33.886  24.979  22.916  1.00  0.00     0.224 C 
ATOM     73  O   UNL A   1      33.776  25.562  21.824  1.00  0.00    -0.275 OA
ATOM     74  N   UNL A   1      33.692  25.844  23.972  1.00  0.00    -0.353 N 
ATOM     75  H   UNL A   1      33.384  26.734  23.685  1.00  0.00     0.163 HD
BRANCH  74  76
ATOM     76  C   UNL A   1      33.840  25.736  25.426  1.00  0.00     0.093 C 
ATOM     77  C   UNL A   1      32.749  24.948  26.082  1.00  0.00     0.086 C 
ATOM     78  C   UNL A   1      33.789  27.044  26.110  1.00  0.00     0.086 C 
ATOM     79  C   UNL A   1      31.461  25.308  25.391  1.00  0.00     0.264 C 
ATOM     80  C   UNL A   1      32.547  27.753  25.645  1.00  0.00     0.264 C 
ATOM     81  N   UNL A   1      30.979  26.914  25.087  1.00  0.00    -0.331 N 
ATOM     82  H   UNL A   1      30.011  26.901  25.410  1.00  0.00     0.348 HD
BRANCH  81  83
ATOM     83  C   UNL A   1      29.755  28.030  23.585  1.00  0.00     0.299 C 
BRANCH  83  84
ATOM     84  C   UNL A   1      28.599  29.787  22.893  1.00  0.00     0.006 A 
ATOM     85  C   UNL A   1      28.066  31.102  23.473  1.00  0.00     0.009 A 
ATOM     86  C   UNL A   1      28.050  30.212  21.397  1.00  0.00     0.009 A 
ATOM     87  C   UNL A   1      27.929  32.393  22.810  1.00  0.00     0.001 A 
ATOM     88  C   UNL A   1      28.072  31.448  20.718  1.00  0.00     0.001 A 
ATOM     89  C   UNL A   1      28.158  32.573  21.462  1.00  0.00     0.000 A 
ENDBRANCH  83  84
ENDBRANCH  81  83
ENDBRANCH  74  76
ENDBRANCH  66  72
ENDBRANCH  63  65
ENDBRANCH  62  63
ENDBRANCH   1  62
TORSDOF 15
ENDMDL
