MODEL 1
REMARK VINA RESULT:     -10.3      0.000      0.000
REMARK SMILES CCC(CC)(NC(=O)NCCc1nccs1)C(=O)OCCOC(=O)c1ccc(-c2c3nc(c(-c4c(F)cccc4F)c4ccc([nH]4)c(-c4c(F)cccc4F)c4nc(c(-c5c(F)cccc5F)c5ccc2[nH]5)C=C4)C=C3)cc1
REMARK SMILES IDX 20 1 19 2 17 3 18 4 3 5 2 6 1 7 4 8 5 9 6 10 7 11 8 13 9 14
REMARK SMILES IDX 10 16 11 17 12 18 13 19 16 20 14 21 15 22 21 23 22 24 23 25
REMARK SMILES IDX 24 26 25 27 26 28 78 29 27 30 77 31 28 32 29 33 30 34 71 35
REMARK SMILES IDX 31 36 76 37 70 38 72 39 32 40 75 41 69 42 68 43 33 45 59 46
REMARK SMILES IDX 42 47 58 48 43 49 46 50 57 51 73 52 44 53 45 54 56 56 74 57
REMARK SMILES IDX 47 58 34 59 35 60 40 61 36 62 37 63 39 64 41 65 38 66 60 67
REMARK SMILES IDX 61 68 66 69 62 70 63 71 65 72 67 73 64 74 48 75 49 76 54 77
REMARK SMILES IDX 50 78 51 79 53 80 55 81 52 82
REMARK H PARENT 6 12 9 15 72 44 46 55
REMARK Flexibility Score: inf
ROOT
ATOM      1  C   UNL A   1      36.225  22.289  23.818  1.00  0.00     0.274 C 
ENDROOT
BRANCH   1   2
ATOM      2  O   UNL A   1      35.359  23.361  24.272  1.00  0.00    -0.460 OA
BRANCH   2   3
ATOM      3  C   UNL A   1      34.202  23.598  23.622  1.00  0.00     0.332 C 
ATOM      4  O   UNL A   1      34.054  23.352  22.430  1.00  0.00    -0.249 OA
BRANCH   3   5
ATOM      5  C   UNL A   1      33.112  24.313  24.517  1.00  0.00     0.139 C 
BRANCH   5   6
ATOM      6  C   UNL A   1      31.714  24.228  23.777  1.00  0.00     0.037 C 
ATOM      7  C   UNL A   1      31.226  25.417  22.965  1.00  0.00     0.007 C 
ENDBRANCH   5   6
BRANCH   5   8
ATOM      8  C   UNL A   1      33.573  25.792  24.627  1.00  0.00     0.037 C 
ATOM      9  C   UNL A   1      33.302  26.478  25.959  1.00  0.00     0.007 C 
ENDBRANCH   5   8
BRANCH   5  10
ATOM     10  N   UNL A   1      32.797  23.744  25.887  1.00  0.00    -0.322 N 
ATOM     11  C   UNL A   1      32.691  22.616  26.587  1.00  0.00     0.315 C 
ATOM     12  H   UNL A   1      32.593  24.495  26.489  1.00  0.00     0.166 HD
ATOM     13  O   UNL A   1      32.744  22.734  27.816  1.00  0.00    -0.249 OA
ATOM     14  N   UNL A   1      32.535  21.384  26.101  1.00  0.00    -0.338 N 
ATOM     15  H   UNL A   1      32.817  20.651  26.695  1.00  0.00     0.165 HD
BRANCH  14  16
ATOM     16  C   UNL A   1      32.009  20.984  24.822  1.00  0.00     0.125 C 
BRANCH  16  17
ATOM     17  C   UNL A   1      32.906  20.100  23.957  1.00  0.00     0.089 C 
BRANCH  17  18
ATOM     18  C   UNL A   1      32.930  18.669  24.423  1.00  0.00     0.094 A 
ATOM     19  N   UNL A   1      32.407  18.239  25.554  1.00  0.00    -0.250 NA
ATOM     20  S   UNL A   1      33.568  17.437  23.405  1.00  0.00    -0.127 S 
ATOM     21  C   UNL A   1      32.586  16.875  25.673  1.00  0.00     0.123 A 
ATOM     22  C   UNL A   1      33.168  16.262  24.588  1.00  0.00     0.087 A 
ENDBRANCH  17  18
ENDBRANCH  16  17
ENDBRANCH  14  16
ENDBRANCH   5  10
ENDBRANCH   3   5
ENDBRANCH   2   3
ENDBRANCH   1   2
BRANCH   1  23
ATOM     23  C   UNL A   1      36.297  21.226  24.916  1.00  0.00     0.275 C 
BRANCH  23  24
ATOM     24  O   UNL A   1      37.061  21.747  26.012  1.00  0.00    -0.458 OA
BRANCH  24  25
ATOM     25  C   UNL A   1      38.373  21.427  25.983  1.00  0.00     0.338 C 
ATOM     26  O   UNL A   1      38.919  20.449  25.492  1.00  0.00    -0.246 OA
BRANCH  25  27
ATOM     27  C   UNL A   1      39.087  22.621  26.413  1.00  0.00     0.060 A 
ATOM     28  C   UNL A   1      40.225  22.422  27.189  1.00  0.00     0.016 A 
ATOM     29  C   UNL A   1      38.689  23.893  26.033  1.00  0.00     0.016 A 
ATOM     30  C   UNL A   1      40.987  23.490  27.618  1.00  0.00     0.010 A 
ATOM     31  C   UNL A   1      39.475  24.975  26.426  1.00  0.00     0.010 A 
ATOM     32  C   UNL A   1      40.623  24.775  27.217  1.00  0.00    -0.014 A 
BRANCH  32  33
ATOM     33  C   UNL A   1      41.414  25.929  27.679  1.00  0.00     0.031 A 
ATOM     34  C   UNL A   1      40.742  26.948  28.540  1.00  0.00     0.074 A 
ATOM     35  C   UNL A   1      42.706  26.040  27.324  1.00  0.00     0.049 A 
ATOM     36  N   UNL A   1      41.136  28.147  28.864  1.00  0.00    -0.248 NA
ATOM     37  C   UNL A   1      39.435  26.563  29.100  1.00  0.00     0.031 C 
ATOM     38  C   UNL A   1      43.469  25.040  26.571  1.00  0.00     0.029 A 
ATOM     39  N   UNL A   1      43.604  27.050  27.540  1.00  0.00    -0.354 N 
ATOM     40  C   UNL A   1      40.102  28.685  29.619  1.00  0.00     0.074 A 
ATOM     41  C   UNL A   1      39.064  27.682  29.703  1.00  0.00     0.031 C 
ATOM     42  C   UNL A   1      44.719  25.491  26.384  1.00  0.00     0.029 A 
ATOM     43  C   UNL A   1      44.816  26.840  26.925  1.00  0.00     0.049 A 
ATOM     44  H   UNL A   1      43.403  27.848  28.080  1.00  0.00     0.167 HD
ATOM     45  C   UNL A   1      40.037  29.915  30.177  1.00  0.00     0.037 A 
ATOM     46  C   UNL A   1      45.858  27.677  26.771  1.00  0.00     0.037 A 
ATOM     47  C   UNL A   1      41.104  30.875  30.079  1.00  0.00     0.049 A 
ATOM     48  C   UNL A   1      45.733  29.065  27.335  1.00  0.00     0.074 A 
ATOM     49  C   UNL A   1      41.164  32.162  30.579  1.00  0.00     0.029 A 
ATOM     50  N   UNL A   1      42.312  30.637  29.432  1.00  0.00    -0.354 N 
ATOM     51  N   UNL A   1      44.734  29.602  27.996  1.00  0.00    -0.248 NA
ATOM     52  C   UNL A   1      46.868  29.970  27.120  1.00  0.00     0.031 C 
ATOM     53  C   UNL A   1      42.388  32.718  30.192  1.00  0.00     0.029 A 
ATOM     54  C   UNL A   1      43.118  31.759  29.505  1.00  0.00     0.049 A 
ATOM     55  H   UNL A   1      42.559  29.794  28.988  1.00  0.00     0.167 HD
ATOM     56  C   UNL A   1      45.126  30.897  28.300  1.00  0.00     0.074 A 
ATOM     57  C   UNL A   1      46.464  31.058  27.761  1.00  0.00     0.031 C 
ATOM     58  C   UNL A   1      44.451  31.869  28.961  1.00  0.00     0.037 A 
BRANCH  45  59
ATOM     59  C   UNL A   1      38.758  30.291  30.866  1.00  0.00     0.057 A 
ATOM     60  C   UNL A   1      37.711  30.946  30.204  1.00  0.00     0.134 A 
ATOM     61  C   UNL A   1      38.584  30.019  32.230  1.00  0.00     0.134 A 
ATOM     62  F   UNL A   1      37.820  31.259  28.903  1.00  0.00    -0.206 F 
ATOM     63  C   UNL A   1      36.555  31.346  30.878  1.00  0.00     0.040 A 
ATOM     64  C   UNL A   1      37.421  30.386  32.909  1.00  0.00     0.040 A 
ATOM     65  F   UNL A   1      39.547  29.399  32.929  1.00  0.00    -0.206 F 
ATOM     66  C   UNL A   1      36.407  31.062  32.235  1.00  0.00     0.006 A 
ENDBRANCH  45  59
BRANCH  46  67
ATOM     67  C   UNL A   1      47.064  27.245  26.018  1.00  0.00     0.057 A 
ATOM     68  C   UNL A   1      48.144  26.635  26.668  1.00  0.00     0.134 A 
ATOM     69  C   UNL A   1      47.172  27.428  24.633  1.00  0.00     0.134 A 
ATOM     70  F   UNL A   1      48.114  26.446  27.994  1.00  0.00    -0.206 F 
ATOM     71  C   UNL A   1      49.289  26.237  25.972  1.00  0.00     0.040 A 
ATOM     72  C   UNL A   1      48.297  27.009  23.921  1.00  0.00     0.040 A 
ATOM     73  F   UNL A   1      46.173  28.003  23.946  1.00  0.00    -0.206 F 
ATOM     74  C   UNL A   1      49.364  26.418  24.593  1.00  0.00     0.006 A 
ENDBRANCH  46  67
BRANCH  58  75
ATOM     75  C   UNL A   1      45.172  33.166  29.176  1.00  0.00     0.057 A 
ATOM     76  C   UNL A   1      45.056  34.236  28.283  1.00  0.00     0.134 A 
ATOM     77  C   UNL A   1      45.959  33.353  30.321  1.00  0.00     0.134 A 
ATOM     78  F   UNL A   1      44.329  34.113  27.162  1.00  0.00    -0.206 F 
ATOM     79  C   UNL A   1      45.719  35.443  28.508  1.00  0.00     0.040 A 
ATOM     80  C   UNL A   1      46.599  34.564  30.573  1.00  0.00     0.040 A 
ATOM     81  F   UNL A   1      46.100  32.366  31.219  1.00  0.00    -0.206 F 
ATOM     82  C   UNL A   1      46.485  35.612  29.661  1.00  0.00     0.006 A 
ENDBRANCH  58  75
ENDBRANCH  32  33
ENDBRANCH  25  27
ENDBRANCH  24  25
ENDBRANCH  23  24
ENDBRANCH   1  23
TORSDOF 17
ENDMDL
MODEL 2
REMARK VINA RESULT:     -10.2      3.728      7.746
REMARK SMILES CCC(CC)(NC(=O)NCCc1nccs1)C(=O)OCCOC(=O)c1ccc(-c2c3nc(c(-c4c(F)cccc4F)c4ccc([nH]4)c(-c4c(F)cccc4F)c4nc(c(-c5c(F)cccc5F)c5ccc2[nH]5)C=C4)C=C3)cc1
REMARK SMILES IDX 20 1 19 2 17 3 18 4 3 5 2 6 1 7 4 8 5 9 6 10 7 11 8 13 9 14
REMARK SMILES IDX 10 16 11 17 12 18 13 19 16 20 14 21 15 22 21 23 22 24 23 25
REMARK SMILES IDX 24 26 25 27 26 28 78 29 27 30 77 31 28 32 29 33 30 34 71 35
REMARK SMILES IDX 31 36 76 37 70 38 72 39 32 40 75 41 69 42 68 43 33 45 59 46
REMARK SMILES IDX 42 47 58 48 43 49 46 50 57 51 73 52 44 53 45 54 56 56 74 57
REMARK SMILES IDX 47 58 34 59 35 60 40 61 36 62 37 63 39 64 41 65 38 66 60 67
REMARK SMILES IDX 61 68 66 69 62 70 63 71 65 72 67 73 64 74 48 75 49 76 54 77
REMARK SMILES IDX 50 78 51 79 53 80 55 81 52 82
REMARK H PARENT 6 12 9 15 72 44 46 55
REMARK Flexibility Score: inf
ROOT
ATOM      1  C   UNL A   1      32.450  29.114  27.200  1.00  0.00     0.274 C 
ENDROOT
BRANCH   1   2
ATOM      2  O   UNL A   1      32.911  27.770  26.903  1.00  0.00    -0.460 OA
BRANCH   2   3
ATOM      3  C   UNL A   1      32.077  26.905  26.293  1.00  0.00     0.332 C 
ATOM      4  O   UNL A   1      31.003  26.570  26.781  1.00  0.00    -0.249 OA
BRANCH   3   5
ATOM      5  C   UNL A   1      32.668  26.295  24.959  1.00  0.00     0.139 C 
BRANCH   5   6
ATOM      6  C   UNL A   1      31.523  25.490  24.218  1.00  0.00     0.037 C 
ATOM      7  C   UNL A   1      31.712  25.095  22.762  1.00  0.00     0.007 C 
ENDBRANCH   5   6
BRANCH   5   8
ATOM      8  C   UNL A   1      33.798  25.329  25.411  1.00  0.00     0.037 C 
ATOM      9  C   UNL A   1      33.344  24.004  26.007  1.00  0.00     0.007 C 
ENDBRANCH   5   8
BRANCH   5  10
ATOM     10  N   UNL A   1      33.166  27.235  23.879  1.00  0.00    -0.322 N 
ATOM     11  C   UNL A   1      33.036  28.461  23.372  1.00  0.00     0.315 C 
ATOM     12  H   UNL A   1      33.843  26.758  23.348  1.00  0.00     0.166 HD
ATOM     13  O   UNL A   1      33.969  28.858  22.667  1.00  0.00    -0.249 OA
ATOM     14  N   UNL A   1      32.009  29.294  23.548  1.00  0.00    -0.338 N 
ATOM     15  H   UNL A   1      32.206  30.250  23.413  1.00  0.00     0.165 HD
BRANCH  14  16
ATOM     16  C   UNL A   1      30.651  28.982  23.909  1.00  0.00     0.125 C 
BRANCH  16  17
ATOM     17  C   UNL A   1      29.664  28.782  22.759  1.00  0.00     0.089 C 
BRANCH  17  18
ATOM     18  C   UNL A   1      29.080  30.079  22.267  1.00  0.00     0.094 A 
ATOM     19  N   UNL A   1      28.662  30.295  21.036  1.00  0.00    -0.250 NA
ATOM     20  S   UNL A   1      28.804  31.377  23.364  1.00  0.00    -0.127 S 
ATOM     21  C   UNL A   1      28.170  31.579  20.918  1.00  0.00     0.123 A 
ATOM     22  C   UNL A   1      28.136  32.305  22.086  1.00  0.00     0.087 A 
ENDBRANCH  17  18
ENDBRANCH  16  17
ENDBRANCH  14  16
ENDBRANCH   5  10
ENDBRANCH   3   5
ENDBRANCH   2   3
ENDBRANCH   1   2
BRANCH   1  23
ATOM     23  C   UNL A   1      33.650  30.062  27.137  1.00  0.00     0.275 C 
BRANCH  23  24
ATOM     24  O   UNL A   1      34.700  29.533  27.956  1.00  0.00    -0.458 OA
BRANCH  24  25
ATOM     25  C   UNL A   1      35.420  30.466  28.618  1.00  0.00     0.338 C 
ATOM     26  O   UNL A   1      35.031  31.451  29.229  1.00  0.00    -0.246 OA
BRANCH  25  27
ATOM     27  C   UNL A   1      36.772  29.934  28.715  1.00  0.00     0.060 A 
ATOM     28  C   UNL A   1      37.529  29.935  27.547  1.00  0.00     0.016 A 
ATOM     29  C   UNL A   1      37.305  29.494  29.917  1.00  0.00     0.016 A 
ATOM     30  C   UNL A   1      38.833  29.482  27.546  1.00  0.00     0.010 A 
ATOM     31  C   UNL A   1      38.633  29.074  29.935  1.00  0.00     0.010 A 
ATOM     32  C   UNL A   1      39.398  29.067  28.751  1.00  0.00    -0.014 A 
BRANCH  32  33
ATOM     33  C   UNL A   1      40.782  28.564  28.767  1.00  0.00     0.031 A 
ATOM     34  C   UNL A   1      41.883  29.530  29.055  1.00  0.00     0.074 A 
ATOM     35  C   UNL A   1      41.024  27.263  28.525  1.00  0.00     0.049 A 
ATOM     36  N   UNL A   1      43.169  29.396  28.888  1.00  0.00    -0.248 NA
ATOM     37  C   UNL A   1      41.473  30.839  29.594  1.00  0.00     0.031 C 
ATOM     38  C   UNL A   1      40.002  26.230  28.336  1.00  0.00     0.029 A 
ATOM     39  N   UNL A   1      42.208  26.589  28.388  1.00  0.00    -0.354 N 
ATOM     40  C   UNL A   1      43.719  30.618  29.246  1.00  0.00     0.074 A 
ATOM     41  C   UNL A   1      42.628  31.484  29.637  1.00  0.00     0.031 C 
ATOM     42  C   UNL A   1      40.604  25.054  28.101  1.00  0.00     0.029 A 
ATOM     43  C   UNL A   1      42.043  25.270  28.039  1.00  0.00     0.049 A 
ATOM     44  H   UNL A   1      43.088  27.007  28.525  1.00  0.00     0.167 HD
ATOM     45  C   UNL A   1      45.023  30.976  29.232  1.00  0.00     0.037 A 
ATOM     46  C   UNL A   1      42.959  24.362  27.653  1.00  0.00     0.037 A 
ATOM     47  C   UNL A   1      46.077  30.073  28.849  1.00  0.00     0.049 A 
ATOM     48  C   UNL A   1      44.394  24.804  27.573  1.00  0.00     0.074 A 
ATOM     49  C   UNL A   1      47.436  30.308  28.771  1.00  0.00     0.029 A 
ATOM     50  N   UNL A   1      45.874  28.747  28.481  1.00  0.00    -0.354 N 
ATOM     51  N   UNL A   1      44.915  25.976  27.850  1.00  0.00    -0.248 NA
ATOM     52  C   UNL A   1      45.367  23.806  27.114  1.00  0.00     0.031 C 
ATOM     53  C   UNL A   1      48.050  29.139  28.310  1.00  0.00     0.029 A 
ATOM     54  C   UNL A   1      47.082  28.155  28.160  1.00  0.00     0.049 A 
ATOM     55  H   UNL A   1      45.000  28.295  28.454  1.00  0.00     0.167 HD
ATOM     56  C   UNL A   1      46.278  25.854  27.624  1.00  0.00     0.074 A 
ATOM     57  C   UNL A   1      46.503  24.484  27.201  1.00  0.00     0.031 C 
ATOM     58  C   UNL A   1      47.259  26.782  27.752  1.00  0.00     0.037 A 
BRANCH  45  59
ATOM     59  C   UNL A   1      45.351  32.400  29.574  1.00  0.00     0.057 A 
ATOM     60  C   UNL A   1      45.374  33.418  28.611  1.00  0.00     0.134 A 
ATOM     61  C   UNL A   1      45.678  32.753  30.890  1.00  0.00     0.134 A 
ATOM     62  F   UNL A   1      45.095  33.146  27.327  1.00  0.00    -0.206 F 
ATOM     63  C   UNL A   1      45.745  34.725  28.937  1.00  0.00     0.040 A 
ATOM     64  C   UNL A   1      46.021  34.062  31.234  1.00  0.00     0.040 A 
ATOM     65  F   UNL A   1      45.681  31.829  31.863  1.00  0.00    -0.206 F 
ATOM     66  C   UNL A   1      46.066  35.050  30.253  1.00  0.00     0.006 A 
ENDBRANCH  45  59
BRANCH  46  67
ATOM     67  C   UNL A   1      42.542  22.988  27.270  1.00  0.00     0.057 A 
ATOM     68  C   UNL A   1      42.454  22.604  25.927  1.00  0.00     0.134 A 
ATOM     69  C   UNL A   1      42.221  22.022  28.234  1.00  0.00     0.134 A 
ATOM     70  F   UNL A   1      42.730  23.485  24.955  1.00  0.00    -0.206 F 
ATOM     71  C   UNL A   1      42.050  21.319  25.556  1.00  0.00     0.040 A 
ATOM     72  C   UNL A   1      41.844  20.725  27.878  1.00  0.00     0.040 A 
ATOM     73  F   UNL A   1      42.287  22.319  29.540  1.00  0.00    -0.206 F 
ATOM     74  C   UNL A   1      41.751  20.374  26.534  1.00  0.00     0.006 A 
ENDBRANCH  46  67
BRANCH  58  75
ATOM     75  C   UNL A   1      48.660  26.324  27.478  1.00  0.00     0.057 A 
ATOM     76  C   UNL A   1      49.261  26.483  26.224  1.00  0.00     0.134 A 
ATOM     77  C   UNL A   1      49.429  25.756  28.502  1.00  0.00     0.134 A 
ATOM     78  F   UNL A   1      48.571  27.008  25.200  1.00  0.00    -0.206 F 
ATOM     79  C   UNL A   1      50.573  26.070  25.991  1.00  0.00     0.040 A 
ATOM     80  C   UNL A   1      50.751  25.370  28.290  1.00  0.00     0.040 A 
ATOM     81  F   UNL A   1      48.911  25.586  29.729  1.00  0.00    -0.206 F 
ATOM     82  C   UNL A   1      51.324  25.521  27.029  1.00  0.00     0.006 A 
ENDBRANCH  58  75
ENDBRANCH  32  33
ENDBRANCH  25  27
ENDBRANCH  24  25
ENDBRANCH  23  24
ENDBRANCH   1  23
TORSDOF 17
ENDMDL
MODEL 3
REMARK VINA RESULT:     -10.1      4.614      9.302
REMARK SMILES CCC(CC)(NC(=O)NCCc1nccs1)C(=O)OCCOC(=O)c1ccc(-c2c3nc(c(-c4c(F)cccc4F)c4ccc([nH]4)c(-c4c(F)cccc4F)c4nc(c(-c5c(F)cccc5F)c5ccc2[nH]5)C=C4)C=C3)cc1
REMARK SMILES IDX 20 1 19 2 17 3 18 4 3 5 2 6 1 7 4 8 5 9 6 10 7 11 8 13 9 14
REMARK SMILES IDX 10 16 11 17 12 18 13 19 16 20 14 21 15 22 21 23 22 24 23 25
REMARK SMILES IDX 24 26 25 27 26 28 78 29 27 30 77 31 28 32 29 33 30 34 71 35
REMARK SMILES IDX 31 36 76 37 70 38 72 39 32 40 75 41 69 42 68 43 33 45 59 46
REMARK SMILES IDX 42 47 58 48 43 49 46 50 57 51 73 52 44 53 45 54 56 56 74 57
REMARK SMILES IDX 47 58 34 59 35 60 40 61 36 62 37 63 39 64 41 65 38 66 60 67
REMARK SMILES IDX 61 68 66 69 62 70 63 71 65 72 67 73 64 74 48 75 49 76 54 77
REMARK SMILES IDX 50 78 51 79 53 80 55 81 52 82
REMARK H PARENT 6 12 9 15 72 44 46 55
REMARK Flexibility Score: inf
ROOT
ATOM      1  C   UNL A   1      31.800  28.584  27.235  1.00  0.00     0.274 C 
ENDROOT
BRANCH   1   2
ATOM      2  O   UNL A   1      31.649  27.534  26.243  1.00  0.00    -0.460 OA
BRANCH   2   3
ATOM      3  C   UNL A   1      32.744  26.898  25.780  1.00  0.00     0.332 C 
ATOM      4  O   UNL A   1      33.882  27.262  26.056  1.00  0.00    -0.249 OA
BRANCH   3   5
ATOM      5  C   UNL A   1      32.412  25.723  24.776  1.00  0.00     0.139 C 
BRANCH   5   6
ATOM      6  C   UNL A   1      30.840  25.548  24.702  1.00  0.00     0.037 C 
ATOM      7  C   UNL A   1      30.225  24.816  23.519  1.00  0.00     0.007 C 
ENDBRANCH   5   6
BRANCH   5   8
ATOM      8  C   UNL A   1      33.066  24.456  25.392  1.00  0.00     0.037 C 
ATOM      9  C   UNL A   1      32.282  23.774  26.505  1.00  0.00     0.007 C 
ENDBRANCH   5   8
BRANCH   5  10
ATOM     10  N   UNL A   1      32.798  25.872  23.317  1.00  0.00    -0.322 N 
ATOM     11  C   UNL A   1      33.015  26.756  22.344  1.00  0.00     0.315 C 
ATOM     12  H   UNL A   1      32.943  24.972  22.947  1.00  0.00     0.166 HD
ATOM     13  O   UNL A   1      33.673  26.350  21.380  1.00  0.00    -0.249 OA
ATOM     14  N   UNL A   1      32.597  28.023  22.306  1.00  0.00    -0.338 N 
ATOM     15  H   UNL A   1      33.113  28.625  21.721  1.00  0.00     0.165 HD
BRANCH  14  16
ATOM     16  C   UNL A   1      31.495  28.626  23.008  1.00  0.00     0.125 C 
BRANCH  16  17
ATOM     17  C   UNL A   1      30.107  28.435  22.398  1.00  0.00     0.089 C 
BRANCH  17  18
ATOM     18  C   UNL A   1      29.374  29.736  22.212  1.00  0.00     0.094 A 
ATOM     19  N   UNL A   1      28.753  30.097  21.107  1.00  0.00    -0.250 NA
ATOM     20  S   UNL A   1      29.197  30.827  23.532  1.00  0.00    -0.127 S 
ATOM     21  C   UNL A   1      28.169  31.337  21.271  1.00  0.00     0.123 A 
ATOM     22  C   UNL A   1      28.278  31.875  22.533  1.00  0.00     0.087 A 
ENDBRANCH  17  18
ENDBRANCH  16  17
ENDBRANCH  14  16
ENDBRANCH   5  10
ENDBRANCH   3   5
ENDBRANCH   2   3
ENDBRANCH   1   2
BRANCH   1  23
ATOM     23  C   UNL A   1      31.685  29.936  26.529  1.00  0.00     0.275 C 
BRANCH  23  24
ATOM     24  O   UNL A   1      33.003  30.441  26.280  1.00  0.00    -0.458 OA
BRANCH  24  25
ATOM     25  C   UNL A   1      33.330  31.535  27.003  1.00  0.00     0.338 C 
ATOM     26  O   UNL A   1      32.662  32.531  27.242  1.00  0.00    -0.246 OA
BRANCH  25  27
ATOM     27  C   UNL A   1      34.560  31.199  27.705  1.00  0.00     0.060 A 
ATOM     28  C   UNL A   1      35.414  32.256  28.008  1.00  0.00     0.016 A 
ATOM     29  C   UNL A   1      34.852  29.903  28.101  1.00  0.00     0.016 A 
ATOM     30  C   UNL A   1      36.589  32.043  28.701  1.00  0.00     0.010 A 
ATOM     31  C   UNL A   1      36.015  29.684  28.836  1.00  0.00     0.010 A 
ATOM     32  C   UNL A   1      36.883  30.752  29.137  1.00  0.00    -0.014 A 
BRANCH  32  33
ATOM     33  C   UNL A   1      38.141  30.502  29.862  1.00  0.00     0.031 A 
ATOM     34  C   UNL A   1      39.180  29.653  29.205  1.00  0.00     0.074 A 
ATOM     35  C   UNL A   1      38.328  31.035  31.083  1.00  0.00     0.049 A 
ATOM     36  N   UNL A   1      40.240  29.095  29.719  1.00  0.00    -0.248 NA
ATOM     37  C   UNL A   1      38.986  29.385  27.770  1.00  0.00     0.031 C 
ATOM     38  C   UNL A   1      37.409  31.958  31.755  1.00  0.00     0.029 A 
ATOM     39  N   UNL A   1      39.348  30.869  31.979  1.00  0.00    -0.354 N 
ATOM     40  C   UNL A   1      40.810  28.362  28.687  1.00  0.00     0.074 A 
ATOM     41  C   UNL A   1      39.978  28.546  27.518  1.00  0.00     0.031 C 
ATOM     42  C   UNL A   1      37.907  32.272  32.961  1.00  0.00     0.029 A 
ATOM     43  C   UNL A   1      39.128  31.507  33.177  1.00  0.00     0.049 A 
ATOM     44  H   UNL A   1      40.159  30.344  31.788  1.00  0.00     0.167 HD
ATOM     45  C   UNL A   1      41.925  27.599  28.731  1.00  0.00     0.037 A 
ATOM     46  C   UNL A   1      39.811  31.425  34.333  1.00  0.00     0.037 A 
ATOM     47  C   UNL A   1      42.731  27.459  29.915  1.00  0.00     0.049 A 
ATOM     48  C   UNL A   1      41.005  30.512  34.380  1.00  0.00     0.074 A 
ATOM     49  C   UNL A   1      43.873  26.706  30.105  1.00  0.00     0.029 A 
ATOM     50  N   UNL A   1      42.468  28.105  31.119  1.00  0.00    -0.354 N 
ATOM     51  N   UNL A   1      41.514  29.768  33.426  1.00  0.00    -0.248 NA
ATOM     52  C   UNL A   1      41.710  30.412  35.663  1.00  0.00     0.031 C 
ATOM     53  C   UNL A   1      44.273  26.857  31.437  1.00  0.00     0.029 A 
ATOM     54  C   UNL A   1      43.418  27.754  32.061  1.00  0.00     0.049 A 
ATOM     55  H   UNL A   1      41.718  28.723  31.277  1.00  0.00     0.167 HD
ATOM     56  C   UNL A   1      42.614  29.130  33.982  1.00  0.00     0.074 A 
ATOM     57  C   UNL A   1      42.704  29.590  35.355  1.00  0.00     0.031 C 
ATOM     58  C   UNL A   1      43.474  28.246  33.417  1.00  0.00     0.037 A 
BRANCH  45  59
ATOM     59  C   UNL A   1      42.278  26.825  27.495  1.00  0.00     0.057 A 
ATOM     60  C   UNL A   1      41.856  25.505  27.289  1.00  0.00     0.134 A 
ATOM     61  C   UNL A   1      43.084  27.403  26.504  1.00  0.00     0.134 A 
ATOM     62  F   UNL A   1      41.103  24.880  28.207  1.00  0.00    -0.206 F 
ATOM     63  C   UNL A   1      42.248  24.778  26.162  1.00  0.00     0.040 A 
ATOM     64  C   UNL A   1      43.458  26.698  25.359  1.00  0.00     0.040 A 
ATOM     65  F   UNL A   1      43.528  28.662  26.637  1.00  0.00    -0.206 F 
ATOM     66  C   UNL A   1      43.049  25.377  25.191  1.00  0.00     0.006 A 
ENDBRANCH  45  59
BRANCH  46  67
ATOM     67  C   UNL A   1      39.357  32.178  35.531  1.00  0.00     0.057 A 
ATOM     68  C   UNL A   1      38.481  31.604  36.459  1.00  0.00     0.134 A 
ATOM     69  C   UNL A   1      39.785  33.489  35.781  1.00  0.00     0.134 A 
ATOM     70  F   UNL A   1      38.019  30.360  36.271  1.00  0.00    -0.206 F 
ATOM     71  C   UNL A   1      38.036  32.309  37.581  1.00  0.00     0.040 A 
ATOM     72  C   UNL A   1      39.372  34.194  36.914  1.00  0.00     0.040 A 
ATOM     73  F   UNL A   1      40.628  34.101  34.935  1.00  0.00    -0.206 F 
ATOM     74  C   UNL A   1      38.488  33.605  37.814  1.00  0.00     0.006 A 
ENDBRANCH  46  67
BRANCH  58  75
ATOM     75  C   UNL A   1      44.606  27.766  34.274  1.00  0.00     0.057 A 
ATOM     76  C   UNL A   1      45.819  28.457  34.357  1.00  0.00     0.134 A 
ATOM     77  C   UNL A   1      44.455  26.615  35.059  1.00  0.00     0.134 A 
ATOM     78  F   UNL A   1      46.029  29.557  33.618  1.00  0.00    -0.206 F 
ATOM     79  C   UNL A   1      46.856  28.007  35.175  1.00  0.00     0.040 A 
ATOM     80  C   UNL A   1      45.471  26.174  35.904  1.00  0.00     0.040 A 
ATOM     81  F   UNL A   1      43.311  25.914  35.030  1.00  0.00    -0.206 F 
ATOM     82  C   UNL A   1      46.679  26.867  35.959  1.00  0.00     0.006 A 
ENDBRANCH  58  75
ENDBRANCH  32  33
ENDBRANCH  25  27
ENDBRANCH  24  25
ENDBRANCH  23  24
ENDBRANCH   1  23
TORSDOF 17
ENDMDL
