MODEL 1
REMARK VINA RESULT:     -10.1      0.000      0.000
REMARK SMILES Cc1cc(Br)cc2c1O[C@H](C(F)(F)F)C(C(=O)OCCOC(=O)c1ccc(-c3c4nc(c(-c5c(F)cccc5F)c5ccc([nH]5)c(-c5c(F)cccc5F)c5nc(c(-c6c(F)cccc6F)c6ccc3[nH]6)C=C5)C=C4)cc1)=C2
REMARK SMILES IDX 20 1 19 2 18 3 16 4 17 5 15 6 1 7 2 8 3 9 8 10 4 11 7 12
REMARK SMILES IDX 9 13 5 14 6 15 78 16 10 17 11 18 12 19 13 20 14 21 21 22
REMARK SMILES IDX 22 23 23 24 24 25 25 26 77 27 26 28 76 29 27 30 28 31 29 32
REMARK SMILES IDX 70 33 30 34 75 35 69 36 71 37 31 38 74 39 68 40 67 41 32 43
REMARK SMILES IDX 58 44 41 45 57 46 42 47 45 48 56 49 72 50 43 51 44 52 55 54
REMARK SMILES IDX 73 55 46 56 33 57 34 58 39 59 35 60 36 61 38 62 40 63 37 64
REMARK SMILES IDX 59 65 60 66 65 67 61 68 62 69 64 70 66 71 63 72 47 73 48 74
REMARK SMILES IDX 53 75 49 76 50 77 52 78 54 79 51 80
REMARK H PARENT 71 42 45 53
REMARK Flexibility Score: inf
ROOT
ATOM      1  C   UNL A   1      33.826  33.476  28.269  1.00  0.00     0.275 C 
ENDROOT
BRANCH   1   2
ATOM      2  C   UNL A   1      34.480  34.673  28.958  1.00  0.00     0.275 C 
BRANCH   2   3
ATOM      3  O   UNL A   1      34.259  34.640  30.386  1.00  0.00    -0.459 OA
BRANCH   3   4
ATOM      4  C   UNL A   1      34.823  33.600  31.041  1.00  0.00     0.338 C 
ATOM      5  O   UNL A   1      34.378  32.466  31.131  1.00  0.00    -0.246 OA
BRANCH   4   6
ATOM      6  C   UNL A   1      36.113  34.002  31.632  1.00  0.00     0.087 C 
ATOM      7  C   UNL A   1      39.902  35.329  34.830  1.00  0.00     0.048 C 
ATOM      8  C   UNL A   1      39.811  34.793  33.430  1.00  0.00    -0.007 A 
ATOM      9  C   UNL A   1      40.986  34.518  32.711  1.00  0.00     0.023 A 
ATOM     10  C   UNL A   1      38.565  34.578  32.819  1.00  0.00     0.130 A 
ATOM     11  C   UNL A   1      40.915  34.031  31.408  1.00  0.00     0.019 A 
ATOM     12  C   UNL A   1      38.507  34.072  31.519  1.00  0.00     0.019 A 
ATOM     13  O   UNL A   1      37.447  34.905  33.538  1.00  0.00    -0.475 OA
ATOM     14  Br  UNL A   1      42.503  33.662  30.450  1.00  0.00    -0.051 Br
ATOM     15  C   UNL A   1      39.682  33.806  30.807  1.00  0.00     0.027 A 
ATOM     16  C   UNL A   1      37.220  33.795  30.911  1.00  0.00     0.027 C 
ATOM     17  C   UNL A   1      36.140  34.490  33.050  1.00  0.00     0.316 C 
BRANCH  17  18
ATOM     18  C   UNL A   1      35.565  33.434  34.009  1.00  0.00     0.430 C 
ATOM     19  F   UNL A   1      35.988  32.189  33.687  1.00  0.00    -0.167 F 
ATOM     20  F   UNL A   1      35.959  33.658  35.287  1.00  0.00    -0.167 F 
ATOM     21  F   UNL A   1      34.212  33.421  34.001  1.00  0.00    -0.167 F 
ENDBRANCH  17  18
ENDBRANCH   4   6
ENDBRANCH   3   4
ENDBRANCH   2   3
ENDBRANCH   1   2
BRANCH   1  22
ATOM     22  O   UNL A   1      34.824  32.681  27.603  1.00  0.00    -0.458 OA
BRANCH  22  23
ATOM     23  C   UNL A   1      34.748  31.348  27.819  1.00  0.00     0.338 C 
ATOM     24  O   UNL A   1      33.889  30.577  27.427  1.00  0.00    -0.246 OA
BRANCH  23  25
ATOM     25  C   UNL A   1      35.929  30.896  28.572  1.00  0.00     0.060 A 
ATOM     26  C   UNL A   1      37.142  31.538  28.357  1.00  0.00     0.016 A 
ATOM     27  C   UNL A   1      35.882  29.738  29.343  1.00  0.00     0.016 A 
ATOM     28  C   UNL A   1      38.329  30.949  28.778  1.00  0.00     0.010 A 
ATOM     29  C   UNL A   1      37.066  29.228  29.894  1.00  0.00     0.010 A 
ATOM     30  C   UNL A   1      38.313  29.798  29.577  1.00  0.00    -0.014 A 
BRANCH  30  31
ATOM     31  C   UNL A   1      39.594  29.194  30.049  1.00  0.00     0.031 A 
ATOM     32  C   UNL A   1      40.249  29.676  31.320  1.00  0.00     0.074 A 
ATOM     33  C   UNL A   1      40.162  28.178  29.363  1.00  0.00     0.049 A 
ATOM     34  N   UNL A   1      41.431  29.384  31.805  1.00  0.00    -0.248 NA
ATOM     35  C   UNL A   1      39.484  30.620  32.151  1.00  0.00     0.031 C 
ATOM     36  C   UNL A   1      39.619  27.569  28.144  1.00  0.00     0.029 A 
ATOM     37  N   UNL A   1      41.307  27.457  29.602  1.00  0.00    -0.354 N 
ATOM     38  C   UNL A   1      41.570  30.144  32.960  1.00  0.00     0.074 A 
ATOM     39  C   UNL A   1      40.358  30.922  33.101  1.00  0.00     0.031 C 
ATOM     40  C   UNL A   1      40.383  26.526  27.792  1.00  0.00     0.029 A 
ATOM     41  C   UNL A   1      41.533  26.457  28.685  1.00  0.00     0.049 A 
ATOM     42  H   UNL A   1      41.910  27.640  30.359  1.00  0.00     0.167 HD
ATOM     43  C   UNL A   1      42.609  30.184  33.827  1.00  0.00     0.037 A 
ATOM     44  C   UNL A   1      42.565  25.604  28.545  1.00  0.00     0.037 A 
ATOM     45  C   UNL A   1      43.788  29.364  33.720  1.00  0.00     0.049 A 
ATOM     46  C   UNL A   1      43.729  25.706  29.486  1.00  0.00     0.074 A 
ATOM     47  C   UNL A   1      44.897  29.335  34.548  1.00  0.00     0.029 A 
ATOM     48  N   UNL A   1      43.999  28.411  32.736  1.00  0.00    -0.354 N 
ATOM     49  N   UNL A   1      43.880  26.487  30.527  1.00  0.00    -0.248 NA
ATOM     50  C   UNL A   1      44.881  24.834  29.214  1.00  0.00     0.031 C 
ATOM     51  C   UNL A   1      45.793  28.388  34.047  1.00  0.00     0.029 A 
ATOM     52  C   UNL A   1      45.226  27.797  32.931  1.00  0.00     0.049 A 
ATOM     53  H   UNL A   1      43.372  28.201  32.007  1.00  0.00     0.167 HD
ATOM     54  C   UNL A   1      45.136  26.196  31.040  1.00  0.00     0.074 A 
ATOM     55  C   UNL A   1      45.699  25.154  30.207  1.00  0.00     0.031 C 
ATOM     56  C   UNL A   1      45.768  26.753  32.100  1.00  0.00     0.037 A 
BRANCH  43  57
ATOM     57  C   UNL A   1      42.536  31.158  34.970  1.00  0.00     0.057 A 
ATOM     58  C   UNL A   1      43.033  32.463  34.866  1.00  0.00     0.134 A 
ATOM     59  C   UNL A   1      41.897  30.803  36.165  1.00  0.00     0.134 A 
ATOM     60  F   UNL A   1      43.665  32.863  33.754  1.00  0.00    -0.206 F 
ATOM     61  C   UNL A   1      42.910  33.375  35.917  1.00  0.00     0.040 A 
ATOM     62  C   UNL A   1      41.745  31.714  37.213  1.00  0.00     0.040 A 
ATOM     63  F   UNL A   1      41.389  29.572  36.328  1.00  0.00    -0.206 F 
ATOM     64  C   UNL A   1      42.255  33.004  37.090  1.00  0.00     0.006 A 
ENDBRANCH  43  57
BRANCH  44  65
ATOM     65  C   UNL A   1      42.552  24.600  27.449  1.00  0.00     0.057 A 
ATOM     66  C   UNL A   1      43.045  24.915  26.178  1.00  0.00     0.134 A 
ATOM     67  C   UNL A   1      42.075  23.298  27.650  1.00  0.00     0.134 A 
ATOM     68  F   UNL A   1      43.494  26.151  25.915  1.00  0.00    -0.206 F 
ATOM     69  C   UNL A   1      43.067  23.973  25.148  1.00  0.00     0.040 A 
ATOM     70  C   UNL A   1      42.119  22.338  26.638  1.00  0.00     0.040 A 
ATOM     71  F   UNL A   1      41.590  22.931  28.845  1.00  0.00    -0.206 F 
ATOM     72  C   UNL A   1      42.613  22.676  25.381  1.00  0.00     0.006 A 
ENDBRANCH  44  65
BRANCH  56  73
ATOM     73  C   UNL A   1      47.133  26.237  32.441  1.00  0.00     0.057 A 
ATOM     74  C   UNL A   1      47.315  25.201  33.364  1.00  0.00     0.134 A 
ATOM     75  C   UNL A   1      48.266  26.726  31.780  1.00  0.00     0.134 A 
ATOM     76  F   UNL A   1      46.268  24.699  34.037  1.00  0.00    -0.206 F 
ATOM     77  C   UNL A   1      48.579  24.672  33.622  1.00  0.00     0.040 A 
ATOM     78  C   UNL A   1      49.533  26.191  32.014  1.00  0.00     0.040 A 
ATOM     79  F   UNL A   1      48.157  27.714  30.878  1.00  0.00    -0.206 F 
ATOM     80  C   UNL A   1      49.691  25.160  32.938  1.00  0.00     0.006 A 
ENDBRANCH  56  73
ENDBRANCH  30  31
ENDBRANCH  23  25
ENDBRANCH  22  23
ENDBRANCH   1  22
TORSDOF 12
ENDMDL
MODEL 2
REMARK VINA RESULT:     -10.1      4.741      9.568
REMARK SMILES Cc1cc(Br)cc2c1O[C@H](C(F)(F)F)C(C(=O)OCCOC(=O)c1ccc(-c3c4nc(c(-c5c(F)cccc5F)c5ccc([nH]5)c(-c5c(F)cccc5F)c5nc(c(-c6c(F)cccc6F)c6ccc3[nH]6)C=C5)C=C4)cc1)=C2
REMARK SMILES IDX 20 1 19 2 18 3 16 4 17 5 15 6 1 7 2 8 3 9 8 10 4 11 7 12
REMARK SMILES IDX 9 13 5 14 6 15 78 16 10 17 11 18 12 19 13 20 14 21 21 22
REMARK SMILES IDX 22 23 23 24 24 25 25 26 77 27 26 28 76 29 27 30 28 31 29 32
REMARK SMILES IDX 70 33 30 34 75 35 69 36 71 37 31 38 74 39 68 40 67 41 32 43
REMARK SMILES IDX 58 44 41 45 57 46 42 47 45 48 56 49 72 50 43 51 44 52 55 54
REMARK SMILES IDX 73 55 46 56 33 57 34 58 39 59 35 60 36 61 38 62 40 63 37 64
REMARK SMILES IDX 59 65 60 66 65 67 61 68 62 69 64 70 66 71 63 72 47 73 48 74
REMARK SMILES IDX 53 75 49 76 50 77 52 78 54 79 51 80
REMARK H PARENT 71 42 45 53
REMARK Flexibility Score: inf
ROOT
ATOM      1  C   UNL A   1      31.542  29.920  25.233  1.00  0.00     0.275 C 
ENDROOT
BRANCH   1   2
ATOM      2  C   UNL A   1      31.527  28.492  24.691  1.00  0.00     0.275 C 
BRANCH   2   3
ATOM      3  O   UNL A   1      32.309  27.607  25.524  1.00  0.00    -0.459 OA
BRANCH   3   4
ATOM      4  C   UNL A   1      31.610  26.653  26.181  1.00  0.00     0.338 C 
ATOM      5  O   UNL A   1      30.655  26.828  26.923  1.00  0.00    -0.246 OA
BRANCH   4   6
ATOM      6  C   UNL A   1      32.134  25.314  25.855  1.00  0.00     0.087 C 
ATOM      7  C   UNL A   1      32.829  20.576  24.009  1.00  0.00     0.048 C 
ATOM      8  C   UNL A   1      33.706  21.644  24.595  1.00  0.00    -0.007 A 
ATOM      9  C   UNL A   1      35.091  21.430  24.697  1.00  0.00     0.023 A 
ATOM     10  C   UNL A   1      33.162  22.852  25.060  1.00  0.00     0.130 A 
ATOM     11  C   UNL A   1      35.915  22.409  25.248  1.00  0.00     0.019 A 
ATOM     12  C   UNL A   1      34.000  23.833  25.593  1.00  0.00     0.019 A 
ATOM     13  O   UNL A   1      31.803  22.999  24.985  1.00  0.00    -0.475 OA
ATOM     14  Br  UNL A   1      37.778  22.111  25.378  1.00  0.00    -0.051 Br
ATOM     15  C   UNL A   1      35.378  23.609  25.696  1.00  0.00     0.027 A 
ATOM     16  C   UNL A   1      33.444  25.102  26.019  1.00  0.00     0.027 C 
ATOM     17  C   UNL A   1      31.213  24.307  25.233  1.00  0.00     0.316 C 
BRANCH  17  18
ATOM     18  C   UNL A   1      30.617  24.839  23.920  1.00  0.00     0.430 C 
ATOM     19  F   UNL A   1      31.536  25.522  23.199  1.00  0.00    -0.167 F 
ATOM     20  F   UNL A   1      30.178  23.829  23.130  1.00  0.00    -0.167 F 
ATOM     21  F   UNL A   1      29.569  25.667  24.135  1.00  0.00    -0.167 F 
ENDBRANCH  17  18
ENDBRANCH   4   6
ENDBRANCH   3   4
ENDBRANCH   2   3
ENDBRANCH   1   2
BRANCH   1  22
ATOM     22  O   UNL A   1      32.105  29.941  26.558  1.00  0.00    -0.458 OA
BRANCH  22  23
ATOM     23  C   UNL A   1      32.656  31.117  26.938  1.00  0.00     0.338 C 
ATOM     24  O   UNL A   1      32.133  32.218  26.943  1.00  0.00    -0.246 OA
BRANCH  23  25
ATOM     25  C   UNL A   1      34.020  30.889  27.439  1.00  0.00     0.060 A 
ATOM     26  C   UNL A   1      34.452  29.583  27.627  1.00  0.00     0.016 A 
ATOM     27  C   UNL A   1      34.800  31.951  27.891  1.00  0.00     0.016 A 
ATOM     28  C   UNL A   1      35.581  29.322  28.396  1.00  0.00     0.010 A 
ATOM     29  C   UNL A   1      36.016  31.688  28.536  1.00  0.00     0.010 A 
ATOM     30  C   UNL A   1      36.400  30.369  28.843  1.00  0.00    -0.014 A 
BRANCH  30  31
ATOM     31  C   UNL A   1      37.626  30.074  29.641  1.00  0.00     0.031 A 
ATOM     32  C   UNL A   1      38.760  29.278  29.043  1.00  0.00     0.074 A 
ATOM     33  C   UNL A   1      37.752  30.552  30.898  1.00  0.00     0.049 A 
ATOM     34  N   UNL A   1      39.829  28.793  29.625  1.00  0.00    -0.248 NA
ATOM     35  C   UNL A   1      38.679  28.975  27.604  1.00  0.00     0.031 C 
ATOM     36  C   UNL A   1      36.762  31.380  31.595  1.00  0.00     0.029 A 
ATOM     37  N   UNL A   1      38.774  30.434  31.810  1.00  0.00    -0.354 N 
ATOM     38  C   UNL A   1      40.514  28.088  28.642  1.00  0.00     0.074 A 
ATOM     39  C   UNL A   1      39.736  28.195  27.428  1.00  0.00     0.031 C 
ATOM     40  C   UNL A   1      37.256  31.758  32.782  1.00  0.00     0.029 A 
ATOM     41  C   UNL A   1      38.545  31.109  32.986  1.00  0.00     0.049 A 
ATOM     42  H   UNL A   1      39.593  29.916  31.636  1.00  0.00     0.167 HD
ATOM     43  C   UNL A   1      41.687  27.419  28.743  1.00  0.00     0.037 A 
ATOM     44  C   UNL A   1      39.265  31.170  34.123  1.00  0.00     0.037 A 
ATOM     45  C   UNL A   1      42.492  27.366  29.937  1.00  0.00     0.049 A 
ATOM     46  C   UNL A   1      40.533  30.376  34.228  1.00  0.00     0.074 A 
ATOM     47  C   UNL A   1      43.694  26.711  30.137  1.00  0.00     0.029 A 
ATOM     48  N   UNL A   1      42.186  28.012  31.124  1.00  0.00    -0.354 N 
ATOM     49  N   UNL A   1      41.126  29.648  33.314  1.00  0.00    -0.248 NA
ATOM     50  C   UNL A   1      41.215  30.382  35.530  1.00  0.00     0.031 C 
ATOM     51  C   UNL A   1      44.100  26.934  31.455  1.00  0.00     0.029 A 
ATOM     52  C   UNL A   1      43.172  27.761  32.064  1.00  0.00     0.049 A 
ATOM     53  H   UNL A   1      41.387  28.567  31.277  1.00  0.00     0.167 HD
ATOM     54  C   UNL A   1      42.253  29.118  33.925  1.00  0.00     0.074 A 
ATOM     55  C   UNL A   1      42.273  29.622  35.283  1.00  0.00     0.031 C 
ATOM     56  C   UNL A   1      43.182  28.279  33.408  1.00  0.00     0.037 A 
BRANCH  43  57
ATOM     57  C   UNL A   1      42.178  26.672  27.535  1.00  0.00     0.057 A 
ATOM     58  C   UNL A   1      43.000  27.272  26.573  1.00  0.00     0.134 A 
ATOM     59  C   UNL A   1      41.879  25.313  27.371  1.00  0.00     0.134 A 
ATOM     60  F   UNL A   1      43.315  28.572  26.665  1.00  0.00    -0.206 F 
ATOM     61  C   UNL A   1      43.494  26.550  25.484  1.00  0.00     0.040 A 
ATOM     62  C   UNL A   1      42.387  24.575  26.300  1.00  0.00     0.040 A 
ATOM     63  F   UNL A   1      41.105  24.673  28.261  1.00  0.00    -0.206 F 
ATOM     64  C   UNL A   1      43.196  25.196  25.351  1.00  0.00     0.006 A 
ENDBRANCH  43  57
BRANCH  44  65
ATOM     65  C   UNL A   1      38.781  31.993  35.262  1.00  0.00     0.057 A 
ATOM     66  C   UNL A   1      38.154  31.401  36.363  1.00  0.00     0.134 A 
ATOM     67  C   UNL A   1      38.956  33.383  35.292  1.00  0.00     0.134 A 
ATOM     68  F   UNL A   1      37.935  30.079  36.385  1.00  0.00    -0.206 F 
ATOM     69  C   UNL A   1      37.722  32.159  37.454  1.00  0.00     0.040 A 
ATOM     70  C   UNL A   1      38.556  34.149  36.388  1.00  0.00     0.040 A 
ATOM     71  F   UNL A   1      39.550  34.013  34.268  1.00  0.00    -0.206 F 
ATOM     72  C   UNL A   1      37.933  33.536  37.473  1.00  0.00     0.006 A 
ENDBRANCH  44  65
BRANCH  56  73
ATOM     73  C   UNL A   1      44.313  27.865  34.300  1.00  0.00     0.057 A 
ATOM     74  C   UNL A   1      44.259  26.687  35.053  1.00  0.00     0.134 A 
ATOM     75  C   UNL A   1      45.498  28.611  34.342  1.00  0.00     0.134 A 
ATOM     76  F   UNL A   1      43.146  25.936  35.062  1.00  0.00    -0.206 F 
ATOM     77  C   UNL A   1      45.343  26.267  35.823  1.00  0.00     0.040 A 
ATOM     78  C   UNL A   1      46.596  28.190  35.091  1.00  0.00     0.040 A 
ATOM     79  F   UNL A   1      45.615  29.745  33.636  1.00  0.00    -0.206 F 
ATOM     80  C   UNL A   1      46.520  27.014  35.835  1.00  0.00     0.006 A 
ENDBRANCH  56  73
ENDBRANCH  30  31
ENDBRANCH  23  25
ENDBRANCH  22  23
ENDBRANCH   1  22
TORSDOF 12
ENDMDL
MODEL 3
REMARK VINA RESULT:     -10.0      4.745      9.527
REMARK SMILES Cc1cc(Br)cc2c1O[C@H](C(F)(F)F)C(C(=O)OCCOC(=O)c1ccc(-c3c4nc(c(-c5c(F)cccc5F)c5ccc([nH]5)c(-c5c(F)cccc5F)c5nc(c(-c6c(F)cccc6F)c6ccc3[nH]6)C=C5)C=C4)cc1)=C2
REMARK SMILES IDX 20 1 19 2 18 3 16 4 17 5 15 6 1 7 2 8 3 9 8 10 4 11 7 12
REMARK SMILES IDX 9 13 5 14 6 15 78 16 10 17 11 18 12 19 13 20 14 21 21 22
REMARK SMILES IDX 22 23 23 24 24 25 25 26 77 27 26 28 76 29 27 30 28 31 29 32
REMARK SMILES IDX 70 33 30 34 75 35 69 36 71 37 31 38 74 39 68 40 67 41 32 43
REMARK SMILES IDX 58 44 41 45 57 46 42 47 45 48 56 49 72 50 43 51 44 52 55 54
REMARK SMILES IDX 73 55 46 56 33 57 34 58 39 59 35 60 36 61 38 62 40 63 37 64
REMARK SMILES IDX 59 65 60 66 65 67 61 68 62 69 64 70 66 71 63 72 47 73 48 74
REMARK SMILES IDX 53 75 49 76 50 77 52 78 54 79 51 80
REMARK H PARENT 71 42 45 53
REMARK Flexibility Score: inf
ROOT
ATOM      1  C   UNL A   1      31.622  30.087  25.401  1.00  0.00     0.275 C 
ENDROOT
BRANCH   1   2
ATOM      2  C   UNL A   1      31.487  28.680  24.821  1.00  0.00     0.275 C 
BRANCH   2   3
ATOM      3  O   UNL A   1      32.279  27.728  25.566  1.00  0.00    -0.459 OA
BRANCH   3   4
ATOM      4  C   UNL A   1      31.580  26.787  26.241  1.00  0.00     0.338 C 
ATOM      5  O   UNL A   1      30.658  26.980  27.019  1.00  0.00    -0.246 OA
BRANCH   4   6
ATOM      6  C   UNL A   1      32.057  25.438  25.886  1.00  0.00     0.087 C 
ATOM      7  C   UNL A   1      32.590  20.724  23.927  1.00  0.00     0.048 C 
ATOM      8  C   UNL A   1      33.502  21.743  24.546  1.00  0.00    -0.007 A 
ATOM      9  C   UNL A   1      34.877  21.475  24.653  1.00  0.00     0.023 A 
ATOM     10  C   UNL A   1      32.999  22.959  25.037  1.00  0.00     0.130 A 
ATOM     11  C   UNL A   1      35.732  22.408  25.235  1.00  0.00     0.019 A 
ATOM     12  C   UNL A   1      33.869  23.894  25.601  1.00  0.00     0.019 A 
ATOM     13  O   UNL A   1      31.647  23.159  24.956  1.00  0.00    -0.475 OA
ATOM     14  Br  UNL A   1      37.581  22.037  25.372  1.00  0.00    -0.051 Br
ATOM     15  C   UNL A   1      35.237  23.617  25.709  1.00  0.00     0.027 A 
ATOM     16  C   UNL A   1      33.356  25.172  26.054  1.00  0.00     0.027 C 
ATOM     17  C   UNL A   1      31.105  24.481  25.231  1.00  0.00     0.316 C 
BRANCH  17  18
ATOM     18  C   UNL A   1      30.540  25.068  23.928  1.00  0.00     0.430 C 
ATOM     19  F   UNL A   1      30.032  24.102  23.127  1.00  0.00    -0.167 F 
ATOM     20  F   UNL A   1      29.530  25.939  24.173  1.00  0.00    -0.167 F 
ATOM     21  F   UNL A   1      31.482  25.732  23.218  1.00  0.00    -0.167 F 
ENDBRANCH  17  18
ENDBRANCH   4   6
ENDBRANCH   3   4
ENDBRANCH   2   3
ENDBRANCH   1   2
BRANCH   1  22
ATOM     22  O   UNL A   1      32.314  30.039  26.662  1.00  0.00    -0.458 OA
BRANCH  22  23
ATOM     23  C   UNL A   1      32.891  31.197  27.056  1.00  0.00     0.338 C 
ATOM     24  O   UNL A   1      32.394  32.310  27.069  1.00  0.00    -0.246 OA
BRANCH  23  25
ATOM     25  C   UNL A   1      34.248  30.933  27.559  1.00  0.00     0.060 A 
ATOM     26  C   UNL A   1      34.640  29.616  27.759  1.00  0.00     0.016 A 
ATOM     27  C   UNL A   1      35.059  31.975  28.001  1.00  0.00     0.016 A 
ATOM     28  C   UNL A   1      35.760  29.329  28.531  1.00  0.00     0.010 A 
ATOM     29  C   UNL A   1      36.267  31.681  28.648  1.00  0.00     0.010 A 
ATOM     30  C   UNL A   1      36.611  30.354  28.968  1.00  0.00    -0.014 A 
BRANCH  30  31
ATOM     31  C   UNL A   1      37.828  30.029  29.769  1.00  0.00     0.031 A 
ATOM     32  C   UNL A   1      38.938  29.196  29.178  1.00  0.00     0.074 A 
ATOM     33  C   UNL A   1      37.967  30.514  31.023  1.00  0.00     0.049 A 
ATOM     34  N   UNL A   1      39.992  28.685  29.765  1.00  0.00    -0.248 NA
ATOM     35  C   UNL A   1      38.848  28.884  27.742  1.00  0.00     0.031 C 
ATOM     36  C   UNL A   1      37.002  31.376  31.712  1.00  0.00     0.029 A 
ATOM     37  N   UNL A   1      38.985  30.374  31.936  1.00  0.00    -0.354 N 
ATOM     38  C   UNL A   1      40.656  27.952  28.788  1.00  0.00     0.074 A 
ATOM     39  C   UNL A   1      39.882  28.072  27.572  1.00  0.00     0.031 C 
ATOM     40  C   UNL A   1      37.506  31.749  32.896  1.00  0.00     0.029 A 
ATOM     41  C   UNL A   1      38.776  31.064  33.107  1.00  0.00     0.049 A 
ATOM     42  H   UNL A   1      39.788  29.830  31.766  1.00  0.00     0.167 HD
ATOM     43  C   UNL A   1      41.810  27.250  28.894  1.00  0.00     0.037 A 
ATOM     44  C   UNL A   1      39.496  31.113  34.243  1.00  0.00     0.037 A 
ATOM     45  C   UNL A   1      42.612  27.182  30.089  1.00  0.00     0.049 A 
ATOM     46  C   UNL A   1      40.741  30.283  34.355  1.00  0.00     0.074 A 
ATOM     47  C   UNL A   1      43.794  26.494  30.295  1.00  0.00     0.029 A 
ATOM     48  N   UNL A   1      42.324  27.848  31.271  1.00  0.00    -0.354 N 
ATOM     49  N   UNL A   1      41.313  29.531  33.447  1.00  0.00    -0.248 NA
ATOM     50  C   UNL A   1      41.423  30.280  35.657  1.00  0.00     0.031 C 
ATOM     51  C   UNL A   1      44.206  26.716  31.612  1.00  0.00     0.029 A 
ATOM     52  C   UNL A   1      43.302  27.575  32.213  1.00  0.00     0.049 A 
ATOM     53  H   UNL A   1      41.542  28.426  31.419  1.00  0.00     0.167 HD
ATOM     54  C   UNL A   1      42.424  28.973  34.063  1.00  0.00     0.074 A 
ATOM     55  C   UNL A   1      42.457  29.487  35.417  1.00  0.00     0.031 C 
ATOM     56  C   UNL A   1      43.328  28.102  33.553  1.00  0.00     0.037 A 
BRANCH  43  57
ATOM     57  C   UNL A   1      42.278  26.479  27.693  1.00  0.00     0.057 A 
ATOM     58  C   UNL A   1      41.897  25.150  27.469  1.00  0.00     0.134 A 
ATOM     59  C   UNL A   1      43.064  27.099  26.713  1.00  0.00     0.134 A 
ATOM     60  F   UNL A   1      41.155  24.495  28.372  1.00  0.00    -0.206 F 
ATOM     61  C   UNL A   1      42.295  24.462  26.320  1.00  0.00     0.040 A 
ATOM     62  C   UNL A   1      43.447  26.429  25.548  1.00  0.00     0.040 A 
ATOM     63  F   UNL A   1      43.456  28.374  26.859  1.00  0.00    -0.206 F 
ATOM     64  C   UNL A   1      43.063  25.105  25.352  1.00  0.00     0.006 A 
ENDBRANCH  43  57
BRANCH  44  65
ATOM     65  C   UNL A   1      39.036  31.959  35.375  1.00  0.00     0.057 A 
ATOM     66  C   UNL A   1      39.341  33.324  35.425  1.00  0.00     0.134 A 
ATOM     67  C   UNL A   1      38.261  31.435  36.417  1.00  0.00     0.134 A 
ATOM     68  F   UNL A   1      40.100  33.881  34.471  1.00  0.00    -0.206 F 
ATOM     69  C   UNL A   1      38.890  34.136  36.468  1.00  0.00     0.040 A 
ATOM     70  C   UNL A   1      37.778  32.241  37.449  1.00  0.00     0.040 A 
ATOM     71  F   UNL A   1      37.932  30.135  36.429  1.00  0.00    -0.206 F 
ATOM     72  C   UNL A   1      38.096  33.596  37.478  1.00  0.00     0.006 A 
ENDBRANCH  44  65
BRANCH  56  73
ATOM     73  C   UNL A   1      44.446  27.663  34.449  1.00  0.00     0.057 A 
ATOM     74  C   UNL A   1      44.356  26.494  35.213  1.00  0.00     0.134 A 
ATOM     75  C   UNL A   1      45.652  28.373  34.484  1.00  0.00     0.134 A 
ATOM     76  F   UNL A   1      43.221  25.778  35.229  1.00  0.00    -0.206 F 
ATOM     77  C   UNL A   1      45.427  26.049  35.987  1.00  0.00     0.040 A 
ATOM     78  C   UNL A   1      46.738  27.926  35.237  1.00  0.00     0.040 A 
ATOM     79  F   UNL A   1      45.804  29.497  33.767  1.00  0.00    -0.206 F 
ATOM     80  C   UNL A   1      46.626  26.760  35.992  1.00  0.00     0.006 A 
ENDBRANCH  56  73
ENDBRANCH  30  31
ENDBRANCH  23  25
ENDBRANCH  22  23
ENDBRANCH   1  22
TORSDOF 12
ENDMDL
