MODEL 1
REMARK VINA RESULT:     -11.8      0.000      0.000
REMARK SMILES O=C(OCCOC(=O)c1ccc(-c2c3nc(c(-c4c(F)cccc4F)c4ccc([nH]4)c(-c4c(F)cccc4F)c4nc(c(-c5c(F)cccc5F)c5ccc2[nH]5)C=C4)C=C3)cc1)C1=Cc2cc(OC(F)(F)F)ccc2O[C@@H]1C(F)(F)F
REMARK SMILES IDX 4 1 3 2 2 3 1 4 63 5 64 6 77 7 65 8 76 9 66 10 75 11 67 12
REMARK SMILES IDX 74 13 73 14 78 15 79 16 80 17 81 18 68 19 69 20 70 21 71 22
REMARK SMILES IDX 72 23 5 24 6 25 7 26 8 27 9 28 10 29 62 30 11 31 61 32 12 33
REMARK SMILES IDX 13 34 14 35 55 36 15 37 60 38 54 39 56 40 16 41 59 42 53 43
REMARK SMILES IDX 52 44 17 46 43 47 26 48 42 49 27 50 30 51 41 52 57 53 28 54
REMARK SMILES IDX 29 55 40 57 58 58 31 59 18 60 19 61 24 62 20 63 21 64 23 65
REMARK SMILES IDX 25 66 22 67 44 68 45 69 50 70 46 71 47 72 49 73 51 74 48 75
REMARK SMILES IDX 32 76 33 77 38 78 34 79 35 80 37 81 39 82 36 83
REMARK H PARENT 56 45 30 56
REMARK Flexibility Score: inf
ROOT
ATOM      1  C   UNL A   1      36.210  21.089  25.349  1.00  0.00     0.275 C 
ENDROOT
BRANCH   1   2
ATOM      2  O   UNL A   1      36.377  22.489  25.039  1.00  0.00    -0.459 OA
BRANCH   2   3
ATOM      3  C   UNL A   1      35.827  22.894  23.867  1.00  0.00     0.338 C 
ATOM      4  O   UNL A   1      36.481  23.133  22.864  1.00  0.00    -0.246 OA
BRANCH   3   5
ATOM      5  C   UNL A   1      34.335  23.024  23.948  1.00  0.00     0.087 C 
ATOM      6  C   UNL A   1      34.000  24.062  24.736  1.00  0.00     0.027 C 
ATOM      7  C   UNL A   1      33.587  22.872  22.649  1.00  0.00     0.316 C 
ATOM      8  C   UNL A   1      33.561  25.272  24.046  1.00  0.00     0.021 A 
ATOM      9  O   UNL A   1      33.475  24.111  21.910  1.00  0.00    -0.475 OA
ATOM     10  C   UNL A   1      33.451  26.480  24.736  1.00  0.00     0.058 A 
ATOM     11  C   UNL A   1      33.428  25.256  22.656  1.00  0.00     0.128 A 
ATOM     12  C   UNL A   1      33.299  27.684  24.037  1.00  0.00     0.130 A 
ATOM     13  C   UNL A   1      33.320  26.450  21.953  1.00  0.00     0.051 A 
ATOM     14  C   UNL A   1      33.282  27.666  22.641  1.00  0.00     0.050 A 
BRANCH   7  15
ATOM     15  C   UNL A   1      32.228  22.184  22.847  1.00  0.00     0.430 C 
ATOM     16  F   UNL A   1      31.242  23.111  22.956  1.00  0.00    -0.167 F 
ATOM     17  F   UNL A   1      31.895  21.364  21.827  1.00  0.00    -0.167 F 
ATOM     18  F   UNL A   1      32.206  21.451  23.985  1.00  0.00    -0.167 F 
ENDBRANCH   7  15
BRANCH  12  19
ATOM     19  O   UNL A   1      33.184  28.783  24.839  1.00  0.00    -0.406 OA
BRANCH  19  20
ATOM     20  C   UNL A   1      31.896  29.141  25.306  1.00  0.00     0.573 C 
ATOM     21  F   UNL A   1      31.651  28.570  26.504  1.00  0.00    -0.132 F 
ATOM     22  F   UNL A   1      31.754  30.481  25.408  1.00  0.00    -0.132 F 
ATOM     23  F   UNL A   1      30.976  28.694  24.425  1.00  0.00    -0.132 F 
ENDBRANCH  19  20
ENDBRANCH  12  19
ENDBRANCH   3   5
ENDBRANCH   2   3
ENDBRANCH   1   2
BRANCH   1  24
ATOM     24  C   UNL A   1      37.490  20.280  25.046  1.00  0.00     0.275 C 
BRANCH  24  25
ATOM     25  O   UNL A   1      38.671  21.100  25.071  1.00  0.00    -0.458 OA
BRANCH  25  26
ATOM     26  C   UNL A   1      39.552  20.766  26.052  1.00  0.00     0.338 C 
ATOM     27  O   UNL A   1      39.992  19.661  26.279  1.00  0.00    -0.246 OA
BRANCH  26  28
ATOM     28  C   UNL A   1      40.089  22.009  26.664  1.00  0.00     0.060 A 
ATOM     29  C   UNL A   1      39.577  23.219  26.186  1.00  0.00     0.016 A 
ATOM     30  C   UNL A   1      41.010  22.011  27.720  1.00  0.00     0.016 A 
ATOM     31  C   UNL A   1      40.010  24.429  26.729  1.00  0.00     0.010 A 
ATOM     32  C   UNL A   1      41.425  23.228  28.281  1.00  0.00     0.010 A 
ATOM     33  C   UNL A   1      40.956  24.447  27.763  1.00  0.00    -0.014 A 
BRANCH  33  34
ATOM     34  C   UNL A   1      41.542  25.754  28.169  1.00  0.00     0.031 A 
ATOM     35  C   UNL A   1      42.942  26.090  27.732  1.00  0.00     0.074 A 
ATOM     36  C   UNL A   1      40.813  26.678  28.823  1.00  0.00     0.049 A 
ATOM     37  N   UNL A   1      43.577  27.234  27.789  1.00  0.00    -0.248 NA
ATOM     38  C   UNL A   1      43.730  24.995  27.143  1.00  0.00     0.031 C 
ATOM     39  C   UNL A   1      39.451  26.492  29.320  1.00  0.00     0.029 A 
ATOM     40  N   UNL A   1      41.120  27.973  29.168  1.00  0.00    -0.354 N 
ATOM     41  C   UNL A   1      44.815  27.007  27.206  1.00  0.00     0.074 A 
ATOM     42  C   UNL A   1      44.877  25.601  26.874  1.00  0.00     0.031 C 
ATOM     43  C   UNL A   1      39.038  27.632  29.904  1.00  0.00     0.029 A 
ATOM     44  C   UNL A   1      40.100  28.632  29.811  1.00  0.00     0.049 A 
ATOM     45  H   UNL A   1      41.990  28.389  28.973  1.00  0.00     0.167 HD
ATOM     46  C   UNL A   1      45.802  27.892  26.930  1.00  0.00     0.037 A 
ATOM     47  C   UNL A   1      40.024  29.902  30.256  1.00  0.00     0.037 A 
ATOM     48  C   UNL A   1      45.768  29.286  27.276  1.00  0.00     0.049 A 
ATOM     49  C   UNL A   1      41.164  30.853  29.997  1.00  0.00     0.074 A 
ATOM     50  C   UNL A   1      46.723  30.259  27.034  1.00  0.00     0.029 A 
ATOM     51  N   UNL A   1      44.728  29.905  27.949  1.00  0.00    -0.354 N 
ATOM     52  N   UNL A   1      42.288  30.648  29.355  1.00  0.00    -0.248 NA
ATOM     53  C   UNL A   1      41.009  32.226  30.502  1.00  0.00     0.031 C 
ATOM     54  C   UNL A   1      46.275  31.461  27.595  1.00  0.00     0.029 A 
ATOM     55  C   UNL A   1      45.025  31.243  28.150  1.00  0.00     0.049 A 
ATOM     56  H   UNL A   1      43.900  29.459  28.241  1.00  0.00     0.167 HD
ATOM     57  C   UNL A   1      42.953  31.869  29.348  1.00  0.00     0.074 A 
ATOM     58  C   UNL A   1      42.100  32.815  30.035  1.00  0.00     0.031 C 
ATOM     59  C   UNL A   1      44.162  32.180  28.820  1.00  0.00     0.037 A 
BRANCH  46  60
ATOM     60  C   UNL A   1      46.998  27.364  26.199  1.00  0.00     0.057 A 
ATOM     61  C   UNL A   1      47.060  27.386  24.798  1.00  0.00     0.134 A 
ATOM     62  C   UNL A   1      48.097  26.842  26.888  1.00  0.00     0.134 A 
ATOM     63  F   UNL A   1      46.030  27.860  24.080  1.00  0.00    -0.206 F 
ATOM     64  C   UNL A   1      48.163  26.883  24.109  1.00  0.00     0.040 A 
ATOM     65  C   UNL A   1      49.216  26.356  26.211  1.00  0.00     0.040 A 
ATOM     66  F   UNL A   1      48.100  26.794  28.229  1.00  0.00    -0.206 F 
ATOM     67  C   UNL A   1      49.248  26.370  24.816  1.00  0.00     0.006 A 
ENDBRANCH  46  60
BRANCH  47  68
ATOM     68  C   UNL A   1      38.815  30.379  30.976  1.00  0.00     0.057 A 
ATOM     69  C   UNL A   1      38.656  30.166  32.351  1.00  0.00     0.134 A 
ATOM     70  C   UNL A   1      37.757  30.982  30.290  1.00  0.00     0.134 A 
ATOM     71  F   UNL A   1      39.625  29.567  33.059  1.00  0.00    -0.206 F 
ATOM     72  C   UNL A   1      37.473  30.504  33.011  1.00  0.00     0.040 A 
ATOM     73  C   UNL A   1      36.578  31.348  30.941  1.00  0.00     0.040 A 
ATOM     74  F   UNL A   1      37.847  31.211  28.971  1.00  0.00    -0.206 F 
ATOM     75  C   UNL A   1      36.428  31.096  32.304  1.00  0.00     0.006 A 
ENDBRANCH  47  68
BRANCH  59  76
ATOM     76  C   UNL A   1      44.620  33.605  28.931  1.00  0.00     0.057 A 
ATOM     77  C   UNL A   1      44.297  34.565  27.963  1.00  0.00     0.134 A 
ATOM     78  C   UNL A   1      45.364  34.031  30.039  1.00  0.00     0.134 A 
ATOM     79  F   UNL A   1      43.596  34.219  26.872  1.00  0.00    -0.206 F 
ATOM     80  C   UNL A   1      44.720  35.890  28.079  1.00  0.00     0.040 A 
ATOM     81  C   UNL A   1      45.770  35.358  30.179  1.00  0.00     0.040 A 
ATOM     82  F   UNL A   1      45.701  33.166  31.008  1.00  0.00    -0.206 F 
ATOM     83  C   UNL A   1      45.453  36.291  29.194  1.00  0.00     0.006 A 
ENDBRANCH  59  76
ENDBRANCH  33  34
ENDBRANCH  26  28
ENDBRANCH  25  26
ENDBRANCH  24  25
ENDBRANCH   1  24
TORSDOF 14
ENDMDL
MODEL 2
REMARK VINA RESULT:     -11.8      3.944      9.324
REMARK SMILES O=C(OCCOC(=O)c1ccc(-c2c3nc(c(-c4c(F)cccc4F)c4ccc([nH]4)c(-c4c(F)cccc4F)c4nc(c(-c5c(F)cccc5F)c5ccc2[nH]5)C=C4)C=C3)cc1)C1=Cc2cc(OC(F)(F)F)ccc2O[C@@H]1C(F)(F)F
REMARK SMILES IDX 4 1 3 2 2 3 1 4 63 5 64 6 77 7 65 8 76 9 66 10 75 11 67 12
REMARK SMILES IDX 74 13 73 14 78 15 79 16 80 17 81 18 68 19 69 20 70 21 71 22
REMARK SMILES IDX 72 23 5 24 6 25 7 26 8 27 9 28 10 29 62 30 11 31 61 32 12 33
REMARK SMILES IDX 13 34 14 35 55 36 15 37 60 38 54 39 56 40 16 41 59 42 53 43
REMARK SMILES IDX 52 44 17 46 43 47 26 48 42 49 27 50 30 51 41 52 57 53 28 54
REMARK SMILES IDX 29 55 40 57 58 58 31 59 18 60 19 61 24 62 20 63 21 64 23 65
REMARK SMILES IDX 25 66 22 67 44 68 45 69 50 70 46 71 47 72 49 73 51 74 48 75
REMARK SMILES IDX 32 76 33 77 38 78 34 79 35 80 37 81 39 82 36 83
REMARK H PARENT 56 45 30 56
REMARK Flexibility Score: inf
ROOT
ATOM      1  C   UNL A   1      29.932  25.050  26.124  1.00  0.00     0.275 C 
ENDROOT
BRANCH   1   2
ATOM      2  O   UNL A   1      31.170  24.950  26.859  1.00  0.00    -0.459 OA
BRANCH   2   3
ATOM      3  C   UNL A   1      31.676  23.696  26.976  1.00  0.00     0.338 C 
ATOM      4  O   UNL A   1      31.134  22.810  27.617  1.00  0.00    -0.246 OA
BRANCH   3   5
ATOM      5  C   UNL A   1      32.974  23.530  26.244  1.00  0.00     0.087 C 
ATOM      6  C   UNL A   1      33.439  22.277  26.397  1.00  0.00     0.027 C 
ATOM      7  C   UNL A   1      33.034  24.126  24.862  1.00  0.00     0.316 C 
ATOM      8  C   UNL A   1      33.262  21.386  25.254  1.00  0.00     0.021 A 
ATOM      9  O   UNL A   1      32.547  23.230  23.836  1.00  0.00    -0.475 OA
ATOM     10  C   UNL A   1      33.454  20.011  25.390  1.00  0.00     0.058 A 
ATOM     11  C   UNL A   1      32.723  21.893  24.069  1.00  0.00     0.128 A 
ATOM     12  C   UNL A   1      33.027  19.132  24.387  1.00  0.00     0.130 A 
ATOM     13  C   UNL A   1      32.259  21.026  23.087  1.00  0.00     0.051 A 
ATOM     14  C   UNL A   1      32.387  19.644  23.257  1.00  0.00     0.050 A 
BRANCH   7  15
ATOM     15  C   UNL A   1      34.428  24.684  24.537  1.00  0.00     0.430 C 
ATOM     16  F   UNL A   1      34.970  25.267  25.636  1.00  0.00    -0.167 F 
ATOM     17  F   UNL A   1      35.294  23.738  24.117  1.00  0.00    -0.167 F 
ATOM     18  F   UNL A   1      34.367  25.637  23.577  1.00  0.00    -0.167 F 
ENDBRANCH   7  15
BRANCH  12  19
ATOM     19  O   UNL A   1      33.297  17.819  24.644  1.00  0.00    -0.406 OA
BRANCH  19  20
ATOM     20  C   UNL A   1      34.462  17.248  24.076  1.00  0.00     0.573 C 
ATOM     21  F   UNL A   1      35.528  18.053  24.272  1.00  0.00    -0.132 F 
ATOM     22  F   UNL A   1      34.721  16.024  24.585  1.00  0.00    -0.132 F 
ATOM     23  F   UNL A   1      34.271  17.111  22.746  1.00  0.00    -0.132 F 
ENDBRANCH  19  20
ENDBRANCH  12  19
ENDBRANCH   3   5
ENDBRANCH   2   3
ENDBRANCH   1   2
BRANCH   1  24
ATOM     24  C   UNL A   1      29.906  26.298  25.214  1.00  0.00     0.275 C 
BRANCH  24  25
ATOM     25  O   UNL A   1      30.839  27.304  25.645  1.00  0.00    -0.458 OA
BRANCH  25  26
ATOM     26  C   UNL A   1      31.857  27.520  24.770  1.00  0.00     0.338 C 
ATOM     27  O   UNL A   1      31.811  27.400  23.566  1.00  0.00    -0.246 OA
BRANCH  26  28
ATOM     28  C   UNL A   1      32.986  28.165  25.491  1.00  0.00     0.060 A 
ATOM     29  C   UNL A   1      32.959  28.102  26.888  1.00  0.00     0.016 A 
ATOM     30  C   UNL A   1      34.078  28.754  24.841  1.00  0.00     0.016 A 
ATOM     31  C   UNL A   1      33.996  28.660  27.636  1.00  0.00     0.010 A 
ATOM     32  C   UNL A   1      35.132  29.292  25.595  1.00  0.00     0.010 A 
ATOM     33  C   UNL A   1      35.079  29.282  27.000  1.00  0.00    -0.014 A 
BRANCH  33  34
ATOM     34  C   UNL A   1      36.053  30.040  27.831  1.00  0.00     0.031 A 
ATOM     35  C   UNL A   1      35.568  31.231  28.613  1.00  0.00     0.074 A 
ATOM     36  C   UNL A   1      37.325  29.624  27.980  1.00  0.00     0.049 A 
ATOM     37  N   UNL A   1      36.179  31.911  29.552  1.00  0.00    -0.248 NA
ATOM     38  C   UNL A   1      34.214  31.717  28.305  1.00  0.00     0.031 C 
ATOM     39  C   UNL A   1      37.939  28.498  27.280  1.00  0.00     0.029 A 
ATOM     40  N   UNL A   1      38.328  30.100  28.790  1.00  0.00    -0.354 N 
ATOM     41  C   UNL A   1      35.268  32.870  29.974  1.00  0.00     0.074 A 
ATOM     42  C   UNL A   1      34.095  32.740  29.138  1.00  0.00     0.031 C 
ATOM     43  C   UNL A   1      39.213  28.367  27.692  1.00  0.00     0.029 A 
ATOM     44  C   UNL A   1      39.501  29.391  28.694  1.00  0.00     0.049 A 
ATOM     45  H   UNL A   1      38.216  30.877  29.384  1.00  0.00     0.167 HD
ATOM     46  C   UNL A   1      35.375  33.756  30.992  1.00  0.00     0.037 A 
ATOM     47  C   UNL A   1      40.667  29.538  29.354  1.00  0.00     0.037 A 
ATOM     48  C   UNL A   1      36.541  33.916  31.816  1.00  0.00     0.049 A 
ATOM     49  C   UNL A   1      40.785  30.577  30.440  1.00  0.00     0.074 A 
ATOM     50  C   UNL A   1      36.738  34.788  32.873  1.00  0.00     0.029 A 
ATOM     51  N   UNL A   1      37.715  33.196  31.667  1.00  0.00    -0.354 N 
ATOM     52  N   UNL A   1      39.881  31.409  30.894  1.00  0.00    -0.248 NA
ATOM     53  C   UNL A   1      42.084  30.675  31.123  1.00  0.00     0.031 C 
ATOM     54  C   UNL A   1      38.047  34.620  33.340  1.00  0.00     0.029 A 
ATOM     55  C   UNL A   1      38.649  33.616  32.599  1.00  0.00     0.049 A 
ATOM     56  H   UNL A   1      37.863  32.489  30.997  1.00  0.00     0.167 HD
ATOM     57  C   UNL A   1      40.488  32.101  31.937  1.00  0.00     0.074 A 
ATOM     58  C   UNL A   1      41.833  31.579  32.059  1.00  0.00     0.031 C 
ATOM     59  C   UNL A   1      39.978  33.080  32.724  1.00  0.00     0.037 A 
BRANCH  46  60
ATOM     60  C   UNL A   1      34.176  34.608  31.274  1.00  0.00     0.057 A 
ATOM     61  C   UNL A   1      33.412  34.425  32.437  1.00  0.00     0.134 A 
ATOM     62  C   UNL A   1      33.783  35.622  30.394  1.00  0.00     0.134 A 
ATOM     63  F   UNL A   1      33.729  33.457  33.311  1.00  0.00    -0.206 F 
ATOM     64  C   UNL A   1      32.286  35.204  32.700  1.00  0.00     0.040 A 
ATOM     65  C   UNL A   1      32.672  36.423  30.657  1.00  0.00     0.040 A 
ATOM     66  F   UNL A   1      34.473  35.849  29.266  1.00  0.00    -0.206 F 
ATOM     67  C   UNL A   1      31.916  36.210  31.810  1.00  0.00     0.006 A 
ENDBRANCH  46  60
BRANCH  47  68
ATOM     68  C   UNL A   1      41.829  28.667  29.038  1.00  0.00     0.057 A 
ATOM     69  C   UNL A   1      42.608  28.879  27.894  1.00  0.00     0.134 A 
ATOM     70  C   UNL A   1      42.132  27.553  29.828  1.00  0.00     0.134 A 
ATOM     71  F   UNL A   1      42.348  29.914  27.082  1.00  0.00    -0.206 F 
ATOM     72  C   UNL A   1      43.625  27.995  27.528  1.00  0.00     0.040 A 
ATOM     73  C   UNL A   1      43.162  26.675  29.487  1.00  0.00     0.040 A 
ATOM     74  F   UNL A   1      41.421  27.294  30.935  1.00  0.00    -0.206 F 
ATOM     75  C   UNL A   1      43.903  26.887  28.326  1.00  0.00     0.006 A 
ENDBRANCH  47  68
BRANCH  59  76
ATOM     76  C   UNL A   1      40.861  33.626  33.808  1.00  0.00     0.057 A 
ATOM     77  C   UNL A   1      40.852  33.100  35.106  1.00  0.00     0.134 A 
ATOM     78  C   UNL A   1      41.756  34.670  33.540  1.00  0.00     0.134 A 
ATOM     79  F   UNL A   1      40.009  32.108  35.431  1.00  0.00    -0.206 F 
ATOM     80  C   UNL A   1      41.683  33.610  36.106  1.00  0.00     0.040 A 
ATOM     81  C   UNL A   1      42.610  35.169  34.524  1.00  0.00     0.040 A 
ATOM     82  F   UNL A   1      41.823  35.214  32.315  1.00  0.00    -0.206 F 
ATOM     83  C   UNL A   1      42.570  34.643  35.813  1.00  0.00     0.006 A 
ENDBRANCH  59  76
ENDBRANCH  33  34
ENDBRANCH  26  28
ENDBRANCH  25  26
ENDBRANCH  24  25
ENDBRANCH   1  24
TORSDOF 14
ENDMDL
MODEL 3
REMARK VINA RESULT:     -11.7      3.822      9.152
REMARK SMILES O=C(OCCOC(=O)c1ccc(-c2c3nc(c(-c4c(F)cccc4F)c4ccc([nH]4)c(-c4c(F)cccc4F)c4nc(c(-c5c(F)cccc5F)c5ccc2[nH]5)C=C4)C=C3)cc1)C1=Cc2cc(OC(F)(F)F)ccc2O[C@@H]1C(F)(F)F
REMARK SMILES IDX 4 1 3 2 2 3 1 4 63 5 64 6 77 7 65 8 76 9 66 10 75 11 67 12
REMARK SMILES IDX 74 13 73 14 78 15 79 16 80 17 81 18 68 19 69 20 70 21 71 22
REMARK SMILES IDX 72 23 5 24 6 25 7 26 8 27 9 28 10 29 62 30 11 31 61 32 12 33
REMARK SMILES IDX 13 34 14 35 55 36 15 37 60 38 54 39 56 40 16 41 59 42 53 43
REMARK SMILES IDX 52 44 17 46 43 47 26 48 42 49 27 50 30 51 41 52 57 53 28 54
REMARK SMILES IDX 29 55 40 57 58 58 31 59 18 60 19 61 24 62 20 63 21 64 23 65
REMARK SMILES IDX 25 66 22 67 44 68 45 69 50 70 46 71 47 72 49 73 51 74 48 75
REMARK SMILES IDX 32 76 33 77 38 78 34 79 35 80 37 81 39 82 36 83
REMARK H PARENT 56 45 30 56
REMARK Flexibility Score: inf
ROOT
ATOM      1  C   UNL A   1      31.047  30.821  25.455  1.00  0.00     0.275 C 
ENDROOT
BRANCH   1   2
ATOM      2  O   UNL A   1      32.134  29.872  25.446  1.00  0.00    -0.459 OA
BRANCH   2   3
ATOM      3  C   UNL A   1      31.845  28.654  25.971  1.00  0.00     0.338 C 
ATOM      4  O   UNL A   1      31.865  28.416  27.169  1.00  0.00    -0.246 OA
BRANCH   3   5
ATOM      5  C   UNL A   1      31.512  27.639  24.918  1.00  0.00     0.087 C 
ATOM      6  C   UNL A   1      32.639  27.113  24.405  1.00  0.00     0.027 C 
ATOM      7  C   UNL A   1      30.392  26.687  25.249  1.00  0.00     0.316 C 
ATOM      8  C   UNL A   1      32.987  25.773  24.869  1.00  0.00     0.021 A 
ATOM      9  O   UNL A   1      30.837  25.520  25.980  1.00  0.00    -0.475 OA
ATOM     10  C   UNL A   1      34.254  25.244  24.619  1.00  0.00     0.058 A 
ATOM     11  C   UNL A   1      32.111  25.095  25.720  1.00  0.00     0.128 A 
ATOM     12  C   UNL A   1      34.684  24.090  25.286  1.00  0.00     0.130 A 
ATOM     13  C   UNL A   1      32.545  23.973  26.417  1.00  0.00     0.051 A 
ATOM     14  C   UNL A   1      33.840  23.486  26.220  1.00  0.00     0.050 A 
BRANCH   7  15
ATOM     15  C   UNL A   1      29.565  26.320  24.008  1.00  0.00     0.430 C 
ATOM     16  F   UNL A   1      29.731  27.255  23.038  1.00  0.00    -0.167 F 
ATOM     17  F   UNL A   1      29.907  25.127  23.476  1.00  0.00    -0.167 F 
ATOM     18  F   UNL A   1      28.242  26.277  24.291  1.00  0.00    -0.167 F 
ENDBRANCH   7  15
BRANCH  12  19
ATOM     19  O   UNL A   1      35.934  23.674  24.931  1.00  0.00    -0.406 OA
BRANCH  19  20
ATOM     20  C   UNL A   1      36.051  22.573  24.048  1.00  0.00     0.573 C 
ATOM     21  F   UNL A   1      35.701  21.427  24.670  1.00  0.00    -0.132 F 
ATOM     22  F   UNL A   1      35.294  22.735  22.940  1.00  0.00    -0.132 F 
ATOM     23  F   UNL A   1      37.339  22.468  23.656  1.00  0.00    -0.132 F 
ENDBRANCH  19  20
ENDBRANCH  12  19
ENDBRANCH   3   5
ENDBRANCH   2   3
ENDBRANCH   1   2
BRANCH   1  24
ATOM     24  C   UNL A   1      31.335  32.011  26.396  1.00  0.00     0.275 C 
BRANCH  24  25
ATOM     25  O   UNL A   1      32.418  31.738  27.302  1.00  0.00    -0.458 OA
BRANCH  25  26
ATOM     26  C   UNL A   1      33.128  32.842  27.659  1.00  0.00     0.338 C 
ATOM     27  O   UNL A   1      32.701  33.969  27.769  1.00  0.00    -0.246 OA
BRANCH  26  28
ATOM     28  C   UNL A   1      34.473  32.420  28.133  1.00  0.00     0.060 A 
ATOM     29  C   UNL A   1      34.631  31.069  28.458  1.00  0.00     0.016 A 
ATOM     30  C   UNL A   1      35.572  33.285  28.196  1.00  0.00     0.016 A 
ATOM     31  C   UNL A   1      35.869  30.590  28.886  1.00  0.00     0.010 A 
ATOM     32  C   UNL A   1      36.823  32.795  28.602  1.00  0.00     0.010 A 
ATOM     33  C   UNL A   1      36.970  31.451  28.985  1.00  0.00    -0.014 A 
BRANCH  33  34
ATOM     34  C   UNL A   1      38.210  30.949  29.638  1.00  0.00     0.031 A 
ATOM     35  C   UNL A   1      38.499  31.353  31.058  1.00  0.00     0.074 A 
ATOM     36  C   UNL A   1      39.017  30.063  29.024  1.00  0.00     0.049 A 
ATOM     37  N   UNL A   1      39.396  30.882  31.888  1.00  0.00    -0.248 NA
ATOM     38  C   UNL A   1      37.662  32.423  31.623  1.00  0.00     0.031 C 
ATOM     39  C   UNL A   1      38.871  29.589  27.650  1.00  0.00     0.029 A 
ATOM     40  N   UNL A   1      40.119  29.389  29.495  1.00  0.00    -0.354 N 
ATOM     41  C   UNL A   1      39.200  31.564  33.081  1.00  0.00     0.074 A 
ATOM     42  C   UNL A   1      38.156  32.537  32.847  1.00  0.00     0.031 C 
ATOM     43  C   UNL A   1      39.846  28.699  27.387  1.00  0.00     0.029 A 
ATOM     44  C   UNL A   1      40.676  28.529  28.578  1.00  0.00     0.049 A 
ATOM     45  H   UNL A   1      40.476  29.511  30.404  1.00  0.00     0.167 HD
ATOM     46  C   UNL A   1      39.802  31.376  34.278  1.00  0.00     0.037 A 
ATOM     47  C   UNL A   1      41.722  27.688  28.693  1.00  0.00     0.037 A 
ATOM     48  C   UNL A   1      40.858  30.432  34.522  1.00  0.00     0.049 A 
ATOM     49  C   UNL A   1      42.422  27.543  30.020  1.00  0.00     0.074 A 
ATOM     50  C   UNL A   1      41.527  30.172  35.706  1.00  0.00     0.029 A 
ATOM     51  N   UNL A   1      41.409  29.602  33.560  1.00  0.00    -0.354 N 
ATOM     52  N   UNL A   1      42.160  28.125  31.165  1.00  0.00    -0.248 NA
ATOM     53  C   UNL A   1      43.550  26.600  30.075  1.00  0.00     0.031 C 
ATOM     54  C   UNL A   1      42.509  29.208  35.450  1.00  0.00     0.029 A 
ATOM     55  C   UNL A   1      42.423  28.842  34.117  1.00  0.00     0.049 A 
ATOM     56  H   UNL A   1      41.121  29.559  32.619  1.00  0.00     0.167 HD
ATOM     57  C   UNL A   1      43.062  27.592  32.080  1.00  0.00     0.074 A 
ATOM     58  C   UNL A   1      43.868  26.629  31.361  1.00  0.00     0.031 C 
ATOM     59  C   UNL A   1      43.209  27.874  33.398  1.00  0.00     0.037 A 
BRANCH  46  60
ATOM     60  C   UNL A   1      39.308  32.208  35.422  1.00  0.00     0.057 A 
ATOM     61  C   UNL A   1      38.372  31.703  36.336  1.00  0.00     0.134 A 
ATOM     62  C   UNL A   1      39.770  33.513  35.622  1.00  0.00     0.134 A 
ATOM     63  F   UNL A   1      37.879  30.464  36.187  1.00  0.00    -0.206 F 
ATOM     64  C   UNL A   1      37.895  32.476  37.394  1.00  0.00     0.040 A 
ATOM     65  C   UNL A   1      39.317  34.289  36.689  1.00  0.00     0.040 A 
ATOM     66  F   UNL A   1      40.667  34.054  34.783  1.00  0.00    -0.206 F 
ATOM     67  C   UNL A   1      38.372  33.772  37.576  1.00  0.00     0.006 A 
ENDBRANCH  46  60
BRANCH  47  68
ATOM     68  C   UNL A   1      42.176  26.883  27.530  1.00  0.00     0.057 A 
ATOM     69  C   UNL A   1      43.018  27.426  26.551  1.00  0.00     0.134 A 
ATOM     70  C   UNL A   1      41.709  25.580  27.327  1.00  0.00     0.134 A 
ATOM     71  F   UNL A   1      43.476  28.680  26.675  1.00  0.00    -0.206 F 
ATOM     72  C   UNL A   1      43.350  26.716  25.396  1.00  0.00     0.040 A 
ATOM     73  C   UNL A   1      42.053  24.849  26.189  1.00  0.00     0.040 A 
ATOM     74  F   UNL A   1      40.898  25.003  28.227  1.00  0.00    -0.206 F 
ATOM     75  C   UNL A   1      42.865  25.422  25.213  1.00  0.00     0.006 A 
ENDBRANCH  47  68
BRANCH  59  76
ATOM     76  C   UNL A   1      44.255  27.110  34.156  1.00  0.00     0.057 A 
ATOM     77  C   UNL A   1      43.979  25.877  34.761  1.00  0.00     0.134 A 
ATOM     78  C   UNL A   1      45.565  27.598  34.253  1.00  0.00     0.134 A 
ATOM     79  F   UNL A   1      42.742  25.360  34.714  1.00  0.00    -0.206 F 
ATOM     80  C   UNL A   1      44.961  25.169  35.457  1.00  0.00     0.040 A 
ATOM     81  C   UNL A   1      46.561  26.887  34.924  1.00  0.00     0.040 A 
ATOM     82  F   UNL A   1      45.900  28.768  33.689  1.00  0.00    -0.206 F 
ATOM     83  C   UNL A   1      46.258  25.672  35.534  1.00  0.00     0.006 A 
ENDBRANCH  59  76
ENDBRANCH  33  34
ENDBRANCH  26  28
ENDBRANCH  25  26
ENDBRANCH  24  25
ENDBRANCH   1  24
TORSDOF 14
ENDMDL
