MODEL 1
REMARK VINA RESULT:     -11.8      0.000      0.000
REMARK SMILES C[NH2+][C@]1(C(=O)OCCOC(=O)c2ccc(-c3c4nc(c(-c5c(F)cccc5F)c5ccc([nH]5)c(-c5c(F)cccc5F)c5nc(c(-c6c(F)cccc6F)c6ccc3[nH]6)C=C5)C=C4)cc2)CCC[C@H]1CCOC1C[C@@H](C)C[C@H](C)C1
REMARK SMILES IDX 7 1 6 2 4 3 5 4 3 5 66 6 69 7 67 8 68 9 2 10 1 11 70 14
REMARK SMILES IDX 71 15 72 16 73 17 74 18 80 19 75 20 78 21 76 22 77 23 79 24
REMARK SMILES IDX 8 25 9 26 10 27 11 28 12 29 13 30 65 31 14 32 64 33 15 34
REMARK SMILES IDX 16 35 17 36 58 37 18 38 63 39 57 40 59 41 19 42 62 43 56 44
REMARK SMILES IDX 55 45 20 47 46 48 29 49 45 50 30 51 33 52 44 53 60 54 31 55
REMARK SMILES IDX 32 56 43 58 61 59 34 60 21 61 22 62 27 63 23 64 24 65 26 66
REMARK SMILES IDX 28 67 25 68 47 69 48 70 53 71 49 72 50 73 52 74 54 75 51 76
REMARK SMILES IDX 35 77 36 78 41 79 37 80 38 81 40 82 42 83 39 84
REMARK H PARENT 2 12 2 13 59 46 33 57
REMARK Flexibility Score: inf
ROOT
ATOM      1  C   UNL A   1      33.340  30.670  27.093  1.00  0.00     0.274 C 
ENDROOT
BRANCH   1   2
ATOM      2  O   UNL A   1      32.555  30.451  25.873  1.00  0.00    -0.457 OA
BRANCH   2   3
ATOM      3  C   UNL A   1      32.066  29.206  25.698  1.00  0.00     0.368 C 
ATOM      4  O   UNL A   1      31.574  28.590  26.632  1.00  0.00    -0.245 OA
BRANCH   3   5
ATOM      5  C   UNL A   1      32.236  28.475  24.313  1.00  0.00     0.197 C 
ATOM      6  C   UNL A   1      33.733  28.570  23.961  1.00  0.00     0.081 C 
ATOM      7  C   UNL A   1      31.679  26.797  23.759  1.00  0.00     0.065 C 
ATOM      8  C   UNL A   1      33.850  28.005  22.584  1.00  0.00     0.008 C 
ATOM      9  C   UNL A   1      32.762  26.940  22.429  1.00  0.00     0.011 C 
BRANCH   5  10
ATOM     10  N   UNL A   1      31.465  29.388  23.310  1.00  0.00    -0.334 N 
ATOM     11  C   UNL A   1      30.061  29.695  23.610  1.00  0.00     0.331 C 
ATOM     12  H   UNL A   1      31.966  30.275  23.257  1.00  0.00     0.347 HD
ATOM     13  H   UNL A   1      31.433  28.851  22.442  1.00  0.00     0.347 HD
ENDBRANCH   5  10
BRANCH   7  14
ATOM     14  C   UNL A   1      30.862  25.056  24.646  1.00  0.00     0.039 C 
BRANCH  14  15
ATOM     15  C   UNL A   1      31.002  23.431  24.243  1.00  0.00     0.161 C 
BRANCH  15  16
ATOM     16  O   UNL A   1      32.017  22.884  25.019  1.00  0.00    -0.378 OA
BRANCH  16  17
ATOM     17  C   UNL A   1      32.801  22.428  23.944  1.00  0.00     0.118 C 
ATOM     18  C   UNL A   1      34.383  23.524  24.145  1.00  0.00     0.035 C 
ATOM     19  C   UNL A   1      32.903  20.514  24.221  1.00  0.00     0.035 C 
ATOM     20  C   UNL A   1      36.087  22.697  24.588  1.00  0.00    -0.011 C 
ATOM     21  C   UNL A   1      34.528  19.691  24.800  1.00  0.00    -0.011 C 
ATOM     22  C   UNL A   1      36.836  23.527  25.649  1.00  0.00     0.008 C 
ATOM     23  C   UNL A   1      36.117  20.792  24.994  1.00  0.00     0.006 C 
ATOM     24  C   UNL A   1      34.564  18.203  24.377  1.00  0.00     0.008 C 
ENDBRANCH  16  17
ENDBRANCH  15  16
ENDBRANCH  14  15
ENDBRANCH   7  14
ENDBRANCH   3   5
ENDBRANCH   2   3
ENDBRANCH   1   2
BRANCH   1  25
ATOM     25  C   UNL A   1      33.251  32.019  27.856  1.00  0.00     0.275 C 
BRANCH  25  26
ATOM     26  O   UNL A   1      34.549  32.512  28.283  1.00  0.00    -0.458 OA
BRANCH  26  27
ATOM     27  C   UNL A   1      34.949  32.078  29.514  1.00  0.00     0.338 C 
ATOM     28  O   UNL A   1      34.392  32.355  30.568  1.00  0.00    -0.246 OA
BRANCH  27  29
ATOM     29  C   UNL A   1      36.087  31.101  29.477  1.00  0.00     0.060 A 
ATOM     30  C   UNL A   1      36.675  30.581  30.634  1.00  0.00     0.016 A 
ATOM     31  C   UNL A   1      36.738  30.891  28.258  1.00  0.00     0.016 A 
ATOM     32  C   UNL A   1      37.984  30.083  30.600  1.00  0.00     0.010 A 
ATOM     33  C   UNL A   1      37.972  30.225  28.211  1.00  0.00     0.010 A 
ATOM     34  C   UNL A   1      38.652  29.868  29.388  1.00  0.00    -0.014 A 
BRANCH  34  35
ATOM     35  C   UNL A   1      40.038  29.296  29.312  1.00  0.00     0.031 A 
ATOM     36  C   UNL A   1      41.240  30.209  29.425  1.00  0.00     0.074 A 
ATOM     37  C   UNL A   1      40.255  27.983  29.087  1.00  0.00     0.049 A 
ATOM     38  N   UNL A   1      42.461  30.043  28.981  1.00  0.00    -0.248 NA
ATOM     39  C   UNL A   1      41.026  31.496  30.109  1.00  0.00     0.031 C 
ATOM     40  C   UNL A   1      39.235  26.934  29.041  1.00  0.00     0.029 A 
ATOM     41  N   UNL A   1      41.426  27.304  28.822  1.00  0.00    -0.354 N 
ATOM     42  C   UNL A   1      43.129  31.237  29.241  1.00  0.00     0.074 A 
ATOM     43  C   UNL A   1      42.183  32.110  29.904  1.00  0.00     0.031 C 
ATOM     44  C   UNL A   1      39.817  25.754  28.790  1.00  0.00     0.029 A 
ATOM     45  C   UNL A   1      41.226  25.979  28.510  1.00  0.00     0.049 A 
ATOM     46  H   UNL A   1      42.316  27.726  28.852  1.00  0.00     0.167 HD
ATOM     47  C   UNL A   1      44.407  31.573  28.934  1.00  0.00     0.037 A 
ATOM     48  C   UNL A   1      42.045  25.060  27.963  1.00  0.00     0.037 A 
ATOM     49  C   UNL A   1      45.358  30.663  28.345  1.00  0.00     0.049 A 
ATOM     50  C   UNL A   1      43.437  25.459  27.576  1.00  0.00     0.074 A 
ATOM     51  C   UNL A   1      46.681  30.892  28.004  1.00  0.00     0.029 A 
ATOM     52  N   UNL A   1      45.091  29.338  28.032  1.00  0.00    -0.354 N 
ATOM     53  N   UNL A   1      44.031  26.620  27.709  1.00  0.00    -0.248 NA
ATOM     54  C   UNL A   1      44.264  24.428  26.935  1.00  0.00     0.031 C 
ATOM     55  C   UNL A   1      47.202  29.717  27.450  1.00  0.00     0.029 A 
ATOM     56  C   UNL A   1      46.219  28.740  27.494  1.00  0.00     0.049 A 
ATOM     57  H   UNL A   1      44.227  28.887  28.173  1.00  0.00     0.167 HD
ATOM     58  C   UNL A   1      45.305  26.456  27.185  1.00  0.00     0.074 A 
ATOM     59  C   UNL A   1      45.404  25.078  26.747  1.00  0.00     0.031 C 
ATOM     60  C   UNL A   1      46.304  27.366  27.073  1.00  0.00     0.037 A 
BRANCH  47  61
ATOM     61  C   UNL A   1      44.844  32.993  29.175  1.00  0.00     0.057 A 
ATOM     62  C   UNL A   1      45.502  33.394  30.344  1.00  0.00     0.134 A 
ATOM     63  C   UNL A   1      44.637  33.969  28.190  1.00  0.00     0.134 A 
ATOM     64  F   UNL A   1      45.728  32.517  31.333  1.00  0.00    -0.206 F 
ATOM     65  C   UNL A   1      45.913  34.717  30.534  1.00  0.00     0.040 A 
ATOM     66  C   UNL A   1      45.069  35.287  28.356  1.00  0.00     0.040 A 
ATOM     67  F   UNL A   1      44.024  33.655  27.037  1.00  0.00    -0.206 F 
ATOM     68  C   UNL A   1      45.703  35.666  29.536  1.00  0.00     0.006 A 
ENDBRANCH  47  61
BRANCH  48  69
ATOM     69  C   UNL A   1      41.531  23.696  27.671  1.00  0.00     0.057 A 
ATOM     70  C   UNL A   1      40.662  23.465  26.600  1.00  0.00     0.134 A 
ATOM     71  C   UNL A   1      41.912  22.588  28.441  1.00  0.00     0.134 A 
ATOM     72  F   UNL A   1      40.239  24.486  25.842  1.00  0.00    -0.206 F 
ATOM     73  C   UNL A   1      40.191  22.184  26.304  1.00  0.00     0.040 A 
ATOM     74  C   UNL A   1      41.475  21.298  28.138  1.00  0.00     0.040 A 
ATOM     75  F   UNL A   1      42.744  22.740  29.483  1.00  0.00    -0.206 F 
ATOM     76  C   UNL A   1      40.607  21.095  27.068  1.00  0.00     0.006 A 
ENDBRANCH  48  69
BRANCH  60  77
ATOM     77  C   UNL A   1      47.602  26.880  26.502  1.00  0.00     0.057 A 
ATOM     78  C   UNL A   1      47.890  26.964  25.135  1.00  0.00     0.134 A 
ATOM     79  C   UNL A   1      48.583  26.333  27.340  1.00  0.00     0.134 A 
ATOM     80  F   UNL A   1      46.985  27.461  24.278  1.00  0.00    -0.206 F 
ATOM     81  C   UNL A   1      49.099  26.499  24.616  1.00  0.00     0.040 A 
ATOM     82  C   UNL A   1      49.805  25.889  26.836  1.00  0.00     0.040 A 
ATOM     83  F   UNL A   1      48.370  26.228  28.660  1.00  0.00    -0.206 F 
ATOM     84  C   UNL A   1      50.063  25.965  25.469  1.00  0.00     0.006 A 
ENDBRANCH  60  77
ENDBRANCH  34  35
ENDBRANCH  27  29
ENDBRANCH  26  27
ENDBRANCH  25  26
ENDBRANCH   1  25
TORSDOF 16
ENDMDL
MODEL 2
REMARK VINA RESULT:     -11.5      4.729      9.549
REMARK SMILES C[NH2+][C@]1(C(=O)OCCOC(=O)c2ccc(-c3c4nc(c(-c5c(F)cccc5F)c5ccc([nH]5)c(-c5c(F)cccc5F)c5nc(c(-c6c(F)cccc6F)c6ccc3[nH]6)C=C5)C=C4)cc2)CCC[C@H]1CCOC1C[C@@H](C)C[C@H](C)C1
REMARK SMILES IDX 7 1 6 2 4 3 5 4 3 5 66 6 69 7 67 8 68 9 2 10 1 11 70 14
REMARK SMILES IDX 71 15 72 16 73 17 74 18 80 19 75 20 78 21 76 22 77 23 79 24
REMARK SMILES IDX 8 25 9 26 10 27 11 28 12 29 13 30 65 31 14 32 64 33 15 34
REMARK SMILES IDX 16 35 17 36 58 37 18 38 63 39 57 40 59 41 19 42 62 43 56 44
REMARK SMILES IDX 55 45 20 47 46 48 29 49 45 50 30 51 33 52 44 53 60 54 31 55
REMARK SMILES IDX 32 56 43 58 61 59 34 60 21 61 22 62 27 63 23 64 24 65 26 66
REMARK SMILES IDX 28 67 25 68 47 69 48 70 53 71 49 72 50 73 52 74 54 75 51 76
REMARK SMILES IDX 35 77 36 78 41 79 37 80 38 81 40 82 42 83 39 84
REMARK H PARENT 2 12 2 13 59 46 33 57
REMARK Flexibility Score: inf
ROOT
ATOM      1  C   UNL A   1      36.193  23.268  25.780  1.00  0.00     0.274 C 
ENDROOT
BRANCH   1   2
ATOM      2  O   UNL A   1      35.426  22.024  25.653  1.00  0.00    -0.457 OA
BRANCH   2   3
ATOM      3  C   UNL A   1      34.334  21.918  26.436  1.00  0.00     0.368 C 
ATOM      4  O   UNL A   1      34.416  21.455  27.564  1.00  0.00    -0.245 OA
BRANCH   3   5
ATOM      5  C   UNL A   1      32.909  22.271  25.863  1.00  0.00     0.197 C 
ATOM      6  C   UNL A   1      32.191  23.068  26.970  1.00  0.00     0.081 C 
ATOM      7  C   UNL A   1      32.413  23.053  24.259  1.00  0.00     0.065 C 
ATOM      8  C   UNL A   1      30.798  23.266  26.471  1.00  0.00     0.008 C 
ATOM      9  C   UNL A   1      30.862  23.341  24.944  1.00  0.00     0.011 C 
BRANCH   5  10
ATOM     10  N   UNL A   1      32.196  20.888  25.751  1.00  0.00    -0.334 N 
ATOM     11  C   UNL A   1      32.879  19.830  24.995  1.00  0.00     0.331 C 
ATOM     12  H   UNL A   1      32.053  20.541  26.699  1.00  0.00     0.347 HD
ATOM     13  H   UNL A   1      31.345  21.077  25.221  1.00  0.00     0.347 HD
ENDBRANCH   5  10
BRANCH   7  14
ATOM     14  C   UNL A   1      33.372  24.029  22.641  1.00  0.00     0.039 C 
BRANCH  14  15
ATOM     15  C   UNL A   1      32.971  25.417  21.784  1.00  0.00     0.161 C 
BRANCH  15  16
ATOM     16  O   UNL A   1      33.374  26.515  22.537  1.00  0.00    -0.378 OA
BRANCH  16  17
ATOM     17  C   UNL A   1      32.325  26.451  23.471  1.00  0.00     0.118 C 
ATOM     18  C   UNL A   1      33.284  26.722  25.129  1.00  0.00     0.035 C 
ATOM     19  C   UNL A   1      31.066  27.785  22.848  1.00  0.00     0.035 C 
ATOM     20  C   UNL A   1      32.955  28.318  26.192  1.00  0.00    -0.011 C 
ATOM     21  C   UNL A   1      30.829  29.429  23.792  1.00  0.00    -0.011 C 
ATOM     22  C   UNL A   1      34.280  28.902  26.721  1.00  0.00     0.008 C 
ATOM     23  C   UNL A   1      31.789  29.695  25.461  1.00  0.00     0.006 C 
ATOM     24  C   UNL A   1      29.430  30.025  23.504  1.00  0.00     0.008 C 
ENDBRANCH  16  17
ENDBRANCH  15  16
ENDBRANCH  14  15
ENDBRANCH   7  14
ENDBRANCH   3   5
ENDBRANCH   2   3
ENDBRANCH   1   2
BRANCH   1  25
ATOM     25  C   UNL A   1      37.683  23.324  25.349  1.00  0.00     0.275 C 
BRANCH  25  26
ATOM     26  O   UNL A   1      38.563  22.623  26.269  1.00  0.00    -0.458 OA
BRANCH  26  27
ATOM     27  C   UNL A   1      39.754  23.246  26.508  1.00  0.00     0.338 C 
ATOM     28  O   UNL A   1      40.852  22.794  26.208  1.00  0.00    -0.246 OA
BRANCH  27  29
ATOM     29  C   UNL A   1      39.617  24.629  27.072  1.00  0.00     0.060 A 
ATOM     30  C   UNL A   1      40.315  25.726  26.559  1.00  0.00     0.016 A 
ATOM     31  C   UNL A   1      38.962  24.781  28.297  1.00  0.00     0.016 A 
ATOM     32  C   UNL A   1      40.549  26.853  27.360  1.00  0.00     0.010 A 
ATOM     33  C   UNL A   1      39.052  25.985  29.012  1.00  0.00     0.010 A 
ATOM     34  C   UNL A   1      39.903  27.021  28.590  1.00  0.00    -0.014 A 
BRANCH  34  35
ATOM     35  C   UNL A   1      40.096  28.234  29.454  1.00  0.00     0.031 A 
ATOM     36  C   UNL A   1      41.187  28.249  30.503  1.00  0.00     0.074 A 
ATOM     37  C   UNL A   1      39.284  29.309  29.364  1.00  0.00     0.049 A 
ATOM     38  N   UNL A   1      41.278  28.952  31.604  1.00  0.00    -0.248 NA
ATOM     39  C   UNL A   1      42.314  27.324  30.293  1.00  0.00     0.031 C 
ATOM     40  C   UNL A   1      38.240  29.522  28.361  1.00  0.00     0.029 A 
ATOM     41  N   UNL A   1      39.194  30.429  30.164  1.00  0.00    -0.354 N 
ATOM     42  C   UNL A   1      42.412  28.485  32.264  1.00  0.00     0.074 A 
ATOM     43  C   UNL A   1      42.990  27.455  31.426  1.00  0.00     0.031 C 
ATOM     44  C   UNL A   1      37.635  30.694  28.586  1.00  0.00     0.029 A 
ATOM     45  C   UNL A   1      38.141  31.249  29.831  1.00  0.00     0.049 A 
ATOM     46  H   UNL A   1      39.820  30.620  30.900  1.00  0.00     0.167 HD
ATOM     47  C   UNL A   1      42.909  28.872  33.466  1.00  0.00     0.037 A 
ATOM     48  C   UNL A   1      37.569  32.274  30.491  1.00  0.00     0.037 A 
ATOM     49  C   UNL A   1      42.365  29.954  34.250  1.00  0.00     0.049 A 
ATOM     50  C   UNL A   1      38.090  32.655  31.844  1.00  0.00     0.074 A 
ATOM     51  C   UNL A   1      42.795  30.440  35.474  1.00  0.00     0.029 A 
ATOM     52  N   UNL A   1      41.284  30.737  33.870  1.00  0.00    -0.354 N 
ATOM     53  N   UNL A   1      39.084  32.136  32.523  1.00  0.00    -0.248 NA
ATOM     54  C   UNL A   1      37.391  33.745  32.537  1.00  0.00     0.031 C 
ATOM     55  C   UNL A   1      41.951  31.490  35.851  1.00  0.00     0.029 A 
ATOM     56  C   UNL A   1      41.026  31.693  34.838  1.00  0.00     0.049 A 
ATOM     57  H   UNL A   1      40.775  30.629  33.033  1.00  0.00     0.167 HD
ATOM     58  C   UNL A   1      39.141  32.846  33.713  1.00  0.00     0.074 A 
ATOM     59  C   UNL A   1      38.092  33.844  33.657  1.00  0.00     0.031 C 
ATOM     60  C   UNL A   1      39.985  32.685  34.762  1.00  0.00     0.037 A 
BRANCH  47  61
ATOM     61  C   UNL A   1      44.062  28.094  34.040  1.00  0.00     0.057 A 
ATOM     62  C   UNL A   1      45.396  28.489  33.882  1.00  0.00     0.134 A 
ATOM     63  C   UNL A   1      43.821  26.944  34.808  1.00  0.00     0.134 A 
ATOM     64  F   UNL A   1      45.702  29.574  33.155  1.00  0.00    -0.206 F 
ATOM     65  C   UNL A   1      46.446  27.757  34.442  1.00  0.00     0.040 A 
ATOM     66  C   UNL A   1      44.861  26.221  35.396  1.00  0.00     0.040 A 
ATOM     67  F   UNL A   1      42.567  26.512  35.013  1.00  0.00    -0.206 F 
ATOM     68  C   UNL A   1      46.180  26.623  35.207  1.00  0.00     0.006 A 
ENDBRANCH  47  61
BRANCH  48  69
ATOM     69  C   UNL A   1      36.379  32.951  29.911  1.00  0.00     0.057 A 
ATOM     70  C   UNL A   1      35.091  32.682  30.385  1.00  0.00     0.134 A 
ATOM     71  C   UNL A   1      36.501  33.900  28.886  1.00  0.00     0.134 A 
ATOM     72  F   UNL A   1      34.904  31.765  31.345  1.00  0.00    -0.206 F 
ATOM     73  C   UNL A   1      33.970  33.328  29.861  1.00  0.00     0.040 A 
ATOM     74  C   UNL A   1      35.393  34.578  28.376  1.00  0.00     0.040 A 
ATOM     75  F   UNL A   1      37.709  34.207  28.386  1.00  0.00    -0.206 F 
ATOM     76  C   UNL A   1      34.121  34.287  28.862  1.00  0.00     0.006 A 
ENDBRANCH  48  69
BRANCH  60  77
ATOM     77  C   UNL A   1      39.837  33.643  35.905  1.00  0.00     0.057 A 
ATOM     78  C   UNL A   1      39.039  33.354  37.018  1.00  0.00     0.134 A 
ATOM     79  C   UNL A   1      40.518  34.868  35.894  1.00  0.00     0.134 A 
ATOM     80  F   UNL A   1      38.348  32.206  37.080  1.00  0.00    -0.206 F 
ATOM     81  C   UNL A   1      38.903  34.260  38.071  1.00  0.00     0.040 A 
ATOM     82  C   UNL A   1      40.410  35.770  36.953  1.00  0.00     0.040 A 
ATOM     83  F   UNL A   1      41.302  35.203  34.859  1.00  0.00    -0.206 F 
ATOM     84  C   UNL A   1      39.594  35.470  38.042  1.00  0.00     0.006 A 
ENDBRANCH  60  77
ENDBRANCH  34  35
ENDBRANCH  27  29
ENDBRANCH  26  27
ENDBRANCH  25  26
ENDBRANCH   1  25
TORSDOF 16
ENDMDL
MODEL 3
REMARK VINA RESULT:     -11.5      4.842      9.753
REMARK SMILES C[NH2+][C@]1(C(=O)OCCOC(=O)c2ccc(-c3c4nc(c(-c5c(F)cccc5F)c5ccc([nH]5)c(-c5c(F)cccc5F)c5nc(c(-c6c(F)cccc6F)c6ccc3[nH]6)C=C5)C=C4)cc2)CCC[C@H]1CCOC1C[C@@H](C)C[C@H](C)C1
REMARK SMILES IDX 7 1 6 2 4 3 5 4 3 5 66 6 69 7 67 8 68 9 2 10 1 11 70 14
REMARK SMILES IDX 71 15 72 16 73 17 74 18 80 19 75 20 78 21 76 22 77 23 79 24
REMARK SMILES IDX 8 25 9 26 10 27 11 28 12 29 13 30 65 31 14 32 64 33 15 34
REMARK SMILES IDX 16 35 17 36 58 37 18 38 63 39 57 40 59 41 19 42 62 43 56 44
REMARK SMILES IDX 55 45 20 47 46 48 29 49 45 50 30 51 33 52 44 53 60 54 31 55
REMARK SMILES IDX 32 56 43 58 61 59 34 60 21 61 22 62 27 63 23 64 24 65 26 66
REMARK SMILES IDX 28 67 25 68 47 69 48 70 53 71 49 72 50 73 52 74 54 75 51 76
REMARK SMILES IDX 35 77 36 78 41 79 37 80 38 81 40 82 42 83 39 84
REMARK H PARENT 2 12 2 13 59 46 33 57
REMARK Flexibility Score: inf
ROOT
ATOM      1  C   UNL A   1      37.759  20.897  25.058  1.00  0.00     0.274 C 
ENDROOT
BRANCH   1   2
ATOM      2  O   UNL A   1      36.466  20.939  25.750  1.00  0.00    -0.457 OA
BRANCH   2   3
ATOM      3  C   UNL A   1      35.451  21.518  25.077  1.00  0.00     0.368 C 
ATOM      4  O   UNL A   1      35.619  21.961  23.951  1.00  0.00    -0.245 OA
BRANCH   3   5
ATOM      5  C   UNL A   1      34.060  21.747  25.782  1.00  0.00     0.197 C 
ATOM      6  C   UNL A   1      34.377  22.350  27.164  1.00  0.00     0.081 C 
ATOM      7  C   UNL A   1      32.530  22.602  25.182  1.00  0.00     0.065 C 
ATOM      8  C   UNL A   1      33.063  22.423  27.871  1.00  0.00     0.008 C 
ATOM      9  C   UNL A   1      31.981  22.640  26.812  1.00  0.00     0.011 C 
BRANCH   5  10
ATOM     10  N   UNL A   1      33.518  20.303  26.019  1.00  0.00    -0.334 N 
ATOM     11  C   UNL A   1      33.254  19.472  24.838  1.00  0.00     0.331 C 
ATOM     12  H   UNL A   1      34.203  19.810  26.592  1.00  0.00     0.347 HD
ATOM     13  H   UNL A   1      32.603  20.438  26.451  1.00  0.00     0.347 HD
ENDBRANCH   5  10
BRANCH   7  14
ATOM     14  C   UNL A   1      31.970  23.825  23.545  1.00  0.00     0.039 C 
BRANCH  14  15
ATOM     15  C   UNL A   1      32.883  24.550  22.336  1.00  0.00     0.161 C 
BRANCH  15  16
ATOM     16  O   UNL A   1      33.175  25.848  22.741  1.00  0.00    -0.378 OA
BRANCH  16  17
ATOM     17  C   UNL A   1      32.101  25.970  23.641  1.00  0.00     0.118 C 
ATOM     18  C   UNL A   1      33.036  26.386  25.283  1.00  0.00     0.035 C 
ATOM     19  C   UNL A   1      30.951  27.293  22.817  1.00  0.00     0.035 C 
ATOM     20  C   UNL A   1      32.791  28.121  26.128  1.00  0.00    -0.011 C 
ATOM     21  C   UNL A   1      30.804  29.055  23.541  1.00  0.00    -0.011 C 
ATOM     22  C   UNL A   1      34.140  28.680  26.624  1.00  0.00     0.008 C 
ATOM     23  C   UNL A   1      31.739  29.467  25.194  1.00  0.00     0.006 C 
ATOM     24  C   UNL A   1      29.456  29.699  23.136  1.00  0.00     0.008 C 
ENDBRANCH  16  17
ENDBRANCH  15  16
ENDBRANCH  14  15
ENDBRANCH   7  14
ENDBRANCH   3   5
ENDBRANCH   2   3
ENDBRANCH   1   2
BRANCH   1  25
ATOM     25  C   UNL A   1      39.037  21.454  25.740  1.00  0.00     0.275 C 
BRANCH  25  26
ATOM     26  O   UNL A   1      38.905  22.846  26.135  1.00  0.00    -0.458 OA
BRANCH  26  27
ATOM     27  C   UNL A   1      40.072  23.447  26.511  1.00  0.00     0.338 C 
ATOM     28  O   UNL A   1      41.191  23.002  26.287  1.00  0.00    -0.246 OA
BRANCH  27  29
ATOM     29  C   UNL A   1      39.890  24.801  27.129  1.00  0.00     0.060 A 
ATOM     30  C   UNL A   1      40.587  25.931  26.692  1.00  0.00     0.016 A 
ATOM     31  C   UNL A   1      39.188  24.888  28.335  1.00  0.00     0.016 A 
ATOM     32  C   UNL A   1      40.771  27.024  27.549  1.00  0.00     0.010 A 
ATOM     33  C   UNL A   1      39.230  26.060  29.105  1.00  0.00     0.010 A 
ATOM     34  C   UNL A   1      40.077  27.127  28.761  1.00  0.00    -0.014 A 
BRANCH  34  35
ATOM     35  C   UNL A   1      40.217  28.303  29.684  1.00  0.00     0.031 A 
ATOM     36  C   UNL A   1      41.254  28.280  30.786  1.00  0.00     0.074 A 
ATOM     37  C   UNL A   1      39.402  29.376  29.599  1.00  0.00     0.049 A 
ATOM     38  N   UNL A   1      41.284  28.936  31.919  1.00  0.00    -0.248 NA
ATOM     39  C   UNL A   1      42.398  27.372  30.594  1.00  0.00     0.031 C 
ATOM     40  C   UNL A   1      38.408  29.625  28.554  1.00  0.00     0.029 A 
ATOM     41  N   UNL A   1      39.263  30.460  30.439  1.00  0.00    -0.354 N 
ATOM     42  C   UNL A   1      42.388  28.449  32.615  1.00  0.00     0.074 A 
ATOM     43  C   UNL A   1      43.015  27.459  31.764  1.00  0.00     0.031 C 
ATOM     44  C   UNL A   1      37.783  30.783  28.798  1.00  0.00     0.029 A 
ATOM     45  C   UNL A   1      38.222  31.287  30.089  1.00  0.00     0.049 A 
ATOM     46  H   UNL A   1      39.850  30.624  31.214  1.00  0.00     0.167 HD
ATOM     47  C   UNL A   1      42.820  28.787  33.856  1.00  0.00     0.037 A 
ATOM     48  C   UNL A   1      37.608  32.280  30.762  1.00  0.00     0.037 A 
ATOM     49  C   UNL A   1      42.229  29.831  34.656  1.00  0.00     0.049 A 
ATOM     50  C   UNL A   1      38.058  32.607  32.155  1.00  0.00     0.074 A 
ATOM     51  C   UNL A   1      42.593  30.267  35.920  1.00  0.00     0.029 A 
ATOM     52  N   UNL A   1      41.162  30.623  34.256  1.00  0.00    -0.354 N 
ATOM     53  N   UNL A   1      39.021  32.065  32.860  1.00  0.00    -0.248 NA
ATOM     54  C   UNL A   1      37.316  33.662  32.857  1.00  0.00     0.031 C 
ATOM     55  C   UNL A   1      41.722  31.295  36.298  1.00  0.00     0.029 A 
ATOM     56  C   UNL A   1      40.849  31.535  35.249  1.00  0.00     0.049 A 
ATOM     57  H   UNL A   1      40.697  30.548  33.391  1.00  0.00     0.167 HD
ATOM     58  C   UNL A   1      39.012  32.724  34.081  1.00  0.00     0.074 A 
ATOM     59  C   UNL A   1      37.959  33.716  34.014  1.00  0.00     0.031 C 
ATOM     60  C   UNL A   1      39.804  32.523  35.163  1.00  0.00     0.037 A 
BRANCH  47  61
ATOM     61  C   UNL A   1      43.949  27.992  34.454  1.00  0.00     0.057 A 
ATOM     62  C   UNL A   1      43.748  26.787  35.138  1.00  0.00     0.134 A 
ATOM     63  C   UNL A   1      45.274  28.425  34.298  1.00  0.00     0.134 A 
ATOM     64  F   UNL A   1      42.508  26.313  35.332  1.00  0.00    -0.206 F 
ATOM     65  C   UNL A   1      44.817  26.059  35.667  1.00  0.00     0.040 A 
ATOM     66  C   UNL A   1      46.353  27.692  34.797  1.00  0.00     0.040 A 
ATOM     67  F   UNL A   1      45.546  29.565  33.642  1.00  0.00    -0.206 F 
ATOM     68  C   UNL A   1      46.125  26.507  35.492  1.00  0.00     0.006 A 
ENDBRANCH  47  61
BRANCH  48  69
ATOM     69  C   UNL A   1      36.444  32.974  30.152  1.00  0.00     0.057 A 
ATOM     70  C   UNL A   1      36.618  33.941  29.156  1.00  0.00     0.134 A 
ATOM     71  C   UNL A   1      35.128  32.674  30.533  1.00  0.00     0.134 A 
ATOM     72  F   UNL A   1      37.852  34.292  28.767  1.00  0.00    -0.206 F 
ATOM     73  C   UNL A   1      35.531  34.583  28.562  1.00  0.00     0.040 A 
ATOM     74  C   UNL A   1      34.030  33.284  29.925  1.00  0.00     0.040 A 
ATOM     75  F   UNL A   1      34.890  31.756  31.482  1.00  0.00    -0.206 F 
ATOM     76  C   UNL A   1      34.231  34.246  28.938  1.00  0.00     0.006 A 
ENDBRANCH  48  69
BRANCH  60  77
ATOM     77  C   UNL A   1      39.591  33.431  36.336  1.00  0.00     0.057 A 
ATOM     78  C   UNL A   1      40.225  34.675  36.437  1.00  0.00     0.134 A 
ATOM     79  C   UNL A   1      38.725  33.058  37.372  1.00  0.00     0.134 A 
ATOM     80  F   UNL A   1      41.080  35.082  35.486  1.00  0.00    -0.206 F 
ATOM     81  C   UNL A   1      40.025  35.507  37.540  1.00  0.00     0.040 A 
ATOM     82  C   UNL A   1      38.497  33.893  38.467  1.00  0.00     0.040 A 
ATOM     83  F   UNL A   1      38.083  31.881  37.333  1.00  0.00    -0.206 F 
ATOM     84  C   UNL A   1      39.154  35.118  38.555  1.00  0.00     0.006 A 
ENDBRANCH  60  77
ENDBRANCH  34  35
ENDBRANCH  27  29
ENDBRANCH  26  27
ENDBRANCH  25  26
ENDBRANCH   1  25
TORSDOF 16
ENDMDL
