MODEL 1
REMARK VINA RESULT:     -10.2      0.000      0.000
REMARK SMILES CCCNC(=O)c1cnn([C@@H](C)C(=O)OCCOC(=O)c2ccc(-c3c4nc(c(-c5c(F)cccc5F)c5ccc([nH]5)c(-c5c(F)cccc5F)c5nc(c(-c6c(F)cccc6F)c6ccc3[nH]6)C=C5)C=C4)cc2)c1
REMARK SMILES IDX 16 1 15 2 13 3 14 4 11 5 12 6 10 7 7 8 8 9 75 10 9 11 5 12
REMARK SMILES IDX 4 13 6 15 3 16 2 17 1 18 17 19 18 20 19 21 20 22 21 23 22 24
REMARK SMILES IDX 74 25 23 26 73 27 24 28 25 29 26 30 67 31 27 32 72 33 66 34
REMARK SMILES IDX 68 35 28 36 71 37 65 38 64 39 29 41 55 42 38 43 54 44 39 45
REMARK SMILES IDX 42 46 53 47 69 48 40 49 41 50 52 52 70 53 43 54 30 55 31 56
REMARK SMILES IDX 36 57 32 58 33 59 35 60 37 61 34 62 56 63 57 64 62 65 58 66
REMARK SMILES IDX 59 67 61 68 63 69 60 70 44 71 45 72 50 73 46 74 47 75 49 76
REMARK SMILES IDX 51 77 48 78
REMARK H PARENT 4 14 68 40 42 51
REMARK Flexibility Score: inf
ROOT
ATOM      1  C   UNL A   1      33.937  34.650  29.023  1.00  0.00     0.274 C 
ENDROOT
BRANCH   1   2
ATOM      2  O   UNL A   1      32.815  34.873  29.897  1.00  0.00    -0.460 OA
BRANCH   2   3
ATOM      3  C   UNL A   1      32.949  35.848  30.833  1.00  0.00     0.330 C 
ATOM      4  O   UNL A   1      32.799  37.047  30.595  1.00  0.00    -0.250 OA
BRANCH   3   5
ATOM      5  C   UNL A   1      33.372  35.361  32.202  1.00  0.00     0.213 C 
ATOM      6  C   UNL A   1      33.497  36.527  33.169  1.00  0.00     0.046 C 
BRANCH   5   7
ATOM      7  N   UNL A   1      34.554  34.503  32.227  1.00  0.00    -0.258 N 
ATOM      8  C   UNL A   1      35.866  32.742  32.477  1.00  0.00     0.077 A 
ATOM      9  C   UNL A   1      36.584  33.944  32.300  1.00  0.00     0.149 A 
ATOM     10  C   UNL A   1      34.547  33.137  32.379  1.00  0.00     0.123 A 
ATOM     11  N   UNL A   1      35.799  35.023  32.290  1.00  0.00    -0.180 NA
BRANCH   8  12
ATOM     12  C   UNL A   1      36.342  31.391  32.672  1.00  0.00     0.254 C 
ATOM     13  N   UNL A   1      37.202  31.136  33.713  1.00  0.00    -0.352 N 
ATOM     14  H   UNL A   1      37.633  30.250  33.695  1.00  0.00     0.163 HD
ATOM     15  O   UNL A   1      35.970  30.455  31.963  1.00  0.00    -0.269 OA
BRANCH  13  16
ATOM     16  C   UNL A   1      37.569  31.985  34.834  1.00  0.00     0.116 C 
BRANCH  16  17
ATOM     17  C   UNL A   1      39.082  32.119  34.986  1.00  0.00     0.018 C 
ATOM     18  C   UNL A   1      39.744  32.660  33.728  1.00  0.00     0.006 C 
ENDBRANCH  16  17
ENDBRANCH  13  16
ENDBRANCH   8  12
ENDBRANCH   5   7
ENDBRANCH   3   5
ENDBRANCH   2   3
ENDBRANCH   1   2
BRANCH   1  19
ATOM     19  C   UNL A   1      33.708  33.478  28.073  1.00  0.00     0.275 C 
BRANCH  19  20
ATOM     20  O   UNL A   1      34.933  32.872  27.652  1.00  0.00    -0.458 OA
BRANCH  20  21
ATOM     21  C   UNL A   1      34.911  31.523  27.709  1.00  0.00     0.338 C 
ATOM     22  O   UNL A   1      34.021  30.785  27.329  1.00  0.00    -0.246 OA
BRANCH  21  23
ATOM     23  C   UNL A   1      36.027  31.003  28.486  1.00  0.00     0.060 A 
ATOM     24  C   UNL A   1      36.988  31.927  28.923  1.00  0.00     0.016 A 
ATOM     25  C   UNL A   1      36.260  29.627  28.472  1.00  0.00     0.016 A 
ATOM     26  C   UNL A   1      38.254  31.476  29.221  1.00  0.00     0.010 A 
ATOM     27  C   UNL A   1      37.528  29.183  28.747  1.00  0.00     0.010 A 
ATOM     28  C   UNL A   1      38.522  30.117  29.063  1.00  0.00    -0.014 A 
BRANCH  28  29
ATOM     29  C   UNL A   1      39.867  29.636  29.314  1.00  0.00     0.031 A 
ATOM     30  C   UNL A   1      40.211  29.511  30.757  1.00  0.00     0.074 A 
ATOM     31  C   UNL A   1      40.587  29.121  28.298  1.00  0.00     0.049 A 
ATOM     32  N   UNL A   1      41.303  29.840  31.364  1.00  0.00    -0.248 NA
ATOM     33  C   UNL A   1      39.157  29.008  31.661  1.00  0.00     0.031 C 
ATOM     34  C   UNL A   1      40.144  28.936  26.909  1.00  0.00     0.029 A 
ATOM     35  N   UNL A   1      41.795  28.497  28.320  1.00  0.00    -0.354 N 
ATOM     36  C   UNL A   1      41.142  29.415  32.682  1.00  0.00     0.074 A 
ATOM     37  C   UNL A   1      39.764  29.050  32.843  1.00  0.00     0.031 C 
ATOM     38  C   UNL A   1      40.954  28.040  26.305  1.00  0.00     0.029 A 
ATOM     39  C   UNL A   1      42.013  27.669  27.227  1.00  0.00     0.049 A 
ATOM     40  H   UNL A   1      42.452  28.620  29.043  1.00  0.00     0.167 HD
ATOM     41  C   UNL A   1      42.209  29.144  33.477  1.00  0.00     0.037 A 
ATOM     42  C   UNL A   1      42.928  26.674  27.133  1.00  0.00     0.037 A 
ATOM     43  C   UNL A   1      43.376  29.870  33.057  1.00  0.00     0.049 A 
ATOM     44  C   UNL A   1      43.900  26.841  28.242  1.00  0.00     0.074 A 
ATOM     45  C   UNL A   1      43.661  31.211  32.872  1.00  0.00     0.029 A 
ATOM     46  N   UNL A   1      44.383  29.187  32.425  1.00  0.00    -0.354 N 
ATOM     47  N   UNL A   1      44.786  27.792  28.316  1.00  0.00    -0.248 NA
ATOM     48  C   UNL A   1      43.611  26.161  29.496  1.00  0.00     0.031 C 
ATOM     49  C   UNL A   1      44.536  31.252  31.749  1.00  0.00     0.029 A 
ATOM     50  C   UNL A   1      44.761  29.937  31.344  1.00  0.00     0.049 A 
ATOM     51  H   UNL A   1      44.763  28.320  32.698  1.00  0.00     0.167 HD
ATOM     52  C   UNL A   1      44.846  28.113  29.665  1.00  0.00     0.074 A 
ATOM     53  C   UNL A   1      44.189  27.007  30.352  1.00  0.00     0.031 C 
ATOM     54  C   UNL A   1      45.166  29.375  30.077  1.00  0.00     0.037 A 
BRANCH  41  55
ATOM     55  C   UNL A   1      42.267  27.933  34.378  1.00  0.00     0.057 A 
ATOM     56  C   UNL A   1      41.942  28.074  35.737  1.00  0.00     0.134 A 
ATOM     57  C   UNL A   1      42.906  26.719  34.039  1.00  0.00     0.134 A 
ATOM     58  F   UNL A   1      41.345  29.186  36.189  1.00  0.00    -0.206 F 
ATOM     59  C   UNL A   1      42.302  27.120  36.697  1.00  0.00     0.040 A 
ATOM     60  C   UNL A   1      43.221  25.737  34.982  1.00  0.00     0.040 A 
ATOM     61  F   UNL A   1      43.352  26.454  32.805  1.00  0.00    -0.206 F 
ATOM     62  C   UNL A   1      42.952  25.951  36.322  1.00  0.00     0.006 A 
ENDBRANCH  41  55
BRANCH  42  63
ATOM     63  C   UNL A   1      42.860  25.427  26.334  1.00  0.00     0.057 A 
ATOM     64  C   UNL A   1      43.806  25.159  25.336  1.00  0.00     0.134 A 
ATOM     65  C   UNL A   1      42.015  24.359  26.684  1.00  0.00     0.134 A 
ATOM     66  F   UNL A   1      44.688  26.097  24.964  1.00  0.00    -0.206 F 
ATOM     67  C   UNL A   1      43.912  23.901  24.727  1.00  0.00     0.040 A 
ATOM     68  C   UNL A   1      42.098  23.104  26.072  1.00  0.00     0.040 A 
ATOM     69  F   UNL A   1      41.134  24.467  27.689  1.00  0.00    -0.206 F 
ATOM     70  C   UNL A   1      43.059  22.867  25.099  1.00  0.00     0.006 A 
ENDBRANCH  42  63
BRANCH  54  71
ATOM     71  C   UNL A   1      45.721  30.330  29.059  1.00  0.00     0.057 A 
ATOM     72  C   UNL A   1      47.082  30.423  28.734  1.00  0.00     0.134 A 
ATOM     73  C   UNL A   1      44.830  31.070  28.274  1.00  0.00     0.134 A 
ATOM     74  F   UNL A   1      47.998  29.670  29.356  1.00  0.00    -0.206 F 
ATOM     75  C   UNL A   1      47.539  31.257  27.710  1.00  0.00     0.040 A 
ATOM     76  C   UNL A   1      45.271  31.879  27.225  1.00  0.00     0.040 A 
ATOM     77  F   UNL A   1      43.507  30.983  28.486  1.00  0.00    -0.206 F 
ATOM     78  C   UNL A   1      46.631  31.984  26.947  1.00  0.00     0.006 A 
ENDBRANCH  54  71
ENDBRANCH  28  29
ENDBRANCH  21  23
ENDBRANCH  20  21
ENDBRANCH  19  20
ENDBRANCH   1  19
TORSDOF 15
ENDMDL
MODEL 2
REMARK VINA RESULT:      -9.9      2.444      3.435
REMARK SMILES CCCNC(=O)c1cnn([C@@H](C)C(=O)OCCOC(=O)c2ccc(-c3c4nc(c(-c5c(F)cccc5F)c5ccc([nH]5)c(-c5c(F)cccc5F)c5nc(c(-c6c(F)cccc6F)c6ccc3[nH]6)C=C5)C=C4)cc2)c1
REMARK SMILES IDX 16 1 15 2 13 3 14 4 11 5 12 6 10 7 7 8 8 9 75 10 9 11 5 12
REMARK SMILES IDX 4 13 6 15 3 16 2 17 1 18 17 19 18 20 19 21 20 22 21 23 22 24
REMARK SMILES IDX 74 25 23 26 73 27 24 28 25 29 26 30 67 31 27 32 72 33 66 34
REMARK SMILES IDX 68 35 28 36 71 37 65 38 64 39 29 41 55 42 38 43 54 44 39 45
REMARK SMILES IDX 42 46 53 47 69 48 40 49 41 50 52 52 70 53 43 54 30 55 31 56
REMARK SMILES IDX 36 57 32 58 33 59 35 60 37 61 34 62 56 63 57 64 62 65 58 66
REMARK SMILES IDX 59 67 61 68 63 69 60 70 44 71 45 72 50 73 46 74 47 75 49 76
REMARK SMILES IDX 51 77 48 78
REMARK H PARENT 4 14 68 40 42 51
REMARK Flexibility Score: inf
ROOT
ATOM      1  C   UNL A   1      35.198  33.510  28.020  1.00  0.00     0.274 C 
ENDROOT
BRANCH   1   2
ATOM      2  O   UNL A   1      34.769  34.700  28.706  1.00  0.00    -0.460 OA
BRANCH   2   3
ATOM      3  C   UNL A   1      33.475  34.739  29.121  1.00  0.00     0.330 C 
ATOM      4  O   UNL A   1      32.514  34.592  28.366  1.00  0.00    -0.250 OA
BRANCH   3   5
ATOM      5  C   UNL A   1      33.289  35.049  30.590  1.00  0.00     0.213 C 
ATOM      6  C   UNL A   1      33.285  36.552  30.822  1.00  0.00     0.046 C 
BRANCH   5   7
ATOM      7  N   UNL A   1      34.200  34.360  31.500  1.00  0.00    -0.258 N 
ATOM      8  C   UNL A   1      35.943  33.904  32.780  1.00  0.00     0.077 A 
ATOM      9  C   UNL A   1      35.119  32.781  32.550  1.00  0.00     0.149 A 
ATOM     10  C   UNL A   1      35.290  34.924  32.118  1.00  0.00     0.123 A 
ATOM     11  N   UNL A   1      34.148  33.021  31.668  1.00  0.00    -0.180 NA
BRANCH   8  12
ATOM     12  C   UNL A   1      37.161  34.025  33.549  1.00  0.00     0.254 C 
ATOM     13  N   UNL A   1      38.334  33.550  33.012  1.00  0.00    -0.352 N 
ATOM     14  H   UNL A   1      39.092  33.494  33.638  1.00  0.00     0.163 HD
ATOM     15  O   UNL A   1      37.191  34.576  34.649  1.00  0.00    -0.269 OA
BRANCH  13  16
ATOM     16  C   UNL A   1      38.616  33.118  31.652  1.00  0.00     0.116 C 
BRANCH  16  17
ATOM     17  C   UNL A   1      39.075  31.664  31.593  1.00  0.00     0.018 C 
ATOM     18  C   UNL A   1      40.183  31.448  30.573  1.00  0.00     0.006 C 
ENDBRANCH  16  17
ENDBRANCH  13  16
ENDBRANCH   8  12
ENDBRANCH   5   7
ENDBRANCH   3   5
ENDBRANCH   2   3
ENDBRANCH   1   2
BRANCH   1  19
ATOM     19  C   UNL A   1      36.428  32.879  28.666  1.00  0.00     0.275 C 
BRANCH  19  20
ATOM     20  O   UNL A   1      36.770  31.623  28.073  1.00  0.00    -0.458 OA
BRANCH  20  21
ATOM     21  C   UNL A   1      36.620  30.576  28.911  1.00  0.00     0.338 C 
ATOM     22  O   UNL A   1      35.887  30.509  29.880  1.00  0.00    -0.246 OA
BRANCH  21  23
ATOM     23  C   UNL A   1      37.611  29.541  28.655  1.00  0.00     0.060 A 
ATOM     24  C   UNL A   1      37.796  28.571  29.651  1.00  0.00     0.016 A 
ATOM     25  C   UNL A   1      38.534  29.747  27.628  1.00  0.00     0.016 A 
ATOM     26  C   UNL A   1      38.991  27.887  29.699  1.00  0.00     0.010 A 
ATOM     27  C   UNL A   1      39.732  29.083  27.691  1.00  0.00     0.010 A 
ATOM     28  C   UNL A   1      39.966  28.204  28.756  1.00  0.00    -0.014 A 
BRANCH  28  29
ATOM     29  C   UNL A   1      41.252  27.537  28.830  1.00  0.00     0.031 A 
ATOM     30  C   UNL A   1      42.016  27.821  30.075  1.00  0.00     0.074 A 
ATOM     31  C   UNL A   1      41.545  26.563  27.946  1.00  0.00     0.049 A 
ATOM     32  N   UNL A   1      43.276  28.072  30.217  1.00  0.00    -0.248 NA
ATOM     33  C   UNL A   1      41.249  27.904  31.334  1.00  0.00     0.031 C 
ATOM     34  C   UNL A   1      40.667  26.035  26.893  1.00  0.00     0.029 A 
ATOM     35  N   UNL A   1      42.612  25.720  27.906  1.00  0.00    -0.354 N 
ATOM     36  C   UNL A   1      43.489  28.158  31.592  1.00  0.00     0.074 A 
ATOM     37  C   UNL A   1      42.199  28.195  32.218  1.00  0.00     0.031 C 
ATOM     38  C   UNL A   1      41.128  24.828  26.499  1.00  0.00     0.029 A 
ATOM     39  C   UNL A   1      42.370  24.550  27.198  1.00  0.00     0.049 A 
ATOM     40  H   UNL A   1      43.474  25.921  28.338  1.00  0.00     0.167 HD
ATOM     41  C   UNL A   1      44.711  27.928  32.138  1.00  0.00     0.037 A 
ATOM     42  C   UNL A   1      43.079  23.398  27.271  1.00  0.00     0.037 A 
ATOM     43  C   UNL A   1      45.765  28.184  31.194  1.00  0.00     0.049 A 
ATOM     44  C   UNL A   1      44.365  23.694  27.951  1.00  0.00     0.074 A 
ATOM     45  C   UNL A   1      46.139  29.282  30.443  1.00  0.00     0.029 A 
ATOM     46  N   UNL A   1      46.429  27.116  30.646  1.00  0.00    -0.354 N 
ATOM     47  N   UNL A   1      45.338  24.385  27.430  1.00  0.00    -0.248 NA
ATOM     48  C   UNL A   1      44.406  23.555  29.399  1.00  0.00     0.031 C 
ATOM     49  C   UNL A   1      46.612  28.746  29.211  1.00  0.00     0.029 A 
ATOM     50  C   UNL A   1      46.535  27.357  29.302  1.00  0.00     0.049 A 
ATOM     51  H   UNL A   1      46.767  26.327  31.128  1.00  0.00     0.167 HD
ATOM     52  C   UNL A   1      45.861  25.112  28.490  1.00  0.00     0.074 A 
ATOM     53  C   UNL A   1      45.324  24.479  29.690  1.00  0.00     0.031 C 
ATOM     54  C   UNL A   1      46.446  26.329  28.292  1.00  0.00     0.037 A 
BRANCH  41  55
ATOM     55  C   UNL A   1      44.902  27.105  33.390  1.00  0.00     0.057 A 
ATOM     56  C   UNL A   1      45.676  27.626  34.440  1.00  0.00     0.134 A 
ATOM     57  C   UNL A   1      44.614  25.725  33.488  1.00  0.00     0.134 A 
ATOM     58  F   UNL A   1      46.029  28.919  34.458  1.00  0.00    -0.206 F 
ATOM     59  C   UNL A   1      46.195  26.820  35.461  1.00  0.00     0.040 A 
ATOM     60  C   UNL A   1      45.082  24.923  34.532  1.00  0.00     0.040 A 
ATOM     61  F   UNL A   1      43.954  25.053  32.537  1.00  0.00    -0.206 F 
ATOM     62  C   UNL A   1      45.906  25.462  35.504  1.00  0.00     0.006 A 
ENDBRANCH  41  55
BRANCH  42  63
ATOM     63  C   UNL A   1      42.611  22.008  27.057  1.00  0.00     0.057 A 
ATOM     64  C   UNL A   1      41.416  21.554  27.630  1.00  0.00     0.134 A 
ATOM     65  C   UNL A   1      43.193  21.162  26.096  1.00  0.00     0.134 A 
ATOM     66  F   UNL A   1      40.758  22.309  28.521  1.00  0.00    -0.206 F 
ATOM     67  C   UNL A   1      40.828  20.335  27.263  1.00  0.00     0.040 A 
ATOM     68  C   UNL A   1      42.627  19.935  25.734  1.00  0.00     0.040 A 
ATOM     69  F   UNL A   1      44.286  21.531  25.413  1.00  0.00    -0.206 F 
ATOM     70  C   UNL A   1      41.432  19.524  26.308  1.00  0.00     0.006 A 
ENDBRANCH  42  63
BRANCH  54  71
ATOM     71  C   UNL A   1      46.764  26.737  26.882  1.00  0.00     0.057 A 
ATOM     72  C   UNL A   1      47.940  26.377  26.209  1.00  0.00     0.134 A 
ATOM     73  C   UNL A   1      45.778  27.386  26.130  1.00  0.00     0.134 A 
ATOM     74  F   UNL A   1      48.894  25.658  26.814  1.00  0.00    -0.206 F 
ATOM     75  C   UNL A   1      48.147  26.697  24.864  1.00  0.00     0.040 A 
ATOM     76  C   UNL A   1      45.958  27.680  24.777  1.00  0.00     0.040 A 
ATOM     77  F   UNL A   1      44.600  27.706  26.690  1.00  0.00    -0.206 F 
ATOM     78  C   UNL A   1      47.150  27.345  24.142  1.00  0.00     0.006 A 
ENDBRANCH  54  71
ENDBRANCH  28  29
ENDBRANCH  21  23
ENDBRANCH  20  21
ENDBRANCH  19  20
ENDBRANCH   1  19
TORSDOF 15
ENDMDL
MODEL 3
REMARK VINA RESULT:      -9.7      5.084     10.439
REMARK SMILES CCCNC(=O)c1cnn([C@@H](C)C(=O)OCCOC(=O)c2ccc(-c3c4nc(c(-c5c(F)cccc5F)c5ccc([nH]5)c(-c5c(F)cccc5F)c5nc(c(-c6c(F)cccc6F)c6ccc3[nH]6)C=C5)C=C4)cc2)c1
REMARK SMILES IDX 16 1 15 2 13 3 14 4 11 5 12 6 10 7 7 8 8 9 75 10 9 11 5 12
REMARK SMILES IDX 4 13 6 15 3 16 2 17 1 18 17 19 18 20 19 21 20 22 21 23 22 24
REMARK SMILES IDX 74 25 23 26 73 27 24 28 25 29 26 30 67 31 27 32 72 33 66 34
REMARK SMILES IDX 68 35 28 36 71 37 65 38 64 39 29 41 55 42 38 43 54 44 39 45
REMARK SMILES IDX 42 46 53 47 69 48 40 49 41 50 52 52 70 53 43 54 30 55 31 56
REMARK SMILES IDX 36 57 32 58 33 59 35 60 37 61 34 62 56 63 57 64 62 65 58 66
REMARK SMILES IDX 59 67 61 68 63 69 60 70 44 71 45 72 50 73 46 74 47 75 49 76
REMARK SMILES IDX 51 77 48 78
REMARK H PARENT 4 14 68 40 42 51
REMARK Flexibility Score: inf
ROOT
ATOM      1  C   UNL A   1      37.788  22.875  25.656  1.00  0.00     0.274 C 
ENDROOT
BRANCH   1   2
ATOM      2  O   UNL A   1      36.547  22.321  26.134  1.00  0.00    -0.460 OA
BRANCH   2   3
ATOM      3  C   UNL A   1      35.495  22.335  25.274  1.00  0.00     0.330 C 
ATOM      4  O   UNL A   1      35.375  21.551  24.333  1.00  0.00    -0.250 OA
BRANCH   3   5
ATOM      5  C   UNL A   1      34.495  23.444  25.514  1.00  0.00     0.213 C 
ATOM      6  C   UNL A   1      33.673  23.162  26.761  1.00  0.00     0.046 C 
BRANCH   5   7
ATOM      7  N   UNL A   1      33.652  23.789  24.372  1.00  0.00    -0.258 N 
ATOM      8  C   UNL A   1      32.827  24.843  22.613  1.00  0.00     0.077 A 
ATOM      9  C   UNL A   1      31.967  23.839  23.108  1.00  0.00     0.149 A 
ATOM     10  C   UNL A   1      33.934  24.751  23.433  1.00  0.00     0.123 A 
ATOM     11  N   UNL A   1      32.399  23.300  24.250  1.00  0.00    -0.180 NA
BRANCH   8  12
ATOM     12  C   UNL A   1      32.662  25.745  21.496  1.00  0.00     0.254 C 
ATOM     13  N   UNL A   1      31.994  26.929  21.695  1.00  0.00    -0.352 N 
ATOM     14  H   UNL A   1      31.754  27.420  20.875  1.00  0.00     0.163 HD
ATOM     15  O   UNL A   1      33.135  25.507  20.385  1.00  0.00    -0.269 OA
BRANCH  13  16
ATOM     16  C   UNL A   1      31.590  27.561  22.940  1.00  0.00     0.116 C 
BRANCH  16  17
ATOM     17  C   UNL A   1      30.073  27.591  23.106  1.00  0.00     0.018 C 
ATOM     18  C   UNL A   1      29.564  26.455  23.981  1.00  0.00     0.006 C 
ENDBRANCH  16  17
ENDBRANCH  13  16
ENDBRANCH   8  12
ENDBRANCH   5   7
ENDBRANCH   3   5
ENDBRANCH   2   3
ENDBRANCH   1   2
BRANCH   1  19
ATOM     19  C   UNL A   1      38.197  24.129  26.423  1.00  0.00     0.275 C 
BRANCH  19  20
ATOM     20  O   UNL A   1      39.239  23.871  27.368  1.00  0.00    -0.458 OA
BRANCH  20  21
ATOM     21  C   UNL A   1      40.162  24.854  27.429  1.00  0.00     0.338 C 
ATOM     22  O   UNL A   1      41.351  24.763  27.191  1.00  0.00    -0.246 OA
BRANCH  21  23
ATOM     23  C   UNL A   1      39.614  26.064  28.027  1.00  0.00     0.060 A 
ATOM     24  C   UNL A   1      39.727  27.251  27.288  1.00  0.00     0.016 A 
ATOM     25  C   UNL A   1      39.321  26.054  29.391  1.00  0.00     0.016 A 
ATOM     26  C   UNL A   1      39.681  28.455  27.955  1.00  0.00     0.010 A 
ATOM     27  C   UNL A   1      39.299  27.253  30.057  1.00  0.00     0.010 A 
ATOM     28  C   UNL A   1      39.535  28.433  29.340  1.00  0.00    -0.014 A 
BRANCH  28  29
ATOM     29  C   UNL A   1      39.546  29.689  30.064  1.00  0.00     0.031 A 
ATOM     30  C   UNL A   1      40.872  30.367  30.090  1.00  0.00     0.074 A 
ATOM     31  C   UNL A   1      38.379  30.257  30.425  1.00  0.00     0.049 A 
ATOM     32  N   UNL A   1      41.464  30.958  31.075  1.00  0.00    -0.248 NA
ATOM     33  C   UNL A   1      41.681  30.316  28.855  1.00  0.00     0.031 C 
ATOM     34  C   UNL A   1      37.028  29.762  30.124  1.00  0.00     0.029 A 
ATOM     35  N   UNL A   1      38.142  31.476  30.979  1.00  0.00    -0.354 N 
ATOM     36  C   UNL A   1      42.625  31.511  30.537  1.00  0.00     0.074 A 
ATOM     37  C   UNL A   1      42.782  30.966  29.219  1.00  0.00     0.031 C 
ATOM     38  C   UNL A   1      36.146  30.773  30.273  1.00  0.00     0.029 A 
ATOM     39  C   UNL A   1      36.852  31.943  30.765  1.00  0.00     0.049 A 
ATOM     40  H   UNL A   1      38.821  31.980  31.485  1.00  0.00     0.167 HD
ATOM     41  C   UNL A   1      43.236  32.579  31.111  1.00  0.00     0.037 A 
ATOM     42  C   UNL A   1      36.425  33.225  30.876  1.00  0.00     0.037 A 
ATOM     43  C   UNL A   1      42.944  32.660  32.516  1.00  0.00     0.049 A 
ATOM     44  C   UNL A   1      37.462  33.990  31.610  1.00  0.00     0.074 A 
ATOM     45  C   UNL A   1      43.109  31.798  33.585  1.00  0.00     0.029 A 
ATOM     46  N   UNL A   1      42.078  33.630  32.953  1.00  0.00    -0.354 N 
ATOM     47  N   UNL A   1      37.727  33.856  32.878  1.00  0.00    -0.248 NA
ATOM     48  C   UNL A   1      38.503  34.636  30.822  1.00  0.00     0.031 C 
ATOM     49  C   UNL A   1      41.978  32.023  34.421  1.00  0.00     0.029 A 
ATOM     50  C   UNL A   1      41.216  33.032  33.833  1.00  0.00     0.049 A 
ATOM     51  H   UNL A   1      42.077  34.577  32.684  1.00  0.00     0.167 HD
ATOM     52  C   UNL A   1      39.104  34.003  32.969  1.00  0.00     0.074 A 
ATOM     53  C   UNL A   1      39.511  34.589  31.696  1.00  0.00     0.031 C 
ATOM     54  C   UNL A   1      39.818  33.374  33.947  1.00  0.00     0.037 A 
BRANCH  41  55
ATOM     55  C   UNL A   1      43.767  33.743  30.308  1.00  0.00     0.057 A 
ATOM     56  C   UNL A   1      45.081  34.186  30.531  1.00  0.00     0.134 A 
ATOM     57  C   UNL A   1      42.961  34.623  29.552  1.00  0.00     0.134 A 
ATOM     58  F   UNL A   1      45.943  33.449  31.246  1.00  0.00    -0.206 F 
ATOM     59  C   UNL A   1      45.531  35.443  30.109  1.00  0.00     0.040 A 
ATOM     60  C   UNL A   1      43.417  35.857  29.080  1.00  0.00     0.040 A 
ATOM     61  F   UNL A   1      41.664  34.392  29.311  1.00  0.00    -0.206 F 
ATOM     62  C   UNL A   1      44.695  36.287  29.389  1.00  0.00     0.006 A 
ENDBRANCH  41  55
BRANCH  42  63
ATOM     63  C   UNL A   1      35.324  33.899  30.148  1.00  0.00     0.057 A 
ATOM     64  C   UNL A   1      34.318  34.586  30.838  1.00  0.00     0.134 A 
ATOM     65  C   UNL A   1      35.357  34.093  28.755  1.00  0.00     0.134 A 
ATOM     66  F   UNL A   1      34.231  34.505  32.173  1.00  0.00    -0.206 F 
ATOM     67  C   UNL A   1      33.403  35.424  30.185  1.00  0.00     0.040 A 
ATOM     68  C   UNL A   1      34.440  34.912  28.088  1.00  0.00     0.040 A 
ATOM     69  F   UNL A   1      36.330  33.563  28.000  1.00  0.00    -0.206 F 
ATOM     70  C   UNL A   1      33.466  35.592  28.805  1.00  0.00     0.006 A 
ENDBRANCH  42  63
BRANCH  54  71
ATOM     71  C   UNL A   1      39.060  32.752  35.084  1.00  0.00     0.057 A 
ATOM     72  C   UNL A   1      38.715  31.394  35.145  1.00  0.00     0.134 A 
ATOM     73  C   UNL A   1      38.806  33.521  36.225  1.00  0.00     0.134 A 
ATOM     74  F   UNL A   1      39.017  30.555  34.146  1.00  0.00    -0.206 F 
ATOM     75  C   UNL A   1      38.095  30.840  36.269  1.00  0.00     0.040 A 
ATOM     76  C   UNL A   1      38.221  32.972  37.368  1.00  0.00     0.040 A 
ATOM     77  F   UNL A   1      39.167  34.814  36.265  1.00  0.00    -0.206 F 
ATOM     78  C   UNL A   1      37.853  31.630  37.389  1.00  0.00     0.006 A 
ENDBRANCH  54  71
ENDBRANCH  28  29
ENDBRANCH  21  23
ENDBRANCH  20  21
ENDBRANCH  19  20
ENDBRANCH   1  19
TORSDOF 15
ENDMDL
