MODEL 1
REMARK VINA RESULT:     -12.2      0.000      0.000
REMARK SMILES CCc1cc(OC(F)(F)F)cc2c1O[C@H](C(F)(F)F)C(C(=O)OCCOC(=O)c1ccc(-c3c4nc(c(-c5c(F)cccc5F)c5ccc([nH]5)c(-c5c(F)cccc5F)c5nc(c(-c6c(F)cccc6F)c6ccc3[nH]6)C=C5)C=C4)cc1)=C2
REMARK SMILES IDX 24 1 23 2 21 3 22 4 20 5 3 6 4 7 13 8 5 9 12 10 14 11 11 12
REMARK SMILES IDX 83 13 15 14 2 15 1 16 6 17 7 18 8 19 9 20 10 21 16 22 17 23
REMARK SMILES IDX 18 24 19 25 25 26 26 27 27 28 28 29 29 30 30 31 82 32 31 33
REMARK SMILES IDX 81 34 32 35 33 36 34 37 75 38 35 39 80 40 74 41 76 42 36 43
REMARK SMILES IDX 79 44 73 45 72 46 37 48 63 49 46 50 62 51 47 52 50 53 61 54
REMARK SMILES IDX 77 55 48 56 49 57 60 59 78 60 51 61 38 62 39 63 44 64 40 65
REMARK SMILES IDX 41 66 43 67 45 68 42 69 64 70 65 71 70 72 66 73 67 74 69 75
REMARK SMILES IDX 71 76 68 77 52 78 53 79 58 80 54 81 55 82 57 83 59 84 56 85
REMARK H PARENT 76 47 50 58
REMARK Flexibility Score: inf
ROOT
ATOM      1  C   UNL A   1      40.323  21.052  26.725  1.00  0.00     0.275 C 
ENDROOT
BRANCH   1   2
ATOM      2  O   UNL A   1      39.305  20.957  25.703  1.00  0.00    -0.459 OA
BRANCH   2   3
ATOM      3  C   UNL A   1      38.393  21.958  25.712  1.00  0.00     0.338 C 
ATOM      4  O   UNL A   1      38.590  23.107  26.062  1.00  0.00    -0.246 OA
BRANCH   3   5
ATOM      5  C   UNL A   1      37.078  21.520  25.217  1.00  0.00     0.087 C 
ATOM      6  C   UNL A   1      33.008  20.650  25.174  1.00  0.00    -0.002 A 
ATOM      7  C   UNL A   1      32.600  19.376  24.750  1.00  0.00     0.054 A 
ATOM      8  C   UNL A   1      34.380  20.904  25.243  1.00  0.00     0.131 A 
ATOM      9  C   UNL A   1      33.537  18.385  24.428  1.00  0.00     0.130 A 
ATOM     10  C   UNL A   1      35.338  19.917  24.938  1.00  0.00     0.021 A 
ATOM     11  O   UNL A   1      34.770  22.154  25.651  1.00  0.00    -0.475 OA
ATOM     12  C   UNL A   1      34.906  18.660  24.530  1.00  0.00     0.058 A 
ATOM     13  C   UNL A   1      36.761  20.219  25.134  1.00  0.00     0.027 C 
ATOM     14  C   UNL A   1      36.016  22.576  25.046  1.00  0.00     0.316 C 
BRANCH   6  15
ATOM     15  C   UNL A   1      31.977  21.680  25.581  1.00  0.00     0.036 C 
ATOM     16  C   UNL A   1      31.590  22.669  24.488  1.00  0.00     0.009 C 
ENDBRANCH   6  15
BRANCH   9  17
ATOM     17  O   UNL A   1      33.254  17.113  24.015  1.00  0.00    -0.406 OA
BRANCH  17  18
ATOM     18  C   UNL A   1      33.437  16.063  24.948  1.00  0.00     0.573 C 
ATOM     19  F   UNL A   1      33.244  16.495  26.213  1.00  0.00    -0.132 F 
ATOM     20  F   UNL A   1      32.604  15.033  24.690  1.00  0.00    -0.132 F 
ATOM     21  F   UNL A   1      34.707  15.612  24.849  1.00  0.00    -0.132 F 
ENDBRANCH  17  18
ENDBRANCH   9  17
BRANCH  14  22
ATOM     22  C   UNL A   1      35.816  23.005  23.576  1.00  0.00     0.430 C 
ATOM     23  F   UNL A   1      36.886  22.664  22.817  1.00  0.00    -0.167 F 
ATOM     24  F   UNL A   1      34.744  22.393  23.027  1.00  0.00    -0.167 F 
ATOM     25  F   UNL A   1      35.627  24.335  23.428  1.00  0.00    -0.167 F 
ENDBRANCH  14  22
ENDBRANCH   3   5
ENDBRANCH   2   3
ENDBRANCH   1   2
BRANCH   1  26
ATOM     26  C   UNL A   1      41.725  21.125  26.122  1.00  0.00     0.275 C 
BRANCH  26  27
ATOM     27  O   UNL A   1      41.889  22.346  25.376  1.00  0.00    -0.458 OA
BRANCH  27  28
ATOM     28  C   UNL A   1      42.915  23.129  25.772  1.00  0.00     0.338 C 
ATOM     29  O   UNL A   1      44.100  22.985  25.503  1.00  0.00    -0.246 OA
BRANCH  28  30
ATOM     30  C   UNL A   1      42.423  24.259  26.579  1.00  0.00     0.060 A 
ATOM     31  C   UNL A   1      42.974  25.524  26.397  1.00  0.00     0.016 A 
ATOM     32  C   UNL A   1      41.565  24.023  27.650  1.00  0.00     0.016 A 
ATOM     33  C   UNL A   1      42.792  26.512  27.363  1.00  0.00     0.010 A 
ATOM     34  C   UNL A   1      41.263  25.066  28.534  1.00  0.00     0.010 A 
ATOM     35  C   UNL A   1      41.906  26.313  28.428  1.00  0.00    -0.014 A 
BRANCH  35  36
ATOM     36  C   UNL A   1      41.650  27.390  29.429  1.00  0.00     0.031 A 
ATOM     37  C   UNL A   1      42.479  27.475  30.687  1.00  0.00     0.074 A 
ATOM     38  C   UNL A   1      40.660  28.286  29.235  1.00  0.00     0.049 A 
ATOM     39  N   UNL A   1      42.244  28.139  31.790  1.00  0.00    -0.248 NA
ATOM     40  C   UNL A   1      43.725  26.693  30.712  1.00  0.00     0.031 C 
ATOM     41  C   UNL A   1      39.809  28.375  28.046  1.00  0.00     0.029 A 
ATOM     42  N   UNL A   1      40.193  29.294  30.045  1.00  0.00    -0.354 N 
ATOM     43  C   UNL A   1      43.271  27.801  32.665  1.00  0.00     0.074 A 
ATOM     44  C   UNL A   1      44.135  26.877  31.960  1.00  0.00     0.031 C 
ATOM     45  C   UNL A   1      38.952  29.395  28.188  1.00  0.00     0.029 A 
ATOM     46  C   UNL A   1      39.109  29.959  29.521  1.00  0.00     0.049 A 
ATOM     47  H   UNL A   1      40.596  29.518  30.915  1.00  0.00     0.167 HD
ATOM     48  C   UNL A   1      43.468  28.220  33.938  1.00  0.00     0.037 A 
ATOM     49  C   UNL A   1      38.283  30.870  30.069  1.00  0.00     0.037 A 
ATOM     50  C   UNL A   1      42.641  29.191  34.609  1.00  0.00     0.049 A 
ATOM     51  C   UNL A   1      38.491  31.286  31.495  1.00  0.00     0.074 A 
ATOM     52  C   UNL A   1      42.769  29.695  35.892  1.00  0.00     0.029 A 
ATOM     53  N   UNL A   1      41.543  29.820  34.041  1.00  0.00    -0.354 N 
ATOM     54  N   UNL A   1      39.419  30.903  32.337  1.00  0.00    -0.248 NA
ATOM     55  C   UNL A   1      37.524  32.239  32.053  1.00  0.00     0.031 C 
ATOM     56  C   UNL A   1      41.727  30.601  36.114  1.00  0.00     0.029 A 
ATOM     57  C   UNL A   1      40.977  30.696  34.953  1.00  0.00     0.049 A 
ATOM     58  H   UNL A   1      41.213  29.665  33.127  1.00  0.00     0.167 HD
ATOM     59  C   UNL A   1      39.160  31.584  33.519  1.00  0.00     0.074 A 
ATOM     60  C   UNL A   1      37.995  32.411  33.281  1.00  0.00     0.031 C 
ATOM     61  C   UNL A   1      39.827  31.525  34.696  1.00  0.00     0.037 A 
BRANCH  48  62
ATOM     62  C   UNL A   1      44.600  27.606  34.712  1.00  0.00     0.057 A 
ATOM     63  C   UNL A   1      45.874  28.182  34.764  1.00  0.00     0.134 A 
ATOM     64  C   UNL A   1      44.391  26.439  35.461  1.00  0.00     0.134 A 
ATOM     65  F   UNL A   1      46.147  29.294  34.064  1.00  0.00    -0.206 F 
ATOM     66  C   UNL A   1      46.905  27.609  35.514  1.00  0.00     0.040 A 
ATOM     67  C   UNL A   1      45.405  25.872  36.235  1.00  0.00     0.040 A 
ATOM     68  F   UNL A   1      43.190  25.839  35.466  1.00  0.00    -0.206 F 
ATOM     69  C   UNL A   1      46.669  26.455  36.259  1.00  0.00     0.006 A 
ENDBRANCH  48  62
BRANCH  49  70
ATOM     70  C   UNL A   1      37.144  31.400  29.277  1.00  0.00     0.057 A 
ATOM     71  C   UNL A   1      35.988  30.639  29.075  1.00  0.00     0.134 A 
ATOM     72  C   UNL A   1      37.177  32.685  28.719  1.00  0.00     0.134 A 
ATOM     73  F   UNL A   1      35.906  29.393  29.564  1.00  0.00    -0.206 F 
ATOM     74  C   UNL A   1      34.906  31.134  28.344  1.00  0.00     0.040 A 
ATOM     75  C   UNL A   1      36.092  33.204  28.012  1.00  0.00     0.040 A 
ATOM     76  F   UNL A   1      38.254  33.467  28.880  1.00  0.00    -0.206 F 
ATOM     77  C   UNL A   1      34.954  32.425  27.819  1.00  0.00     0.006 A 
ENDBRANCH  49  70
BRANCH  61  78
ATOM     78  C   UNL A   1      39.345  32.416  35.800  1.00  0.00     0.057 A 
ATOM     79  C   UNL A   1      39.807  33.730  35.946  1.00  0.00     0.134 A 
ATOM     80  C   UNL A   1      38.377  31.963  36.706  1.00  0.00     0.134 A 
ATOM     81  F   UNL A   1      40.745  34.216  35.120  1.00  0.00    -0.206 F 
ATOM     82  C   UNL A   1      39.335  34.557  36.966  1.00  0.00     0.040 A 
ATOM     83  C   UNL A   1      37.881  32.788  37.714  1.00  0.00     0.040 A 
ATOM     84  F   UNL A   1      37.891  30.716  36.615  1.00  0.00    -0.206 F 
ATOM     85  C   UNL A   1      38.364  34.088  37.849  1.00  0.00     0.006 A 
ENDBRANCH  61  78
ENDBRANCH  35  36
ENDBRANCH  28  30
ENDBRANCH  27  28
ENDBRANCH  26  27
ENDBRANCH   1  26
TORSDOF 15
ENDMDL
MODEL 2
REMARK VINA RESULT:     -12.2      4.788      9.226
REMARK SMILES CCc1cc(OC(F)(F)F)cc2c1O[C@H](C(F)(F)F)C(C(=O)OCCOC(=O)c1ccc(-c3c4nc(c(-c5c(F)cccc5F)c5ccc([nH]5)c(-c5c(F)cccc5F)c5nc(c(-c6c(F)cccc6F)c6ccc3[nH]6)C=C5)C=C4)cc1)=C2
REMARK SMILES IDX 24 1 23 2 21 3 22 4 20 5 3 6 4 7 13 8 5 9 12 10 14 11 11 12
REMARK SMILES IDX 83 13 15 14 2 15 1 16 6 17 7 18 8 19 9 20 10 21 16 22 17 23
REMARK SMILES IDX 18 24 19 25 25 26 26 27 27 28 28 29 29 30 30 31 82 32 31 33
REMARK SMILES IDX 81 34 32 35 33 36 34 37 75 38 35 39 80 40 74 41 76 42 36 43
REMARK SMILES IDX 79 44 73 45 72 46 37 48 63 49 46 50 62 51 47 52 50 53 61 54
REMARK SMILES IDX 77 55 48 56 49 57 60 59 78 60 51 61 38 62 39 63 44 64 40 65
REMARK SMILES IDX 41 66 43 67 45 68 42 69 64 70 65 71 70 72 66 73 67 74 69 75
REMARK SMILES IDX 71 76 68 77 52 78 53 79 58 80 54 81 55 82 57 83 59 84 56 85
REMARK H PARENT 76 47 50 58
REMARK Flexibility Score: inf
ROOT
ATOM      1  C   UNL A   1      33.041  29.733  25.785  1.00  0.00     0.275 C 
ENDROOT
BRANCH   1   2
ATOM      2  O   UNL A   1      31.816  28.968  25.741  1.00  0.00    -0.459 OA
BRANCH   2   3
ATOM      3  C   UNL A   1      31.913  27.707  26.226  1.00  0.00     0.338 C 
ATOM      4  O   UNL A   1      31.358  27.274  27.218  1.00  0.00    -0.246 OA
BRANCH   3   5
ATOM      5  C   UNL A   1      32.776  26.853  25.394  1.00  0.00     0.087 C 
ATOM      6  C   UNL A   1      34.096  23.542  23.245  1.00  0.00    -0.002 A 
ATOM      7  C   UNL A   1      35.367  23.021  23.531  1.00  0.00     0.054 A 
ATOM      8  C   UNL A   1      33.643  24.613  24.019  1.00  0.00     0.131 A 
ATOM      9  C   UNL A   1      36.147  23.543  24.572  1.00  0.00     0.130 A 
ATOM     10  C   UNL A   1      34.404  25.143  25.079  1.00  0.00     0.021 A 
ATOM     11  O   UNL A   1      32.402  25.122  23.727  1.00  0.00    -0.475 OA
ATOM     12  C   UNL A   1      35.656  24.601  25.347  1.00  0.00     0.058 A 
ATOM     13  C   UNL A   1      33.822  26.197  25.918  1.00  0.00     0.027 C 
ATOM     14  C   UNL A   1      32.302  26.540  23.998  1.00  0.00     0.316 C 
BRANCH   6  15
ATOM     15  C   UNL A   1      33.246  22.916  22.160  1.00  0.00     0.036 C 
ATOM     16  C   UNL A   1      32.091  22.059  22.664  1.00  0.00     0.009 C 
ENDBRANCH   6  15
BRANCH   9  17
ATOM     17  O   UNL A   1      37.388  23.110  24.943  1.00  0.00    -0.406 OA
BRANCH  17  18
ATOM     18  C   UNL A   1      37.511  21.771  25.389  1.00  0.00     0.573 C 
ATOM     19  F   UNL A   1      37.578  20.914  24.347  1.00  0.00    -0.132 F 
ATOM     20  F   UNL A   1      38.599  21.617  26.172  1.00  0.00    -0.132 F 
ATOM     21  F   UNL A   1      36.419  21.456  26.120  1.00  0.00    -0.132 F 
ENDBRANCH  17  18
ENDBRANCH   9  17
BRANCH  14  22
ATOM     22  C   UNL A   1      33.014  27.377  22.913  1.00  0.00     0.430 C 
ATOM     23  F   UNL A   1      32.231  28.400  22.491  1.00  0.00    -0.167 F 
ATOM     24  F   UNL A   1      34.151  27.931  23.387  1.00  0.00    -0.167 F 
ATOM     25  F   UNL A   1      33.355  26.656  21.820  1.00  0.00    -0.167 F 
ENDBRANCH  14  22
ENDBRANCH   3   5
ENDBRANCH   2   3
ENDBRANCH   1   2
BRANCH   1  26
ATOM     26  C   UNL A   1      33.193  30.479  27.110  1.00  0.00     0.275 C 
BRANCH  26  27
ATOM     27  O   UNL A   1      34.139  29.806  27.962  1.00  0.00    -0.458 OA
BRANCH  27  28
ATOM     28  C   UNL A   1      35.146  30.577  28.426  1.00  0.00     0.338 C 
ATOM     29  O   UNL A   1      35.064  31.723  28.846  1.00  0.00    -0.246 OA
BRANCH  28  30
ATOM     30  C   UNL A   1      36.418  29.835  28.406  1.00  0.00     0.060 A 
ATOM     31  C   UNL A   1      36.918  29.296  29.588  1.00  0.00     0.016 A 
ATOM     32  C   UNL A   1      37.210  29.850  27.261  1.00  0.00     0.016 A 
ATOM     33  C   UNL A   1      38.254  28.910  29.671  1.00  0.00     0.010 A 
ATOM     34  C   UNL A   1      38.505  29.319  27.311  1.00  0.00     0.010 A 
ATOM     35  C   UNL A   1      39.061  28.882  28.527  1.00  0.00    -0.014 A 
BRANCH  35  36
ATOM     36  C   UNL A   1      40.473  28.404  28.592  1.00  0.00     0.031 A 
ATOM     37  C   UNL A   1      41.592  29.368  28.898  1.00  0.00     0.074 A 
ATOM     38  C   UNL A   1      40.771  27.109  28.353  1.00  0.00     0.049 A 
ATOM     39  N   UNL A   1      42.881  29.223  28.727  1.00  0.00    -0.248 NA
ATOM     40  C   UNL A   1      41.204  30.676  29.451  1.00  0.00     0.031 C 
ATOM     41  C   UNL A   1      39.801  26.041  28.101  1.00  0.00     0.029 A 
ATOM     42  N   UNL A   1      41.986  26.470  28.275  1.00  0.00    -0.354 N 
ATOM     43  C   UNL A   1      43.453  30.440  29.082  1.00  0.00     0.074 A 
ATOM     44  C   UNL A   1      42.369  31.311  29.484  1.00  0.00     0.031 C 
ATOM     45  C   UNL A   1      40.450  24.882  27.930  1.00  0.00     0.029 A 
ATOM     46  C   UNL A   1      41.883  25.140  27.941  1.00  0.00     0.049 A 
ATOM     47  H   UNL A   1      42.845  26.921  28.441  1.00  0.00     0.167 HD
ATOM     48  C   UNL A   1      44.760  30.796  29.065  1.00  0.00     0.037 A 
ATOM     49  C   UNL A   1      42.825  24.237  27.610  1.00  0.00     0.037 A 
ATOM     50  C   UNL A   1      45.838  29.903  28.726  1.00  0.00     0.049 A 
ATOM     51  C   UNL A   1      44.262  24.664  27.554  1.00  0.00     0.074 A 
ATOM     52  C   UNL A   1      47.199  30.162  28.699  1.00  0.00     0.029 A 
ATOM     53  N   UNL A   1      45.680  28.570  28.376  1.00  0.00    -0.354 N 
ATOM     54  N   UNL A   1      44.784  25.837  27.816  1.00  0.00    -0.248 NA
ATOM     55  C   UNL A   1      45.236  23.650  27.130  1.00  0.00     0.031 C 
ATOM     56  C   UNL A   1      47.860  28.997  28.296  1.00  0.00     0.029 A 
ATOM     57  C   UNL A   1      46.916  27.999  28.118  1.00  0.00     0.049 A 
ATOM     58  H   UNL A   1      44.817  28.100  28.319  1.00  0.00     0.167 HD
ATOM     59  C   UNL A   1      46.150  25.697  27.610  1.00  0.00     0.074 A 
ATOM     60  C   UNL A   1      46.376  24.323  27.211  1.00  0.00     0.031 C 
ATOM     61  C   UNL A   1      47.127  26.626  27.737  1.00  0.00     0.037 A 
BRANCH  48  62
ATOM     62  C   UNL A   1      45.103  32.223  29.385  1.00  0.00     0.057 A 
ATOM     63  C   UNL A   1      45.124  33.227  28.411  1.00  0.00     0.134 A 
ATOM     64  C   UNL A   1      45.368  32.605  30.709  1.00  0.00     0.134 A 
ATOM     65  F   UNL A   1      44.890  32.931  27.124  1.00  0.00    -0.206 F 
ATOM     66  C   UNL A   1      45.418  34.555  28.736  1.00  0.00     0.040 A 
ATOM     67  C   UNL A   1      45.636  33.932  31.050  1.00  0.00     0.040 A 
ATOM     68  F   UNL A   1      45.353  31.695  31.695  1.00  0.00    -0.206 F 
ATOM     69  C   UNL A   1      45.667  34.911  30.060  1.00  0.00     0.006 A 
ENDBRANCH  48  62
BRANCH  49  70
ATOM     70  C   UNL A   1      42.423  22.856  27.244  1.00  0.00     0.057 A 
ATOM     71  C   UNL A   1      42.087  21.917  28.226  1.00  0.00     0.134 A 
ATOM     72  C   UNL A   1      42.347  22.445  25.906  1.00  0.00     0.134 A 
ATOM     73  F   UNL A   1      42.163  22.243  29.525  1.00  0.00    -0.206 F 
ATOM     74  C   UNL A   1      41.694  20.620  27.892  1.00  0.00     0.040 A 
ATOM     75  C   UNL A   1      41.927  21.162  25.557  1.00  0.00     0.040 A 
ATOM     76  F   UNL A   1      42.652  23.298  24.918  1.00  0.00    -0.206 F 
ATOM     77  C   UNL A   1      41.603  20.243  26.553  1.00  0.00     0.006 A 
ENDBRANCH  49  70
BRANCH  61  78
ATOM     78  C   UNL A   1      48.534  26.175  27.493  1.00  0.00     0.057 A 
ATOM     79  C   UNL A   1      49.153  26.321  26.246  1.00  0.00     0.134 A 
ATOM     80  C   UNL A   1      49.292  25.619  28.533  1.00  0.00     0.134 A 
ATOM     81  F   UNL A   1      48.476  26.831  25.206  1.00  0.00    -0.206 F 
ATOM     82  C   UNL A   1      50.472  25.916  26.037  1.00  0.00     0.040 A 
ATOM     83  C   UNL A   1      50.617  25.232  28.342  1.00  0.00     0.040 A 
ATOM     84  F   UNL A   1      48.757  25.457  29.753  1.00  0.00    -0.206 F 
ATOM     85  C   UNL A   1      51.210  25.375  27.089  1.00  0.00     0.006 A 
ENDBRANCH  61  78
ENDBRANCH  35  36
ENDBRANCH  28  30
ENDBRANCH  27  28
ENDBRANCH  26  27
ENDBRANCH   1  26
TORSDOF 15
ENDMDL
MODEL 3
REMARK VINA RESULT:     -12.1      2.815      7.373
REMARK SMILES CCc1cc(OC(F)(F)F)cc2c1O[C@H](C(F)(F)F)C(C(=O)OCCOC(=O)c1ccc(-c3c4nc(c(-c5c(F)cccc5F)c5ccc([nH]5)c(-c5c(F)cccc5F)c5nc(c(-c6c(F)cccc6F)c6ccc3[nH]6)C=C5)C=C4)cc1)=C2
REMARK SMILES IDX 24 1 23 2 21 3 22 4 20 5 3 6 4 7 13 8 5 9 12 10 14 11 11 12
REMARK SMILES IDX 83 13 15 14 2 15 1 16 6 17 7 18 8 19 9 20 10 21 16 22 17 23
REMARK SMILES IDX 18 24 19 25 25 26 26 27 27 28 28 29 29 30 30 31 82 32 31 33
REMARK SMILES IDX 81 34 32 35 33 36 34 37 75 38 35 39 80 40 74 41 76 42 36 43
REMARK SMILES IDX 79 44 73 45 72 46 37 48 63 49 46 50 62 51 47 52 50 53 61 54
REMARK SMILES IDX 77 55 48 56 49 57 60 59 78 60 51 61 38 62 39 63 44 64 40 65
REMARK SMILES IDX 41 66 43 67 45 68 42 69 64 70 65 71 70 72 66 73 67 74 69 75
REMARK SMILES IDX 71 76 68 77 52 78 53 79 58 80 54 81 55 82 57 83 59 84 56 85
REMARK H PARENT 76 47 50 58
REMARK Flexibility Score: inf
ROOT
ATOM      1  C   UNL A   1      30.924  28.995  24.627  1.00  0.00     0.275 C 
ENDROOT
BRANCH   1   2
ATOM      2  O   UNL A   1      31.154  27.917  23.692  1.00  0.00    -0.459 OA
BRANCH   2   3
ATOM      3  C   UNL A   1      30.463  26.781  23.950  1.00  0.00     0.338 C 
ATOM      4  O   UNL A   1      29.256  26.645  23.886  1.00  0.00    -0.246 OA
BRANCH   3   5
ATOM      5  C   UNL A   1      31.345  25.661  24.314  1.00  0.00     0.087 C 
ATOM      6  C   UNL A   1      34.245  22.696  23.967  1.00  0.00    -0.002 A 
ATOM      7  C   UNL A   1      33.907  21.383  24.327  1.00  0.00     0.054 A 
ATOM      8  C   UNL A   1      33.242  23.666  24.029  1.00  0.00     0.131 A 
ATOM      9  C   UNL A   1      32.601  21.051  24.714  1.00  0.00     0.130 A 
ATOM     10  C   UNL A   1      31.920  23.351  24.401  1.00  0.00     0.021 A 
ATOM     11  O   UNL A   1      33.583  24.949  23.683  1.00  0.00    -0.475 OA
ATOM     12  C   UNL A   1      31.610  22.040  24.743  1.00  0.00     0.058 A 
ATOM     13  C   UNL A   1      30.894  24.398  24.342  1.00  0.00     0.027 C 
ATOM     14  C   UNL A   1      32.822  25.945  24.408  1.00  0.00     0.316 C 
BRANCH   6  15
ATOM     15  C   UNL A   1      35.644  23.014  23.487  1.00  0.00     0.036 C 
ATOM     16  C   UNL A   1      36.642  23.344  24.591  1.00  0.00     0.009 C 
ENDBRANCH   6  15
BRANCH   9  17
ATOM     17  O   UNL A   1      32.159  19.809  25.075  1.00  0.00    -0.406 OA
BRANCH  17  18
ATOM     18  C   UNL A   1      32.519  18.717  24.247  1.00  0.00     0.573 C 
ATOM     19  F   UNL A   1      32.227  18.970  22.953  1.00  0.00    -0.132 F 
ATOM     20  F   UNL A   1      33.832  18.428  24.367  1.00  0.00    -0.132 F 
ATOM     21  F   UNL A   1      31.813  17.631  24.631  1.00  0.00    -0.132 F 
ENDBRANCH  17  18
ENDBRANCH   9  17
BRANCH  14  22
ATOM     22  C   UNL A   1      33.322  26.093  25.862  1.00  0.00     0.430 C 
ATOM     23  F   UNL A   1      34.399  26.913  25.928  1.00  0.00    -0.167 F 
ATOM     24  F   UNL A   1      32.373  26.638  26.654  1.00  0.00    -0.167 F 
ATOM     25  F   UNL A   1      33.677  24.918  26.428  1.00  0.00    -0.167 F 
ENDBRANCH  14  22
ENDBRANCH   3   5
ENDBRANCH   2   3
ENDBRANCH   1   2
BRANCH   1  26
ATOM     26  C   UNL A   1      32.226  29.699  25.010  1.00  0.00     0.275 C 
BRANCH  26  27
ATOM     27  O   UNL A   1      32.364  29.758  26.442  1.00  0.00    -0.458 OA
BRANCH  27  28
ATOM     28  C   UNL A   1      32.834  30.927  26.927  1.00  0.00     0.338 C 
ATOM     29  O   UNL A   1      32.228  31.986  27.016  1.00  0.00    -0.246 OA
BRANCH  28  30
ATOM     30  C   UNL A   1      34.220  30.772  27.399  1.00  0.00     0.060 A 
ATOM     31  C   UNL A   1      34.732  29.498  27.624  1.00  0.00     0.016 A 
ATOM     32  C   UNL A   1      34.941  31.891  27.810  1.00  0.00     0.016 A 
ATOM     33  C   UNL A   1      35.884  29.331  28.390  1.00  0.00     0.010 A 
ATOM     34  C   UNL A   1      36.176  31.721  28.445  1.00  0.00     0.010 A 
ATOM     35  C   UNL A   1      36.645  30.438  28.783  1.00  0.00    -0.014 A 
BRANCH  35  36
ATOM     36  C   UNL A   1      37.917  30.267  29.543  1.00  0.00     0.031 A 
ATOM     37  C   UNL A   1      39.034  29.421  28.982  1.00  0.00     0.074 A 
ATOM     38  C   UNL A   1      38.079  30.845  30.752  1.00  0.00     0.049 A 
ATOM     39  N   UNL A   1      40.081  28.922  29.588  1.00  0.00    -0.248 NA
ATOM     40  C   UNL A   1      38.946  29.074  27.554  1.00  0.00     0.031 C 
ATOM     41  C   UNL A   1      37.120  31.739  31.406  1.00  0.00     0.029 A 
ATOM     42  N   UNL A   1      39.111  30.758  31.656  1.00  0.00    -0.354 N 
ATOM     43  C   UNL A   1      40.739  28.147  28.639  1.00  0.00     0.074 A 
ATOM     44  C   UNL A   1      39.974  28.247  27.414  1.00  0.00     0.031 C 
ATOM     45  C   UNL A   1      37.619  32.142  32.582  1.00  0.00     0.029 A 
ATOM     46  C   UNL A   1      38.876  31.447  32.822  1.00  0.00     0.049 A 
ATOM     47  H   UNL A   1      39.939  30.253  31.484  1.00  0.00     0.167 HD
ATOM     48  C   UNL A   1      41.870  27.416  28.783  1.00  0.00     0.037 A 
ATOM     49  C   UNL A   1      39.551  31.467  33.987  1.00  0.00     0.037 A 
ATOM     50  C   UNL A   1      42.661  27.376  29.986  1.00  0.00     0.049 A 
ATOM     51  C   UNL A   1      40.776  30.616  34.140  1.00  0.00     0.074 A 
ATOM     52  C   UNL A   1      43.835  26.681  30.225  1.00  0.00     0.029 A 
ATOM     53  N   UNL A   1      42.369  28.076  31.148  1.00  0.00    -0.354 N 
ATOM     54  N   UNL A   1      41.346  29.828  33.262  1.00  0.00    -0.248 NA
ATOM     55  C   UNL A   1      41.436  30.637  35.451  1.00  0.00     0.031 C 
ATOM     56  C   UNL A   1      44.233  26.931  31.543  1.00  0.00     0.029 A 
ATOM     57  C   UNL A   1      43.333  27.818  32.109  1.00  0.00     0.049 A 
ATOM     58  H   UNL A   1      41.592  28.667  31.271  1.00  0.00     0.167 HD
ATOM     59  C   UNL A   1      42.444  29.274  33.908  1.00  0.00     0.074 A 
ATOM     60  C   UNL A   1      42.465  29.826  35.247  1.00  0.00     0.031 C 
ATOM     61  C   UNL A   1      43.349  28.387  33.433  1.00  0.00     0.037 A 
BRANCH  48  62
ATOM     62  C   UNL A   1      42.309  26.567  27.624  1.00  0.00     0.057 A 
ATOM     63  C   UNL A   1      41.889  25.241  27.464  1.00  0.00     0.134 A 
ATOM     64  C   UNL A   1      43.129  27.107  26.623  1.00  0.00     0.134 A 
ATOM     65  F   UNL A   1      41.111  24.657  28.388  1.00  0.00    -0.206 F 
ATOM     66  C   UNL A   1      42.286  24.477  26.362  1.00  0.00     0.040 A 
ATOM     67  C   UNL A   1      43.510  26.363  25.505  1.00  0.00     0.040 A 
ATOM     68  F   UNL A   1      43.559  28.375  26.707  1.00  0.00    -0.206 F 
ATOM     69  C   UNL A   1      43.092  25.041  25.375  1.00  0.00     0.006 A 
ENDBRANCH  48  62
BRANCH  49  70
ATOM     70  C   UNL A   1      39.039  32.280  35.119  1.00  0.00     0.057 A 
ATOM     71  C   UNL A   1      38.247  31.708  36.120  1.00  0.00     0.134 A 
ATOM     72  C   UNL A   1      39.344  33.643  35.238  1.00  0.00     0.134 A 
ATOM     73  F   UNL A   1      37.901  30.414  36.050  1.00  0.00    -0.206 F 
ATOM     74  C   UNL A   1      37.773  32.461  37.196  1.00  0.00     0.040 A 
ATOM     75  C   UNL A   1      38.903  34.400  36.323  1.00  0.00     0.040 A 
ATOM     76  F   UNL A   1      40.103  34.251  34.315  1.00  0.00    -0.206 F 
ATOM     77  C   UNL A   1      38.110  33.809  37.304  1.00  0.00     0.006 A 
ENDBRANCH  49  70
BRANCH  61  78
ATOM     78  C   UNL A   1      44.468  27.996  34.349  1.00  0.00     0.057 A 
ATOM     79  C   UNL A   1      44.389  26.871  35.178  1.00  0.00     0.134 A 
ATOM     80  C   UNL A   1      45.657  28.738  34.373  1.00  0.00     0.134 A 
ATOM     81  F   UNL A   1      43.272  26.130  35.213  1.00  0.00    -0.206 F 
ATOM     82  C   UNL A   1      45.447  26.506  36.012  1.00  0.00     0.040 A 
ATOM     83  C   UNL A   1      46.729  28.370  35.185  1.00  0.00     0.040 A 
ATOM     84  F   UNL A   1      45.797  29.824  33.598  1.00  0.00    -0.206 F 
ATOM     85  C   UNL A   1      46.623  27.254  36.012  1.00  0.00     0.006 A 
ENDBRANCH  61  78
ENDBRANCH  35  36
ENDBRANCH  28  30
ENDBRANCH  27  28
ENDBRANCH  26  27
ENDBRANCH   1  26
TORSDOF 15
ENDMDL
