MODEL 1
REMARK VINA RESULT:     -11.7      0.000      0.000
REMARK SMILES C[C@@H](C(=O)OCCOC(=O)c1ccc(-c2c3nc(c(-c4c(F)cccc4F)c4ccc([nH]4)c(-c4c(F)cccc4F)c4nc(c(-c5c(F)cccc5F)c5ccc2[nH]5)C=C4)C=C3)cc1)c1cc(/C=C/S(C)(=O)=O)cc(C(=O)c2ccccc2)c1
REMARK SMILES IDX 6 1 5 2 3 3 4 4 2 5 1 6 65 7 66 8 84 9 67 10 75 11 74 12
REMARK SMILES IDX 68 13 69 14 70 15 71 16 72 17 73 18 76 19 77 20 78 21 79 22
REMARK SMILES IDX 83 23 80 24 82 25 81 26 7 27 8 28 9 29 10 30 11 31 12 32
REMARK SMILES IDX 64 33 13 34 63 35 14 36 15 37 16 38 57 39 17 40 62 41 56 42
REMARK SMILES IDX 58 43 18 44 61 45 55 46 54 47 19 49 45 50 28 51 44 52 29 53
REMARK SMILES IDX 32 54 43 55 59 56 30 57 31 58 42 60 60 61 33 62 20 63 21 64
REMARK SMILES IDX 26 65 22 66 23 67 25 68 27 69 24 70 46 71 47 72 52 73 48 74
REMARK SMILES IDX 49 75 51 76 53 77 50 78 34 79 35 80 40 81 36 82 37 83 39 84
REMARK SMILES IDX 41 85 38 86
REMARK H PARENT 58 48 32 59
REMARK Flexibility Score: inf
ROOT
ATOM      1  C   UNL A   1      37.532  20.514  24.971  1.00  0.00     0.274 C 
ENDROOT
BRANCH   1   2
ATOM      2  O   UNL A   1      37.854  21.917  24.872  1.00  0.00    -0.462 OA
BRANCH   2   3
ATOM      3  C   UNL A   1      37.042  22.677  24.086  1.00  0.00     0.313 C 
ATOM      4  O   UNL A   1      37.005  22.577  22.863  1.00  0.00    -0.252 OA
BRANCH   3   5
ATOM      5  C   UNL A   1      36.248  23.733  24.895  1.00  0.00     0.126 C 
ATOM      6  C   UNL A   1      36.891  23.984  26.268  1.00  0.00     0.025 C 
BRANCH   5   7
ATOM      7  C   UNL A   1      34.743  23.409  24.966  1.00  0.00    -0.033 A 
ATOM      8  C   UNL A   1      34.281  22.157  24.514  1.00  0.00     0.012 A 
ATOM      9  C   UNL A   1      33.797  24.280  25.528  1.00  0.00     0.016 A 
ATOM     10  C   UNL A   1      32.961  21.725  24.732  1.00  0.00    -0.024 A 
ATOM     11  C   UNL A   1      32.444  23.915  25.638  1.00  0.00     0.023 A 
ATOM     12  C   UNL A   1      32.035  22.631  25.256  1.00  0.00     0.020 A 
BRANCH  10  13
ATOM     13  C   UNL A   1      32.553  20.333  24.480  1.00  0.00     0.020 C 
ATOM     14  C   UNL A   1      33.450  19.340  24.349  1.00  0.00     0.106 C 
BRANCH  14  15
ATOM     15  S   UNL A   1      32.941  17.696  24.138  1.00  0.00     0.168 S 
ATOM     16  C   UNL A   1      34.372  16.795  24.671  1.00  0.00     0.163 C 
ATOM     17  O   UNL A   1      31.892  17.419  25.102  1.00  0.00    -0.225 OA
ATOM     18  O   UNL A   1      32.741  17.393  22.734  1.00  0.00    -0.225 OA
ENDBRANCH  14  15
ENDBRANCH  10  13
BRANCH  11  19
ATOM     19  C   UNL A   1      31.450  24.824  26.277  1.00  0.00     0.193 C 
ATOM     20  O   UNL A   1      30.660  24.371  27.098  1.00  0.00    -0.289 OA
BRANCH  19  21
ATOM     21  C   UNL A   1      31.428  26.277  25.976  1.00  0.00     0.022 A 
ATOM     22  C   UNL A   1      31.873  27.172  26.955  1.00  0.00     0.012 A 
ATOM     23  C   UNL A   1      30.974  26.758  24.742  1.00  0.00     0.012 A 
ATOM     24  C   UNL A   1      31.913  28.539  26.680  1.00  0.00     0.001 A 
ATOM     25  C   UNL A   1      31.020  28.127  24.470  1.00  0.00     0.001 A 
ATOM     26  C   UNL A   1      31.497  29.014  25.436  1.00  0.00     0.000 A 
ENDBRANCH  19  21
ENDBRANCH  11  19
ENDBRANCH   5   7
ENDBRANCH   3   5
ENDBRANCH   2   3
ENDBRANCH   1   2
BRANCH   1  27
ATOM     27  C   UNL A   1      38.790  19.646  24.929  1.00  0.00     0.275 C 
BRANCH  27  28
ATOM     28  O   UNL A   1      39.490  19.690  26.186  1.00  0.00    -0.458 OA
BRANCH  28  29
ATOM     29  C   UNL A   1      40.839  19.663  26.104  1.00  0.00     0.338 C 
ATOM     30  O   UNL A   1      41.538  18.794  25.605  1.00  0.00    -0.246 OA
BRANCH  29  31
ATOM     31  C   UNL A   1      41.381  20.944  26.575  1.00  0.00     0.060 A 
ATOM     32  C   UNL A   1      41.268  21.215  27.934  1.00  0.00     0.016 A 
ATOM     33  C   UNL A   1      41.884  21.909  25.703  1.00  0.00     0.016 A 
ATOM     34  C   UNL A   1      41.634  22.457  28.436  1.00  0.00     0.010 A 
ATOM     35  C   UNL A   1      42.275  23.158  26.213  1.00  0.00     0.010 A 
ATOM     36  C   UNL A   1      42.136  23.444  27.583  1.00  0.00    -0.014 A 
BRANCH  36  37
ATOM     37  C   UNL A   1      42.435  24.782  28.152  1.00  0.00     0.031 A 
ATOM     38  C   UNL A   1      43.857  25.184  28.415  1.00  0.00     0.074 A 
ATOM     39  C   UNL A   1      41.447  25.678  28.332  1.00  0.00     0.049 A 
ATOM     40  N   UNL A   1      44.319  26.275  28.971  1.00  0.00    -0.248 NA
ATOM     41  C   UNL A   1      44.897  24.232  27.998  1.00  0.00     0.031 C 
ATOM     42  C   UNL A   1      40.035  25.449  28.027  1.00  0.00     0.029 A 
ATOM     43  N   UNL A   1      41.486  26.973  28.786  1.00  0.00    -0.354 N 
ATOM     44  C   UNL A   1      45.698  26.125  29.008  1.00  0.00     0.074 A 
ATOM     45  C   UNL A   1      46.000  24.841  28.411  1.00  0.00     0.031 C 
ATOM     46  C   UNL A   1      39.351  26.580  28.264  1.00  0.00     0.029 A 
ATOM     47  C   UNL A   1      40.260  27.593  28.787  1.00  0.00     0.049 A 
ATOM     48  H   UNL A   1      42.314  27.416  29.083  1.00  0.00     0.167 HD
ATOM     49  C   UNL A   1      46.625  26.976  29.507  1.00  0.00     0.037 A 
ATOM     50  C   UNL A   1      39.905  28.830  29.184  1.00  0.00     0.037 A 
ATOM     51  C   UNL A   1      46.328  28.269  30.067  1.00  0.00     0.049 A 
ATOM     52  C   UNL A   1      40.946  29.739  29.773  1.00  0.00     0.074 A 
ATOM     53  C   UNL A   1      47.196  29.183  30.637  1.00  0.00     0.029 A 
ATOM     54  N   UNL A   1      45.064  28.839  30.108  1.00  0.00    -0.354 N 
ATOM     55  N   UNL A   1      42.237  29.549  29.895  1.00  0.00    -0.248 NA
ATOM     56  C   UNL A   1      40.473  31.022  30.315  1.00  0.00     0.031 C 
ATOM     57  C   UNL A   1      46.453  30.294  31.054  1.00  0.00     0.029 A 
ATOM     58  C   UNL A   1      45.128  30.085  30.710  1.00  0.00     0.049 A 
ATOM     59  H   UNL A   1      44.244  28.419  29.760  1.00  0.00     0.167 HD
ATOM     60  C   UNL A   1      42.730  30.683  30.526  1.00  0.00     0.074 A 
ATOM     61  C   UNL A   1      41.604  31.571  30.734  1.00  0.00     0.031 C 
ATOM     62  C   UNL A   1      44.000  30.956  30.913  1.00  0.00     0.037 A 
BRANCH  49  63
ATOM     63  C   UNL A   1      48.046  26.501  29.532  1.00  0.00     0.057 A 
ATOM     64  C   UNL A   1      48.570  25.764  30.598  1.00  0.00     0.134 A 
ATOM     65  C   UNL A   1      48.897  26.781  28.454  1.00  0.00     0.134 A 
ATOM     66  F   UNL A   1      47.813  25.481  31.669  1.00  0.00    -0.206 F 
ATOM     67  C   UNL A   1      49.899  25.333  30.600  1.00  0.00     0.040 A 
ATOM     68  C   UNL A   1      50.220  26.339  28.436  1.00  0.00     0.040 A 
ATOM     69  F   UNL A   1      48.453  27.483  27.401  1.00  0.00    -0.206 F 
ATOM     70  C   UNL A   1      50.726  25.616  29.514  1.00  0.00     0.006 A 
ENDBRANCH  49  63
BRANCH  50  71
ATOM     71  C   UNL A   1      38.493  29.274  29.073  1.00  0.00     0.057 A 
ATOM     72  C   UNL A   1      37.981  29.758  27.863  1.00  0.00     0.134 A 
ATOM     73  C   UNL A   1      37.629  29.252  30.175  1.00  0.00     0.134 A 
ATOM     74  F   UNL A   1      38.770  29.843  26.782  1.00  0.00    -0.206 F 
ATOM     75  C   UNL A   1      36.665  30.212  27.756  1.00  0.00     0.040 A 
ATOM     76  C   UNL A   1      36.304  29.678  30.075  1.00  0.00     0.040 A 
ATOM     77  F   UNL A   1      38.063  28.817  31.367  1.00  0.00    -0.206 F 
ATOM     78  C   UNL A   1      35.819  30.166  28.863  1.00  0.00     0.006 A 
ENDBRANCH  50  71
BRANCH  62  79
ATOM     79  C   UNL A   1      44.236  32.267  31.600  1.00  0.00     0.057 A 
ATOM     80  C   UNL A   1      44.533  33.429  30.876  1.00  0.00     0.134 A 
ATOM     81  C   UNL A   1      44.134  32.378  32.991  1.00  0.00     0.134 A 
ATOM     82  F   UNL A   1      44.657  33.386  29.540  1.00  0.00    -0.206 F 
ATOM     83  C   UNL A   1      44.737  34.653  31.514  1.00  0.00     0.040 A 
ATOM     84  C   UNL A   1      44.315  33.601  33.639  1.00  0.00     0.040 A 
ATOM     85  F   UNL A   1      43.846  31.303  33.741  1.00  0.00    -0.206 F 
ATOM     86  C   UNL A   1      44.622  34.742  32.901  1.00  0.00     0.006 A 
ENDBRANCH  62  79
ENDBRANCH  36  37
ENDBRANCH  29  31
ENDBRANCH  28  29
ENDBRANCH  27  28
ENDBRANCH   1  27
TORSDOF 16
ENDMDL
MODEL 2
REMARK VINA RESULT:     -11.7      3.702      7.603
REMARK SMILES C[C@@H](C(=O)OCCOC(=O)c1ccc(-c2c3nc(c(-c4c(F)cccc4F)c4ccc([nH]4)c(-c4c(F)cccc4F)c4nc(c(-c5c(F)cccc5F)c5ccc2[nH]5)C=C4)C=C3)cc1)c1cc(/C=C/S(C)(=O)=O)cc(C(=O)c2ccccc2)c1
REMARK SMILES IDX 6 1 5 2 3 3 4 4 2 5 1 6 65 7 66 8 84 9 67 10 75 11 74 12
REMARK SMILES IDX 68 13 69 14 70 15 71 16 72 17 73 18 76 19 77 20 78 21 79 22
REMARK SMILES IDX 83 23 80 24 82 25 81 26 7 27 8 28 9 29 10 30 11 31 12 32
REMARK SMILES IDX 64 33 13 34 63 35 14 36 15 37 16 38 57 39 17 40 62 41 56 42
REMARK SMILES IDX 58 43 18 44 61 45 55 46 54 47 19 49 45 50 28 51 44 52 29 53
REMARK SMILES IDX 32 54 43 55 59 56 30 57 31 58 42 60 60 61 33 62 20 63 21 64
REMARK SMILES IDX 26 65 22 66 23 67 25 68 27 69 24 70 46 71 47 72 52 73 48 74
REMARK SMILES IDX 49 75 51 76 53 77 50 78 34 79 35 80 40 81 36 82 37 83 39 84
REMARK SMILES IDX 41 85 38 86
REMARK H PARENT 58 48 32 59
REMARK Flexibility Score: inf
ROOT
ATOM      1  C   UNL A   1      40.240  21.335  26.443  1.00  0.00     0.274 C 
ENDROOT
BRANCH   1   2
ATOM      2  O   UNL A   1      38.929  21.930  26.529  1.00  0.00    -0.462 OA
BRANCH   2   3
ATOM      3  C   UNL A   1      38.037  21.588  25.559  1.00  0.00     0.313 C 
ATOM      4  O   UNL A   1      38.073  20.517  24.961  1.00  0.00    -0.252 OA
BRANCH   3   5
ATOM      5  C   UNL A   1      37.041  22.730  25.237  1.00  0.00     0.126 C 
ATOM      6  C   UNL A   1      37.338  23.984  26.073  1.00  0.00     0.025 C 
BRANCH   5   7
ATOM      7  C   UNL A   1      35.573  22.268  25.314  1.00  0.00    -0.033 A 
ATOM      8  C   UNL A   1      35.220  20.992  24.832  1.00  0.00     0.012 A 
ATOM      9  C   UNL A   1      34.558  23.034  25.910  1.00  0.00     0.016 A 
ATOM     10  C   UNL A   1      33.949  20.435  25.051  1.00  0.00    -0.024 A 
ATOM     11  C   UNL A   1      33.245  22.543  26.024  1.00  0.00     0.023 A 
ATOM     12  C   UNL A   1      32.950  21.238  25.611  1.00  0.00     0.020 A 
BRANCH  10  13
ATOM     13  C   UNL A   1      33.666  19.018  24.766  1.00  0.00     0.020 C 
ATOM     14  C   UNL A   1      34.647  18.129  24.534  1.00  0.00     0.106 C 
BRANCH  14  15
ATOM     15  S   UNL A   1      34.293  16.450  24.283  1.00  0.00     0.168 S 
ATOM     16  C   UNL A   1      32.730  16.277  25.103  1.00  0.00     0.163 C 
ATOM     17  O   UNL A   1      34.046  16.245  22.868  1.00  0.00    -0.225 OA
ATOM     18  O   UNL A   1      35.242  15.610  24.989  1.00  0.00    -0.225 OA
ENDBRANCH  14  15
ENDBRANCH  10  13
BRANCH  11  19
ATOM     19  C   UNL A   1      32.181  23.340  26.698  1.00  0.00     0.193 C 
ATOM     20  O   UNL A   1      31.770  22.987  27.798  1.00  0.00    -0.289 OA
BRANCH  19  21
ATOM     21  C   UNL A   1      31.641  24.579  26.087  1.00  0.00     0.022 A 
ATOM     22  C   UNL A   1      32.197  25.808  26.458  1.00  0.00     0.012 A 
ATOM     23  C   UNL A   1      30.595  24.536  25.156  1.00  0.00     0.012 A 
ATOM     24  C   UNL A   1      31.745  26.985  25.859  1.00  0.00     0.001 A 
ATOM     25  C   UNL A   1      30.149  25.716  24.557  1.00  0.00     0.001 A 
ATOM     26  C   UNL A   1      30.731  26.937  24.903  1.00  0.00     0.000 A 
ENDBRANCH  19  21
ENDBRANCH  11  19
ENDBRANCH   5   7
ENDBRANCH   3   5
ENDBRANCH   2   3
ENDBRANCH   1   2
BRANCH   1  27
ATOM     27  C   UNL A   1      41.329  22.397  26.280  1.00  0.00     0.275 C 
BRANCH  27  28
ATOM     28  O   UNL A   1      40.760  23.718  26.238  1.00  0.00    -0.458 OA
BRANCH  28  29
ATOM     29  C   UNL A   1      41.648  24.736  26.239  1.00  0.00     0.338 C 
ATOM     30  O   UNL A   1      42.576  24.916  25.465  1.00  0.00    -0.246 OA
BRANCH  29  31
ATOM     31  C   UNL A   1      41.246  25.732  27.240  1.00  0.00     0.060 A 
ATOM     32  C   UNL A   1      42.025  26.880  27.336  1.00  0.00     0.016 A 
ATOM     33  C   UNL A   1      40.205  25.510  28.141  1.00  0.00     0.016 A 
ATOM     34  C   UNL A   1      41.792  27.806  28.345  1.00  0.00     0.010 A 
ATOM     35  C   UNL A   1      39.955  26.456  29.148  1.00  0.00     0.010 A 
ATOM     36  C   UNL A   1      40.759  27.604  29.265  1.00  0.00    -0.014 A 
BRANCH  36  37
ATOM     37  C   UNL A   1      40.602  28.578  30.373  1.00  0.00     0.031 A 
ATOM     38  C   UNL A   1      39.507  29.603  30.320  1.00  0.00     0.074 A 
ATOM     39  C   UNL A   1      41.365  28.479  31.477  1.00  0.00     0.049 A 
ATOM     40  N   UNL A   1      39.248  30.581  31.150  1.00  0.00    -0.248 NA
ATOM     41  C   UNL A   1      38.580  29.517  29.182  1.00  0.00     0.031 C 
ATOM     42  C   UNL A   1      42.401  27.470  31.697  1.00  0.00     0.029 A 
ATOM     43  N   UNL A   1      41.367  29.218  32.633  1.00  0.00    -0.354 N 
ATOM     44  C   UNL A   1      38.156  31.252  30.616  1.00  0.00     0.074 A 
ATOM     45  C   UNL A   1      37.795  30.564  29.394  1.00  0.00     0.031 C 
ATOM     46  C   UNL A   1      42.907  27.630  32.930  1.00  0.00     0.029 A 
ATOM     47  C   UNL A   1      42.276  28.780  33.565  1.00  0.00     0.049 A 
ATOM     48  H   UNL A   1      40.773  29.990  32.780  1.00  0.00     0.167 HD
ATOM     49  C   UNL A   1      37.523  32.348  31.095  1.00  0.00     0.037 A 
ATOM     50  C   UNL A   1      42.580  29.263  34.785  1.00  0.00     0.037 A 
ATOM     51  C   UNL A   1      37.860  33.010  32.330  1.00  0.00     0.049 A 
ATOM     52  C   UNL A   1      41.893  30.506  35.275  1.00  0.00     0.074 A 
ATOM     53  C   UNL A   1      37.303  34.153  32.876  1.00  0.00     0.029 A 
ATOM     54  N   UNL A   1      38.829  32.573  33.220  1.00  0.00    -0.354 N 
ATOM     55  N   UNL A   1      40.927  31.192  34.717  1.00  0.00    -0.248 NA
ATOM     56  C   UNL A   1      42.365  31.063  36.552  1.00  0.00     0.031 C 
ATOM     57  C   UNL A   1      37.959  34.427  34.082  1.00  0.00     0.029 A 
ATOM     58  C   UNL A   1      38.899  33.434  34.302  1.00  0.00     0.049 A 
ATOM     59  H   UNL A   1      39.385  31.769  33.099  1.00  0.00     0.167 HD
ATOM     60  C   UNL A   1      40.676  32.260  35.568  1.00  0.00     0.074 A 
ATOM     61  C   UNL A   1      41.571  32.114  36.698  1.00  0.00     0.031 C 
ATOM     62  C   UNL A   1      39.795  33.278  35.418  1.00  0.00     0.037 A 
BRANCH  49  63
ATOM     63  C   UNL A   1      36.445  32.942  30.243  1.00  0.00     0.057 A 
ATOM     64  C   UNL A   1      35.086  32.746  30.510  1.00  0.00     0.134 A 
ATOM     65  C   UNL A   1      36.782  33.739  29.140  1.00  0.00     0.134 A 
ATOM     66  F   UNL A   1      34.697  31.977  31.538  1.00  0.00    -0.206 F 
ATOM     67  C   UNL A   1      34.098  33.308  29.699  1.00  0.00     0.040 A 
ATOM     68  C   UNL A   1      35.804  34.323  28.335  1.00  0.00     0.040 A 
ATOM     69  F   UNL A   1      38.068  33.966  28.832  1.00  0.00    -0.206 F 
ATOM     70  C   UNL A   1      34.456  34.104  28.611  1.00  0.00     0.006 A 
ENDBRANCH  49  63
BRANCH  50  71
ATOM     71  C   UNL A   1      43.611  28.594  35.618  1.00  0.00     0.057 A 
ATOM     72  C   UNL A   1      44.968  28.907  35.477  1.00  0.00     0.134 A 
ATOM     73  C   UNL A   1      43.272  27.611  36.556  1.00  0.00     0.134 A 
ATOM     74  F   UNL A   1      45.362  29.811  34.567  1.00  0.00    -0.206 F 
ATOM     75  C   UNL A   1      45.950  28.260  36.229  1.00  0.00     0.040 A 
ATOM     76  C   UNL A   1      44.240  26.975  37.334  1.00  0.00     0.040 A 
ATOM     77  F   UNL A   1      41.990  27.253  36.727  1.00  0.00    -0.206 F 
ATOM     78  C   UNL A   1      45.586  27.295  37.167  1.00  0.00     0.006 A 
ENDBRANCH  50  71
BRANCH  62  79
ATOM     79  C   UNL A   1      39.758  34.313  36.502  1.00  0.00     0.057 A 
ATOM     80  C   UNL A   1      40.462  35.518  36.388  1.00  0.00     0.134 A 
ATOM     81  C   UNL A   1      38.985  34.119  37.653  1.00  0.00     0.134 A 
ATOM     82  F   UNL A   1      41.230  35.758  35.314  1.00  0.00    -0.206 F 
ATOM     83  C   UNL A   1      40.413  36.488  37.390  1.00  0.00     0.040 A 
ATOM     84  C   UNL A   1      38.912  35.090  38.652  1.00  0.00     0.040 A 
ATOM     85  F   UNL A   1      38.282  32.989  37.820  1.00  0.00    -0.206 F 
ATOM     86  C   UNL A   1      39.631  36.277  38.525  1.00  0.00     0.006 A 
ENDBRANCH  62  79
ENDBRANCH  36  37
ENDBRANCH  29  31
ENDBRANCH  28  29
ENDBRANCH  27  28
ENDBRANCH   1  27
TORSDOF 16
ENDMDL
MODEL 3
REMARK VINA RESULT:     -11.5      3.887      8.605
REMARK SMILES C[C@@H](C(=O)OCCOC(=O)c1ccc(-c2c3nc(c(-c4c(F)cccc4F)c4ccc([nH]4)c(-c4c(F)cccc4F)c4nc(c(-c5c(F)cccc5F)c5ccc2[nH]5)C=C4)C=C3)cc1)c1cc(/C=C/S(C)(=O)=O)cc(C(=O)c2ccccc2)c1
REMARK SMILES IDX 6 1 5 2 3 3 4 4 2 5 1 6 65 7 66 8 84 9 67 10 75 11 74 12
REMARK SMILES IDX 68 13 69 14 70 15 71 16 72 17 73 18 76 19 77 20 78 21 79 22
REMARK SMILES IDX 83 23 80 24 82 25 81 26 7 27 8 28 9 29 10 30 11 31 12 32
REMARK SMILES IDX 64 33 13 34 63 35 14 36 15 37 16 38 57 39 17 40 62 41 56 42
REMARK SMILES IDX 58 43 18 44 61 45 55 46 54 47 19 49 45 50 28 51 44 52 29 53
REMARK SMILES IDX 32 54 43 55 59 56 30 57 31 58 42 60 60 61 33 62 20 63 21 64
REMARK SMILES IDX 26 65 22 66 23 67 25 68 27 69 24 70 46 71 47 72 52 73 48 74
REMARK SMILES IDX 49 75 51 76 53 77 50 78 34 79 35 80 40 81 36 82 37 83 39 84
REMARK SMILES IDX 41 85 38 86
REMARK H PARENT 58 48 32 59
REMARK Flexibility Score: inf
ROOT
ATOM      1  C   UNL A   1      39.932  21.103  26.118  1.00  0.00     0.274 C 
ENDROOT
BRANCH   1   2
ATOM      2  O   UNL A   1      38.637  21.720  26.274  1.00  0.00    -0.462 OA
BRANCH   2   3
ATOM      3  C   UNL A   1      37.729  21.495  25.285  1.00  0.00     0.313 C 
ATOM      4  O   UNL A   1      37.603  20.412  24.723  1.00  0.00    -0.252 OA
BRANCH   3   5
ATOM      5  C   UNL A   1      36.946  22.774  24.893  1.00  0.00     0.126 C 
ATOM      6  C   UNL A   1      37.406  23.986  25.717  1.00  0.00     0.025 C 
BRANCH   5   7
ATOM      7  C   UNL A   1      35.421  22.557  24.908  1.00  0.00    -0.033 A 
ATOM      8  C   UNL A   1      34.588  23.523  25.507  1.00  0.00     0.012 A 
ATOM      9  C   UNL A   1      34.795  21.463  24.289  1.00  0.00     0.016 A 
ATOM     10  C   UNL A   1      33.189  23.485  25.381  1.00  0.00    -0.024 A 
ATOM     11  C   UNL A   1      33.395  21.342  24.265  1.00  0.00     0.023 A 
ATOM     12  C   UNL A   1      32.597  22.363  24.795  1.00  0.00     0.020 A 
BRANCH  10  13
ATOM     13  C   UNL A   1      32.345  24.620  25.793  1.00  0.00     0.020 C 
ATOM     14  C   UNL A   1      32.632  25.885  25.442  1.00  0.00     0.106 C 
BRANCH  14  15
ATOM     15  S   UNL A   1      31.577  27.193  25.868  1.00  0.00     0.168 S 
ATOM     16  C   UNL A   1      32.659  28.594  25.751  1.00  0.00     0.163 C 
ATOM     17  O   UNL A   1      30.590  27.341  24.815  1.00  0.00    -0.225 OA
ATOM     18  O   UNL A   1      31.158  27.090  27.253  1.00  0.00    -0.225 OA
ENDBRANCH  14  15
ENDBRANCH  10  13
BRANCH  11  19
ATOM     19  C   UNL A   1      32.733  20.203  23.566  1.00  0.00     0.193 C 
ATOM     20  O   UNL A   1      32.051  20.421  22.571  1.00  0.00    -0.289 OA
BRANCH  19  21
ATOM     21  C   UNL A   1      32.920  18.804  24.023  1.00  0.00     0.022 A 
ATOM     22  C   UNL A   1      33.402  17.859  23.111  1.00  0.00     0.012 A 
ATOM     23  C   UNL A   1      32.625  18.421  25.338  1.00  0.00     0.012 A 
ATOM     24  C   UNL A   1      33.638  16.548  23.528  1.00  0.00     0.001 A 
ATOM     25  C   UNL A   1      32.867  17.109  25.750  1.00  0.00     0.001 A 
ATOM     26  C   UNL A   1      33.381  16.178  24.847  1.00  0.00     0.000 A 
ENDBRANCH  19  21
ENDBRANCH  11  19
ENDBRANCH   5   7
ENDBRANCH   3   5
ENDBRANCH   2   3
ENDBRANCH   1   2
BRANCH   1  27
ATOM     27  C   UNL A   1      41.057  22.136  26.185  1.00  0.00     0.275 C 
BRANCH  27  28
ATOM     28  O   UNL A   1      40.553  23.425  26.580  1.00  0.00    -0.458 OA
BRANCH  28  29
ATOM     29  C   UNL A   1      41.425  24.452  26.471  1.00  0.00     0.338 C 
ATOM     30  O   UNL A   1      42.315  24.590  25.646  1.00  0.00    -0.246 OA
BRANCH  29  31
ATOM     31  C   UNL A   1      41.054  25.508  27.421  1.00  0.00     0.060 A 
ATOM     32  C   UNL A   1      41.979  26.527  27.624  1.00  0.00     0.016 A 
ATOM     33  C   UNL A   1      39.886  25.454  28.182  1.00  0.00     0.016 A 
ATOM     34  C   UNL A   1      41.761  27.488  28.602  1.00  0.00     0.010 A 
ATOM     35  C   UNL A   1      39.656  26.438  29.156  1.00  0.00     0.010 A 
ATOM     36  C   UNL A   1      40.602  27.454  29.383  1.00  0.00    -0.014 A 
BRANCH  36  37
ATOM     37  C   UNL A   1      40.454  28.453  30.470  1.00  0.00     0.031 A 
ATOM     38  C   UNL A   1      39.383  29.502  30.384  1.00  0.00     0.074 A 
ATOM     39  C   UNL A   1      41.203  28.359  31.584  1.00  0.00     0.049 A 
ATOM     40  N   UNL A   1      39.137  30.501  31.191  1.00  0.00    -0.248 NA
ATOM     41  C   UNL A   1      38.468  29.413  29.236  1.00  0.00     0.031 C 
ATOM     42  C   UNL A   1      42.212  27.331  31.836  1.00  0.00     0.029 A 
ATOM     43  N   UNL A   1      41.208  29.121  32.726  1.00  0.00    -0.354 N 
ATOM     44  C   UNL A   1      38.067  31.185  30.631  1.00  0.00     0.074 A 
ATOM     45  C   UNL A   1      37.704  30.482  29.419  1.00  0.00     0.031 C 
ATOM     46  C   UNL A   1      42.708  27.505  33.073  1.00  0.00     0.029 A 
ATOM     47  C   UNL A   1      42.095  28.681  33.677  1.00  0.00     0.049 A 
ATOM     48  H   UNL A   1      40.630  29.909  32.851  1.00  0.00     0.167 HD
ATOM     49  C   UNL A   1      37.454  32.305  31.082  1.00  0.00     0.037 A 
ATOM     50  C   UNL A   1      42.397  29.181  34.891  1.00  0.00     0.037 A 
ATOM     51  C   UNL A   1      37.791  32.983  32.307  1.00  0.00     0.049 A 
ATOM     52  C   UNL A   1      41.732  30.449  35.348  1.00  0.00     0.074 A 
ATOM     53  C   UNL A   1      37.254  34.148  32.824  1.00  0.00     0.029 A 
ATOM     54  N   UNL A   1      38.740  32.542  33.217  1.00  0.00    -0.354 N 
ATOM     55  N   UNL A   1      40.788  31.145  34.765  1.00  0.00    -0.248 NA
ATOM     56  C   UNL A   1      42.202  31.020  36.619  1.00  0.00     0.031 C 
ATOM     57  C   UNL A   1      37.902  34.432  34.032  1.00  0.00     0.029 A 
ATOM     58  C   UNL A   1      38.816  33.423  34.283  1.00  0.00     0.049 A 
ATOM     59  H   UNL A   1      39.279  31.724  33.118  1.00  0.00     0.167 HD
ATOM     60  C   UNL A   1      40.552  32.234  35.592  1.00  0.00     0.074 A 
ATOM     61  C   UNL A   1      41.430  32.091  36.736  1.00  0.00     0.031 C 
ATOM     62  C   UNL A   1      39.696  33.269  35.412  1.00  0.00     0.037 A 
BRANCH  49  63
ATOM     63  C   UNL A   1      36.398  32.906  30.205  1.00  0.00     0.057 A 
ATOM     64  C   UNL A   1      36.709  33.664  29.071  1.00  0.00     0.134 A 
ATOM     65  C   UNL A   1      35.044  32.704  30.501  1.00  0.00     0.134 A 
ATOM     66  F   UNL A   1      37.987  33.910  28.745  1.00  0.00    -0.206 F 
ATOM     67  C   UNL A   1      35.708  34.216  28.270  1.00  0.00     0.040 A 
ATOM     68  C   UNL A   1      34.034  33.234  29.696  1.00  0.00     0.040 A 
ATOM     69  F   UNL A   1      34.680  31.985  31.574  1.00  0.00    -0.206 F 
ATOM     70  C   UNL A   1      34.366  33.997  28.579  1.00  0.00     0.006 A 
ENDBRANCH  49  63
BRANCH  50  71
ATOM     71  C   UNL A   1      43.403  28.506  35.749  1.00  0.00     0.057 A 
ATOM     72  C   UNL A   1      43.029  27.487  36.634  1.00  0.00     0.134 A 
ATOM     73  C   UNL A   1      44.753  28.877  35.728  1.00  0.00     0.134 A 
ATOM     74  F   UNL A   1      41.744  27.114  36.731  1.00  0.00    -0.206 F 
ATOM     75  C   UNL A   1      43.959  26.869  37.471  1.00  0.00     0.040 A 
ATOM     76  C   UNL A   1      45.698  28.250  36.540  1.00  0.00     0.040 A 
ATOM     77  F   UNL A   1      45.172  29.859  34.916  1.00  0.00    -0.206 F 
ATOM     78  C   UNL A   1      45.301  27.246  37.421  1.00  0.00     0.006 A 
ENDBRANCH  50  71
BRANCH  62  79
ATOM     79  C   UNL A   1      39.669  34.325  36.475  1.00  0.00     0.057 A 
ATOM     80  C   UNL A   1      38.902  34.174  37.637  1.00  0.00     0.134 A 
ATOM     81  C   UNL A   1      40.441  35.487  36.354  1.00  0.00     0.134 A 
ATOM     82  F   UNL A   1      38.131  33.089  37.807  1.00  0.00    -0.206 F 
ATOM     83  C   UNL A   1      38.890  35.150  38.635  1.00  0.00     0.040 A 
ATOM     84  C   UNL A   1      40.453  36.460  37.354  1.00  0.00     0.040 A 
ATOM     85  F   UNL A   1      41.203  35.688  35.268  1.00  0.00    -0.206 F 
ATOM     86  C   UNL A   1      39.673  36.295  38.496  1.00  0.00     0.006 A 
ENDBRANCH  62  79
ENDBRANCH  36  37
ENDBRANCH  29  31
ENDBRANCH  28  29
ENDBRANCH  27  28
ENDBRANCH   1  27
TORSDOF 16
ENDMDL
