MODEL 1
REMARK VINA RESULT:     -10.8      0.000      0.000
REMARK SMILES O=C(OCCOC(=O)c1ccnc(-n2cnnn2)c1)c1ccc(-c2c3nc(c(-c4c(F)cccc4F)c4ccc([nH]4)c(-c4c(F)cccc4F)c4nc(c(-c5c(F)cccc5F)c5ccc2[nH]5)C=C4)C=C3)cc1
REMARK SMILES IDX 4 1 3 2 2 3 1 4 20 5 21 6 73 7 22 8 72 9 23 10 24 11 25 12
REMARK SMILES IDX 66 13 26 14 71 15 65 16 67 17 27 18 70 19 64 20 63 21 28 23
REMARK SMILES IDX 54 24 37 25 53 26 38 27 41 28 52 29 68 30 39 31 40 32 51 34
REMARK SMILES IDX 69 35 42 36 29 37 30 38 35 39 31 40 32 41 34 42 36 43 33 44
REMARK SMILES IDX 55 45 56 46 61 47 57 48 58 49 60 50 62 51 59 52 43 53 44 54
REMARK SMILES IDX 49 55 45 56 46 57 48 58 50 59 47 60 5 61 6 62 7 63 8 64 9 65
REMARK SMILES IDX 10 66 19 67 11 68 13 69 12 70 14 71 15 72 18 73 16 74 17 75
REMARK H PARENT 67 22 41 33
REMARK Flexibility Score: inf
ROOT
ATOM      1  C   UNL A   1      43.987  18.987  25.736  1.00  0.00     0.275 C 
ENDROOT
BRANCH   1   2
ATOM      2  O   UNL A   1      42.675  18.497  26.073  1.00  0.00    -0.458 OA
BRANCH   2   3
ATOM      3  C   UNL A   1      41.609  19.297  25.881  1.00  0.00     0.338 C 
ATOM      4  O   UNL A   1      40.526  18.922  25.460  1.00  0.00    -0.246 OA
BRANCH   3   5
ATOM      5  C   UNL A   1      41.781  20.639  26.478  1.00  0.00     0.060 A 
ATOM      6  C   UNL A   1      42.008  21.799  25.730  1.00  0.00     0.016 A 
ATOM      7  C   UNL A   1      41.680  20.707  27.871  1.00  0.00     0.016 A 
ATOM      8  C   UNL A   1      42.214  23.009  26.377  1.00  0.00     0.010 A 
ATOM      9  C   UNL A   1      41.858  21.916  28.515  1.00  0.00     0.010 A 
ATOM     10  C   UNL A   1      42.173  23.053  27.771  1.00  0.00    -0.014 A 
BRANCH  10  11
ATOM     11  C   UNL A   1      42.334  24.334  28.453  1.00  0.00     0.031 A 
ATOM     12  C   UNL A   1      41.263  25.325  28.152  1.00  0.00     0.074 A 
ATOM     13  C   UNL A   1      43.241  24.503  29.439  1.00  0.00     0.049 A 
ATOM     14  N   UNL A   1      41.373  26.480  27.584  1.00  0.00    -0.248 NA
ATOM     15  C   UNL A   1      39.869  24.917  28.389  1.00  0.00     0.031 C 
ATOM     16  C   UNL A   1      44.140  23.492  30.003  1.00  0.00     0.029 A 
ATOM     17  N   UNL A   1      43.464  25.580  30.241  1.00  0.00    -0.354 N 
ATOM     18  C   UNL A   1      40.096  27.046  27.632  1.00  0.00     0.074 A 
ATOM     19  C   UNL A   1      39.192  25.968  27.923  1.00  0.00     0.031 C 
ATOM     20  C   UNL A   1      44.611  23.922  31.193  1.00  0.00     0.029 A 
ATOM     21  C   UNL A   1      44.175  25.290  31.404  1.00  0.00     0.049 A 
ATOM     22  H   UNL A   1      43.151  26.486  30.019  1.00  0.00     0.167 HD
ATOM     23  C   UNL A   1      39.942  28.395  27.757  1.00  0.00     0.037 A 
ATOM     24  C   UNL A   1      44.360  26.099  32.478  1.00  0.00     0.037 A 
ATOM     25  C   UNL A   1      41.142  29.084  27.340  1.00  0.00     0.049 A 
ATOM     26  C   UNL A   1      44.061  27.485  32.045  1.00  0.00     0.074 A 
ATOM     27  C   UNL A   1      41.922  29.090  26.199  1.00  0.00     0.029 A 
ATOM     28  N   UNL A   1      41.924  29.651  28.317  1.00  0.00    -0.354 N 
ATOM     29  N   UNL A   1      44.802  28.161  31.214  1.00  0.00    -0.248 NA
ATOM     30  C   UNL A   1      42.692  27.956  32.188  1.00  0.00     0.031 C 
ATOM     31  C   UNL A   1      43.266  29.177  26.672  1.00  0.00     0.029 A 
ATOM     32  C   UNL A   1      43.222  29.310  28.061  1.00  0.00     0.049 A 
ATOM     33  H   UNL A   1      41.606  30.202  29.068  1.00  0.00     0.167 HD
ATOM     34  C   UNL A   1      43.895  28.819  30.399  1.00  0.00     0.074 A 
ATOM     35  C   UNL A   1      42.619  28.742  31.110  1.00  0.00     0.031 C 
ATOM     36  C   UNL A   1      44.201  29.094  29.097  1.00  0.00     0.037 A 
BRANCH  23  37
ATOM     37  C   UNL A   1      38.939  29.047  28.702  1.00  0.00     0.057 A 
ATOM     38  C   UNL A   1      38.911  28.617  30.045  1.00  0.00     0.134 A 
ATOM     39  C   UNL A   1      37.804  29.780  28.300  1.00  0.00     0.134 A 
ATOM     40  F   UNL A   1      39.942  27.938  30.573  1.00  0.00    -0.206 F 
ATOM     41  C   UNL A   1      37.779  28.755  30.859  1.00  0.00     0.040 A 
ATOM     42  C   UNL A   1      36.689  29.967  29.121  1.00  0.00     0.040 A 
ATOM     43  F   UNL A   1      37.656  30.280  27.071  1.00  0.00    -0.206 F 
ATOM     44  C   UNL A   1      36.652  29.411  30.388  1.00  0.00     0.006 A 
ENDBRANCH  23  37
BRANCH  24  45
ATOM     45  C   UNL A   1      44.529  25.750  33.909  1.00  0.00     0.057 A 
ATOM     46  C   UNL A   1      43.416  25.546  34.740  1.00  0.00     0.134 A 
ATOM     47  C   UNL A   1      45.766  25.335  34.428  1.00  0.00     0.134 A 
ATOM     48  F   UNL A   1      42.185  25.875  34.325  1.00  0.00    -0.206 F 
ATOM     49  C   UNL A   1      43.524  24.935  35.998  1.00  0.00     0.040 A 
ATOM     50  C   UNL A   1      45.889  24.731  35.685  1.00  0.00     0.040 A 
ATOM     51  F   UNL A   1      46.887  25.419  33.699  1.00  0.00    -0.206 F 
ATOM     52  C   UNL A   1      44.762  24.513  36.468  1.00  0.00     0.006 A 
ENDBRANCH  24  45
BRANCH  36  53
ATOM     53  C   UNL A   1      45.631  28.943  28.658  1.00  0.00     0.057 A 
ATOM     54  C   UNL A   1      46.236  27.724  28.314  1.00  0.00     0.134 A 
ATOM     55  C   UNL A   1      46.386  30.102  28.451  1.00  0.00     0.134 A 
ATOM     56  F   UNL A   1      45.562  26.568  28.375  1.00  0.00    -0.206 F 
ATOM     57  C   UNL A   1      47.547  27.661  27.835  1.00  0.00     0.040 A 
ATOM     58  C   UNL A   1      47.683  30.057  27.938  1.00  0.00     0.040 A 
ATOM     59  F   UNL A   1      45.855  31.309  28.704  1.00  0.00    -0.206 F 
ATOM     60  C   UNL A   1      48.274  28.832  27.641  1.00  0.00     0.006 A 
ENDBRANCH  36  53
ENDBRANCH  10  11
ENDBRANCH   3   5
ENDBRANCH   2   3
ENDBRANCH   1   2
BRANCH   1  61
ATOM     61  C   UNL A   1      44.319  19.136  24.250  1.00  0.00     0.275 C 
BRANCH  61  62
ATOM     62  O   UNL A   1      44.819  20.452  23.945  1.00  0.00    -0.458 OA
BRANCH  62  63
ATOM     63  C   UNL A   1      46.055  20.732  24.435  1.00  0.00     0.338 C 
ATOM     64  O   UNL A   1      47.030  20.009  24.478  1.00  0.00    -0.246 OA
BRANCH  63  65
ATOM     65  C   UNL A   1      46.051  22.086  25.004  1.00  0.00     0.065 A 
ATOM     66  C   UNL A   1      45.663  22.219  26.332  1.00  0.00     0.036 A 
ATOM     67  C   UNL A   1      46.545  23.176  24.278  1.00  0.00     0.065 A 
ATOM     68  C   UNL A   1      45.800  23.460  26.909  1.00  0.00     0.114 A 
ATOM     69  C   UNL A   1      46.633  24.397  24.942  1.00  0.00     0.157 A 
ATOM     70  N   UNL A   1      46.274  24.535  26.248  1.00  0.00    -0.237 NA
BRANCH  69  71
ATOM     71  N   UNL A   1      47.095  25.563  24.274  1.00  0.00    -0.182 N 
ATOM     72  C   UNL A   1      46.692  26.867  24.403  1.00  0.00     0.254 A 
ATOM     73  N   UNL A   1      48.128  25.537  23.397  1.00  0.00    -0.039 NA
ATOM     74  N   UNL A   1      47.429  27.632  23.632  1.00  0.00    -0.117 NA
ATOM     75  N   UNL A   1      48.302  26.789  22.999  1.00  0.00    -0.024 NA
ENDBRANCH  69  71
ENDBRANCH  63  65
ENDBRANCH  62  63
ENDBRANCH  61  62
ENDBRANCH   1  61
TORSDOF 12
ENDMDL
MODEL 2
REMARK VINA RESULT:     -10.2      2.528      6.530
REMARK SMILES O=C(OCCOC(=O)c1ccnc(-n2cnnn2)c1)c1ccc(-c2c3nc(c(-c4c(F)cccc4F)c4ccc([nH]4)c(-c4c(F)cccc4F)c4nc(c(-c5c(F)cccc5F)c5ccc2[nH]5)C=C4)C=C3)cc1
REMARK SMILES IDX 4 1 3 2 2 3 1 4 20 5 21 6 73 7 22 8 72 9 23 10 24 11 25 12
REMARK SMILES IDX 66 13 26 14 71 15 65 16 67 17 27 18 70 19 64 20 63 21 28 23
REMARK SMILES IDX 54 24 37 25 53 26 38 27 41 28 52 29 68 30 39 31 40 32 51 34
REMARK SMILES IDX 69 35 42 36 29 37 30 38 35 39 31 40 32 41 34 42 36 43 33 44
REMARK SMILES IDX 55 45 56 46 61 47 57 48 58 49 60 50 62 51 59 52 43 53 44 54
REMARK SMILES IDX 49 55 45 56 46 57 48 58 50 59 47 60 5 61 6 62 7 63 8 64 9 65
REMARK SMILES IDX 10 66 19 67 11 68 13 69 12 70 14 71 15 72 18 73 16 74 17 75
REMARK H PARENT 67 22 41 33
REMARK Flexibility Score: inf
ROOT
ATOM      1  C   UNL A   1      40.795  20.339  26.954  1.00  0.00     0.275 C 
ENDROOT
BRANCH   1   2
ATOM      2  O   UNL A   1      40.860  21.651  26.363  1.00  0.00    -0.458 OA
BRANCH   2   3
ATOM      3  C   UNL A   1      39.776  22.448  26.421  1.00  0.00     0.338 C 
ATOM      4  O   UNL A   1      38.640  22.095  26.149  1.00  0.00    -0.246 OA
BRANCH   3   5
ATOM      5  C   UNL A   1      40.042  23.732  27.104  1.00  0.00     0.060 A 
ATOM      6  C   UNL A   1      39.184  24.836  27.045  1.00  0.00     0.016 A 
ATOM      7  C   UNL A   1      41.218  23.793  27.859  1.00  0.00     0.016 A 
ATOM      8  C   UNL A   1      39.540  26.021  27.672  1.00  0.00     0.010 A 
ATOM      9  C   UNL A   1      41.560  24.964  28.506  1.00  0.00     0.010 A 
ATOM     10  C   UNL A   1      40.747  26.089  28.370  1.00  0.00    -0.014 A 
BRANCH  10  11
ATOM     11  C   UNL A   1      41.098  27.317  29.077  1.00  0.00     0.031 A 
ATOM     12  C   UNL A   1      42.343  27.972  28.586  1.00  0.00     0.074 A 
ATOM     13  C   UNL A   1      40.239  27.912  29.932  1.00  0.00     0.049 A 
ATOM     14  N   UNL A   1      43.443  28.191  29.228  1.00  0.00    -0.248 NA
ATOM     15  C   UNL A   1      42.423  28.297  27.153  1.00  0.00     0.031 C 
ATOM     16  C   UNL A   1      38.871  27.493  30.254  1.00  0.00     0.029 A 
ATOM     17  N   UNL A   1      40.352  29.093  30.600  1.00  0.00    -0.354 N 
ATOM     18  C   UNL A   1      44.252  28.917  28.349  1.00  0.00     0.074 A 
ATOM     19  C   UNL A   1      43.673  28.752  27.045  1.00  0.00     0.031 C 
ATOM     20  C   UNL A   1      38.211  28.518  30.835  1.00  0.00     0.029 A 
ATOM     21  C   UNL A   1      39.143  29.606  31.066  1.00  0.00     0.049 A 
ATOM     22  H   UNL A   1      41.214  29.547  30.741  1.00  0.00     0.167 HD
ATOM     23  C   UNL A   1      45.124  29.850  28.824  1.00  0.00     0.037 A 
ATOM     24  C   UNL A   1      38.915  30.847  31.567  1.00  0.00     0.037 A 
ATOM     25  C   UNL A   1      45.420  29.607  30.219  1.00  0.00     0.049 A 
ATOM     26  C   UNL A   1      40.229  31.419  31.947  1.00  0.00     0.074 A 
ATOM     27  C   UNL A   1      45.884  28.529  30.948  1.00  0.00     0.029 A 
ATOM     28  N   UNL A   1      44.876  30.464  31.144  1.00  0.00    -0.354 N 
ATOM     29  N   UNL A   1      40.951  30.981  32.939  1.00  0.00    -0.248 NA
ATOM     30  C   UNL A   1      40.947  32.185  30.940  1.00  0.00     0.031 C 
ATOM     31  C   UNL A   1      45.145  28.565  32.169  1.00  0.00     0.029 A 
ATOM     32  C   UNL A   1      44.346  29.708  32.150  1.00  0.00     0.049 A 
ATOM     33  H   UNL A   1      44.870  31.447  31.091  1.00  0.00     0.167 HD
ATOM     34  C   UNL A   1      42.250  31.004  32.456  1.00  0.00     0.074 A 
ATOM     35  C   UNL A   1      42.199  31.852  31.266  1.00  0.00     0.031 C 
ATOM     36  C   UNL A   1      43.171  30.094  32.892  1.00  0.00     0.037 A 
BRANCH  23  37
ATOM     37  C   UNL A   1      45.307  31.230  28.203  1.00  0.00     0.057 A 
ATOM     38  C   UNL A   1      44.154  31.979  27.891  1.00  0.00     0.134 A 
ATOM     39  C   UNL A   1      46.488  31.691  27.586  1.00  0.00     0.134 A 
ATOM     40  F   UNL A   1      42.966  31.673  28.434  1.00  0.00    -0.206 F 
ATOM     41  C   UNL A   1      44.148  32.986  26.916  1.00  0.00     0.040 A 
ATOM     42  C   UNL A   1      46.502  32.729  26.650  1.00  0.00     0.040 A 
ATOM     43  F   UNL A   1      47.680  31.119  27.771  1.00  0.00    -0.206 F 
ATOM     44  C   UNL A   1      45.323  33.348  26.274  1.00  0.00     0.006 A 
ENDBRANCH  23  37
BRANCH  24  45
ATOM     45  C   UNL A   1      37.689  31.678  31.517  1.00  0.00     0.057 A 
ATOM     46  C   UNL A   1      37.216  32.197  30.301  1.00  0.00     0.134 A 
ATOM     47  C   UNL A   1      36.801  31.753  32.602  1.00  0.00     0.134 A 
ATOM     48  F   UNL A   1      37.973  32.143  29.196  1.00  0.00    -0.206 F 
ATOM     49  C   UNL A   1      35.926  32.727  30.166  1.00  0.00     0.040 A 
ATOM     50  C   UNL A   1      35.512  32.287  32.483  1.00  0.00     0.040 A 
ATOM     51  F   UNL A   1      37.118  31.231  33.795  1.00  0.00    -0.206 F 
ATOM     52  C   UNL A   1      35.064  32.761  31.256  1.00  0.00     0.006 A 
ENDBRANCH  24  45
BRANCH  36  53
ATOM     53  C   UNL A   1      42.836  29.275  34.107  1.00  0.00     0.057 A 
ATOM     54  C   UNL A   1      42.140  28.057  34.082  1.00  0.00     0.134 A 
ATOM     55  C   UNL A   1      43.360  29.676  35.341  1.00  0.00     0.134 A 
ATOM     56  F   UNL A   1      41.690  27.533  32.935  1.00  0.00    -0.206 F 
ATOM     57  C   UNL A   1      41.932  27.302  35.240  1.00  0.00     0.040 A 
ATOM     58  C   UNL A   1      43.192  28.914  36.497  1.00  0.00     0.040 A 
ATOM     59  F   UNL A   1      44.087  30.802  35.433  1.00  0.00    -0.206 F 
ATOM     60  C   UNL A   1      42.464  27.729  36.453  1.00  0.00     0.006 A 
ENDBRANCH  36  53
ENDBRANCH  10  11
ENDBRANCH   3   5
ENDBRANCH   2   3
ENDBRANCH   1   2
BRANCH   1  61
ATOM     61  C   UNL A   1      40.920  19.140  26.012  1.00  0.00     0.275 C 
BRANCH  61  62
ATOM     62  O   UNL A   1      42.099  19.231  25.187  1.00  0.00    -0.458 OA
BRANCH  62  63
ATOM     63  C   UNL A   1      43.241  18.762  25.753  1.00  0.00     0.338 C 
ATOM     64  O   UNL A   1      43.389  17.776  26.447  1.00  0.00    -0.246 OA
BRANCH  63  65
ATOM     65  C   UNL A   1      44.340  19.690  25.458  1.00  0.00     0.065 A 
ATOM     66  C   UNL A   1      45.562  19.137  25.095  1.00  0.00     0.036 A 
ATOM     67  C   UNL A   1      44.126  21.073  25.414  1.00  0.00     0.065 A 
ATOM     68  C   UNL A   1      46.547  20.001  24.674  1.00  0.00     0.114 A 
ATOM     69  C   UNL A   1      45.186  21.869  24.991  1.00  0.00     0.157 A 
ATOM     70  N   UNL A   1      46.382  21.338  24.614  1.00  0.00    -0.237 NA
BRANCH  69  71
ATOM     71  N   UNL A   1      45.067  23.285  24.944  1.00  0.00    -0.182 N 
ATOM     72  C   UNL A   1      43.977  24.082  25.175  1.00  0.00     0.254 A 
ATOM     73  N   UNL A   1      46.127  24.096  24.708  1.00  0.00    -0.039 NA
ATOM     74  N   UNL A   1      44.327  25.344  25.077  1.00  0.00    -0.117 NA
ATOM     75  N   UNL A   1      45.661  25.335  24.767  1.00  0.00    -0.024 NA
ENDBRANCH  69  71
ENDBRANCH  63  65
ENDBRANCH  62  63
ENDBRANCH  61  62
ENDBRANCH   1  61
TORSDOF 12
ENDMDL
MODEL 3
REMARK VINA RESULT:     -10.2      4.387      9.978
REMARK SMILES O=C(OCCOC(=O)c1ccnc(-n2cnnn2)c1)c1ccc(-c2c3nc(c(-c4c(F)cccc4F)c4ccc([nH]4)c(-c4c(F)cccc4F)c4nc(c(-c5c(F)cccc5F)c5ccc2[nH]5)C=C4)C=C3)cc1
REMARK SMILES IDX 4 1 3 2 2 3 1 4 20 5 21 6 73 7 22 8 72 9 23 10 24 11 25 12
REMARK SMILES IDX 66 13 26 14 71 15 65 16 67 17 27 18 70 19 64 20 63 21 28 23
REMARK SMILES IDX 54 24 37 25 53 26 38 27 41 28 52 29 68 30 39 31 40 32 51 34
REMARK SMILES IDX 69 35 42 36 29 37 30 38 35 39 31 40 32 41 34 42 36 43 33 44
REMARK SMILES IDX 55 45 56 46 61 47 57 48 58 49 60 50 62 51 59 52 43 53 44 54
REMARK SMILES IDX 49 55 45 56 46 57 48 58 50 59 47 60 5 61 6 62 7 63 8 64 9 65
REMARK SMILES IDX 10 66 19 67 11 68 13 69 12 70 14 71 15 72 18 73 16 74 17 75
REMARK H PARENT 67 22 41 33
REMARK Flexibility Score: inf
ROOT
ATOM      1  C   UNL A   1      34.968  31.686  29.139  1.00  0.00     0.275 C 
ENDROOT
BRANCH   1   2
ATOM      2  O   UNL A   1      36.045  30.746  29.319  1.00  0.00    -0.458 OA
BRANCH   2   3
ATOM      3  C   UNL A   1      36.252  29.802  28.380  1.00  0.00     0.338 C 
ATOM      4  O   UNL A   1      35.446  29.495  27.516  1.00  0.00    -0.246 OA
BRANCH   3   5
ATOM      5  C   UNL A   1      37.657  29.347  28.322  1.00  0.00     0.060 A 
ATOM      6  C   UNL A   1      38.525  29.637  27.263  1.00  0.00     0.016 A 
ATOM      7  C   UNL A   1      38.108  28.609  29.421  1.00  0.00     0.016 A 
ATOM      8  C   UNL A   1      39.812  29.121  27.264  1.00  0.00     0.010 A 
ATOM      9  C   UNL A   1      39.399  28.119  29.436  1.00  0.00     0.010 A 
ATOM     10  C   UNL A   1      40.231  28.333  28.337  1.00  0.00    -0.014 A 
BRANCH  10  11
ATOM     11  C   UNL A   1      41.603  27.836  28.369  1.00  0.00     0.031 A 
ATOM     12  C   UNL A   1      41.800  26.537  27.667  1.00  0.00     0.074 A 
ATOM     13  C   UNL A   1      42.627  28.608  28.794  1.00  0.00     0.049 A 
ATOM     14  N   UNL A   1      42.188  25.407  28.160  1.00  0.00    -0.248 NA
ATOM     15  C   UNL A   1      41.375  26.449  26.261  1.00  0.00     0.031 C 
ATOM     16  C   UNL A   1      42.564  30.007  29.229  1.00  0.00     0.029 A 
ATOM     17  N   UNL A   1      43.964  28.353  28.805  1.00  0.00    -0.354 N 
ATOM     18  C   UNL A   1      42.303  24.541  27.069  1.00  0.00     0.074 A 
ATOM     19  C   UNL A   1      41.585  25.159  25.991  1.00  0.00     0.031 C 
ATOM     20  C   UNL A   1      43.806  30.539  29.212  1.00  0.00     0.029 A 
ATOM     21  C   UNL A   1      44.763  29.489  28.918  1.00  0.00     0.049 A 
ATOM     22  H   UNL A   1      44.335  27.444  28.739  1.00  0.00     0.167 HD
ATOM     23  C   UNL A   1      43.252  23.562  27.061  1.00  0.00     0.037 A 
ATOM     24  C   UNL A   1      46.107  29.570  28.743  1.00  0.00     0.037 A 
ATOM     25  C   UNL A   1      43.691  23.268  28.407  1.00  0.00     0.049 A 
ATOM     26  C   UNL A   1      46.649  28.194  28.843  1.00  0.00     0.074 A 
ATOM     27  C   UNL A   1      43.064  22.910  29.586  1.00  0.00     0.029 A 
ATOM     28  N   UNL A   1      44.943  23.696  28.777  1.00  0.00    -0.354 N 
ATOM     29  N   UNL A   1      46.679  27.505  29.948  1.00  0.00    -0.248 NA
ATOM     30  C   UNL A   1      46.747  27.417  27.618  1.00  0.00     0.031 C 
ATOM     31  C   UNL A   1      43.769  23.617  30.606  1.00  0.00     0.029 A 
ATOM     32  C   UNL A   1      44.835  24.287  30.004  1.00  0.00     0.049 A 
ATOM     33  H   UNL A   1      45.769  23.595  28.252  1.00  0.00     0.167 HD
ATOM     34  C   UNL A   1      46.326  26.221  29.563  1.00  0.00     0.074 A 
ATOM     35  C   UNL A   1      46.486  26.203  28.109  1.00  0.00     0.031 C 
ATOM     36  C   UNL A   1      45.654  25.397  30.421  1.00  0.00     0.037 A 
BRANCH  23  37
ATOM     37  C   UNL A   1      44.125  23.241  25.853  1.00  0.00     0.057 A 
ATOM     38  C   UNL A   1      44.377  21.887  25.554  1.00  0.00     0.134 A 
ATOM     39  C   UNL A   1      44.991  24.152  25.215  1.00  0.00     0.134 A 
ATOM     40  F   UNL A   1      43.609  20.913  26.066  1.00  0.00    -0.206 F 
ATOM     41  C   UNL A   1      45.498  21.470  24.824  1.00  0.00     0.040 A 
ATOM     42  C   UNL A   1      46.084  23.748  24.442  1.00  0.00     0.040 A 
ATOM     43  F   UNL A   1      44.899  25.475  25.365  1.00  0.00    -0.206 F 
ATOM     44  C   UNL A   1      46.371  22.403  24.285  1.00  0.00     0.006 A 
ENDBRANCH  23  37
BRANCH  24  45
ATOM     45  C   UNL A   1      46.931  30.698  28.249  1.00  0.00     0.057 A 
ATOM     46  C   UNL A   1      46.697  31.268  26.988  1.00  0.00     0.134 A 
ATOM     47  C   UNL A   1      47.777  31.426  29.102  1.00  0.00     0.134 A 
ATOM     48  F   UNL A   1      45.876  30.672  26.111  1.00  0.00    -0.206 F 
ATOM     49  C   UNL A   1      47.243  32.503  26.611  1.00  0.00     0.040 A 
ATOM     50  C   UNL A   1      48.336  32.656  28.736  1.00  0.00     0.040 A 
ATOM     51  F   UNL A   1      48.021  31.013  30.354  1.00  0.00    -0.206 F 
ATOM     52  C   UNL A   1      48.056  33.208  27.492  1.00  0.00     0.006 A 
ENDBRANCH  24  45
BRANCH  36  53
ATOM     53  C   UNL A   1      45.573  25.796  31.867  1.00  0.00     0.057 A 
ATOM     54  C   UNL A   1      46.601  25.613  32.805  1.00  0.00     0.134 A 
ATOM     55  C   UNL A   1      44.452  26.515  32.294  1.00  0.00     0.134 A 
ATOM     56  F   UNL A   1      47.758  25.030  32.468  1.00  0.00    -0.206 F 
ATOM     57  C   UNL A   1      46.493  26.080  34.118  1.00  0.00     0.040 A 
ATOM     58  C   UNL A   1      44.347  27.020  33.591  1.00  0.00     0.040 A 
ATOM     59  F   UNL A   1      43.452  26.779  31.437  1.00  0.00    -0.206 F 
ATOM     60  C   UNL A   1      45.364  26.792  34.513  1.00  0.00     0.006 A 
ENDBRANCH  36  53
ENDBRANCH  10  11
ENDBRANCH   3   5
ENDBRANCH   2   3
ENDBRANCH   1   2
BRANCH   1  61
ATOM     61  C   UNL A   1      34.842  32.810  30.169  1.00  0.00     0.275 C 
BRANCH  61  62
ATOM     62  O   UNL A   1      34.183  32.361  31.369  1.00  0.00    -0.458 OA
BRANCH  62  63
ATOM     63  C   UNL A   1      34.660  32.890  32.526  1.00  0.00     0.338 C 
ATOM     64  O   UNL A   1      34.087  33.609  33.319  1.00  0.00    -0.246 OA
BRANCH  63  65
ATOM     65  C   UNL A   1      36.072  32.512  32.680  1.00  0.00     0.065 A 
ATOM     66  C   UNL A   1      36.976  33.528  32.966  1.00  0.00     0.036 A 
ATOM     67  C   UNL A   1      36.466  31.169  32.671  1.00  0.00     0.065 A 
ATOM     68  C   UNL A   1      38.269  33.160  33.257  1.00  0.00     0.114 A 
ATOM     69  C   UNL A   1      37.798  30.894  32.961  1.00  0.00     0.157 A 
ATOM     70  N   UNL A   1      38.690  31.879  33.262  1.00  0.00    -0.237 NA
BRANCH  69  71
ATOM     71  N   UNL A   1      38.293  29.561  32.945  1.00  0.00    -0.182 N 
ATOM     72  C   UNL A   1      39.584  29.103  32.983  1.00  0.00     0.254 A 
ATOM     73  N   UNL A   1      37.473  28.482  32.959  1.00  0.00    -0.039 NA
ATOM     74  N   UNL A   1      39.583  27.790  33.006  1.00  0.00    -0.117 NA
ATOM     75  N   UNL A   1      38.265  27.420  32.970  1.00  0.00    -0.024 NA
ENDBRANCH  69  71
ENDBRANCH  63  65
ENDBRANCH  62  63
ENDBRANCH  61  62
ENDBRANCH   1  61
TORSDOF 12
ENDMDL
