MODEL 1
REMARK VINA RESULT:     -11.4      0.000      0.000
REMARK SMILES CS(=O)(=O)c1ccc(NS(=O)(=O)c2ccc(F)c(C(=O)OCCOC(=O)c3ccc(-c4c5nc(c(-c6c(F)cccc6F)c6ccc([nH]6)c(-c6c(F)cccc6F)c6nc(c(-c7c(F)cccc7F)c7ccc4[nH]7)C=C6)C=C5)cc3)c2)cc1
REMARK SMILES IDX 22 1 21 2 19 3 20 4 18 5 13 6 14 7 81 8 15 9 16 10 17 11
REMARK SMILES IDX 10 12 11 13 12 14 9 15 8 17 5 18 6 19 83 20 7 21 82 22 2 23
REMARK SMILES IDX 1 24 3 25 4 26 23 27 24 28 25 29 26 30 27 31 28 32 80 33
REMARK SMILES IDX 29 34 79 35 30 36 31 37 32 38 73 39 33 40 78 41 72 42 74 43
REMARK SMILES IDX 34 44 77 45 71 46 70 47 35 49 61 50 44 51 60 52 45 53 48 54
REMARK SMILES IDX 59 55 75 56 46 57 47 58 58 60 76 61 49 62 36 63 37 64 42 65
REMARK SMILES IDX 38 66 39 67 41 68 43 69 40 70 62 71 63 72 68 73 64 74 65 75
REMARK SMILES IDX 67 76 69 77 66 78 50 79 51 80 56 81 52 82 53 83 55 84 57 85
REMARK SMILES IDX 54 86
REMARK H PARENT 9 16 74 48 48 59
REMARK Flexibility Score: inf
ROOT
ATOM      1  C   UNL A   1      42.381  19.219  26.815  1.00  0.00     0.275 C 
ENDROOT
BRANCH   1   2
ATOM      2  O   UNL A   1      41.800  20.434  26.289  1.00  0.00    -0.458 OA
BRANCH   2   3
ATOM      3  C   UNL A   1      41.623  21.452  27.170  1.00  0.00     0.341 C 
ATOM      4  O   UNL A   1      42.435  21.827  28.000  1.00  0.00    -0.246 OA
BRANCH   3   5
ATOM      5  C   UNL A   1      40.327  22.132  26.919  1.00  0.00     0.097 A 
ATOM      6  C   UNL A   1      38.185  22.326  25.807  1.00  0.00     0.088 A 
ATOM      7  C   UNL A   1      37.984  23.590  26.374  1.00  0.00     0.025 A 
ATOM      8  C   UNL A   1      39.341  21.579  26.089  1.00  0.00     0.041 A 
ATOM      9  C   UNL A   1      38.953  24.124  27.216  1.00  0.00     0.041 A 
ATOM     10  C   UNL A   1      40.104  23.389  27.497  1.00  0.00     0.137 A 
ATOM     11  F   UNL A   1      41.014  23.960  28.299  1.00  0.00    -0.206 F 
BRANCH   6  12
ATOM     12  S   UNL A   1      36.937  21.666  24.733  1.00  0.00     0.261 S 
ATOM     13  O   UNL A   1      36.966  20.224  24.858  1.00  0.00    -0.201 OA
ATOM     14  O   UNL A   1      37.112  22.289  23.438  1.00  0.00    -0.201 OA
BRANCH  12  15
ATOM     15  N   UNL A   1      35.426  22.176  25.317  1.00  0.00    -0.280 N 
ATOM     16  H   UNL A   1      35.090  21.802  26.163  1.00  0.00     0.180 HD
BRANCH  15  17
ATOM     17  C   UNL A   1      34.623  23.139  24.613  1.00  0.00     0.049 A 
ATOM     18  C   UNL A   1      33.383  25.061  22.982  1.00  0.00     0.067 A 
ATOM     19  C   UNL A   1      34.082  25.462  24.115  1.00  0.00     0.022 A 
ATOM     20  C   UNL A   1      33.293  23.702  22.657  1.00  0.00     0.022 A 
ATOM     21  C   UNL A   1      34.727  24.501  24.897  1.00  0.00     0.028 A 
ATOM     22  C   UNL A   1      33.913  22.745  23.473  1.00  0.00     0.028 A 
BRANCH  18  23
ATOM     23  S   UNL A   1      32.682  26.263  21.876  1.00  0.00     0.175 S 
ATOM     24  C   UNL A   1      33.346  27.839  22.344  1.00  0.00     0.163 C 
ATOM     25  O   UNL A   1      31.257  26.302  22.150  1.00  0.00    -0.224 OA
ATOM     26  O   UNL A   1      33.183  25.941  20.555  1.00  0.00    -0.224 OA
ENDBRANCH  18  23
ENDBRANCH  15  17
ENDBRANCH  12  15
ENDBRANCH   6  12
ENDBRANCH   3   5
ENDBRANCH   2   3
ENDBRANCH   1   2
BRANCH   1  27
ATOM     27  C   UNL A   1      43.240  18.503  25.768  1.00  0.00     0.275 C 
BRANCH  27  28
ATOM     28  O   UNL A   1      43.499  19.354  24.635  1.00  0.00    -0.458 OA
BRANCH  28  29
ATOM     29  C   UNL A   1      44.805  19.598  24.386  1.00  0.00     0.338 C 
ATOM     30  O   UNL A   1      45.623  18.856  23.866  1.00  0.00    -0.246 OA
BRANCH  29  31
ATOM     31  C   UNL A   1      45.101  21.011  24.649  1.00  0.00     0.060 A 
ATOM     32  C   UNL A   1      45.499  21.323  25.944  1.00  0.00     0.016 A 
ATOM     33  C   UNL A   1      44.873  22.023  23.721  1.00  0.00     0.016 A 
ATOM     34  C   UNL A   1      45.634  22.644  26.346  1.00  0.00     0.010 A 
ATOM     35  C   UNL A   1      45.064  23.359  24.108  1.00  0.00     0.010 A 
ATOM     36  C   UNL A   1      45.432  23.683  25.430  1.00  0.00    -0.014 A 
BRANCH  36  37
ATOM     37  C   UNL A   1      45.591  25.093  25.883  1.00  0.00     0.031 A 
ATOM     38  C   UNL A   1      46.935  25.766  25.826  1.00  0.00     0.074 A 
ATOM     39  C   UNL A   1      44.516  25.790  26.303  1.00  0.00     0.049 A 
ATOM     40  N   UNL A   1      47.288  26.952  26.257  1.00  0.00    -0.248 NA
ATOM     41  C   UNL A   1      48.029  25.007  25.198  1.00  0.00     0.031 C 
ATOM     42  C   UNL A   1      43.144  25.280  26.353  1.00  0.00     0.029 A 
ATOM     43  N   UNL A   1      44.404  27.080  26.761  1.00  0.00    -0.354 N 
ATOM     44  C   UNL A   1      48.646  27.066  25.989  1.00  0.00     0.074 A 
ATOM     45  C   UNL A   1      49.058  25.826  25.367  1.00  0.00     0.031 C 
ATOM     46  C   UNL A   1      42.328  26.251  26.789  1.00  0.00     0.029 A 
ATOM     47  C   UNL A   1      43.126  27.422  27.132  1.00  0.00     0.049 A 
ATOM     48  H   UNL A   1      45.167  27.701  26.817  1.00  0.00     0.167 HD
ATOM     49  C   UNL A   1      49.473  28.111  26.242  1.00  0.00     0.037 A 
ATOM     50  C   UNL A   1      42.651  28.533  27.727  1.00  0.00     0.037 A 
ATOM     51  C   UNL A   1      49.053  29.350  26.847  1.00  0.00     0.049 A 
ATOM     52  C   UNL A   1      43.604  29.642  28.073  1.00  0.00     0.074 A 
ATOM     53  C   UNL A   1      49.815  30.470  27.134  1.00  0.00     0.029 A 
ATOM     54  N   UNL A   1      47.761  29.633  27.263  1.00  0.00    -0.354 N 
ATOM     55  N   UNL A   1      44.890  29.732  27.833  1.00  0.00    -0.248 NA
ATOM     56  C   UNL A   1      43.043  30.798  28.785  1.00  0.00     0.031 C 
ATOM     57  C   UNL A   1      48.998  31.406  27.776  1.00  0.00     0.029 A 
ATOM     58  C   UNL A   1      47.711  30.896  27.831  1.00  0.00     0.049 A 
ATOM     59  H   UNL A   1      46.991  29.026  27.168  1.00  0.00     0.167 HD
ATOM     60  C   UNL A   1      45.287  30.959  28.346  1.00  0.00     0.074 A 
ATOM     61  C   UNL A   1      44.101  31.588  28.890  1.00  0.00     0.031 C 
ATOM     62  C   UNL A   1      46.524  31.514  28.368  1.00  0.00     0.037 A 
BRANCH  49  63
ATOM     63  C   UNL A   1      50.928  27.944  25.907  1.00  0.00     0.057 A 
ATOM     64  C   UNL A   1      51.868  27.508  26.850  1.00  0.00     0.134 A 
ATOM     65  C   UNL A   1      51.388  28.187  24.605  1.00  0.00     0.134 A 
ATOM     66  F   UNL A   1      51.500  27.274  28.118  1.00  0.00    -0.206 F 
ATOM     67  C   UNL A   1      53.215  27.345  26.518  1.00  0.00     0.040 A 
ATOM     68  C   UNL A   1      52.725  28.001  24.254  1.00  0.00     0.040 A 
ATOM     69  F   UNL A   1      50.542  28.602  23.651  1.00  0.00    -0.206 F 
ATOM     70  C   UNL A   1      53.646  27.584  25.213  1.00  0.00     0.006 A 
ENDBRANCH  49  63
BRANCH  50  71
ATOM     71  C   UNL A   1      41.211  28.630  28.085  1.00  0.00     0.057 A 
ATOM     72  C   UNL A   1      40.251  29.022  27.146  1.00  0.00     0.134 A 
ATOM     73  C   UNL A   1      40.762  28.348  29.383  1.00  0.00     0.134 A 
ATOM     74  F   UNL A   1      40.619  29.330  25.893  1.00  0.00    -0.206 F 
ATOM     75  C   UNL A   1      38.903  29.146  27.486  1.00  0.00     0.040 A 
ATOM     76  C   UNL A   1      39.414  28.435  29.728  1.00  0.00     0.040 A 
ATOM     77  F   UNL A   1      41.631  27.967  30.332  1.00  0.00    -0.206 F 
ATOM     78  C   UNL A   1      38.480  28.844  28.778  1.00  0.00     0.006 A 
ENDBRANCH  50  71
BRANCH  62  79
ATOM     79  C   UNL A   1      46.650  32.884  28.970  1.00  0.00     0.057 A 
ATOM     80  C   UNL A   1      46.961  33.078  30.321  1.00  0.00     0.134 A 
ATOM     81  C   UNL A   1      46.482  34.028  28.176  1.00  0.00     0.134 A 
ATOM     82  F   UNL A   1      47.118  32.026  31.139  1.00  0.00    -0.206 F 
ATOM     83  C   UNL A   1      47.073  34.357  30.869  1.00  0.00     0.040 A 
ATOM     84  C   UNL A   1      46.624  35.311  28.704  1.00  0.00     0.040 A 
ATOM     85  F   UNL A   1      46.192  33.915  26.871  1.00  0.00    -0.206 F 
ATOM     86  C   UNL A   1      46.912  35.478  30.058  1.00  0.00     0.006 A 
ENDBRANCH  62  79
ENDBRANCH  36  37
ENDBRANCH  29  31
ENDBRANCH  28  29
ENDBRANCH  27  28
ENDBRANCH   1  27
TORSDOF 15
ENDMDL
MODEL 2
REMARK VINA RESULT:     -11.3      4.941      7.582
REMARK SMILES CS(=O)(=O)c1ccc(NS(=O)(=O)c2ccc(F)c(C(=O)OCCOC(=O)c3ccc(-c4c5nc(c(-c6c(F)cccc6F)c6ccc([nH]6)c(-c6c(F)cccc6F)c6nc(c(-c7c(F)cccc7F)c7ccc4[nH]7)C=C6)C=C5)cc3)c2)cc1
REMARK SMILES IDX 22 1 21 2 19 3 20 4 18 5 13 6 14 7 81 8 15 9 16 10 17 11
REMARK SMILES IDX 10 12 11 13 12 14 9 15 8 17 5 18 6 19 83 20 7 21 82 22 2 23
REMARK SMILES IDX 1 24 3 25 4 26 23 27 24 28 25 29 26 30 27 31 28 32 80 33
REMARK SMILES IDX 29 34 79 35 30 36 31 37 32 38 73 39 33 40 78 41 72 42 74 43
REMARK SMILES IDX 34 44 77 45 71 46 70 47 35 49 61 50 44 51 60 52 45 53 48 54
REMARK SMILES IDX 59 55 75 56 46 57 47 58 58 60 76 61 49 62 36 63 37 64 42 65
REMARK SMILES IDX 38 66 39 67 41 68 43 69 40 70 62 71 63 72 68 73 64 74 65 75
REMARK SMILES IDX 67 76 69 77 66 78 50 79 51 80 56 81 52 82 53 83 55 84 57 85
REMARK SMILES IDX 54 86
REMARK H PARENT 9 16 74 48 48 59
REMARK Flexibility Score: inf
ROOT
ATOM      1  C   UNL A   1      42.978  21.045  25.834  1.00  0.00     0.275 C 
ENDROOT
BRANCH   1   2
ATOM      2  O   UNL A   1      41.650  21.421  25.405  1.00  0.00    -0.458 OA
BRANCH   2   3
ATOM      3  C   UNL A   1      40.616  20.943  26.143  1.00  0.00     0.341 C 
ATOM      4  O   UNL A   1      40.563  19.844  26.671  1.00  0.00    -0.246 OA
BRANCH   3   5
ATOM      5  C   UNL A   1      39.577  21.990  26.315  1.00  0.00     0.097 A 
ATOM      6  C   UNL A   1      37.538  23.120  25.658  1.00  0.00     0.088 A 
ATOM      7  C   UNL A   1      37.765  24.122  26.610  1.00  0.00     0.025 A 
ATOM      8  C   UNL A   1      38.425  22.039  25.517  1.00  0.00     0.041 A 
ATOM      9  C   UNL A   1      38.896  24.056  27.416  1.00  0.00     0.041 A 
ATOM     10  C   UNL A   1      39.781  22.988  27.278  1.00  0.00     0.137 A 
ATOM     11  F   UNL A   1      40.864  22.985  28.067  1.00  0.00    -0.206 F 
BRANCH   6  12
ATOM     12  S   UNL A   1      36.091  23.226  24.638  1.00  0.00     0.261 S 
ATOM     13  O   UNL A   1      36.430  22.691  23.336  1.00  0.00    -0.201 OA
ATOM     14  O   UNL A   1      35.578  24.574  24.761  1.00  0.00    -0.201 OA
BRANCH  12  15
ATOM     15  N   UNL A   1      34.914  22.195  25.298  1.00  0.00    -0.280 N 
ATOM     16  H   UNL A   1      34.304  22.546  25.986  1.00  0.00     0.180 HD
BRANCH  15  17
ATOM     17  C   UNL A   1      34.783  20.825  24.883  1.00  0.00     0.049 A 
ATOM     18  C   UNL A   1      34.454  18.065  24.474  1.00  0.00     0.067 A 
ATOM     19  C   UNL A   1      35.723  18.585  24.702  1.00  0.00     0.022 A 
ATOM     20  C   UNL A   1      33.343  18.915  24.443  1.00  0.00     0.022 A 
ATOM     21  C   UNL A   1      35.870  19.952  24.942  1.00  0.00     0.028 A 
ATOM     22  C   UNL A   1      33.510  20.293  24.647  1.00  0.00     0.028 A 
BRANCH  18  23
ATOM     23  S   UNL A   1      34.205  16.312  24.319  1.00  0.00     0.175 S 
ATOM     24  C   UNL A   1      32.679  15.936  25.140  1.00  0.00     0.163 C 
ATOM     25  O   UNL A   1      35.265  15.671  25.074  1.00  0.00    -0.224 OA
ATOM     26  O   UNL A   1      34.027  16.050  22.905  1.00  0.00    -0.224 OA
ENDBRANCH  18  23
ENDBRANCH  15  17
ENDBRANCH  12  15
ENDBRANCH   6  12
ENDBRANCH   3   5
ENDBRANCH   2   3
ENDBRANCH   1   2
BRANCH   1  27
ATOM     27  C   UNL A   1      44.032  22.050  25.358  1.00  0.00     0.275 C 
BRANCH  27  28
ATOM     28  O   UNL A   1      43.426  23.297  24.968  1.00  0.00    -0.458 OA
BRANCH  28  29
ATOM     29  C   UNL A   1      44.155  24.401  25.246  1.00  0.00     0.338 C 
ATOM     30  O   UNL A   1      45.109  24.847  24.630  1.00  0.00    -0.246 OA
BRANCH  29  31
ATOM     31  C   UNL A   1      43.509  25.158  26.325  1.00  0.00     0.060 A 
ATOM     32  C   UNL A   1      43.483  26.539  26.174  1.00  0.00     0.016 A 
ATOM     33  C   UNL A   1      43.065  24.572  27.507  1.00  0.00     0.016 A 
ATOM     34  C   UNL A   1      43.056  27.358  27.208  1.00  0.00     0.010 A 
ATOM     35  C   UNL A   1      42.578  25.396  28.535  1.00  0.00     0.010 A 
ATOM     36  C   UNL A   1      42.584  26.799  28.401  1.00  0.00    -0.014 A 
BRANCH  36  37
ATOM     37  C   UNL A   1      42.123  27.699  29.495  1.00  0.00     0.031 A 
ATOM     38  C   UNL A   1      42.879  27.771  30.794  1.00  0.00     0.074 A 
ATOM     39  C   UNL A   1      41.049  28.492  29.305  1.00  0.00     0.049 A 
ATOM     40  N   UNL A   1      42.583  28.424  31.890  1.00  0.00    -0.248 NA
ATOM     41  C   UNL A   1      44.136  27.010  30.871  1.00  0.00     0.031 C 
ATOM     42  C   UNL A   1      40.260  28.567  28.074  1.00  0.00     0.029 A 
ATOM     43  N   UNL A   1      40.440  29.393  30.143  1.00  0.00    -0.354 N 
ATOM     44  C   UNL A   1      43.592  28.123  32.797  1.00  0.00     0.074 A 
ATOM     45  C   UNL A   1      44.504  27.221  32.127  1.00  0.00     0.031 C 
ATOM     46  C   UNL A   1      39.290  29.481  28.228  1.00  0.00     0.029 A 
ATOM     47  C   UNL A   1      39.332  29.993  29.592  1.00  0.00     0.049 A 
ATOM     48  H   UNL A   1      40.764  29.591  31.052  1.00  0.00     0.167 HD
ATOM     49  C   UNL A   1      43.740  28.560  34.072  1.00  0.00     0.037 A 
ATOM     50  C   UNL A   1      38.421  30.824  30.134  1.00  0.00     0.037 A 
ATOM     51  C   UNL A   1      42.837  29.471  34.728  1.00  0.00     0.049 A 
ATOM     52  C   UNL A   1      38.563  31.226  31.575  1.00  0.00     0.074 A 
ATOM     53  C   UNL A   1      42.909  29.979  36.015  1.00  0.00     0.029 A 
ATOM     54  N   UNL A   1      41.694  30.009  34.154  1.00  0.00    -0.354 N 
ATOM     55  N   UNL A   1      39.510  30.921  32.429  1.00  0.00    -0.248 NA
ATOM     56  C   UNL A   1      37.503  32.076  32.132  1.00  0.00     0.031 C 
ATOM     57  C   UNL A   1      41.781  30.775  36.237  1.00  0.00     0.029 A 
ATOM     58  C   UNL A   1      41.038  30.817  35.069  1.00  0.00     0.049 A 
ATOM     59  H   UNL A   1      41.394  29.841  33.231  1.00  0.00     0.167 HD
ATOM     60  C   UNL A   1      39.171  31.556  33.616  1.00  0.00     0.074 A 
ATOM     61  C   UNL A   1      37.943  32.281  33.365  1.00  0.00     0.031 C 
ATOM     62  C   UNL A   1      39.816  31.536  34.808  1.00  0.00     0.037 A 
BRANCH  49  63
ATOM     63  C   UNL A   1      44.900  28.021  34.861  1.00  0.00     0.057 A 
ATOM     64  C   UNL A   1      46.136  28.679  34.919  1.00  0.00     0.134 A 
ATOM     65  C   UNL A   1      44.763  26.843  35.608  1.00  0.00     0.134 A 
ATOM     66  F   UNL A   1      46.342  29.802  34.215  1.00  0.00    -0.206 F 
ATOM     67  C   UNL A   1      47.200  28.172  35.669  1.00  0.00     0.040 A 
ATOM     68  C   UNL A   1      45.808  26.341  36.384  1.00  0.00     0.040 A 
ATOM     69  F   UNL A   1      43.606  26.165  35.603  1.00  0.00    -0.206 F 
ATOM     70  C   UNL A   1      47.034  27.002  36.411  1.00  0.00     0.006 A 
ENDBRANCH  49  63
BRANCH  50  71
ATOM     71  C   UNL A   1      37.263  31.290  29.327  1.00  0.00     0.057 A 
ATOM     72  C   UNL A   1      37.235  32.570  28.762  1.00  0.00     0.134 A 
ATOM     73  C   UNL A   1      36.147  30.469  29.114  1.00  0.00     0.134 A 
ATOM     74  F   UNL A   1      38.261  33.413  28.949  1.00  0.00    -0.206 F 
ATOM     75  C   UNL A   1      36.136  33.022  28.030  1.00  0.00     0.040 A 
ATOM     76  C   UNL A   1      35.055  30.896  28.357  1.00  0.00     0.040 A 
ATOM     77  F   UNL A   1      36.108  29.231  29.629  1.00  0.00    -0.206 F 
ATOM     78  C   UNL A   1      35.045  32.181  27.820  1.00  0.00     0.006 A 
ENDBRANCH  50  71
BRANCH  62  79
ATOM     79  C   UNL A   1      39.224  32.352  35.921  1.00  0.00     0.057 A 
ATOM     80  C   UNL A   1      39.563  33.696  36.120  1.00  0.00     0.134 A 
ATOM     81  C   UNL A   1      38.279  31.789  36.790  1.00  0.00     0.134 A 
ATOM     82  F   UNL A   1      40.473  34.290  35.334  1.00  0.00    -0.206 F 
ATOM     83  C   UNL A   1      39.007  34.444  37.159  1.00  0.00     0.040 A 
ATOM     84  C   UNL A   1      37.692  32.535  37.813  1.00  0.00     0.040 A 
ATOM     85  F   UNL A   1      37.901  30.510  36.651  1.00  0.00    -0.206 F 
ATOM     86  C   UNL A   1      38.062  33.865  38.005  1.00  0.00     0.006 A 
ENDBRANCH  62  79
ENDBRANCH  36  37
ENDBRANCH  29  31
ENDBRANCH  28  29
ENDBRANCH  27  28
ENDBRANCH   1  27
TORSDOF 15
ENDMDL
MODEL 3
REMARK VINA RESULT:     -11.2      5.530      9.593
REMARK SMILES CS(=O)(=O)c1ccc(NS(=O)(=O)c2ccc(F)c(C(=O)OCCOC(=O)c3ccc(-c4c5nc(c(-c6c(F)cccc6F)c6ccc([nH]6)c(-c6c(F)cccc6F)c6nc(c(-c7c(F)cccc7F)c7ccc4[nH]7)C=C6)C=C5)cc3)c2)cc1
REMARK SMILES IDX 22 1 21 2 19 3 20 4 18 5 13 6 14 7 81 8 15 9 16 10 17 11
REMARK SMILES IDX 10 12 11 13 12 14 9 15 8 17 5 18 6 19 83 20 7 21 82 22 2 23
REMARK SMILES IDX 1 24 3 25 4 26 23 27 24 28 25 29 26 30 27 31 28 32 80 33
REMARK SMILES IDX 29 34 79 35 30 36 31 37 32 38 73 39 33 40 78 41 72 42 74 43
REMARK SMILES IDX 34 44 77 45 71 46 70 47 35 49 61 50 44 51 60 52 45 53 48 54
REMARK SMILES IDX 59 55 75 56 46 57 47 58 58 60 76 61 49 62 36 63 37 64 42 65
REMARK SMILES IDX 38 66 39 67 41 68 43 69 40 70 62 71 63 72 68 73 64 74 65 75
REMARK SMILES IDX 67 76 69 77 66 78 50 79 51 80 56 81 52 82 53 83 55 84 57 85
REMARK SMILES IDX 54 86
REMARK H PARENT 9 16 74 48 48 59
REMARK Flexibility Score: inf
ROOT
ATOM      1  C   UNL A   1      46.086  24.048  26.541  1.00  0.00     0.275 C 
ENDROOT
BRANCH   1   2
ATOM      2  O   UNL A   1      46.201  22.689  26.062  1.00  0.00    -0.458 OA
BRANCH   2   3
ATOM      3  C   UNL A   1      45.512  22.384  24.933  1.00  0.00     0.341 C 
ATOM      4  O   UNL A   1      45.635  22.934  23.850  1.00  0.00    -0.246 OA
BRANCH   3   5
ATOM      5  C   UNL A   1      44.643  21.202  25.163  1.00  0.00     0.097 A 
ATOM      6  C   UNL A   1      42.566  20.167  25.858  1.00  0.00     0.088 A 
ATOM      7  C   UNL A   1      43.141  18.895  25.744  1.00  0.00     0.025 A 
ATOM      8  C   UNL A   1      43.300  21.326  25.549  1.00  0.00     0.041 A 
ATOM      9  C   UNL A   1      44.465  18.777  25.338  1.00  0.00     0.041 A 
ATOM     10  C   UNL A   1      45.199  19.922  25.034  1.00  0.00     0.137 A 
ATOM     11  F   UNL A   1      46.476  19.751  24.666  1.00  0.00    -0.206 F 
BRANCH   6  12
ATOM     12  S   UNL A   1      40.876  20.295  26.382  1.00  0.00     0.261 S 
ATOM     13  O   UNL A   1      40.871  20.433  27.823  1.00  0.00    -0.201 OA
ATOM     14  O   UNL A   1      40.149  19.214  25.751  1.00  0.00    -0.201 OA
BRANCH  12  15
ATOM     15  N   UNL A   1      40.245  21.740  25.750  1.00  0.00    -0.280 N 
ATOM     16  H   UNL A   1      40.857  22.384  25.327  1.00  0.00     0.180 HD
BRANCH  15  17
ATOM     17  C   UNL A   1      38.843  22.050  25.815  1.00  0.00     0.049 A 
ATOM     18  C   UNL A   1      36.144  22.785  25.547  1.00  0.00     0.067 A 
ATOM     19  C   UNL A   1      37.063  23.697  26.054  1.00  0.00     0.022 A 
ATOM     20  C   UNL A   1      36.561  21.501  25.176  1.00  0.00     0.022 A 
ATOM     21  C   UNL A   1      38.408  23.334  26.146  1.00  0.00     0.028 A 
ATOM     22  C   UNL A   1      37.908  21.137  25.311  1.00  0.00     0.028 A 
BRANCH  18  23
ATOM     23  S   UNL A   1      34.454  23.260  25.268  1.00  0.00     0.175 S 
ATOM     24  C   UNL A   1      34.393  25.029  25.377  1.00  0.00     0.163 C 
ATOM     25  O   UNL A   1      33.683  22.737  26.380  1.00  0.00    -0.224 OA
ATOM     26  O   UNL A   1      34.148  22.887  23.901  1.00  0.00    -0.224 OA
ENDBRANCH  18  23
ENDBRANCH  15  17
ENDBRANCH  12  15
ENDBRANCH   6  12
ENDBRANCH   3   5
ENDBRANCH   2   3
ENDBRANCH   1   2
BRANCH   1  27
ATOM     27  C   UNL A   1      44.655  24.375  26.980  1.00  0.00     0.275 C 
BRANCH  27  28
ATOM     28  O   UNL A   1      44.025  25.294  26.067  1.00  0.00    -0.458 OA
BRANCH  28  29
ATOM     29  C   UNL A   1      42.675  25.243  26.042  1.00  0.00     0.338 C 
ATOM     30  O   UNL A   1      41.963  24.511  25.374  1.00  0.00    -0.246 OA
BRANCH  29  31
ATOM     31  C   UNL A   1      42.131  26.080  27.118  1.00  0.00     0.060 A 
ATOM     32  C   UNL A   1      42.697  27.342  27.258  1.00  0.00     0.016 A 
ATOM     33  C   UNL A   1      41.203  25.619  28.047  1.00  0.00     0.016 A 
ATOM     34  C   UNL A   1      42.382  28.144  28.345  1.00  0.00     0.010 A 
ATOM     35  C   UNL A   1      40.838  26.452  29.117  1.00  0.00     0.010 A 
ATOM     36  C   UNL A   1      41.437  27.718  29.285  1.00  0.00    -0.014 A 
BRANCH  36  37
ATOM     37  C   UNL A   1      41.109  28.600  30.439  1.00  0.00     0.031 A 
ATOM     38  C   UNL A   1      39.984  29.595  30.343  1.00  0.00     0.074 A 
ATOM     39  C   UNL A   1      41.791  28.477  31.595  1.00  0.00     0.049 A 
ATOM     40  N   UNL A   1      39.608  30.507  31.205  1.00  0.00    -0.248 NA
ATOM     41  C   UNL A   1      39.172  29.559  29.117  1.00  0.00     0.031 C 
ATOM     42  C   UNL A   1      42.865  27.513  31.845  1.00  0.00     0.029 A 
ATOM     43  N   UNL A   1      41.678  29.160  32.781  1.00  0.00    -0.354 N 
ATOM     44  C   UNL A   1      38.545  31.176  30.613  1.00  0.00     0.074 A 
ATOM     45  C   UNL A   1      38.340  30.573  29.313  1.00  0.00     0.031 C 
ATOM     46  C   UNL A   1      43.293  27.649  33.110  1.00  0.00     0.029 A 
ATOM     47  C   UNL A   1      42.588  28.762  33.732  1.00  0.00     0.049 A 
ATOM     48  H   UNL A   1      41.010  29.866  32.937  1.00  0.00     0.167 HD
ATOM     49  C   UNL A   1      37.809  32.201  31.109  1.00  0.00     0.037 A 
ATOM     50  C   UNL A   1      42.863  29.266  34.951  1.00  0.00     0.037 A 
ATOM     51  C   UNL A   1      38.007  32.787  32.411  1.00  0.00     0.049 A 
ATOM     52  C   UNL A   1      42.088  30.456  35.442  1.00  0.00     0.074 A 
ATOM     53  C   UNL A   1      37.305  33.822  33.006  1.00  0.00     0.029 A 
ATOM     54  N   UNL A   1      38.979  32.394  33.319  1.00  0.00    -0.354 N 
ATOM     55  N   UNL A   1      41.098  31.093  34.866  1.00  0.00    -0.248 NA
ATOM     56  C   UNL A   1      42.479  31.006  36.747  1.00  0.00     0.031 C 
ATOM     57  C   UNL A   1      37.890  34.094  34.247  1.00  0.00     0.029 A 
ATOM     58  C   UNL A   1      38.915  33.186  34.455  1.00  0.00     0.049 A 
ATOM     59  H   UNL A   1      39.620  31.660  33.177  1.00  0.00     0.167 HD
ATOM     60  C   UNL A   1      40.735  32.105  35.745  1.00  0.00     0.074 A 
ATOM     61  C   UNL A   1      41.596  31.982  36.902  1.00  0.00     0.031 C 
ATOM     62  C   UNL A   1      39.777  33.054  35.603  1.00  0.00     0.037 A 
BRANCH  49  63
ATOM     63  C   UNL A   1      36.748  32.789  30.222  1.00  0.00     0.057 A 
ATOM     64  C   UNL A   1      37.050  33.677  29.181  1.00  0.00     0.134 A 
ATOM     65  C   UNL A   1      35.404  32.430  30.391  1.00  0.00     0.134 A 
ATOM     66  F   UNL A   1      38.313  34.078  28.974  1.00  0.00    -0.206 F 
ATOM     67  C   UNL A   1      36.052  34.204  28.357  1.00  0.00     0.040 A 
ATOM     68  C   UNL A   1      34.401  32.927  29.557  1.00  0.00     0.040 A 
ATOM     69  F   UNL A   1      35.043  31.580  31.364  1.00  0.00    -0.206 F 
ATOM     70  C   UNL A   1      34.723  33.822  28.539  1.00  0.00     0.006 A 
ENDBRANCH  49  63
BRANCH  50  71
ATOM     71  C   UNL A   1      43.957  28.681  35.771  1.00  0.00     0.057 A 
ATOM     72  C   UNL A   1      45.274  29.141  35.664  1.00  0.00     0.134 A 
ATOM     73  C   UNL A   1      43.713  27.634  36.670  1.00  0.00     0.134 A 
ATOM     74  F   UNL A   1      45.578  30.124  34.803  1.00  0.00    -0.206 F 
ATOM     75  C   UNL A   1      46.310  28.574  36.408  1.00  0.00     0.040 A 
ATOM     76  C   UNL A   1      44.732  27.080  37.445  1.00  0.00     0.040 A 
ATOM     77  F   UNL A   1      42.473  27.145  36.821  1.00  0.00    -0.206 F 
ATOM     78  C   UNL A   1      46.038  27.545  37.308  1.00  0.00     0.006 A 
ENDBRANCH  50  71
BRANCH  62  79
ATOM     79  C   UNL A   1      39.587  34.011  36.745  1.00  0.00     0.057 A 
ATOM     80  C   UNL A   1      38.830  33.679  37.875  1.00  0.00     0.134 A 
ATOM     81  C   UNL A   1      40.193  35.274  36.722  1.00  0.00     0.134 A 
ATOM     82  F   UNL A   1      38.210  32.492  37.953  1.00  0.00    -0.206 F 
ATOM     83  C   UNL A   1      38.659  34.578  38.929  1.00  0.00     0.040 A 
ATOM     84  C   UNL A   1      40.056  36.170  37.783  1.00  0.00     0.040 A 
ATOM     85  F   UNL A   1      40.939  35.654  35.674  1.00  0.00    -0.206 F 
ATOM     86  C   UNL A   1      39.280  35.825  38.889  1.00  0.00     0.006 A 
ENDBRANCH  62  79
ENDBRANCH  36  37
ENDBRANCH  29  31
ENDBRANCH  28  29
ENDBRANCH  27  28
ENDBRANCH   1  27
TORSDOF 15
ENDMDL
