MODEL 1
REMARK VINA RESULT:     -10.3      0.000      0.000
REMARK SMILES C[C@@H]1CN(S(=O)(=O)N[C@H](C(=O)OCCOC(=O)c2ccc(-c3c4nc(c(-c5c(F)cccc5F)c5ccc([nH]5)c(-c5c(F)cccc5F)c5nc(c(-c6c(F)cccc6F)c6ccc3[nH]6)C=C5)C=C4)cc2)[C@@H](C)O)C[C@@H](C)O1
REMARK SMILES IDX 13 1 12 2 10 3 11 4 9 5 8 6 5 8 6 9 7 10 4 11 1 12 2 13 3 14
REMARK SMILES IDX 78 15 76 16 75 17 77 18 72 19 73 20 74 21 14 23 15 24 16 25
REMARK SMILES IDX 17 26 18 27 19 28 71 29 20 30 70 31 21 32 22 33 23 34 64 35
REMARK SMILES IDX 24 36 69 37 63 38 65 39 25 40 68 41 62 42 61 43 26 45 52 46
REMARK SMILES IDX 35 47 51 48 36 49 39 50 50 51 66 52 37 53 38 54 49 56 67 57
REMARK SMILES IDX 40 58 27 59 28 60 33 61 29 62 30 63 32 64 34 65 31 66 53 67
REMARK SMILES IDX 54 68 59 69 55 70 56 71 58 72 60 73 57 74 41 75 42 76 47 77
REMARK SMILES IDX 43 78 44 79 46 80 48 81 45 82
REMARK H PARENT 8 7 74 22 65 44 39 55
REMARK Flexibility Score: inf
ROOT
ATOM      1  C   UNL A   1      41.071  21.338  27.288  1.00  0.00     0.274 C 
ENDROOT
BRANCH   1   2
ATOM      2  O   UNL A   1      42.243  20.497  27.298  1.00  0.00    -0.461 OA
BRANCH   2   3
ATOM      3  C   UNL A   1      42.398  19.749  26.180  1.00  0.00     0.327 C 
ATOM      4  O   UNL A   1      41.541  18.988  25.735  1.00  0.00    -0.250 OA
BRANCH   3   5
ATOM      5  C   UNL A   1      43.732  19.919  25.486  1.00  0.00     0.208 C 
BRANCH   5   6
ATOM      6  N   UNL A   1      44.478  21.196  25.794  1.00  0.00    -0.185 NA
ATOM      7  H   UNL A   1      43.878  21.716  26.432  1.00  0.00     0.143 HD
BRANCH   6   8
ATOM      8  S   UNL A   1      44.979  22.299  24.650  1.00  0.00     0.280 S 
ATOM      9  O   UNL A   1      44.075  22.252  23.532  1.00  0.00    -0.195 OA
ATOM     10  O   UNL A   1      46.399  22.089  24.471  1.00  0.00    -0.195 OA
BRANCH   8  11
ATOM     11  N   UNL A   1      44.813  23.808  25.463  1.00  0.00    -0.184 NA
ATOM     12  C   UNL A   1      45.456  27.183  25.711  1.00  0.00     0.040 C 
ATOM     13  C   UNL A   1      46.148  25.907  26.171  1.00  0.00     0.130 C 
ATOM     14  C   UNL A   1      45.977  24.699  25.254  1.00  0.00     0.135 C 
ATOM     15  O   UNL A   1      45.860  25.612  27.534  1.00  0.00    -0.373 OA
ATOM     16  C   UNL A   1      44.596  24.955  27.698  1.00  0.00     0.130 C 
ATOM     17  C   UNL A   1      44.549  23.617  26.934  1.00  0.00     0.135 C 
ATOM     18  C   UNL A   1      44.448  24.746  29.199  1.00  0.00     0.040 C 
ENDBRANCH   8  11
ENDBRANCH   6   8
ENDBRANCH   5   6
BRANCH   5  19
ATOM     19  C   UNL A   1      44.470  18.563  25.371  1.00  0.00     0.140 C 
ATOM     20  C   UNL A   1      45.997  18.647  25.372  1.00  0.00     0.040 C 
BRANCH  19  21
ATOM     21  O   UNL A   1      44.185  17.734  26.519  1.00  0.00    -0.391 OA
ATOM     22  H   UNL A   1      43.225  17.683  26.651  1.00  0.00     0.211 HD
ENDBRANCH  19  21
ENDBRANCH   5  19
ENDBRANCH   3   5
ENDBRANCH   2   3
ENDBRANCH   1   2
BRANCH   1  23
ATOM     23  C   UNL A   1      41.121  22.415  26.192  1.00  0.00     0.275 C 
BRANCH  23  24
ATOM     24  O   UNL A   1      40.399  23.622  26.522  1.00  0.00    -0.458 OA
BRANCH  24  25
ATOM     25  C   UNL A   1      41.082  24.775  26.332  1.00  0.00     0.338 C 
ATOM     26  O   UNL A   1      41.772  25.071  25.367  1.00  0.00    -0.246 OA
BRANCH  25  27
ATOM     27  C   UNL A   1      40.730  25.772  27.359  1.00  0.00     0.060 A 
ATOM     28  C   UNL A   1      41.530  26.915  27.432  1.00  0.00     0.016 A 
ATOM     29  C   UNL A   1      39.722  25.563  28.297  1.00  0.00     0.016 A 
ATOM     30  C   UNL A   1      41.340  27.857  28.431  1.00  0.00     0.010 A 
ATOM     31  C   UNL A   1      39.531  26.510  29.313  1.00  0.00     0.010 A 
ATOM     32  C   UNL A   1      40.345  27.656  29.389  1.00  0.00    -0.014 A 
BRANCH  32  33
ATOM     33  C   UNL A   1      40.225  28.622  30.504  1.00  0.00     0.031 A 
ATOM     34  C   UNL A   1      39.198  29.713  30.433  1.00  0.00     0.074 A 
ATOM     35  C   UNL A   1      41.000  28.485  31.596  1.00  0.00     0.049 A 
ATOM     36  N   UNL A   1      38.987  30.705  31.259  1.00  0.00    -0.248 NA
ATOM     37  C   UNL A   1      38.288  29.684  29.278  1.00  0.00     0.031 C 
ATOM     38  C   UNL A   1      41.981  27.419  31.807  1.00  0.00     0.029 A 
ATOM     39  N   UNL A   1      41.084  29.247  32.733  1.00  0.00    -0.354 N 
ATOM     40  C   UNL A   1      37.939  31.435  30.709  1.00  0.00     0.074 A 
ATOM     41  C   UNL A   1      37.572  30.782  29.472  1.00  0.00     0.031 C 
ATOM     42  C   UNL A   1      42.572  27.600  32.998  1.00  0.00     0.029 A 
ATOM     43  C   UNL A   1      42.056  28.822  33.605  1.00  0.00     0.049 A 
ATOM     44  H   UNL A   1      40.505  30.024  32.906  1.00  0.00     0.167 HD
ATOM     45  C   UNL A   1      37.342  32.546  31.200  1.00  0.00     0.037 A 
ATOM     46  C   UNL A   1      42.505  29.380  34.745  1.00  0.00     0.037 A 
ATOM     47  C   UNL A   1      37.713  33.180  32.439  1.00  0.00     0.049 A 
ATOM     48  C   UNL A   1      41.882  30.663  35.223  1.00  0.00     0.074 A 
ATOM     49  C   UNL A   1      37.166  34.306  33.029  1.00  0.00     0.029 A 
ATOM     50  N   UNL A   1      38.730  32.745  33.276  1.00  0.00    -0.354 N 
ATOM     51  N   UNL A   1      40.899  31.352  34.696  1.00  0.00    -0.248 NA
ATOM     52  C   UNL A   1      42.433  31.248  36.453  1.00  0.00     0.031 C 
ATOM     53  C   UNL A   1      37.891  34.586  34.192  1.00  0.00     0.029 A 
ATOM     54  C   UNL A   1      38.846  33.596  34.363  1.00  0.00     0.049 A 
ATOM     55  H   UNL A   1      39.288  31.949  33.121  1.00  0.00     0.167 HD
ATOM     56  C   UNL A   1      40.691  32.432  35.545  1.00  0.00     0.074 A 
ATOM     57  C   UNL A   1      41.644  32.297  36.628  1.00  0.00     0.031 C 
ATOM     58  C   UNL A   1      39.793  33.442  35.440  1.00  0.00     0.037 A 
BRANCH  45  59
ATOM     59  C   UNL A   1      36.256  33.173  30.373  1.00  0.00     0.057 A 
ATOM     60  C   UNL A   1      34.901  33.067  30.715  1.00  0.00     0.134 A 
ATOM     61  C   UNL A   1      36.575  33.918  29.230  1.00  0.00     0.134 A 
ATOM     62  F   UNL A   1      34.524  32.357  31.789  1.00  0.00    -0.206 F 
ATOM     63  C   UNL A   1      33.903  33.657  29.936  1.00  0.00     0.040 A 
ATOM     64  C   UNL A   1      35.589  34.538  28.460  1.00  0.00     0.040 A 
ATOM     65  F   UNL A   1      37.852  34.064  28.846  1.00  0.00    -0.206 F 
ATOM     66  C   UNL A   1      34.247  34.401  28.809  1.00  0.00     0.006 A 
ENDBRANCH  45  59
BRANCH  46  67
ATOM     67  C   UNL A   1      43.621  28.749  35.494  1.00  0.00     0.057 A 
ATOM     68  C   UNL A   1      44.955  29.066  35.215  1.00  0.00     0.134 A 
ATOM     69  C   UNL A   1      43.382  27.800  36.498  1.00  0.00     0.134 A 
ATOM     70  F   UNL A   1      45.251  29.950  34.252  1.00  0.00    -0.206 F 
ATOM     71  C   UNL A   1      46.010  28.448  35.889  1.00  0.00     0.040 A 
ATOM     72  C   UNL A   1      44.426  27.198  37.201  1.00  0.00     0.040 A 
ATOM     73  F   UNL A   1      42.126  27.455  36.819  1.00  0.00    -0.206 F 
ATOM     74  C   UNL A   1      45.746  27.516  36.890  1.00  0.00     0.006 A 
ENDBRANCH  46  67
BRANCH  58  75
ATOM     75  C   UNL A   1      39.763  34.455  36.548  1.00  0.00     0.057 A 
ATOM     76  C   UNL A   1      40.472  35.660  36.477  1.00  0.00     0.134 A 
ATOM     77  C   UNL A   1      38.981  34.232  37.689  1.00  0.00     0.134 A 
ATOM     78  F   UNL A   1      41.251  35.930  35.418  1.00  0.00    -0.206 F 
ATOM     79  C   UNL A   1      40.424  36.597  37.512  1.00  0.00     0.040 A 
ATOM     80  C   UNL A   1      38.899  35.175  38.715  1.00  0.00     0.040 A 
ATOM     81  F   UNL A   1      38.268  33.103  37.818  1.00  0.00    -0.206 F 
ATOM     82  C   UNL A   1      39.629  36.358  38.631  1.00  0.00     0.006 A 
ENDBRANCH  58  75
ENDBRANCH  32  33
ENDBRANCH  25  27
ENDBRANCH  24  25
ENDBRANCH  23  24
ENDBRANCH   1  23
TORSDOF 16
ENDMDL
MODEL 2
REMARK VINA RESULT:     -10.2      1.950      7.266
REMARK SMILES C[C@@H]1CN(S(=O)(=O)N[C@H](C(=O)OCCOC(=O)c2ccc(-c3c4nc(c(-c5c(F)cccc5F)c5ccc([nH]5)c(-c5c(F)cccc5F)c5nc(c(-c6c(F)cccc6F)c6ccc3[nH]6)C=C5)C=C4)cc2)[C@@H](C)O)C[C@@H](C)O1
REMARK SMILES IDX 13 1 12 2 10 3 11 4 9 5 8 6 5 8 6 9 7 10 4 11 1 12 2 13 3 14
REMARK SMILES IDX 78 15 76 16 75 17 77 18 72 19 73 20 74 21 14 23 15 24 16 25
REMARK SMILES IDX 17 26 18 27 19 28 71 29 20 30 70 31 21 32 22 33 23 34 64 35
REMARK SMILES IDX 24 36 69 37 63 38 65 39 25 40 68 41 62 42 61 43 26 45 52 46
REMARK SMILES IDX 35 47 51 48 36 49 39 50 50 51 66 52 37 53 38 54 49 56 67 57
REMARK SMILES IDX 40 58 27 59 28 60 33 61 29 62 30 63 32 64 34 65 31 66 53 67
REMARK SMILES IDX 54 68 59 69 55 70 56 71 58 72 60 73 57 74 41 75 42 76 47 77
REMARK SMILES IDX 43 78 44 79 46 80 48 81 45 82
REMARK H PARENT 8 7 74 22 65 44 39 55
REMARK Flexibility Score: inf
ROOT
ATOM      1  C   UNL A   1      45.856  22.867  26.025  1.00  0.00     0.274 C 
ENDROOT
BRANCH   1   2
ATOM      2  O   UNL A   1      46.200  21.501  25.716  1.00  0.00    -0.461 OA
BRANCH   2   3
ATOM      3  C   UNL A   1      45.323  20.881  24.891  1.00  0.00     0.327 C 
ATOM      4  O   UNL A   1      45.388  20.916  23.664  1.00  0.00    -0.250 OA
BRANCH   3   5
ATOM      5  C   UNL A   1      44.226  20.112  25.597  1.00  0.00     0.208 C 
BRANCH   5   6
ATOM      6  N   UNL A   1      42.826  20.653  25.424  1.00  0.00    -0.185 NA
ATOM      7  H   UNL A   1      42.893  21.652  25.612  1.00  0.00     0.143 HD
BRANCH   6   8
ATOM      8  S   UNL A   1      41.495  20.125  26.277  1.00  0.00     0.280 S 
ATOM      9  O   UNL A   1      41.779  20.220  27.684  1.00  0.00    -0.195 OA
ATOM     10  O   UNL A   1      41.095  18.871  25.678  1.00  0.00    -0.195 OA
BRANCH   8  11
ATOM     11  N   UNL A   1      40.281  21.271  25.854  1.00  0.00    -0.184 NA
ATOM     12  C   UNL A   1      38.880  24.407  26.105  1.00  0.00     0.040 C 
ATOM     13  C   UNL A   1      38.749  23.094  26.864  1.00  0.00     0.130 C 
ATOM     14  C   UNL A   1      40.017  22.246  26.935  1.00  0.00     0.135 C 
ATOM     15  O   UNL A   1      37.611  22.351  26.440  1.00  0.00    -0.373 OA
ATOM     16  C   UNL A   1      37.858  21.604  25.241  1.00  0.00     0.130 C 
ATOM     17  C   UNL A   1      39.005  20.591  25.429  1.00  0.00     0.135 C 
ATOM     18  C   UNL A   1      36.542  20.905  24.929  1.00  0.00     0.040 C 
ENDBRANCH   8  11
ENDBRANCH   6   8
ENDBRANCH   5   6
BRANCH   5  19
ATOM     19  C   UNL A   1      44.512  18.591  25.565  1.00  0.00     0.140 C 
ATOM     20  C   UNL A   1      45.992  18.204  25.588  1.00  0.00     0.040 C 
BRANCH  19  21
ATOM     21  O   UNL A   1      43.987  17.954  26.750  1.00  0.00    -0.391 OA
ATOM     22  H   UNL A   1      43.831  17.013  26.570  1.00  0.00     0.211 HD
ENDBRANCH  19  21
ENDBRANCH   5  19
ENDBRANCH   3   5
ENDBRANCH   2   3
ENDBRANCH   1   2
BRANCH   1  23
ATOM     23  C   UNL A   1      46.008  23.807  24.818  1.00  0.00     0.275 C 
BRANCH  23  24
ATOM     24  O   UNL A   1      45.004  24.843  24.751  1.00  0.00    -0.458 OA
BRANCH  24  25
ATOM     25  C   UNL A   1      43.731  24.428  24.953  1.00  0.00     0.338 C 
ATOM     26  O   UNL A   1      43.197  23.433  24.484  1.00  0.00    -0.246 OA
BRANCH  25  27
ATOM     27  C   UNL A   1      43.079  25.224  26.009  1.00  0.00     0.060 A 
ATOM     28  C   UNL A   1      43.343  26.596  26.022  1.00  0.00     0.016 A 
ATOM     29  C   UNL A   1      42.317  24.649  27.023  1.00  0.00     0.016 A 
ATOM     30  C   UNL A   1      42.859  27.407  27.037  1.00  0.00     0.010 A 
ATOM     31  C   UNL A   1      41.830  25.464  28.055  1.00  0.00     0.010 A 
ATOM     32  C   UNL A   1      42.107  26.845  28.070  1.00  0.00    -0.014 A 
BRANCH  32  33
ATOM     33  C   UNL A   1      41.686  27.709  29.196  1.00  0.00     0.031 A 
ATOM     34  C   UNL A   1      42.456  27.678  30.483  1.00  0.00     0.074 A 
ATOM     35  C   UNL A   1      40.649  28.553  29.041  1.00  0.00     0.049 A 
ATOM     36  N   UNL A   1      42.205  28.289  31.612  1.00  0.00    -0.248 NA
ATOM     37  C   UNL A   1      43.670  26.848  30.502  1.00  0.00     0.031 C 
ATOM     38  C   UNL A   1      39.873  28.721  27.812  1.00  0.00     0.029 A 
ATOM     39  N   UNL A   1      40.070  29.427  29.925  1.00  0.00    -0.354 N 
ATOM     40  C   UNL A   1      43.213  27.896  32.484  1.00  0.00     0.074 A 
ATOM     41  C   UNL A   1      44.067  26.980  31.760  1.00  0.00     0.031 C 
ATOM     42  C   UNL A   1      38.915  29.637  28.022  1.00  0.00     0.029 A 
ATOM     43  C   UNL A   1      38.973  30.076  29.413  1.00  0.00     0.049 A 
ATOM     44  H   UNL A   1      40.406  29.574  30.839  1.00  0.00     0.167 HD
ATOM     45  C   UNL A   1      43.403  28.271  33.771  1.00  0.00     0.037 A 
ATOM     46  C   UNL A   1      38.092  30.899  30.011  1.00  0.00     0.037 A 
ATOM     47  C   UNL A   1      42.549  29.192  34.477  1.00  0.00     0.049 A 
ATOM     48  C   UNL A   1      38.278  31.231  31.466  1.00  0.00     0.074 A 
ATOM     49  C   UNL A   1      42.659  29.644  35.780  1.00  0.00     0.029 A 
ATOM     50  N   UNL A   1      41.424  29.798  33.937  1.00  0.00    -0.354 N 
ATOM     51  N   UNL A   1      39.227  30.851  32.287  1.00  0.00    -0.248 NA
ATOM     52  C   UNL A   1      37.268  32.106  32.079  1.00  0.00     0.031 C 
ATOM     53  C   UNL A   1      41.567  30.476  36.047  1.00  0.00     0.029 A 
ATOM     54  C   UNL A   1      40.814  30.597  34.891  1.00  0.00     0.049 A 
ATOM     55  H   UNL A   1      41.105  29.678  33.014  1.00  0.00     0.167 HD
ATOM     56  C   UNL A   1      38.948  31.464  33.502  1.00  0.00     0.074 A 
ATOM     57  C   UNL A   1      37.748  32.251  33.305  1.00  0.00     0.031 C 
ATOM     58  C   UNL A   1      39.624  31.384  34.675  1.00  0.00     0.037 A 
BRANCH  45  59
ATOM     59  C   UNL A   1      44.553  27.652  34.512  1.00  0.00     0.057 A 
ATOM     60  C   UNL A   1      44.432  26.436  35.198  1.00  0.00     0.134 A 
ATOM     61  C   UNL A   1      45.811  28.270  34.515  1.00  0.00     0.134 A 
ATOM     62  F   UNL A   1      43.254  25.797  35.247  1.00  0.00    -0.206 F 
ATOM     63  C   UNL A   1      45.513  25.872  35.881  1.00  0.00     0.040 A 
ATOM     64  C   UNL A   1      46.905  27.702  35.169  1.00  0.00     0.040 A 
ATOM     65  F   UNL A   1      45.999  29.434  33.875  1.00  0.00    -0.206 F 
ATOM     66  C   UNL A   1      46.756  26.503  35.861  1.00  0.00     0.006 A 
ENDBRANCH  45  59
BRANCH  46  67
ATOM     67  C   UNL A   1      36.939  31.439  29.247  1.00  0.00     0.057 A 
ATOM     68  C   UNL A   1      35.815  30.652  28.974  1.00  0.00     0.134 A 
ATOM     69  C   UNL A   1      36.940  32.751  28.754  1.00  0.00     0.134 A 
ATOM     70  F   UNL A   1      35.761  29.382  29.400  1.00  0.00    -0.206 F 
ATOM     71  C   UNL A   1      34.744  31.141  28.224  1.00  0.00     0.040 A 
ATOM     72  C   UNL A   1      35.863  33.263  28.029  1.00  0.00     0.040 A 
ATOM     73  F   UNL A   1      37.985  33.560  28.984  1.00  0.00    -0.206 F 
ATOM     74  C   UNL A   1      34.764  32.453  27.754  1.00  0.00     0.006 A 
ENDBRANCH  46  67
BRANCH  58  75
ATOM     75  C   UNL A   1      39.112  32.207  35.822  1.00  0.00     0.057 A 
ATOM     76  C   UNL A   1      38.252  31.680  36.793  1.00  0.00     0.134 A 
ATOM     77  C   UNL A   1      39.519  33.540  35.974  1.00  0.00     0.134 A 
ATOM     78  F   UNL A   1      37.813  30.415  36.699  1.00  0.00    -0.206 F 
ATOM     79  C   UNL A   1      37.794  32.455  37.860  1.00  0.00     0.040 A 
ATOM     80  C   UNL A   1      39.094  34.314  37.054  1.00  0.00     0.040 A 
ATOM     81  F   UNL A   1      40.350  34.105  35.086  1.00  0.00    -0.206 F 
ATOM     82  C   UNL A   1      38.222  33.775  37.997  1.00  0.00     0.006 A 
ENDBRANCH  58  75
ENDBRANCH  32  33
ENDBRANCH  25  27
ENDBRANCH  24  25
ENDBRANCH  23  24
ENDBRANCH   1  23
TORSDOF 16
ENDMDL
MODEL 3
REMARK VINA RESULT:     -10.1      6.111     12.822
REMARK SMILES C[C@@H]1CN(S(=O)(=O)N[C@H](C(=O)OCCOC(=O)c2ccc(-c3c4nc(c(-c5c(F)cccc5F)c5ccc([nH]5)c(-c5c(F)cccc5F)c5nc(c(-c6c(F)cccc6F)c6ccc3[nH]6)C=C5)C=C4)cc2)[C@@H](C)O)C[C@@H](C)O1
REMARK SMILES IDX 13 1 12 2 10 3 11 4 9 5 8 6 5 8 6 9 7 10 4 11 1 12 2 13 3 14
REMARK SMILES IDX 78 15 76 16 75 17 77 18 72 19 73 20 74 21 14 23 15 24 16 25
REMARK SMILES IDX 17 26 18 27 19 28 71 29 20 30 70 31 21 32 22 33 23 34 64 35
REMARK SMILES IDX 24 36 69 37 63 38 65 39 25 40 68 41 62 42 61 43 26 45 52 46
REMARK SMILES IDX 35 47 51 48 36 49 39 50 50 51 66 52 37 53 38 54 49 56 67 57
REMARK SMILES IDX 40 58 27 59 28 60 33 61 29 62 30 63 32 64 34 65 31 66 53 67
REMARK SMILES IDX 54 68 59 69 55 70 56 71 58 72 60 73 57 74 41 75 42 76 47 77
REMARK SMILES IDX 43 78 44 79 46 80 48 81 45 82
REMARK H PARENT 8 7 74 22 65 44 39 55
REMARK Flexibility Score: inf
ROOT
ATOM      1  C   UNL A   1      34.233  33.353  29.073  1.00  0.00     0.274 C 
ENDROOT
BRANCH   1   2
ATOM      2  O   UNL A   1      34.361  34.778  28.891  1.00  0.00    -0.461 OA
BRANCH   2   3
ATOM      3  C   UNL A   1      33.420  35.506  29.538  1.00  0.00     0.327 C 
ATOM      4  O   UNL A   1      32.439  36.007  28.991  1.00  0.00    -0.250 OA
BRANCH   3   5
ATOM      5  C   UNL A   1      33.653  35.663  31.025  1.00  0.00     0.208 C 
BRANCH   5   6
ATOM      6  N   UNL A   1      34.953  35.102  31.552  1.00  0.00    -0.185 NA
ATOM      7  H   UNL A   1      35.387  34.628  30.762  1.00  0.00     0.143 HD
BRANCH   6   8
ATOM      8  S   UNL A   1      35.077  34.041  32.831  1.00  0.00     0.280 S 
ATOM      9  O   UNL A   1      34.002  33.089  32.750  1.00  0.00    -0.195 OA
ATOM     10  O   UNL A   1      35.272  34.848  34.016  1.00  0.00    -0.195 OA
BRANCH   8  11
ATOM     11  N   UNL A   1      36.576  33.246  32.537  1.00  0.00    -0.184 NA
ATOM     12  C   UNL A   1      39.283  31.421  33.632  1.00  0.00     0.040 C 
ATOM     13  C   UNL A   1      38.937  32.900  33.532  1.00  0.00     0.130 C 
ATOM     14  C   UNL A   1      37.463  33.245  33.722  1.00  0.00     0.135 C 
ATOM     15  O   UNL A   1      39.499  33.496  32.368  1.00  0.00    -0.373 OA
ATOM     16  C   UNL A   1      38.710  33.260  31.195  1.00  0.00     0.130 C 
ATOM     17  C   UNL A   1      37.286  33.831  31.343  1.00  0.00     0.135 C 
ATOM     18  C   UNL A   1      39.468  33.938  30.061  1.00  0.00     0.040 C 
ENDBRANCH   8  11
ENDBRANCH   6   8
ENDBRANCH   5   6
BRANCH   5  19
ATOM     19  C   UNL A   1      33.097  37.018  31.530  1.00  0.00     0.140 C 
ATOM     20  C   UNL A   1      33.797  37.592  32.763  1.00  0.00     0.040 C 
BRANCH  19  21
ATOM     21  O   UNL A   1      33.290  38.045  30.534  1.00  0.00    -0.391 OA
ATOM     22  H   UNL A   1      32.524  38.642  30.532  1.00  0.00     0.211 HD
ENDBRANCH  19  21
ENDBRANCH   5  19
ENDBRANCH   3   5
ENDBRANCH   2   3
ENDBRANCH   1   2
BRANCH   1  23
ATOM     23  C   UNL A   1      35.370  32.562  28.405  1.00  0.00     0.275 C 
BRANCH  23  24
ATOM     24  O   UNL A   1      35.335  31.144  28.674  1.00  0.00    -0.458 OA
BRANCH  24  25
ATOM     25  C   UNL A   1      36.015  30.748  29.776  1.00  0.00     0.338 C 
ATOM     26  O   UNL A   1      35.604  30.733  30.928  1.00  0.00    -0.246 OA
BRANCH  25  27
ATOM     27  C   UNL A   1      37.292  30.112  29.408  1.00  0.00     0.060 A 
ATOM     28  C   UNL A   1      38.146  29.754  30.454  1.00  0.00     0.016 A 
ATOM     29  C   UNL A   1      37.705  29.961  28.086  1.00  0.00     0.016 A 
ATOM     30  C   UNL A   1      39.411  29.245  30.202  1.00  0.00     0.010 A 
ATOM     31  C   UNL A   1      38.985  29.453  27.827  1.00  0.00     0.010 A 
ATOM     32  C   UNL A   1      39.847  29.102  28.884  1.00  0.00    -0.014 A 
BRANCH  32  33
ATOM     33  C   UNL A   1      41.236  28.654  28.638  1.00  0.00     0.031 A 
ATOM     34  C   UNL A   1      42.363  29.637  28.749  1.00  0.00     0.074 A 
ATOM     35  C   UNL A   1      41.484  27.359  28.367  1.00  0.00     0.049 A 
ATOM     36  N   UNL A   1      43.635  29.470  28.493  1.00  0.00    -0.248 NA
ATOM     37  C   UNL A   1      42.012  30.990  29.210  1.00  0.00     0.031 C 
ATOM     38  C   UNL A   1      40.476  26.300  28.306  1.00  0.00     0.029 A 
ATOM     39  N   UNL A   1      42.664  26.715  28.092  1.00  0.00    -0.354 N 
ATOM     40  C   UNL A   1      44.231  30.702  28.735  1.00  0.00     0.074 A 
ATOM     41  C   UNL A   1      43.180  31.611  29.138  1.00  0.00     0.031 C 
ATOM     42  C   UNL A   1      41.079  25.140  28.006  1.00  0.00     0.029 A 
ATOM     43  C   UNL A   1      42.503  25.384  27.797  1.00  0.00     0.049 A 
ATOM     44  H   UNL A   1      43.540  27.164  28.105  1.00  0.00     0.167 HD
ATOM     45  C   UNL A   1      45.539  31.037  28.629  1.00  0.00     0.037 A 
ATOM     46  C   UNL A   1      43.397  24.475  27.367  1.00  0.00     0.037 A 
ATOM     47  C   UNL A   1      46.576  30.119  28.234  1.00  0.00     0.049 A 
ATOM     48  C   UNL A   1      44.828  24.895  27.174  1.00  0.00     0.074 A 
ATOM     49  C   UNL A   1      47.933  30.356  28.103  1.00  0.00     0.029 A 
ATOM     50  N   UNL A   1      46.370  28.788  27.903  1.00  0.00    -0.354 N 
ATOM     51  N   UNL A   1      45.385  26.062  27.395  1.00  0.00    -0.248 NA
ATOM     52  C   UNL A   1      45.756  23.874  26.669  1.00  0.00     0.031 C 
ATOM     53  C   UNL A   1      48.538  29.185  27.635  1.00  0.00     0.029 A 
ATOM     54  C   UNL A   1      47.570  28.199  27.539  1.00  0.00     0.049 A 
ATOM     55  H   UNL A   1      45.499  28.330  27.922  1.00  0.00     0.167 HD
ATOM     56  C   UNL A   1      46.731  25.907  27.089  1.00  0.00     0.074 A 
ATOM     57  C   UNL A   1      46.907  24.529  26.678  1.00  0.00     0.031 C 
ATOM     58  C   UNL A   1      47.731  26.821  27.143  1.00  0.00     0.037 A 
BRANCH  45  59
ATOM     59  C   UNL A   1      45.914  32.466  28.900  1.00  0.00     0.057 A 
ATOM     60  C   UNL A   1      45.917  33.442  27.894  1.00  0.00     0.134 A 
ATOM     61  C   UNL A   1      46.250  32.877  30.197  1.00  0.00     0.134 A 
ATOM     62  F   UNL A   1      45.618  33.115  26.628  1.00  0.00    -0.206 F 
ATOM     63  C   UNL A   1      46.267  34.767  28.164  1.00  0.00     0.040 A 
ATOM     64  C   UNL A   1      46.573  34.204  30.485  1.00  0.00     0.040 A 
ATOM     65  F   UNL A   1      46.263  31.996  31.209  1.00  0.00    -0.206 F 
ATOM     66  C   UNL A   1      46.590  35.152  29.464  1.00  0.00     0.006 A 
ENDBRANCH  45  59
BRANCH  46  67
ATOM     67  C   UNL A   1      42.962  23.089  27.058  1.00  0.00     0.057 A 
ATOM     68  C   UNL A   1      42.809  22.652  25.737  1.00  0.00     0.134 A 
ATOM     69  C   UNL A   1      42.671  22.170  28.076  1.00  0.00     0.134 A 
ATOM     70  F   UNL A   1      43.051  23.489  24.718  1.00  0.00    -0.206 F 
ATOM     71  C   UNL A   1      42.363  21.363  25.440  1.00  0.00     0.040 A 
ATOM     72  C   UNL A   1      42.255  20.869  27.793  1.00  0.00     0.040 A 
ATOM     73  F   UNL A   1      42.802  22.523  29.364  1.00  0.00    -0.206 F 
ATOM     74  C   UNL A   1      42.091  20.465  26.470  1.00  0.00     0.006 A 
ENDBRANCH  46  67
BRANCH  58  75
ATOM     75  C   UNL A   1      49.114  26.350  26.798  1.00  0.00     0.057 A 
ATOM     76  C   UNL A   1      49.933  25.697  27.727  1.00  0.00     0.134 A 
ATOM     77  C   UNL A   1      49.619  26.523  25.502  1.00  0.00     0.134 A 
ATOM     78  F   UNL A   1      49.516  25.511  28.990  1.00  0.00    -0.206 F 
ATOM     79  C   UNL A   1      51.213  25.254  27.388  1.00  0.00     0.040 A 
ATOM     80  C   UNL A   1      50.884  26.056  25.142  1.00  0.00     0.040 A 
ATOM     81  F   UNL A   1      48.884  27.132  24.559  1.00  0.00    -0.206 F 
ATOM     82  C   UNL A   1      51.688  25.427  26.089  1.00  0.00     0.006 A 
ENDBRANCH  58  75
ENDBRANCH  32  33
ENDBRANCH  25  27
ENDBRANCH  24  25
ENDBRANCH  23  24
ENDBRANCH   1  23
TORSDOF 16
ENDMDL
