MODEL 1
REMARK VINA RESULT:     -11.4      0.000      0.000
REMARK SMILES COc1ccc(-n2ccnc2C[N@@H+]2Cc3[nH]cnc3C[C@H]2C(=O)OCCOC(=O)c2ccc(-c3c4nc(c(-c5c(F)cccc5F)c5ccc([nH]5)c(-c5c(F)cccc5F)c5nc(c(-c6c(F)cccc6F)c6ccc3[nH]6)C=C5)C=C4)cc2)cc1
REMARK SMILES IDX 25 1 24 2 22 3 23 4 21 5 13 6 14 7 15 9 20 10 16 11 19 12
REMARK SMILES IDX 17 13 18 15 12 16 11 17 7 18 8 19 9 20 10 21 6 22 3 23 4 24
REMARK SMILES IDX 85 25 5 26 84 27 2 28 1 29 26 30 27 31 28 32 29 33 30 34
REMARK SMILES IDX 31 35 83 36 32 37 82 38 33 39 34 40 35 41 76 42 36 43 81 44
REMARK SMILES IDX 75 45 77 46 37 47 80 48 74 49 73 50 38 52 64 53 47 54 63 55
REMARK SMILES IDX 48 56 51 57 62 58 78 59 49 60 50 61 61 63 79 64 52 65 39 66
REMARK SMILES IDX 40 67 45 68 41 69 42 70 44 71 46 72 43 73 65 74 66 75 71 76
REMARK SMILES IDX 67 77 68 78 70 79 72 80 69 81 53 82 54 83 59 84 55 85 56 86
REMARK SMILES IDX 58 87 60 88 57 89
REMARK H PARENT 13 8 16 14 77 51 51 62
REMARK Flexibility Score: inf
ROOT
ATOM      1  C   UNL A   1      37.410  20.068  24.686  1.00  0.00     0.274 C 
ENDROOT
BRANCH   1   2
ATOM      2  O   UNL A   1      37.475  21.476  24.973  1.00  0.00    -0.458 OA
BRANCH   2   3
ATOM      3  C   UNL A   1      36.886  22.313  24.071  1.00  0.00     0.365 C 
ATOM      4  O   UNL A   1      37.102  22.294  22.862  1.00  0.00    -0.245 OA
BRANCH   3   5
ATOM      5  C   UNL A   1      35.989  23.362  24.735  1.00  0.00     0.301 C 
ATOM      6  N   UNL A   1      34.707  23.592  23.962  1.00  0.00    -0.312 N 
ATOM      7  C   UNL A   1      33.675  22.582  24.268  1.00  0.00     0.320 C 
ATOM      8  H   UNL A   1      34.910  23.471  22.970  1.00  0.00     0.349 HD
ATOM      9  C   UNL A   1      33.529  22.471  25.731  1.00  0.00     0.093 A 
ATOM     10  C   UNL A   1      35.913  23.006  26.253  1.00  0.00     0.136 C 
ATOM     11  N   UNL A   1      32.400  22.266  26.464  1.00  0.00    -0.344 N 
ATOM     12  C   UNL A   1      34.535  22.648  26.644  1.00  0.00     0.074 A 
ATOM     13  C   UNL A   1      32.773  22.335  27.783  1.00  0.00     0.197 A 
ATOM     14  H   UNL A   1      31.494  22.100  26.117  1.00  0.00     0.167 HD
ATOM     15  N   UNL A   1      34.064  22.558  27.921  1.00  0.00    -0.241 NA
BRANCH   6  16
ATOM     16  C   UNL A   1      34.233  24.986  24.149  1.00  0.00     0.340 C 
BRANCH  16  17
ATOM     17  C   UNL A   1      33.438  25.554  22.990  1.00  0.00     0.168 A 
ATOM     18  N   UNL A   1      32.554  26.629  23.089  1.00  0.00    -0.299 N 
ATOM     19  C   UNL A   1      31.777  26.593  21.951  1.00  0.00     0.113 A 
ATOM     20  C   UNL A   1      32.327  25.626  21.150  1.00  0.00     0.132 A 
ATOM     21  N   UNL A   1      33.359  25.000  21.789  1.00  0.00    -0.236 NA
BRANCH  18  22
ATOM     22  C   UNL A   1      32.403  27.559  24.150  1.00  0.00     0.047 A 
ATOM     23  C   UNL A   1      32.229  29.309  26.313  1.00  0.00     0.119 A 
ATOM     24  C   UNL A   1      33.053  29.621  25.236  1.00  0.00     0.048 A 
ATOM     25  C   UNL A   1      31.427  28.168  26.280  1.00  0.00     0.048 A 
ATOM     26  C   UNL A   1      33.147  28.744  24.154  1.00  0.00     0.030 A 
ATOM     27  C   UNL A   1      31.501  27.296  25.190  1.00  0.00     0.030 A 
BRANCH  23  28
ATOM     28  O   UNL A   1      32.176  30.205  27.346  1.00  0.00    -0.497 OA
ATOM     29  C   UNL A   1      33.351  31.014  27.403  1.00  0.00     0.278 C 
ENDBRANCH  23  28
ENDBRANCH  18  22
ENDBRANCH  16  17
ENDBRANCH   6  16
ENDBRANCH   3   5
ENDBRANCH   2   3
ENDBRANCH   1   2
BRANCH   1  30
ATOM     30  C   UNL A   1      38.605  19.322  25.259  1.00  0.00     0.275 C 
BRANCH  30  31
ATOM     31  O   UNL A   1      39.552  20.246  25.785  1.00  0.00    -0.458 OA
BRANCH  31  32
ATOM     32  C   UNL A   1      40.798  19.748  25.953  1.00  0.00     0.338 C 
ATOM     33  O   UNL A   1      41.162  18.604  25.757  1.00  0.00    -0.246 OA
BRANCH  32  34
ATOM     34  C   UNL A   1      41.619  20.750  26.637  1.00  0.00     0.060 A 
ATOM     35  C   UNL A   1      41.517  20.843  28.031  1.00  0.00     0.016 A 
ATOM     36  C   UNL A   1      42.192  21.764  25.862  1.00  0.00     0.016 A 
ATOM     37  C   UNL A   1      41.833  22.043  28.638  1.00  0.00     0.010 A 
ATOM     38  C   UNL A   1      42.458  22.968  26.457  1.00  0.00     0.010 A 
ATOM     39  C   UNL A   1      42.213  23.112  27.824  1.00  0.00    -0.014 A 
BRANCH  39  40
ATOM     40  C   UNL A   1      42.347  24.436  28.395  1.00  0.00     0.031 A 
ATOM     41  C   UNL A   1      41.174  25.323  28.205  1.00  0.00     0.074 A 
ATOM     42  C   UNL A   1      43.350  24.679  29.264  1.00  0.00     0.049 A 
ATOM     43  N   UNL A   1      41.144  26.543  27.781  1.00  0.00    -0.248 NA
ATOM     44  C   UNL A   1      39.838  24.745  28.449  1.00  0.00     0.031 C 
ATOM     45  C   UNL A   1      44.322  23.708  29.787  1.00  0.00     0.029 A 
ATOM     46  N   UNL A   1      43.603  25.790  30.003  1.00  0.00    -0.354 N 
ATOM     47  C   UNL A   1      39.813  26.942  27.885  1.00  0.00     0.074 A 
ATOM     48  C   UNL A   1      39.039  25.760  28.136  1.00  0.00     0.031 C 
ATOM     49  C   UNL A   1      44.875  24.204  30.916  1.00  0.00     0.029 A 
ATOM     50  C   UNL A   1      44.369  25.549  31.135  1.00  0.00     0.049 A 
ATOM     51  H   UNL A   1      43.273  26.685  29.759  1.00  0.00     0.167 HD
ATOM     52  C   UNL A   1      39.469  28.249  28.019  1.00  0.00     0.037 A 
ATOM     53  C   UNL A   1      44.475  26.351  32.224  1.00  0.00     0.037 A 
ATOM     54  C   UNL A   1      40.505  29.123  27.536  1.00  0.00     0.049 A 
ATOM     55  C   UNL A   1      43.940  27.689  31.855  1.00  0.00     0.074 A 
ATOM     56  C   UNL A   1      41.185  29.235  26.336  1.00  0.00     0.029 A 
ATOM     57  N   UNL A   1      41.249  29.829  28.448  1.00  0.00    -0.354 N 
ATOM     58  N   UNL A   1      44.518  28.519  31.033  1.00  0.00    -0.248 NA
ATOM     59  C   UNL A   1      42.520  27.925  32.079  1.00  0.00     0.031 C 
ATOM     60  C   UNL A   1      42.525  29.556  26.702  1.00  0.00     0.029 A 
ATOM     61  C   UNL A   1      42.563  29.665  28.091  1.00  0.00     0.049 A 
ATOM     62  H   UNL A   1      40.907  30.351  29.210  1.00  0.00     0.167 HD
ATOM     63  C   UNL A   1      43.476  29.098  30.322  1.00  0.00     0.074 A 
ATOM     64  C   UNL A   1      42.270  28.769  31.075  1.00  0.00     0.031 C 
ATOM     65  C   UNL A   1      43.644  29.541  29.040  1.00  0.00     0.037 A 
BRANCH  52  66
ATOM     66  C   UNL A   1      38.354  28.715  28.922  1.00  0.00     0.057 A 
ATOM     67  C   UNL A   1      37.437  29.664  28.446  1.00  0.00     0.134 A 
ATOM     68  C   UNL A   1      38.313  28.488  30.316  1.00  0.00     0.134 A 
ATOM     69  F   UNL A   1      37.394  29.988  27.145  1.00  0.00    -0.206 F 
ATOM     70  C   UNL A   1      36.590  30.382  29.299  1.00  0.00     0.040 A 
ATOM     71  C   UNL A   1      37.431  29.155  31.168  1.00  0.00     0.040 A 
ATOM     72  F   UNL A   1      39.185  27.691  30.945  1.00  0.00    -0.206 F 
ATOM     73  C   UNL A   1      36.588  30.131  30.666  1.00  0.00     0.006 A 
ENDBRANCH  52  66
BRANCH  53  74
ATOM     74  C   UNL A   1      44.709  25.954  33.633  1.00  0.00     0.057 A 
ATOM     75  C   UNL A   1      45.969  26.108  34.228  1.00  0.00     0.134 A 
ATOM     76  C   UNL A   1      43.655  25.627  34.507  1.00  0.00     0.134 A 
ATOM     77  F   UNL A   1      47.029  26.470  33.492  1.00  0.00    -0.206 F 
ATOM     78  C   UNL A   1      46.167  25.951  35.607  1.00  0.00     0.040 A 
ATOM     79  C   UNL A   1      43.842  25.450  35.882  1.00  0.00     0.040 A 
ATOM     80  F   UNL A   1      42.388  25.552  34.075  1.00  0.00    -0.206 F 
ATOM     81  C   UNL A   1      45.101  25.623  36.440  1.00  0.00     0.006 A 
ENDBRANCH  53  74
BRANCH  65  82
ATOM     82  C   UNL A   1      45.038  29.632  28.489  1.00  0.00     0.057 A 
ATOM     83  C   UNL A   1      45.706  28.566  27.868  1.00  0.00     0.134 A 
ATOM     84  C   UNL A   1      45.659  30.885  28.432  1.00  0.00     0.134 A 
ATOM     85  F   UNL A   1      45.143  27.355  27.771  1.00  0.00    -0.206 F 
ATOM     86  C   UNL A   1      46.956  28.729  27.264  1.00  0.00     0.040 A 
ATOM     87  C   UNL A   1      46.891  31.069  27.798  1.00  0.00     0.040 A 
ATOM     88  F   UNL A   1      45.053  31.966  28.947  1.00  0.00    -0.206 F 
ATOM     89  C   UNL A   1      47.549  29.987  27.221  1.00  0.00     0.006 A 
ENDBRANCH  65  82
ENDBRANCH  39  40
ENDBRANCH  32  34
ENDBRANCH  31  32
ENDBRANCH  30  31
ENDBRANCH   1  30
TORSDOF 15
ENDMDL
MODEL 2
REMARK VINA RESULT:     -11.3      2.107      7.427
REMARK SMILES COc1ccc(-n2ccnc2C[N@@H+]2Cc3[nH]cnc3C[C@H]2C(=O)OCCOC(=O)c2ccc(-c3c4nc(c(-c5c(F)cccc5F)c5ccc([nH]5)c(-c5c(F)cccc5F)c5nc(c(-c6c(F)cccc6F)c6ccc3[nH]6)C=C5)C=C4)cc2)cc1
REMARK SMILES IDX 25 1 24 2 22 3 23 4 21 5 13 6 14 7 15 9 20 10 16 11 19 12
REMARK SMILES IDX 17 13 18 15 12 16 11 17 7 18 8 19 9 20 10 21 6 22 3 23 4 24
REMARK SMILES IDX 85 25 5 26 84 27 2 28 1 29 26 30 27 31 28 32 29 33 30 34
REMARK SMILES IDX 31 35 83 36 32 37 82 38 33 39 34 40 35 41 76 42 36 43 81 44
REMARK SMILES IDX 75 45 77 46 37 47 80 48 74 49 73 50 38 52 64 53 47 54 63 55
REMARK SMILES IDX 48 56 51 57 62 58 78 59 49 60 50 61 61 63 79 64 52 65 39 66
REMARK SMILES IDX 40 67 45 68 41 69 42 70 44 71 46 72 43 73 65 74 66 75 71 76
REMARK SMILES IDX 67 77 68 78 70 79 72 80 69 81 53 82 54 83 59 84 55 85 56 86
REMARK SMILES IDX 58 87 60 88 57 89
REMARK H PARENT 13 8 16 14 77 51 51 62
REMARK Flexibility Score: inf
ROOT
ATOM      1  C   UNL A   1      33.215  30.058  26.407  1.00  0.00     0.274 C 
ENDROOT
BRANCH   1   2
ATOM      2  O   UNL A   1      31.868  29.842  25.951  1.00  0.00    -0.458 OA
BRANCH   2   3
ATOM      3  C   UNL A   1      31.716  29.098  24.818  1.00  0.00     0.365 C 
ATOM      4  O   UNL A   1      30.967  29.393  23.889  1.00  0.00    -0.245 OA
BRANCH   3   5
ATOM      5  C   UNL A   1      32.506  27.786  24.860  1.00  0.00     0.301 C 
ATOM      6  N   UNL A   1      31.644  26.611  25.271  1.00  0.00    -0.312 N 
ATOM      7  C   UNL A   1      30.872  26.057  24.142  1.00  0.00     0.320 C 
ATOM      8  H   UNL A   1      30.943  26.948  25.931  1.00  0.00     0.349 HD
ATOM      9  C   UNL A   1      31.782  25.818  23.007  1.00  0.00     0.093 A 
ATOM     10  C   UNL A   1      33.331  27.706  23.537  1.00  0.00     0.136 C 
ATOM     11  N   UNL A   1      31.770  24.802  22.100  1.00  0.00    -0.344 N 
ATOM     12  C   UNL A   1      32.894  26.562  22.711  1.00  0.00     0.074 A 
ATOM     13  C   UNL A   1      32.875  24.975  21.305  1.00  0.00     0.197 A 
ATOM     14  H   UNL A   1      31.100  24.085  22.028  1.00  0.00     0.167 HD
ATOM     15  N   UNL A   1      33.570  26.039  21.648  1.00  0.00    -0.241 NA
BRANCH   6  16
ATOM     16  C   UNL A   1      32.460  25.592  25.975  1.00  0.00     0.340 C 
BRANCH  16  17
ATOM     17  C   UNL A   1      31.713  24.337  26.377  1.00  0.00     0.168 A 
ATOM     18  N   UNL A   1      32.128  23.038  26.077  1.00  0.00    -0.299 N 
ATOM     19  C   UNL A   1      31.028  22.229  26.273  1.00  0.00     0.113 A 
ATOM     20  C   UNL A   1      30.068  23.029  26.836  1.00  0.00     0.132 A 
ATOM     21  N   UNL A   1      30.501  24.322  26.912  1.00  0.00    -0.236 NA
BRANCH  18  22
ATOM     22  C   UNL A   1      33.391  22.598  25.606  1.00  0.00     0.047 A 
ATOM     23  C   UNL A   1      35.938  21.870  24.736  1.00  0.00     0.119 A 
ATOM     24  C   UNL A   1      35.502  21.483  26.000  1.00  0.00     0.048 A 
ATOM     25  C   UNL A   1      35.079  22.548  23.871  1.00  0.00     0.048 A 
ATOM     26  C   UNL A   1      34.230  21.850  26.440  1.00  0.00     0.030 A 
ATOM     27  C   UNL A   1      33.796  22.901  24.298  1.00  0.00     0.030 A 
BRANCH  23  28
ATOM     28  O   UNL A   1      37.194  21.483  24.358  1.00  0.00    -0.497 OA
ATOM     29  C   UNL A   1      38.167  21.804  25.351  1.00  0.00     0.278 C 
ENDBRANCH  23  28
ENDBRANCH  18  22
ENDBRANCH  16  17
ENDBRANCH   6  16
ENDBRANCH   3   5
ENDBRANCH   2   3
ENDBRANCH   1   2
BRANCH   1  30
ATOM     30  C   UNL A   1      33.319  31.292  27.288  1.00  0.00     0.275 C 
BRANCH  30  31
ATOM     31  O   UNL A   1      34.301  31.089  28.300  1.00  0.00    -0.458 OA
BRANCH  31  32
ATOM     32  C   UNL A   1      35.394  31.879  28.196  1.00  0.00     0.338 C 
ATOM     33  O   UNL A   1      35.560  32.803  27.423  1.00  0.00    -0.246 OA
BRANCH  32  34
ATOM     34  C   UNL A   1      36.468  31.308  29.013  1.00  0.00     0.060 A 
ATOM     35  C   UNL A   1      37.464  32.172  29.487  1.00  0.00     0.016 A 
ATOM     36  C   UNL A   1      36.632  29.918  28.997  1.00  0.00     0.016 A 
ATOM     37  C   UNL A   1      38.706  31.648  29.784  1.00  0.00     0.010 A 
ATOM     38  C   UNL A   1      37.878  29.406  29.244  1.00  0.00     0.010 A 
ATOM     39  C   UNL A   1      38.914  30.284  29.570  1.00  0.00    -0.014 A 
BRANCH  39  40
ATOM     40  C   UNL A   1      40.251  29.737  29.667  1.00  0.00     0.031 A 
ATOM     41  C   UNL A   1      40.777  29.606  31.047  1.00  0.00     0.074 A 
ATOM     42  C   UNL A   1      40.798  29.143  28.587  1.00  0.00     0.049 A 
ATOM     43  N   UNL A   1      41.922  29.982  31.515  1.00  0.00    -0.248 NA
ATOM     44  C   UNL A   1      39.872  29.046  32.070  1.00  0.00     0.031 C 
ATOM     45  C   UNL A   1      40.153  28.903  27.288  1.00  0.00     0.029 A 
ATOM     46  N   UNL A   1      41.971  28.467  28.472  1.00  0.00    -0.354 N 
ATOM     47  C   UNL A   1      41.951  29.538  32.835  1.00  0.00     0.074 A 
ATOM     48  C   UNL A   1      40.616  29.126  33.168  1.00  0.00     0.031 C 
ATOM     49  C   UNL A   1      40.835  27.939  26.630  1.00  0.00     0.029 A 
ATOM     50  C   UNL A   1      42.002  27.570  27.414  1.00  0.00     0.049 A 
ATOM     51  H   UNL A   1      42.731  28.601  29.084  1.00  0.00     0.167 HD
ATOM     52  C   UNL A   1      43.121  29.293  33.479  1.00  0.00     0.037 A 
ATOM     53  C   UNL A   1      42.854  26.526  27.266  1.00  0.00     0.037 A 
ATOM     54  C   UNL A   1      44.218  30.003  32.876  1.00  0.00     0.049 A 
ATOM     55  C   UNL A   1      43.978  26.719  28.220  1.00  0.00     0.074 A 
ATOM     56  C   UNL A   1      44.451  31.332  32.572  1.00  0.00     0.029 A 
ATOM     57  N   UNL A   1      45.142  29.292  32.152  1.00  0.00    -0.354 N 
ATOM     58  N   UNL A   1      44.893  27.642  28.115  1.00  0.00    -0.248 NA
ATOM     59  C   UNL A   1      43.832  26.140  29.550  1.00  0.00     0.031 C 
ATOM     60  C   UNL A   1      45.139  31.309  31.324  1.00  0.00     0.029 A 
ATOM     61  C   UNL A   1      45.323  29.971  30.974  1.00  0.00     0.049 A 
ATOM     62  H   UNL A   1      45.589  28.458  32.424  1.00  0.00     0.167 HD
ATOM     63  C   UNL A   1      45.133  28.055  29.418  1.00  0.00     0.074 A 
ATOM     64  C   UNL A   1      44.527  27.030  30.262  1.00  0.00     0.031 C 
ATOM     65  C   UNL A   1      45.542  29.327  29.701  1.00  0.00     0.037 A 
BRANCH  52  66
ATOM     66  C   UNL A   1      43.311  28.129  34.419  1.00  0.00     0.057 A 
ATOM     67  C   UNL A   1      43.197  26.821  33.924  1.00  0.00     0.134 A 
ATOM     68  C   UNL A   1      43.317  28.239  35.828  1.00  0.00     0.134 A 
ATOM     69  F   UNL A   1      43.154  26.587  32.604  1.00  0.00    -0.206 F 
ATOM     70  C   UNL A   1      43.033  25.713  34.764  1.00  0.00     0.040 A 
ATOM     71  C   UNL A   1      43.214  27.133  36.676  1.00  0.00     0.040 A 
ATOM     72  F   UNL A   1      43.318  29.417  36.462  1.00  0.00    -0.206 F 
ATOM     73  C   UNL A   1      43.037  25.868  36.145  1.00  0.00     0.006 A 
ENDBRANCH  52  66
BRANCH  53  74
ATOM     74  C   UNL A   1      42.605  25.230  26.590  1.00  0.00     0.057 A 
ATOM     75  C   UNL A   1      43.368  24.832  25.483  1.00  0.00     0.134 A 
ATOM     76  C   UNL A   1      41.770  24.241  27.144  1.00  0.00     0.134 A 
ATOM     77  F   UNL A   1      44.233  25.682  24.914  1.00  0.00    -0.206 F 
ATOM     78  C   UNL A   1      43.307  23.532  24.963  1.00  0.00     0.040 A 
ATOM     79  C   UNL A   1      41.686  22.946  26.624  1.00  0.00     0.040 A 
ATOM     80  F   UNL A   1      41.068  24.469  28.264  1.00  0.00    -0.206 F 
ATOM     81  C   UNL A   1      42.465  22.582  25.535  1.00  0.00     0.006 A 
ENDBRANCH  53  74
BRANCH  65  82
ATOM     82  C   UNL A   1      45.979  30.210  28.567  1.00  0.00     0.057 A 
ATOM     83  C   UNL A   1      45.104  30.998  27.804  1.00  0.00     0.134 A 
ATOM     84  C   UNL A   1      47.350  30.399  28.350  1.00  0.00     0.134 A 
ATOM     85  F   UNL A   1      43.783  30.972  28.016  1.00  0.00    -0.206 F 
ATOM     86  C   UNL A   1      45.569  31.893  26.837  1.00  0.00     0.040 A 
ATOM     87  C   UNL A   1      47.828  31.318  27.413  1.00  0.00     0.040 A 
ATOM     88  F   UNL A   1      48.251  29.729  29.086  1.00  0.00    -0.206 F 
ATOM     89  C   UNL A   1      46.937  32.061  26.645  1.00  0.00     0.006 A 
ENDBRANCH  65  82
ENDBRANCH  39  40
ENDBRANCH  32  34
ENDBRANCH  31  32
ENDBRANCH  30  31
ENDBRANCH   1  30
TORSDOF 15
ENDMDL
MODEL 3
REMARK VINA RESULT:     -11.3      5.103      9.674
REMARK SMILES COc1ccc(-n2ccnc2C[N@@H+]2Cc3[nH]cnc3C[C@H]2C(=O)OCCOC(=O)c2ccc(-c3c4nc(c(-c5c(F)cccc5F)c5ccc([nH]5)c(-c5c(F)cccc5F)c5nc(c(-c6c(F)cccc6F)c6ccc3[nH]6)C=C5)C=C4)cc2)cc1
REMARK SMILES IDX 25 1 24 2 22 3 23 4 21 5 13 6 14 7 15 9 20 10 16 11 19 12
REMARK SMILES IDX 17 13 18 15 12 16 11 17 7 18 8 19 9 20 10 21 6 22 3 23 4 24
REMARK SMILES IDX 85 25 5 26 84 27 2 28 1 29 26 30 27 31 28 32 29 33 30 34
REMARK SMILES IDX 31 35 83 36 32 37 82 38 33 39 34 40 35 41 76 42 36 43 81 44
REMARK SMILES IDX 75 45 77 46 37 47 80 48 74 49 73 50 38 52 64 53 47 54 63 55
REMARK SMILES IDX 48 56 51 57 62 58 78 59 49 60 50 61 61 63 79 64 52 65 39 66
REMARK SMILES IDX 40 67 45 68 41 69 42 70 44 71 46 72 43 73 65 74 66 75 71 76
REMARK SMILES IDX 67 77 68 78 70 79 72 80 69 81 53 82 54 83 59 84 55 85 56 86
REMARK SMILES IDX 58 87 60 88 57 89
REMARK H PARENT 13 8 16 14 77 51 51 62
REMARK Flexibility Score: inf
ROOT
ATOM      1  C   UNL A   1      36.119  31.126  31.576  1.00  0.00     0.274 C 
ENDROOT
BRANCH   1   2
ATOM      2  O   UNL A   1      36.273  29.753  31.974  1.00  0.00    -0.458 OA
BRANCH   2   3
ATOM      3  C   UNL A   1      37.299  29.473  32.827  1.00  0.00     0.365 C 
ATOM      4  O   UNL A   1      37.559  28.351  33.257  1.00  0.00    -0.245 OA
BRANCH   3   5
ATOM      5  C   UNL A   1      38.050  30.728  33.283  1.00  0.00     0.301 C 
ATOM      6  N   UNL A   1      37.723  31.103  34.714  1.00  0.00    -0.312 N 
ATOM      7  C   UNL A   1      38.512  30.331  35.693  1.00  0.00     0.320 C 
ATOM      8  H   UNL A   1      36.753  30.847  34.894  1.00  0.00     0.349 HD
ATOM      9  C   UNL A   1      39.938  30.397  35.324  1.00  0.00     0.093 A 
ATOM     10  C   UNL A   1      39.542  30.548  32.861  1.00  0.00     0.136 C 
ATOM     11  N   UNL A   1      41.029  30.474  36.134  1.00  0.00    -0.344 N 
ATOM     12  C   UNL A   1      40.423  30.484  34.045  1.00  0.00     0.074 A 
ATOM     13  C   UNL A   1      42.118  30.609  35.312  1.00  0.00     0.197 A 
ATOM     14  H   UNL A   1      41.035  30.438  37.118  1.00  0.00     0.167 HD
ATOM     15  N   UNL A   1      41.781  30.610  34.039  1.00  0.00    -0.241 NA
BRANCH   6  16
ATOM     16  C   UNL A   1      37.835  32.570  34.902  1.00  0.00     0.340 C 
BRANCH  16  17
ATOM     17  C   UNL A   1      36.792  33.392  34.171  1.00  0.00     0.168 A 
ATOM     18  N   UNL A   1      37.057  34.208  33.070  1.00  0.00    -0.299 N 
ATOM     19  C   UNL A   1      35.967  35.044  32.942  1.00  0.00     0.113 A 
ATOM     20  C   UNL A   1      35.037  34.591  33.841  1.00  0.00     0.132 A 
ATOM     21  N   UNL A   1      35.545  33.563  34.584  1.00  0.00    -0.236 NA
BRANCH  18  22
ATOM     22  C   UNL A   1      38.217  34.252  32.257  1.00  0.00     0.047 A 
ATOM     23  C   UNL A   1      40.504  34.173  30.663  1.00  0.00     0.119 A 
ATOM     24  C   UNL A   1      39.246  34.172  30.068  1.00  0.00     0.048 A 
ATOM     25  C   UNL A   1      40.629  34.297  32.047  1.00  0.00     0.048 A 
ATOM     26  C   UNL A   1      38.100  34.206  30.863  1.00  0.00     0.030 A 
ATOM     27  C   UNL A   1      39.485  34.352  32.848  1.00  0.00     0.030 A 
BRANCH  23  28
ATOM     28  O   UNL A   1      41.592  34.139  29.835  1.00  0.00    -0.497 OA
ATOM     29  C   UNL A   1      42.325  32.922  29.978  1.00  0.00     0.278 C 
ENDBRANCH  23  28
ENDBRANCH  18  22
ENDBRANCH  16  17
ENDBRANCH   6  16
ENDBRANCH   3   5
ENDBRANCH   2   3
ENDBRANCH   1   2
BRANCH   1  30
ATOM     30  C   UNL A   1      35.985  31.263  30.068  1.00  0.00     0.275 C 
BRANCH  30  31
ATOM     31  O   UNL A   1      36.066  29.982  29.452  1.00  0.00    -0.458 OA
BRANCH  31  32
ATOM     32  C   UNL A   1      36.957  29.896  28.438  1.00  0.00     0.338 C 
ATOM     33  O   UNL A   1      36.718  29.944  27.247  1.00  0.00    -0.246 OA
BRANCH  32  34
ATOM     34  C   UNL A   1      38.257  29.500  28.984  1.00  0.00     0.060 A 
ATOM     35  C   UNL A   1      39.389  30.216  28.572  1.00  0.00     0.016 A 
ATOM     36  C   UNL A   1      38.352  28.250  29.607  1.00  0.00     0.016 A 
ATOM     37  C   UNL A   1      40.620  29.593  28.625  1.00  0.00     0.010 A 
ATOM     38  C   UNL A   1      39.564  27.615  29.613  1.00  0.00     0.010 A 
ATOM     39  C   UNL A   1      40.669  28.268  29.063  1.00  0.00    -0.014 A 
BRANCH  39  40
ATOM     40  C   UNL A   1      41.899  27.514  28.934  1.00  0.00     0.031 A 
ATOM     41  C   UNL A   1      42.819  27.613  30.094  1.00  0.00     0.074 A 
ATOM     42  C   UNL A   1      42.005  26.590  27.958  1.00  0.00     0.049 A 
ATOM     43  N   UNL A   1      44.087  27.863  30.099  1.00  0.00    -0.248 NA
ATOM     44  C   UNL A   1      42.231  27.492  31.442  1.00  0.00     0.031 C 
ATOM     45  C   UNL A   1      40.958  26.179  27.012  1.00  0.00     0.029 A 
ATOM     46  N   UNL A   1      42.999  25.695  27.718  1.00  0.00    -0.354 N 
ATOM     47  C   UNL A   1      44.485  27.744  31.429  1.00  0.00     0.074 A 
ATOM     48  C   UNL A   1      43.289  27.684  32.221  1.00  0.00     0.031 C 
ATOM     49  C   UNL A   1      41.284  24.976  26.490  1.00  0.00     0.029 A 
ATOM     50  C   UNL A   1      42.591  24.585  26.990  1.00  0.00     0.049 A 
ATOM     51  H   UNL A   1      43.923  25.821  28.032  1.00  0.00     0.167 HD
ATOM     52  C   UNL A   1      45.765  27.438  31.765  1.00  0.00     0.037 A 
ATOM     53  C   UNL A   1      43.232  23.393  26.912  1.00  0.00     0.037 A 
ATOM     54  C   UNL A   1      46.684  27.764  30.707  1.00  0.00     0.049 A 
ATOM     55  C   UNL A   1      44.615  23.587  27.422  1.00  0.00     0.074 A 
ATOM     56  C   UNL A   1      46.953  28.914  29.988  1.00  0.00     0.029 A 
ATOM     57  N   UNL A   1      47.246  26.739  29.986  1.00  0.00    -0.354 N 
ATOM     58  N   UNL A   1      45.545  24.267  26.812  1.00  0.00    -0.248 NA
ATOM     59  C   UNL A   1      44.837  23.374  28.847  1.00  0.00     0.031 C 
ATOM     60  C   UNL A   1      47.202  28.468  28.658  1.00  0.00     0.029 A 
ATOM     61  C   UNL A   1      47.116  27.076  28.662  1.00  0.00     0.049 A 
ATOM     62  H   UNL A   1      47.661  25.923  30.347  1.00  0.00     0.167 HD
ATOM     63  C   UNL A   1      46.231  24.921  27.826  1.00  0.00     0.074 A 
ATOM     64  C   UNL A   1      45.816  24.257  29.058  1.00  0.00     0.031 C 
ATOM     65  C   UNL A   1      46.846  26.122  27.614  1.00  0.00     0.037 A 
BRANCH  52  66
ATOM     66  C   UNL A   1      46.115  26.513  32.904  1.00  0.00     0.057 A 
ATOM     67  C   UNL A   1      47.133  26.879  33.797  1.00  0.00     0.134 A 
ATOM     68  C   UNL A   1      45.696  25.167  32.991  1.00  0.00     0.134 A 
ATOM     69  F   UNL A   1      47.636  28.123  33.796  1.00  0.00    -0.206 F 
ATOM     70  C   UNL A   1      47.736  25.959  34.664  1.00  0.00     0.040 A 
ATOM     71  C   UNL A   1      46.249  24.256  33.894  1.00  0.00     0.040 A 
ATOM     72  F   UNL A   1      44.808  24.630  32.146  1.00  0.00    -0.206 F 
ATOM     73  C   UNL A   1      47.297  24.641  34.711  1.00  0.00     0.006 A 
ENDBRANCH  52  66
BRANCH  53  74
ATOM     74  C   UNL A   1      42.639  22.047  26.726  1.00  0.00     0.057 A 
ATOM     75  C   UNL A   1      43.161  21.150  25.782  1.00  0.00     0.134 A 
ATOM     76  C   UNL A   1      41.694  21.511  27.620  1.00  0.00     0.134 A 
ATOM     77  F   UNL A   1      44.106  21.547  24.918  1.00  0.00    -0.206 F 
ATOM     78  C   UNL A   1      42.769  19.805  25.734  1.00  0.00     0.040 A 
ATOM     79  C   UNL A   1      41.281  20.176  27.572  1.00  0.00     0.040 A 
ATOM     80  F   UNL A   1      41.198  22.241  28.630  1.00  0.00    -0.206 F 
ATOM     81  C   UNL A   1      41.828  19.313  26.633  1.00  0.00     0.006 A 
ENDBRANCH  53  74
BRANCH  65  82
ATOM     82  C   UNL A   1      46.995  26.613  26.202  1.00  0.00     0.057 A 
ATOM     83  C   UNL A   1      46.060  27.437  25.557  1.00  0.00     0.134 A 
ATOM     84  C   UNL A   1      48.204  26.386  25.533  1.00  0.00     0.134 A 
ATOM     85  F   UNL A   1      44.924  27.804  26.161  1.00  0.00    -0.206 F 
ATOM     86  C   UNL A   1      46.297  27.966  24.285  1.00  0.00     0.040 A 
ATOM     87  C   UNL A   1      48.468  26.940  24.278  1.00  0.00     0.040 A 
ATOM     88  F   UNL A   1      49.173  25.660  26.114  1.00  0.00    -0.206 F 
ATOM     89  C   UNL A   1      47.508  27.724  23.645  1.00  0.00     0.006 A 
ENDBRANCH  65  82
ENDBRANCH  39  40
ENDBRANCH  32  34
ENDBRANCH  31  32
ENDBRANCH  30  31
ENDBRANCH   1  30
TORSDOF 15
ENDMDL
