MODEL 1
REMARK VINA RESULT:     -12.7      0.000      0.000
REMARK SMILES CC(C)n1c2c(c3ccccc31)[C@@H](c1ccccc1)N(CC(=O)OCCOC(=O)c1ccc(-c3c4nc(c(-c5c(F)cccc5F)c5ccc([nH]5)c(-c5c(F)cccc5F)c5nc(c(-c6c(F)cccc6F)c6ccc3[nH]6)C=C5)C=C4)cc1)C2=O
REMARK SMILES IDX 25 1 24 2 22 3 23 4 21 5 20 6 4 7 5 8 12 9 6 10 84 11 7 12
REMARK SMILES IDX 11 13 13 14 85 15 8 16 10 17 9 18 2 19 1 20 3 21 14 22 15 23
REMARK SMILES IDX 19 24 16 25 18 26 17 27 26 28 27 29 28 30 29 31 30 32 31 33
REMARK SMILES IDX 83 34 32 35 82 36 33 37 34 38 35 39 76 40 36 41 81 42 75 43
REMARK SMILES IDX 77 44 37 45 80 46 74 47 73 48 38 50 64 51 47 52 63 53 48 54
REMARK SMILES IDX 51 55 62 56 78 57 49 58 50 59 61 61 79 62 52 63 39 64 40 65
REMARK SMILES IDX 45 66 41 67 42 68 44 69 46 70 43 71 65 72 66 73 71 74 67 75
REMARK SMILES IDX 68 76 70 77 72 78 69 79 53 80 54 81 59 82 55 83 56 84 58 85
REMARK SMILES IDX 60 86 57 87
REMARK H PARENT 77 49 51 60
REMARK Flexibility Score: inf
ROOT
ATOM      1  C   UNL A   1      33.152  32.970  27.655  1.00  0.00     0.274 C 
ENDROOT
BRANCH   1   2
ATOM      2  O   UNL A   1      33.572  31.626  28.018  1.00  0.00    -0.461 OA
BRANCH   2   3
ATOM      3  C   UNL A   1      33.354  30.647  27.093  1.00  0.00     0.325 C 
ATOM      4  O   UNL A   1      34.246  29.999  26.555  1.00  0.00    -0.250 OA
BRANCH   3   5
ATOM      5  C   UNL A   1      31.865  30.328  26.846  1.00  0.00     0.243 C 
BRANCH   5   6
ATOM      6  N   UNL A   1      31.486  29.187  26.039  1.00  0.00    -0.315 N 
ATOM      7  N   UNL A   1      31.697  25.665  25.426  1.00  0.00    -0.334 N 
ATOM      8  C   UNL A   1      31.607  27.013  25.599  1.00  0.00     0.114 A 
ATOM      9  C   UNL A   1      32.111  25.471  24.095  1.00  0.00     0.049 A 
ATOM     10  C   UNL A   1      31.682  27.661  24.396  1.00  0.00     0.018 A 
ATOM     11  C   UNL A   1      31.534  27.945  26.654  1.00  0.00     0.272 C 
ATOM     12  C   UNL A   1      32.091  26.727  23.440  1.00  0.00     0.006 A 
ATOM     13  C   UNL A   1      32.530  24.334  23.382  1.00  0.00     0.027 A 
ATOM     14  C   UNL A   1      31.456  29.129  24.540  1.00  0.00     0.150 C 
ATOM     15  O   UNL A   1      31.651  27.750  27.868  1.00  0.00    -0.267 OA
ATOM     16  C   UNL A   1      32.470  26.832  22.088  1.00  0.00     0.011 A 
ATOM     17  C   UNL A   1      32.906  24.464  22.039  1.00  0.00     0.002 A 
ATOM     18  C   UNL A   1      32.878  25.693  21.398  1.00  0.00     0.001 A 
BRANCH   7  19
ATOM     19  C   UNL A   1      31.486  24.674  26.495  1.00  0.00     0.082 C 
ATOM     20  C   UNL A   1      30.273  23.743  26.269  1.00  0.00     0.031 C 
ATOM     21  C   UNL A   1      32.676  23.747  26.765  1.00  0.00     0.031 C 
ENDBRANCH   7  19
BRANCH  14  22
ATOM     22  C   UNL A   1      30.112  29.472  23.856  1.00  0.00    -0.021 A 
ATOM     23  C   UNL A   1      29.320  28.461  23.278  1.00  0.00     0.006 A 
ATOM     24  C   UNL A   1      29.528  30.756  23.835  1.00  0.00     0.006 A 
ATOM     25  C   UNL A   1      28.038  28.683  22.753  1.00  0.00     0.000 A 
ATOM     26  C   UNL A   1      28.242  30.990  23.316  1.00  0.00     0.000 A 
ATOM     27  C   UNL A   1      27.493  29.952  22.777  1.00  0.00     0.000 A 
ENDBRANCH  14  22
ENDBRANCH   5   6
ENDBRANCH   3   5
ENDBRANCH   2   3
ENDBRANCH   1   2
BRANCH   1  28
ATOM     28  C   UNL A   1      34.222  34.015  28.007  1.00  0.00     0.275 C 
BRANCH  28  29
ATOM     29  O   UNL A   1      35.518  33.396  27.929  1.00  0.00    -0.458 OA
BRANCH  29  30
ATOM     30  C   UNL A   1      36.185  33.327  29.102  1.00  0.00     0.338 C 
ATOM     31  O   UNL A   1      35.856  33.801  30.176  1.00  0.00    -0.246 OA
BRANCH  30  32
ATOM     32  C   UNL A   1      37.072  32.165  28.961  1.00  0.00     0.060 A 
ATOM     33  C   UNL A   1      36.681  30.899  28.556  1.00  0.00     0.016 A 
ATOM     34  C   UNL A   1      38.348  32.372  29.468  1.00  0.00     0.016 A 
ATOM     35  C   UNL A   1      37.571  29.840  28.755  1.00  0.00     0.010 A 
ATOM     36  C   UNL A   1      39.246  31.332  29.635  1.00  0.00     0.010 A 
ATOM     37  C   UNL A   1      38.830  30.051  29.354  1.00  0.00    -0.014 A 
BRANCH  37  38
ATOM     38  C   UNL A   1      39.801  28.969  29.424  1.00  0.00     0.031 A 
ATOM     39  C   UNL A   1      40.088  28.605  30.824  1.00  0.00     0.074 A 
ATOM     40  C   UNL A   1      40.359  28.225  28.448  1.00  0.00     0.049 A 
ATOM     41  N   UNL A   1      41.069  29.057  31.523  1.00  0.00    -0.248 NA
ATOM     42  C   UNL A   1      39.103  27.824  31.580  1.00  0.00     0.031 C 
ATOM     43  C   UNL A   1      40.030  28.101  27.029  1.00  0.00     0.029 A 
ATOM     44  N   UNL A   1      41.418  27.370  28.593  1.00  0.00    -0.354 N 
ATOM     45  C   UNL A   1      40.949  28.469  32.768  1.00  0.00     0.074 A 
ATOM     46  C   UNL A   1      39.644  27.860  32.801  1.00  0.00     0.031 C 
ATOM     47  C   UNL A   1      40.781  27.112  26.478  1.00  0.00     0.029 A 
ATOM     48  C   UNL A   1      41.755  26.648  27.457  1.00  0.00     0.049 A 
ATOM     49  H   UNL A   1      41.906  27.275  29.443  1.00  0.00     0.167 HD
ATOM     50  C   UNL A   1      42.038  28.362  33.574  1.00  0.00     0.037 A 
ATOM     51  C   UNL A   1      42.772  25.754  27.346  1.00  0.00     0.037 A 
ATOM     52  C   UNL A   1      43.108  29.226  33.122  1.00  0.00     0.049 A 
ATOM     53  C   UNL A   1      43.766  26.069  28.403  1.00  0.00     0.074 A 
ATOM     54  C   UNL A   1      43.223  30.585  32.881  1.00  0.00     0.029 A 
ATOM     55  N   UNL A   1      44.164  28.653  32.454  1.00  0.00    -0.354 N 
ATOM     56  N   UNL A   1      44.535  27.120  28.392  1.00  0.00    -0.248 NA
ATOM     57  C   UNL A   1      43.631  25.411  29.692  1.00  0.00     0.031 C 
ATOM     58  C   UNL A   1      44.015  30.689  31.696  1.00  0.00     0.029 A 
ATOM     59  C   UNL A   1      44.380  29.395  31.319  1.00  0.00     0.049 A 
ATOM     60  H   UNL A   1      44.671  27.857  32.735  1.00  0.00     0.167 HD
ATOM     61  C   UNL A   1      44.604  27.516  29.718  1.00  0.00     0.074 A 
ATOM     62  C   UNL A   1      44.125  26.367  30.482  1.00  0.00     0.031 C 
ATOM     63  C   UNL A   1      44.782  28.828  30.053  1.00  0.00     0.037 A 
BRANCH  50  64
ATOM     64  C   UNL A   1      42.271  27.212  34.515  1.00  0.00     0.057 A 
ATOM     65  C   UNL A   1      43.085  26.097  34.227  1.00  0.00     0.134 A 
ATOM     66  C   UNL A   1      41.920  27.365  35.867  1.00  0.00     0.134 A 
ATOM     67  F   UNL A   1      43.559  25.845  33.002  1.00  0.00    -0.206 F 
ATOM     68  C   UNL A   1      43.548  25.225  35.215  1.00  0.00     0.040 A 
ATOM     69  C   UNL A   1      42.421  26.529  36.870  1.00  0.00     0.040 A 
ATOM     70  F   UNL A   1      41.150  28.389  36.267  1.00  0.00    -0.206 F 
ATOM     71  C   UNL A   1      43.248  25.461  36.546  1.00  0.00     0.006 A 
ENDBRANCH  50  64
BRANCH  51  72
ATOM     72  C   UNL A   1      42.908  24.533  26.521  1.00  0.00     0.057 A 
ATOM     73  C   UNL A   1      42.397  23.306  26.970  1.00  0.00     0.134 A 
ATOM     74  C   UNL A   1      43.808  24.469  25.444  1.00  0.00     0.134 A 
ATOM     75  F   UNL A   1      41.584  23.250  28.034  1.00  0.00    -0.206 F 
ATOM     76  C   UNL A   1      42.785  22.084  26.407  1.00  0.00     0.040 A 
ATOM     77  C   UNL A   1      44.206  23.253  24.872  1.00  0.00     0.040 A 
ATOM     78  F   UNL A   1      44.382  25.583  24.965  1.00  0.00    -0.206 F 
ATOM     79  C   UNL A   1      43.705  22.054  25.365  1.00  0.00     0.006 A 
ENDBRANCH  51  72
BRANCH  63  80
ATOM     80  C   UNL A   1      45.193  29.778  28.960  1.00  0.00     0.057 A 
ATOM     81  C   UNL A   1      46.541  30.143  28.855  1.00  0.00     0.134 A 
ATOM     82  C   UNL A   1      44.301  30.408  28.077  1.00  0.00     0.134 A 
ATOM     83  F   UNL A   1      47.449  29.626  29.698  1.00  0.00    -0.206 F 
ATOM     84  C   UNL A   1      46.987  31.067  27.906  1.00  0.00     0.040 A 
ATOM     85  C   UNL A   1      44.739  31.305  27.097  1.00  0.00     0.040 A 
ATOM     86  F   UNL A   1      42.979  30.208  28.164  1.00  0.00    -0.206 F 
ATOM     87  C   UNL A   1      46.087  31.639  27.011  1.00  0.00     0.006 A 
ENDBRANCH  63  80
ENDBRANCH  37  38
ENDBRANCH  30  32
ENDBRANCH  29  30
ENDBRANCH  28  29
ENDBRANCH   1  28
TORSDOF 14
ENDMDL
MODEL 2
REMARK VINA RESULT:     -12.6      3.764      8.900
REMARK SMILES CC(C)n1c2c(c3ccccc31)[C@@H](c1ccccc1)N(CC(=O)OCCOC(=O)c1ccc(-c3c4nc(c(-c5c(F)cccc5F)c5ccc([nH]5)c(-c5c(F)cccc5F)c5nc(c(-c6c(F)cccc6F)c6ccc3[nH]6)C=C5)C=C4)cc1)C2=O
REMARK SMILES IDX 25 1 24 2 22 3 23 4 21 5 20 6 4 7 5 8 12 9 6 10 84 11 7 12
REMARK SMILES IDX 11 13 13 14 85 15 8 16 10 17 9 18 2 19 1 20 3 21 14 22 15 23
REMARK SMILES IDX 19 24 16 25 18 26 17 27 26 28 27 29 28 30 29 31 30 32 31 33
REMARK SMILES IDX 83 34 32 35 82 36 33 37 34 38 35 39 76 40 36 41 81 42 75 43
REMARK SMILES IDX 77 44 37 45 80 46 74 47 73 48 38 50 64 51 47 52 63 53 48 54
REMARK SMILES IDX 51 55 62 56 78 57 49 58 50 59 61 61 79 62 52 63 39 64 40 65
REMARK SMILES IDX 45 66 41 67 42 68 44 69 46 70 43 71 65 72 66 73 71 74 67 75
REMARK SMILES IDX 68 76 70 77 72 78 69 79 53 80 54 81 59 82 55 83 56 84 58 85
REMARK SMILES IDX 60 86 57 87
REMARK H PARENT 77 49 51 60
REMARK Flexibility Score: inf
ROOT
ATOM      1  C   UNL A   1      39.971  20.379  26.125  1.00  0.00     0.274 C 
ENDROOT
BRANCH   1   2
ATOM      2  O   UNL A   1      39.572  21.726  25.752  1.00  0.00    -0.461 OA
BRANCH   2   3
ATOM      3  C   UNL A   1      38.232  21.986  25.743  1.00  0.00     0.325 C 
ATOM      4  O   UNL A   1      37.692  22.836  26.445  1.00  0.00    -0.250 OA
BRANCH   3   5
ATOM      5  C   UNL A   1      37.439  21.194  24.683  1.00  0.00     0.243 C 
BRANCH   5   6
ATOM      6  N   UNL A   1      36.042  21.489  24.444  1.00  0.00    -0.315 N 
ATOM      7  N   UNL A   1      33.496  23.919  23.782  1.00  0.00    -0.334 N 
ATOM      8  C   UNL A   1      34.422  22.960  24.061  1.00  0.00     0.114 A 
ATOM      9  C   UNL A   1      32.485  23.777  24.751  1.00  0.00     0.049 A 
ATOM     10  C   UNL A   1      33.931  22.064  24.973  1.00  0.00     0.018 A 
ATOM     11  C   UNL A   1      35.762  22.655  23.747  1.00  0.00     0.272 C 
ATOM     12  C   UNL A   1      32.751  22.601  25.495  1.00  0.00     0.006 A 
ATOM     13  C   UNL A   1      31.367  24.560  25.085  1.00  0.00     0.027 A 
ATOM     14  C   UNL A   1      34.873  20.929  25.199  1.00  0.00     0.150 C 
ATOM     15  O   UNL A   1      36.586  23.336  23.128  1.00  0.00    -0.267 OA
ATOM     16  C   UNL A   1      31.897  22.214  26.545  1.00  0.00     0.011 A 
ATOM     17  C   UNL A   1      30.533  24.157  26.137  1.00  0.00     0.002 A 
ATOM     18  C   UNL A   1      30.792  23.001  26.859  1.00  0.00     0.001 A 
BRANCH   7  19
ATOM     19  C   UNL A   1      33.643  24.933  22.724  1.00  0.00     0.082 C 
ATOM     20  C   UNL A   1      32.554  24.870  21.629  1.00  0.00     0.031 C 
ATOM     21  C   UNL A   1      33.656  26.385  23.213  1.00  0.00     0.031 C 
ENDBRANCH   7  19
BRANCH  14  22
ATOM     22  C   UNL A   1      34.221  19.649  24.628  1.00  0.00    -0.021 A 
ATOM     23  C   UNL A   1      32.970  19.705  23.983  1.00  0.00     0.006 A 
ATOM     24  C   UNL A   1      34.833  18.379  24.606  1.00  0.00     0.006 A 
ATOM     25  C   UNL A   1      32.380  18.610  23.335  1.00  0.00     0.000 A 
ATOM     26  C   UNL A   1      34.254  17.274  23.956  1.00  0.00     0.000 A 
ATOM     27  C   UNL A   1      33.028  17.389  23.315  1.00  0.00     0.000 A 
ENDBRANCH  14  22
ENDBRANCH   5   6
ENDBRANCH   3   5
ENDBRANCH   2   3
ENDBRANCH   1   2
BRANCH   1  28
ATOM     28  C   UNL A   1      41.221  20.383  27.019  1.00  0.00     0.275 C 
BRANCH  28  29
ATOM     29  O   UNL A   1      41.166  21.527  27.887  1.00  0.00    -0.458 OA
BRANCH  29  30
ATOM     30  C   UNL A   1      42.208  22.378  27.770  1.00  0.00     0.338 C 
ATOM     31  O   UNL A   1      43.205  22.247  27.080  1.00  0.00    -0.246 OA
BRANCH  30  32
ATOM     32  C   UNL A   1      41.681  23.680  28.202  1.00  0.00     0.060 A 
ATOM     33  C   UNL A   1      40.389  24.132  27.992  1.00  0.00     0.016 A 
ATOM     34  C   UNL A   1      42.654  24.545  28.683  1.00  0.00     0.016 A 
ATOM     35  C   UNL A   1      40.126  25.490  28.194  1.00  0.00     0.010 A 
ATOM     36  C   UNL A   1      42.391  25.884  28.917  1.00  0.00     0.010 A 
ATOM     37  C   UNL A   1      41.147  26.376  28.597  1.00  0.00    -0.014 A 
BRANCH  37  38
ATOM     38  C   UNL A   1      40.830  27.754  28.941  1.00  0.00     0.031 A 
ATOM     39  C   UNL A   1      41.768  28.691  28.295  1.00  0.00     0.074 A 
ATOM     40  C   UNL A   1      39.797  28.270  29.638  1.00  0.00     0.049 A 
ATOM     41  N   UNL A   1      42.830  29.172  28.838  1.00  0.00    -0.248 NA
ATOM     42  C   UNL A   1      41.628  28.975  26.862  1.00  0.00     0.031 C 
ATOM     43  C   UNL A   1      38.549  27.662  30.095  1.00  0.00     0.029 A 
ATOM     44  N   UNL A   1      39.694  29.559  30.089  1.00  0.00    -0.354 N 
ATOM     45  C   UNL A   1      43.409  29.984  27.881  1.00  0.00     0.074 A 
ATOM     46  C   UNL A   1      42.729  29.698  26.644  1.00  0.00     0.031 C 
ATOM     47  C   UNL A   1      37.751  28.623  30.631  1.00  0.00     0.029 A 
ATOM     48  C   UNL A   1      38.492  29.874  30.706  1.00  0.00     0.049 A 
ATOM     49  H   UNL A   1      40.421  30.214  29.982  1.00  0.00     0.167 HD
ATOM     50  C   UNL A   1      44.257  30.977  28.261  1.00  0.00     0.037 A 
ATOM     51  C   UNL A   1      38.158  31.075  31.248  1.00  0.00     0.037 A 
ATOM     52  C   UNL A   1      44.702  30.790  29.625  1.00  0.00     0.049 A 
ATOM     53  C   UNL A   1      39.419  31.793  31.563  1.00  0.00     0.074 A 
ATOM     54  C   UNL A   1      45.341  29.769  30.308  1.00  0.00     0.029 A 
ATOM     55  N   UNL A   1      44.138  31.577  30.602  1.00  0.00    -0.354 N 
ATOM     56  N   UNL A   1      40.230  31.456  32.524  1.00  0.00    -0.248 NA
ATOM     57  C   UNL A   1      39.987  32.665  30.548  1.00  0.00     0.031 C 
ATOM     58  C   UNL A   1      44.705  29.719  31.587  1.00  0.00     0.029 A 
ATOM     59  C   UNL A   1      43.760  30.745  31.627  1.00  0.00     0.049 A 
ATOM     60  H   UNL A   1      44.026  32.555  30.573  1.00  0.00     0.167 HD
ATOM     61  C   UNL A   1      41.496  31.681  32.009  1.00  0.00     0.074 A 
ATOM     62  C   UNL A   1      41.282  32.527  30.838  1.00  0.00     0.031 C 
ATOM     63  C   UNL A   1      42.566  30.937  32.417  1.00  0.00     0.037 A 
BRANCH  50  64
ATOM     64  C   UNL A   1      44.370  32.296  27.547  1.00  0.00     0.057 A 
ATOM     65  C   UNL A   1      43.725  33.482  27.954  1.00  0.00     0.134 A 
ATOM     66  C   UNL A   1      45.395  32.466  26.601  1.00  0.00     0.134 A 
ATOM     67  F   UNL A   1      42.773  33.502  28.894  1.00  0.00    -0.206 F 
ATOM     68  C   UNL A   1      44.099  34.744  27.488  1.00  0.00     0.040 A 
ATOM     69  C   UNL A   1      45.813  33.728  26.167  1.00  0.00     0.040 A 
ATOM     70  F   UNL A   1      46.085  31.413  26.136  1.00  0.00    -0.206 F 
ATOM     71  C   UNL A   1      45.171  34.874  26.620  1.00  0.00     0.006 A 
ENDBRANCH  50  64
BRANCH  51  72
ATOM     72  C   UNL A   1      36.850  31.755  31.374  1.00  0.00     0.057 A 
ATOM     73  C   UNL A   1      36.239  32.343  30.256  1.00  0.00     0.134 A 
ATOM     74  C   UNL A   1      36.330  32.123  32.626  1.00  0.00     0.134 A 
ATOM     75  F   UNL A   1      36.703  32.112  29.020  1.00  0.00    -0.206 F 
ATOM     76  C   UNL A   1      35.196  33.270  30.375  1.00  0.00     0.040 A 
ATOM     77  C   UNL A   1      35.288  33.052  32.760  1.00  0.00     0.040 A 
ATOM     78  F   UNL A   1      36.869  31.646  33.758  1.00  0.00    -0.206 F 
ATOM     79  C   UNL A   1      34.729  33.640  31.631  1.00  0.00     0.006 A 
ENDBRANCH  51  72
BRANCH  63  80
ATOM     80  C   UNL A   1      42.393  30.079  33.642  1.00  0.00     0.057 A 
ATOM     81  C   UNL A   1      41.928  28.767  33.486  1.00  0.00     0.134 A 
ATOM     82  C   UNL A   1      42.579  30.527  34.960  1.00  0.00     0.134 A 
ATOM     83  F   UNL A   1      41.672  28.281  32.261  1.00  0.00    -0.206 F 
ATOM     84  C   UNL A   1      41.684  27.933  34.581  1.00  0.00     0.040 A 
ATOM     85  C   UNL A   1      42.377  29.690  36.063  1.00  0.00     0.040 A 
ATOM     86  F   UNL A   1      42.921  31.796  35.222  1.00  0.00    -0.206 F 
ATOM     87  C   UNL A   1      41.925  28.388  35.874  1.00  0.00     0.006 A 
ENDBRANCH  63  80
ENDBRANCH  37  38
ENDBRANCH  30  32
ENDBRANCH  29  30
ENDBRANCH  28  29
ENDBRANCH   1  28
TORSDOF 14
ENDMDL
MODEL 3
REMARK VINA RESULT:     -12.2      3.135      8.245
REMARK SMILES CC(C)n1c2c(c3ccccc31)[C@@H](c1ccccc1)N(CC(=O)OCCOC(=O)c1ccc(-c3c4nc(c(-c5c(F)cccc5F)c5ccc([nH]5)c(-c5c(F)cccc5F)c5nc(c(-c6c(F)cccc6F)c6ccc3[nH]6)C=C5)C=C4)cc1)C2=O
REMARK SMILES IDX 25 1 24 2 22 3 23 4 21 5 20 6 4 7 5 8 12 9 6 10 84 11 7 12
REMARK SMILES IDX 11 13 13 14 85 15 8 16 10 17 9 18 2 19 1 20 3 21 14 22 15 23
REMARK SMILES IDX 19 24 16 25 18 26 17 27 26 28 27 29 28 30 29 31 30 32 31 33
REMARK SMILES IDX 83 34 32 35 82 36 33 37 34 38 35 39 76 40 36 41 81 42 75 43
REMARK SMILES IDX 77 44 37 45 80 46 74 47 73 48 38 50 64 51 47 52 63 53 48 54
REMARK SMILES IDX 51 55 62 56 78 57 49 58 50 59 61 61 79 62 52 63 39 64 40 65
REMARK SMILES IDX 45 66 41 67 42 68 44 69 46 70 43 71 65 72 66 73 71 74 67 75
REMARK SMILES IDX 68 76 70 77 72 78 69 79 53 80 54 81 59 82 55 83 56 84 58 85
REMARK SMILES IDX 60 86 57 87
REMARK H PARENT 77 49 51 60
REMARK Flexibility Score: inf
ROOT
ATOM      1  C   UNL A   1      37.360  21.369  25.193  1.00  0.00     0.274 C 
ENDROOT
BRANCH   1   2
ATOM      2  O   UNL A   1      37.035  22.272  24.100  1.00  0.00    -0.461 OA
BRANCH   2   3
ATOM      3  C   UNL A   1      35.720  22.351  23.744  1.00  0.00     0.325 C 
ATOM      4  O   UNL A   1      34.894  21.472  23.967  1.00  0.00    -0.250 OA
BRANCH   3   5
ATOM      5  C   UNL A   1      35.311  23.702  23.124  1.00  0.00     0.243 C 
BRANCH   5   6
ATOM      6  N   UNL A   1      34.345  24.550  23.790  1.00  0.00    -0.315 N 
ATOM      7  N   UNL A   1      32.250  27.453  23.710  1.00  0.00    -0.334 N 
ATOM      8  C   UNL A   1      33.050  26.355  23.801  1.00  0.00     0.114 A 
ATOM      9  C   UNL A   1      32.542  28.242  24.838  1.00  0.00     0.049 A 
ATOM     10  C   UNL A   1      33.627  26.279  25.040  1.00  0.00     0.018 A 
ATOM     11  C   UNL A   1      33.520  25.312  22.977  1.00  0.00     0.272 C 
ATOM     12  C   UNL A   1      33.400  27.498  25.685  1.00  0.00     0.006 A 
ATOM     13  C   UNL A   1      32.170  29.545  25.214  1.00  0.00     0.027 A 
ATOM     14  C   UNL A   1      34.405  25.018  25.214  1.00  0.00     0.150 C 
ATOM     15  O   UNL A   1      33.382  25.169  21.757  1.00  0.00    -0.267 OA
ATOM     16  C   UNL A   1      33.863  28.051  26.894  1.00  0.00     0.011 A 
ATOM     17  C   UNL A   1      32.646  30.075  26.420  1.00  0.00     0.002 A 
ATOM     18  C   UNL A   1      33.481  29.342  27.251  1.00  0.00     0.001 A 
BRANCH   7  19
ATOM     19  C   UNL A   1      31.357  27.739  22.573  1.00  0.00     0.082 C 
ATOM     20  C   UNL A   1      29.856  27.527  22.875  1.00  0.00     0.031 C 
ATOM     21  C   UNL A   1      31.469  29.156  22.000  1.00  0.00     0.031 C 
ENDBRANCH   7  19
BRANCH  14  22
ATOM     22  C   UNL A   1      33.674  24.149  26.264  1.00  0.00    -0.021 A 
ATOM     23  C   UNL A   1      32.270  24.185  26.377  1.00  0.00     0.006 A 
ATOM     24  C   UNL A   1      34.302  23.205  27.102  1.00  0.00     0.006 A 
ATOM     25  C   UNL A   1      31.535  23.337  27.218  1.00  0.00     0.000 A 
ATOM     26  C   UNL A   1      33.577  22.346  27.947  1.00  0.00     0.000 A 
ATOM     27  C   UNL A   1      32.191  22.407  28.003  1.00  0.00     0.000 A 
ENDBRANCH  14  22
ENDBRANCH   5   6
ENDBRANCH   3   5
ENDBRANCH   2   3
ENDBRANCH   1   2
BRANCH   1  28
ATOM     28  C   UNL A   1      38.869  21.349  25.484  1.00  0.00     0.275 C 
BRANCH  28  29
ATOM     29  O   UNL A   1      39.158  22.322  26.502  1.00  0.00    -0.458 OA
BRANCH  29  30
ATOM     30  C   UNL A   1      40.458  22.397  26.862  1.00  0.00     0.338 C 
ATOM     31  O   UNL A   1      41.363  21.642  26.548  1.00  0.00    -0.246 OA
BRANCH  30  32
ATOM     32  C   UNL A   1      40.661  23.800  27.245  1.00  0.00     0.060 A 
ATOM     33  C   UNL A   1      41.748  24.291  27.948  1.00  0.00     0.016 A 
ATOM     34  C   UNL A   1      39.554  24.607  27.017  1.00  0.00     0.016 A 
ATOM     35  C   UNL A   1      41.656  25.577  28.488  1.00  0.00     0.010 A 
ATOM     36  C   UNL A   1      39.472  25.894  27.520  1.00  0.00     0.010 A 
ATOM     37  C   UNL A   1      40.489  26.353  28.325  1.00  0.00    -0.014 A 
BRANCH  37  38
ATOM     38  C   UNL A   1      40.460  27.738  28.768  1.00  0.00     0.031 A 
ATOM     39  C   UNL A   1      41.543  28.518  28.140  1.00  0.00     0.074 A 
ATOM     40  C   UNL A   1      39.571  28.395  29.541  1.00  0.00     0.049 A 
ATOM     41  N   UNL A   1      42.695  28.745  28.664  1.00  0.00    -0.248 NA
ATOM     42  C   UNL A   1      41.416  28.923  26.736  1.00  0.00     0.031 C 
ATOM     43  C   UNL A   1      38.243  28.010  30.015  1.00  0.00     0.029 A 
ATOM     44  N   UNL A   1      39.738  29.644  30.076  1.00  0.00    -0.354 N 
ATOM     45  C   UNL A   1      43.393  29.494  27.735  1.00  0.00     0.074 A 
ATOM     46  C   UNL A   1      42.630  29.432  26.514  1.00  0.00     0.031 C 
ATOM     47  C   UNL A   1      37.667  29.067  30.645  1.00  0.00     0.029 A 
ATOM     48  C   UNL A   1      38.642  30.143  30.764  1.00  0.00     0.049 A 
ATOM     49  H   UNL A   1      40.576  30.152  29.978  1.00  0.00     0.167 HD
ATOM     50  C   UNL A   1      44.430  30.275  28.137  1.00  0.00     0.037 A 
ATOM     51  C   UNL A   1      38.568  31.345  31.394  1.00  0.00     0.037 A 
ATOM     52  C   UNL A   1      44.873  29.910  29.466  1.00  0.00     0.049 A 
ATOM     53  C   UNL A   1      39.955  31.781  31.697  1.00  0.00     0.074 A 
ATOM     54  C   UNL A   1      45.320  28.740  30.054  1.00  0.00     0.029 A 
ATOM     55  N   UNL A   1      44.506  30.721  30.514  1.00  0.00    -0.354 N 
ATOM     56  N   UNL A   1      40.713  31.227  32.598  1.00  0.00    -0.248 NA
ATOM     57  C   UNL A   1      40.650  32.595  30.714  1.00  0.00     0.031 C 
ATOM     58  C   UNL A   1      44.728  28.725  31.355  1.00  0.00     0.029 A 
ATOM     59  C   UNL A   1      44.004  29.909  31.501  1.00  0.00     0.049 A 
ATOM     60  H   UNL A   1      44.587  31.702  30.551  1.00  0.00     0.167 HD
ATOM     61  C   UNL A   1      41.982  31.237  32.041  1.00  0.00     0.074 A 
ATOM     62  C   UNL A   1      41.902  32.189  30.936  1.00  0.00     0.031 C 
ATOM     63  C   UNL A   1      42.897  30.274  32.355  1.00  0.00     0.037 A 
BRANCH  50  64
ATOM     64  C   UNL A   1      44.778  31.594  27.502  1.00  0.00     0.057 A 
ATOM     65  C   UNL A   1      44.144  32.816  27.804  1.00  0.00     0.134 A 
ATOM     66  C   UNL A   1      45.986  31.704  26.793  1.00  0.00     0.134 A 
ATOM     67  F   UNL A   1      43.021  32.890  28.528  1.00  0.00    -0.206 F 
ATOM     68  C   UNL A   1      44.691  34.055  27.463  1.00  0.00     0.040 A 
ATOM     69  C   UNL A   1      46.568  32.939  26.493  1.00  0.00     0.040 A 
ATOM     70  F   UNL A   1      46.684  30.611  26.448  1.00  0.00    -0.206 F 
ATOM     71  C   UNL A   1      45.926  34.121  26.840  1.00  0.00     0.006 A 
ENDBRANCH  50  64
BRANCH  51  72
ATOM     72  C   UNL A   1      37.423  32.255  31.621  1.00  0.00     0.057 A 
ATOM     73  C   UNL A   1      36.633  32.138  32.774  1.00  0.00     0.134 A 
ATOM     74  C   UNL A   1      36.887  33.036  30.582  1.00  0.00     0.134 A 
ATOM     75  F   UNL A   1      37.021  31.361  33.796  1.00  0.00    -0.206 F 
ATOM     76  C   UNL A   1      35.368  32.729  32.877  1.00  0.00     0.040 A 
ATOM     77  C   UNL A   1      35.621  33.631  30.671  1.00  0.00     0.040 A 
ATOM     78  F   UNL A   1      37.547  33.179  29.424  1.00  0.00    -0.206 F 
ATOM     79  C   UNL A   1      34.851  33.465  31.817  1.00  0.00     0.006 A 
ENDBRANCH  51  72
BRANCH  63  80
ATOM     80  C   UNL A   1      42.598  29.382  33.530  1.00  0.00     0.057 A 
ATOM     81  C   UNL A   1      41.898  28.189  33.311  1.00  0.00     0.134 A 
ATOM     82  C   UNL A   1      42.892  29.701  34.866  1.00  0.00     0.134 A 
ATOM     83  F   UNL A   1      41.531  27.839  32.067  1.00  0.00    -0.206 F 
ATOM     84  C   UNL A   1      41.531  27.342  34.360  1.00  0.00     0.040 A 
ATOM     85  C   UNL A   1      42.565  28.843  35.922  1.00  0.00     0.040 A 
ATOM     86  F   UNL A   1      43.465  30.868  35.192  1.00  0.00    -0.206 F 
ATOM     87  C   UNL A   1      41.879  27.659  35.669  1.00  0.00     0.006 A 
ENDBRANCH  63  80
ENDBRANCH  37  38
ENDBRANCH  30  32
ENDBRANCH  29  30
ENDBRANCH  28  29
ENDBRANCH   1  28
TORSDOF 14
ENDMDL
