MODEL 1
REMARK VINA RESULT:     -10.2      0.000      0.000
REMARK SMILES CCOC(=O)NC(=O)C[N@H+]1CC[C@@H](C(=O)OCCOC(=O)c2ccc(-c3c4nc(c(-c5c(F)cccc5F)c5ccc([nH]5)c(-c5c(F)cccc5F)c5nc(c(-c6c(F)cccc6F)c6ccc3[nH]6)C=C5)C=C4)cc2)[C@@H]1C
REMARK SMILES IDX 17 1 16 2 14 3 15 4 13 5 10 6 11 7 76 8 12 10 77 11 9 12
REMARK SMILES IDX 7 13 4 14 5 15 6 16 8 18 3 19 2 20 1 21 18 22 19 23 20 24
REMARK SMILES IDX 21 25 22 26 23 27 75 28 24 29 74 30 25 31 26 32 27 33 68 34
REMARK SMILES IDX 28 35 73 36 67 37 69 38 29 39 72 40 66 41 65 42 30 44 56 45
REMARK SMILES IDX 39 46 55 47 40 48 43 49 54 50 70 51 41 52 42 53 53 55 71 56
REMARK SMILES IDX 44 57 31 58 32 59 37 60 33 61 34 62 36 63 38 64 35 65 57 66
REMARK SMILES IDX 58 67 63 68 59 69 60 70 62 71 64 72 61 73 45 74 46 75 51 76
REMARK SMILES IDX 47 77 48 78 50 79 52 80 49 81
REMARK H PARENT 10 9 6 17 69 43 43 54
REMARK Flexibility Score: inf
ROOT
ATOM      1  C   UNL A   1      35.213  20.225  25.001  1.00  0.00     0.274 C 
ENDROOT
BRANCH   1   2
ATOM      2  O   UNL A   1      34.172  21.078  24.490  1.00  0.00    -0.462 OA
BRANCH   2   3
ATOM      3  C   UNL A   1      32.895  20.760  24.808  1.00  0.00     0.315 C 
ATOM      4  O   UNL A   1      32.305  19.758  24.415  1.00  0.00    -0.252 OA
BRANCH   3   5
ATOM      5  C   UNL A   1      32.245  21.747  25.756  1.00  0.00     0.162 C 
ATOM      6  N   UNL A   1      32.567  24.055  26.415  1.00  0.00    -0.324 N 
ATOM      7  C   UNL A   1      31.166  23.828  26.013  1.00  0.00     0.264 C 
ATOM      8  C   UNL A   1      33.174  22.708  26.510  1.00  0.00     0.195 C 
ATOM      9  H   UNL A   1      32.683  24.510  27.320  1.00  0.00     0.348 HD
ATOM     10  C   UNL A   1      31.237  22.645  25.062  1.00  0.00     0.083 C 
ATOM     11  C   UNL A   1      33.236  22.345  28.000  1.00  0.00     0.076 C 
BRANCH   6  12
ATOM     12  C   UNL A   1      33.203  24.998  25.467  1.00  0.00     0.364 C 
BRANCH  12  13
ATOM     13  C   UNL A   1      34.462  24.511  24.759  1.00  0.00     0.284 C 
ATOM     14  C   UNL A   1      33.488  24.015  22.466  1.00  0.00     0.414 C 
ATOM     15  O   UNL A   1      33.653  23.324  21.470  1.00  0.00    -0.224 OA
ATOM     16  N   UNL A   1      34.422  24.020  23.478  1.00  0.00    -0.256 N 
ATOM     17  H   UNL A   1      35.257  23.565  23.223  1.00  0.00     0.176 HD
ATOM     18  O   UNL A   1      35.548  24.503  25.352  1.00  0.00    -0.268 OA
BRANCH  14  19
ATOM     19  O   UNL A   1      32.441  24.844  22.668  1.00  0.00    -0.450 OA
BRANCH  19  20
ATOM     20  C   UNL A   1      32.364  25.997  21.817  1.00  0.00     0.231 C 
ATOM     21  C   UNL A   1      33.135  27.182  22.381  1.00  0.00     0.049 C 
ENDBRANCH  19  20
ENDBRANCH  14  19
ENDBRANCH  12  13
ENDBRANCH   6  12
ENDBRANCH   3   5
ENDBRANCH   2   3
ENDBRANCH   1   2
BRANCH   1  22
ATOM     22  C   UNL A   1      36.591  20.773  24.628  1.00  0.00     0.275 C 
BRANCH  22  23
ATOM     23  O   UNL A   1      37.198  21.452  25.745  1.00  0.00    -0.458 OA
BRANCH  23  24
ATOM     24  C   UNL A   1      38.518  21.208  25.910  1.00  0.00     0.338 C 
ATOM     25  O   UNL A   1      39.142  20.219  25.563  1.00  0.00    -0.246 OA
BRANCH  24  26
ATOM     26  C   UNL A   1      39.177  22.386  26.493  1.00  0.00     0.060 A 
ATOM     27  C   UNL A   1      38.711  23.647  26.125  1.00  0.00     0.016 A 
ATOM     28  C   UNL A   1      40.321  22.261  27.278  1.00  0.00     0.016 A 
ATOM     29  C   UNL A   1      39.399  24.795  26.501  1.00  0.00     0.010 A 
ATOM     30  C   UNL A   1      40.994  23.418  27.692  1.00  0.00     0.010 A 
ATOM     31  C   UNL A   1      40.549  24.692  27.291  1.00  0.00    -0.014 A 
BRANCH  31  32
ATOM     32  C   UNL A   1      41.295  25.921  27.664  1.00  0.00     0.031 A 
ATOM     33  C   UNL A   1      40.622  26.994  28.473  1.00  0.00     0.074 A 
ATOM     34  C   UNL A   1      42.581  26.064  27.289  1.00  0.00     0.049 A 
ATOM     35  N   UNL A   1      41.060  28.186  28.791  1.00  0.00    -0.248 NA
ATOM     36  C   UNL A   1      39.278  26.689  28.990  1.00  0.00     0.031 C 
ATOM     37  C   UNL A   1      43.360  25.075  26.542  1.00  0.00     0.029 A 
ATOM     38  N   UNL A   1      43.457  27.102  27.481  1.00  0.00    -0.354 N 
ATOM     39  C   UNL A   1      40.034  28.787  29.510  1.00  0.00     0.074 A 
ATOM     40  C   UNL A   1      38.950  27.831  29.581  1.00  0.00     0.031 C 
ATOM     41  C   UNL A   1      44.597  25.555  26.336  1.00  0.00     0.029 A 
ATOM     42  C   UNL A   1      44.678  26.906  26.881  1.00  0.00     0.049 A 
ATOM     43  H   UNL A   1      43.234  27.910  27.997  1.00  0.00     0.167 HD
ATOM     44  C   UNL A   1      40.003  30.025  30.057  1.00  0.00     0.037 A 
ATOM     45  C   UNL A   1      45.729  27.737  26.747  1.00  0.00     0.037 A 
ATOM     46  C   UNL A   1      41.100  30.957  30.019  1.00  0.00     0.049 A 
ATOM     47  C   UNL A   1      45.650  29.120  27.332  1.00  0.00     0.074 A 
ATOM     48  C   UNL A   1      41.174  32.222  30.576  1.00  0.00     0.029 A 
ATOM     49  N   UNL A   1      42.315  30.722  29.395  1.00  0.00    -0.354 N 
ATOM     50  N   UNL A   1      44.675  29.677  28.007  1.00  0.00    -0.248 NA
ATOM     51  C   UNL A   1      46.817  29.991  27.131  1.00  0.00     0.031 C 
ATOM     52  C   UNL A   1      42.419  32.770  30.253  1.00  0.00     0.029 A 
ATOM     53  C   UNL A   1      43.136  31.829  29.534  1.00  0.00     0.049 A 
ATOM     54  H   UNL A   1      42.558  29.894  28.922  1.00  0.00     0.167 HD
ATOM     55  C   UNL A   1      45.117  30.953  28.330  1.00  0.00     0.074 A 
ATOM     56  C   UNL A   1      46.456  31.082  27.793  1.00  0.00     0.031 C 
ATOM     57  C   UNL A   1      44.472  31.934  29.006  1.00  0.00     0.037 A 
BRANCH  44  58
ATOM     58  C   UNL A   1      38.734  30.468  30.722  1.00  0.00     0.057 A 
ATOM     59  C   UNL A   1      37.718  31.131  30.022  1.00  0.00     0.134 A 
ATOM     60  C   UNL A   1      38.497  30.158  32.067  1.00  0.00     0.134 A 
ATOM     61  F   UNL A   1      37.888  31.465  28.734  1.00  0.00    -0.206 F 
ATOM     62  C   UNL A   1      36.514  31.476  30.640  1.00  0.00     0.040 A 
ATOM     63  C   UNL A   1      37.290  30.479  32.689  1.00  0.00     0.040 A 
ATOM     64  F   UNL A   1      39.427  29.519  32.794  1.00  0.00    -0.206 F 
ATOM     65  C   UNL A   1      36.295  31.142  31.975  1.00  0.00     0.006 A 
ENDBRANCH  44  58
BRANCH  45  66
ATOM     66  C   UNL A   1      46.929  27.307  25.985  1.00  0.00     0.057 A 
ATOM     67  C   UNL A   1      47.025  27.508  24.604  1.00  0.00     0.134 A 
ATOM     68  C   UNL A   1      47.994  26.653  26.617  1.00  0.00     0.134 A 
ATOM     69  F   UNL A   1      46.028  28.107  23.937  1.00  0.00    -0.206 F 
ATOM     70  C   UNL A   1      48.125  27.053  23.874  1.00  0.00     0.040 A 
ATOM     71  C   UNL A   1      49.113  26.219  25.905  1.00  0.00     0.040 A 
ATOM     72  F   UNL A   1      47.964  26.430  27.939  1.00  0.00    -0.206 F 
ATOM     73  C   UNL A   1      49.175  26.410  24.526  1.00  0.00     0.006 A 
ENDBRANCH  45  66
BRANCH  57  74
ATOM     74  C   UNL A   1      45.220  33.212  29.240  1.00  0.00     0.057 A 
ATOM     75  C   UNL A   1      46.050  33.390  30.353  1.00  0.00     0.134 A 
ATOM     76  C   UNL A   1      45.135  34.264  28.319  1.00  0.00     0.134 A 
ATOM     77  F   UNL A   1      46.162  32.425  31.278  1.00  0.00    -0.206 F 
ATOM     78  C   UNL A   1      46.751  34.579  30.556  1.00  0.00     0.040 A 
ATOM     79  C   UNL A   1      45.852  35.447  28.496  1.00  0.00     0.040 A 
ATOM     80  F   UNL A   1      44.364  34.153  27.227  1.00  0.00    -0.206 F 
ATOM     81  C   UNL A   1      46.659  35.610  29.621  1.00  0.00     0.006 A 
ENDBRANCH  57  74
ENDBRANCH  31  32
ENDBRANCH  24  26
ENDBRANCH  23  24
ENDBRANCH  22  23
ENDBRANCH   1  22
TORSDOF 15
ENDMDL
MODEL 2
REMARK VINA RESULT:     -10.2      2.225      3.602
REMARK SMILES CCOC(=O)NC(=O)C[N@H+]1CC[C@@H](C(=O)OCCOC(=O)c2ccc(-c3c4nc(c(-c5c(F)cccc5F)c5ccc([nH]5)c(-c5c(F)cccc5F)c5nc(c(-c6c(F)cccc6F)c6ccc3[nH]6)C=C5)C=C4)cc2)[C@@H]1C
REMARK SMILES IDX 17 1 16 2 14 3 15 4 13 5 10 6 11 7 76 8 12 10 77 11 9 12
REMARK SMILES IDX 7 13 4 14 5 15 6 16 8 18 3 19 2 20 1 21 18 22 19 23 20 24
REMARK SMILES IDX 21 25 22 26 23 27 75 28 24 29 74 30 25 31 26 32 27 33 68 34
REMARK SMILES IDX 28 35 73 36 67 37 69 38 29 39 72 40 66 41 65 42 30 44 56 45
REMARK SMILES IDX 39 46 55 47 40 48 43 49 54 50 70 51 41 52 42 53 53 55 71 56
REMARK SMILES IDX 44 57 31 58 32 59 37 60 33 61 34 62 36 63 38 64 35 65 57 66
REMARK SMILES IDX 58 67 63 68 59 69 60 70 62 71 64 72 61 73 45 74 46 75 51 76
REMARK SMILES IDX 47 77 48 78 50 79 52 80 49 81
REMARK H PARENT 10 9 6 17 69 43 43 54
REMARK Flexibility Score: inf
ROOT
ATOM      1  C   UNL A   1      38.749  21.791  25.674  1.00  0.00     0.274 C 
ENDROOT
BRANCH   1   2
ATOM      2  O   UNL A   1      37.350  22.125  25.612  1.00  0.00    -0.462 OA
BRANCH   2   3
ATOM      3  C   UNL A   1      37.009  23.417  25.833  1.00  0.00     0.315 C 
ATOM      4  O   UNL A   1      37.644  24.199  26.533  1.00  0.00    -0.252 OA
BRANCH   3   5
ATOM      5  C   UNL A   1      35.763  23.849  25.085  1.00  0.00     0.162 C 
ATOM      6  N   UNL A   1      33.434  23.192  24.982  1.00  0.00    -0.324 N 
ATOM      7  C   UNL A   1      33.548  24.644  25.224  1.00  0.00     0.264 C 
ATOM      8  C   UNL A   1      34.801  22.742  24.633  1.00  0.00     0.195 C 
ATOM      9  H   UNL A   1      32.818  22.934  24.212  1.00  0.00     0.348 HD
ATOM     10  C   UNL A   1      34.903  24.807  25.889  1.00  0.00     0.083 C 
ATOM     11  C   UNL A   1      34.844  22.577  23.107  1.00  0.00     0.076 C 
BRANCH   6  12
ATOM     12  C   UNL A   1      32.810  22.546  26.159  1.00  0.00     0.364 C 
BRANCH  12  13
ATOM     13  C   UNL A   1      33.553  21.361  26.763  1.00  0.00     0.284 C 
ATOM     14  C   UNL A   1      32.571  19.489  25.354  1.00  0.00     0.414 C 
ATOM     15  O   UNL A   1      32.329  18.290  25.366  1.00  0.00    -0.224 OA
ATOM     16  N   UNL A   1      33.279  20.071  26.382  1.00  0.00    -0.256 N 
ATOM     17  H   UNL A   1      33.683  19.406  26.986  1.00  0.00     0.176 HD
ATOM     18  O   UNL A   1      34.391  21.538  27.656  1.00  0.00    -0.268 OA
BRANCH  14  19
ATOM     19  O   UNL A   1      32.223  20.339  24.365  1.00  0.00    -0.450 OA
BRANCH  19  20
ATOM     20  C   UNL A   1      32.277  19.820  23.027  1.00  0.00     0.231 C 
ATOM     21  C   UNL A   1      31.887  20.862  21.989  1.00  0.00     0.049 C 
ENDBRANCH  19  20
ENDBRANCH  14  19
ENDBRANCH  12  13
ENDBRANCH   6  12
ENDBRANCH   3   5
ENDBRANCH   2   3
ENDBRANCH   1   2
BRANCH   1  22
ATOM     22  C   UNL A   1      38.962  20.306  25.379  1.00  0.00     0.275 C 
BRANCH  22  23
ATOM     23  O   UNL A   1      39.870  19.714  26.331  1.00  0.00    -0.458 OA
BRANCH  23  24
ATOM     24  C   UNL A   1      41.178  19.806  26.002  1.00  0.00     0.338 C 
ATOM     25  O   UNL A   1      41.822  19.051  25.292  1.00  0.00    -0.246 OA
BRANCH  24  26
ATOM     26  C   UNL A   1      41.745  21.051  26.540  1.00  0.00     0.060 A 
ATOM     27  C   UNL A   1      41.650  21.276  27.912  1.00  0.00     0.016 A 
ATOM     28  C   UNL A   1      42.236  22.046  25.697  1.00  0.00     0.016 A 
ATOM     29  C   UNL A   1      42.007  22.504  28.456  1.00  0.00     0.010 A 
ATOM     30  C   UNL A   1      42.633  23.272  26.248  1.00  0.00     0.010 A 
ATOM     31  C   UNL A   1      42.504  23.516  27.628  1.00  0.00    -0.014 A 
BRANCH  31  32
ATOM     32  C   UNL A   1      42.854  24.835  28.212  1.00  0.00     0.031 A 
ATOM     33  C   UNL A   1      41.780  25.855  28.468  1.00  0.00     0.074 A 
ATOM     34  C   UNL A   1      44.134  25.110  28.528  1.00  0.00     0.049 A 
ATOM     35  N   UNL A   1      41.897  27.100  28.854  1.00  0.00    -0.248 NA
ATOM     36  C   UNL A   1      40.389  25.419  28.261  1.00  0.00     0.031 C 
ATOM     37  C   UNL A   1      45.261  24.188  28.371  1.00  0.00     0.029 A 
ATOM     38  N   UNL A   1      44.704  26.248  29.040  1.00  0.00    -0.354 N 
ATOM     39  C   UNL A   1      40.605  27.607  28.897  1.00  0.00     0.074 A 
ATOM     40  C   UNL A   1      39.717  26.537  28.498  1.00  0.00     0.031 C 
ATOM     41  C   UNL A   1      46.387  24.798  28.775  1.00  0.00     0.029 A 
ATOM     42  C   UNL A   1      46.071  26.170  29.160  1.00  0.00     0.049 A 
ATOM     43  H   UNL A   1      44.186  27.044  29.297  1.00  0.00     0.167 HD
ATOM     44  C   UNL A   1      40.201  28.854  29.238  1.00  0.00     0.037 A 
ATOM     45  C   UNL A   1      46.974  27.110  29.501  1.00  0.00     0.037 A 
ATOM     46  C   UNL A   1      41.085  29.903  29.675  1.00  0.00     0.049 A 
ATOM     47  C   UNL A   1      46.498  28.496  29.837  1.00  0.00     0.074 A 
ATOM     48  C   UNL A   1      40.764  31.189  30.074  1.00  0.00     0.029 A 
ATOM     49  N   UNL A   1      42.463  29.785  29.774  1.00  0.00    -0.354 N 
ATOM     50  N   UNL A   1      45.274  28.963  29.872  1.00  0.00    -0.248 NA
ATOM     51  C   UNL A   1      47.531  29.487  30.174  1.00  0.00     0.031 C 
ATOM     52  C   UNL A   1      41.952  31.863  30.376  1.00  0.00     0.029 A 
ATOM     53  C   UNL A   1      43.007  30.983  30.208  1.00  0.00     0.049 A 
ATOM     54  H   UNL A   1      42.977  28.972  29.567  1.00  0.00     0.167 HD
ATOM     55  C   UNL A   1      45.387  30.293  30.255  1.00  0.00     0.074 A 
ATOM     56  C   UNL A   1      46.797  30.553  30.459  1.00  0.00     0.031 C 
ATOM     57  C   UNL A   1      44.412  31.219  30.420  1.00  0.00     0.037 A 
BRANCH  44  58
ATOM     58  C   UNL A   1      38.740  29.174  29.127  1.00  0.00     0.057 A 
ATOM     59  C   UNL A   1      37.882  29.130  30.232  1.00  0.00     0.134 A 
ATOM     60  C   UNL A   1      38.203  29.603  27.906  1.00  0.00     0.134 A 
ATOM     61  F   UNL A   1      38.332  28.718  31.426  1.00  0.00    -0.206 F 
ATOM     62  C   UNL A   1      36.538  29.497  30.125  1.00  0.00     0.040 A 
ATOM     63  C   UNL A   1      36.868  29.992  27.792  1.00  0.00     0.040 A 
ATOM     64  F   UNL A   1      38.973  29.672  26.809  1.00  0.00    -0.206 F 
ATOM     65  C   UNL A   1      36.031  29.938  28.903  1.00  0.00     0.006 A 
ENDBRANCH  44  58
BRANCH  45  66
ATOM     66  C   UNL A   1      48.424  26.791  29.492  1.00  0.00     0.057 A 
ATOM     67  C   UNL A   1      49.221  27.054  28.373  1.00  0.00     0.134 A 
ATOM     68  C   UNL A   1      49.039  26.181  30.593  1.00  0.00     0.134 A 
ATOM     69  F   UNL A   1      48.686  27.614  27.279  1.00  0.00    -0.206 F 
ATOM     70  C   UNL A   1      50.572  26.702  28.339  1.00  0.00     0.040 A 
ATOM     71  C   UNL A   1      50.395  25.851  30.584  1.00  0.00     0.040 A 
ATOM     72  F   UNL A   1      48.331  25.903  31.697  1.00  0.00    -0.206 F 
ATOM     73  C   UNL A   1      51.163  26.102  29.449  1.00  0.00     0.006 A 
ENDBRANCH  45  66
BRANCH  57  74
ATOM     74  C   UNL A   1      44.832  32.583  30.882  1.00  0.00     0.057 A 
ATOM     75  C   UNL A   1      45.131  33.609  29.977  1.00  0.00     0.134 A 
ATOM     76  C   UNL A   1      44.904  32.880  32.248  1.00  0.00     0.134 A 
ATOM     77  F   UNL A   1      45.093  33.383  28.655  1.00  0.00    -0.206 F 
ATOM     78  C   UNL A   1      45.509  34.878  30.416  1.00  0.00     0.040 A 
ATOM     79  C   UNL A   1      45.256  34.152  32.699  1.00  0.00     0.040 A 
ATOM     80  F   UNL A   1      44.623  31.942  33.165  1.00  0.00    -0.206 F 
ATOM     81  C   UNL A   1      45.566  35.155  31.782  1.00  0.00     0.006 A 
ENDBRANCH  57  74
ENDBRANCH  31  32
ENDBRANCH  24  26
ENDBRANCH  23  24
ENDBRANCH  22  23
ENDBRANCH   1  22
TORSDOF 15
ENDMDL
MODEL 3
REMARK VINA RESULT:     -10.2      1.907      2.947
REMARK SMILES CCOC(=O)NC(=O)C[N@H+]1CC[C@@H](C(=O)OCCOC(=O)c2ccc(-c3c4nc(c(-c5c(F)cccc5F)c5ccc([nH]5)c(-c5c(F)cccc5F)c5nc(c(-c6c(F)cccc6F)c6ccc3[nH]6)C=C5)C=C4)cc2)[C@@H]1C
REMARK SMILES IDX 17 1 16 2 14 3 15 4 13 5 10 6 11 7 76 8 12 10 77 11 9 12
REMARK SMILES IDX 7 13 4 14 5 15 6 16 8 18 3 19 2 20 1 21 18 22 19 23 20 24
REMARK SMILES IDX 21 25 22 26 23 27 75 28 24 29 74 30 25 31 26 32 27 33 68 34
REMARK SMILES IDX 28 35 73 36 67 37 69 38 29 39 72 40 66 41 65 42 30 44 56 45
REMARK SMILES IDX 39 46 55 47 40 48 43 49 54 50 70 51 41 52 42 53 53 55 71 56
REMARK SMILES IDX 44 57 31 58 32 59 37 60 33 61 34 62 36 63 38 64 35 65 57 66
REMARK SMILES IDX 58 67 63 68 59 69 60 70 62 71 64 72 61 73 45 74 46 75 51 76
REMARK SMILES IDX 47 77 48 78 50 79 52 80 49 81
REMARK H PARENT 10 9 6 17 69 43 43 54
REMARK Flexibility Score: inf
ROOT
ATOM      1  C   UNL A   1      38.137  20.017  24.965  1.00  0.00     0.274 C 
ENDROOT
BRANCH   1   2
ATOM      2  O   UNL A   1      36.899  19.294  25.096  1.00  0.00    -0.462 OA
BRANCH   2   3
ATOM      3  C   UNL A   1      35.752  19.979  24.876  1.00  0.00     0.315 C 
ATOM      4  O   UNL A   1      34.673  19.466  24.597  1.00  0.00    -0.252 OA
BRANCH   3   5
ATOM      5  C   UNL A   1      35.899  21.477  25.053  1.00  0.00     0.162 C 
ATOM      6  N   UNL A   1      34.652  23.468  24.464  1.00  0.00    -0.324 N 
ATOM      7  C   UNL A   1      34.970  23.470  25.905  1.00  0.00     0.264 C 
ATOM      8  C   UNL A   1      35.453  22.366  23.884  1.00  0.00     0.195 C 
ATOM      9  H   UNL A   1      34.902  24.324  23.970  1.00  0.00     0.348 HD
ATOM     10  C   UNL A   1      35.132  22.000  26.253  1.00  0.00     0.083 C 
ATOM     11  C   UNL A   1      36.668  23.006  23.197  1.00  0.00     0.076 C 
BRANCH   6  12
ATOM     12  C   UNL A   1      33.185  23.378  24.285  1.00  0.00     0.364 C 
BRANCH  12  13
ATOM     13  C   UNL A   1      32.689  22.882  22.932  1.00  0.00     0.284 C 
ATOM     14  C   UNL A   1      32.907  25.031  21.594  1.00  0.00     0.414 C 
ATOM     15  O   UNL A   1      32.454  25.619  20.622  1.00  0.00    -0.224 OA
ATOM     16  N   UNL A   1      32.527  23.736  21.869  1.00  0.00    -0.256 N 
ATOM     17  H   UNL A   1      32.020  23.327  21.131  1.00  0.00     0.176 HD
ATOM     18  O   UNL A   1      32.371  21.696  22.779  1.00  0.00    -0.268 OA
BRANCH  14  19
ATOM     19  O   UNL A   1      33.817  25.540  22.452  1.00  0.00    -0.450 OA
BRANCH  19  20
ATOM     20  C   UNL A   1      33.444  26.743  23.141  1.00  0.00     0.231 C 
ATOM     21  C   UNL A   1      33.974  27.991  22.451  1.00  0.00     0.049 C 
ENDBRANCH  19  20
ENDBRANCH  14  19
ENDBRANCH  12  13
ENDBRANCH   6  12
ENDBRANCH   3   5
ENDBRANCH   2   3
ENDBRANCH   1   2
BRANCH   1  22
ATOM     22  C   UNL A   1      39.195  19.452  25.913  1.00  0.00     0.275 C 
BRANCH  22  23
ATOM     23  O   UNL A   1      40.432  19.199  25.216  1.00  0.00    -0.458 OA
BRANCH  23  24
ATOM     24  C   UNL A   1      41.537  19.210  25.997  1.00  0.00     0.338 C 
ATOM     25  O   UNL A   1      42.309  18.290  26.209  1.00  0.00    -0.246 OA
BRANCH  24  26
ATOM     26  C   UNL A   1      41.777  20.568  26.505  1.00  0.00     0.060 A 
ATOM     27  C   UNL A   1      42.044  21.578  25.581  1.00  0.00     0.016 A 
ATOM     28  C   UNL A   1      41.877  20.823  27.871  1.00  0.00     0.016 A 
ATOM     29  C   UNL A   1      42.450  22.837  26.004  1.00  0.00     0.010 A 
ATOM     30  C   UNL A   1      42.248  22.103  28.301  1.00  0.00     0.010 A 
ATOM     31  C   UNL A   1      42.556  23.114  27.371  1.00  0.00    -0.014 A 
BRANCH  31  32
ATOM     32  C   UNL A   1      43.019  24.453  27.814  1.00  0.00     0.031 A 
ATOM     33  C   UNL A   1      42.019  25.502  28.217  1.00  0.00     0.074 A 
ATOM     34  C   UNL A   1      44.338  24.722  27.871  1.00  0.00     0.049 A 
ATOM     35  N   UNL A   1      42.216  26.761  28.512  1.00  0.00    -0.248 NA
ATOM     36  C   UNL A   1      40.611  25.078  28.294  1.00  0.00     0.031 C 
ATOM     37  C   UNL A   1      45.409  23.776  27.552  1.00  0.00     0.029 A 
ATOM     38  N   UNL A   1      45.002  25.873  28.212  1.00  0.00    -0.354 N 
ATOM     39  C   UNL A   1      40.959  27.291  28.771  1.00  0.00     0.074 A 
ATOM     40  C   UNL A   1      40.003  26.218  28.598  1.00  0.00     0.031 C 
ATOM     41  C   UNL A   1      46.595  24.385  27.708  1.00  0.00     0.029 A 
ATOM     42  C   UNL A   1      46.367  25.778  28.077  1.00  0.00     0.049 A 
ATOM     43  H   UNL A   1      44.546  26.689  28.521  1.00  0.00     0.167 HD
ATOM     44  C   UNL A   1      40.634  28.558  29.120  1.00  0.00     0.037 A 
ATOM     45  C   UNL A   1      47.324  26.718  28.197  1.00  0.00     0.037 A 
ATOM     46  C   UNL A   1      41.593  29.612  29.332  1.00  0.00     0.049 A 
ATOM     47  C   UNL A   1      46.929  28.126  28.548  1.00  0.00     0.074 A 
ATOM     48  C   UNL A   1      41.361  30.920  29.721  1.00  0.00     0.029 A 
ATOM     49  N   UNL A   1      42.963  29.476  29.178  1.00  0.00    -0.354 N 
ATOM     50  N   UNL A   1      45.737  28.615  28.788  1.00  0.00    -0.248 NA
ATOM     51  C   UNL A   1      48.014  29.115  28.637  1.00  0.00     0.031 C 
ATOM     52  C   UNL A   1      42.589  31.588  29.763  1.00  0.00     0.029 A 
ATOM     53  C   UNL A   1      43.588  30.684  29.443  1.00  0.00     0.049 A 
ATOM     54  H   UNL A   1      43.424  28.647  28.918  1.00  0.00     0.167 HD
ATOM     55  C   UNL A   1      45.930  29.959  29.078  1.00  0.00     0.074 A 
ATOM     56  C   UNL A   1      47.354  30.205  29.002  1.00  0.00     0.031 C 
ATOM     57  C   UNL A   1      45.009  30.907  29.377  1.00  0.00     0.037 A 
BRANCH  44  58
ATOM     58  C   UNL A   1      39.181  28.896  29.268  1.00  0.00     0.057 A 
ATOM     59  C   UNL A   1      38.514  28.794  30.495  1.00  0.00     0.134 A 
ATOM     60  C   UNL A   1      38.460  29.402  28.179  1.00  0.00     0.134 A 
ATOM     61  F   UNL A   1      39.146  28.307  31.573  1.00  0.00    -0.206 F 
ATOM     62  C   UNL A   1      37.178  29.177  30.631  1.00  0.00     0.040 A 
ATOM     63  C   UNL A   1      37.131  29.808  28.308  1.00  0.00     0.040 A 
ATOM     64  F   UNL A   1      39.042  29.530  26.977  1.00  0.00    -0.206 F 
ATOM     65  C   UNL A   1      36.486  29.695  29.537  1.00  0.00     0.006 A 
ENDBRANCH  44  58
BRANCH  45  66
ATOM     66  C   UNL A   1      48.745  26.376  27.933  1.00  0.00     0.057 A 
ATOM     67  C   UNL A   1      49.607  26.000  28.967  1.00  0.00     0.134 A 
ATOM     68  C   UNL A   1      49.281  26.452  26.641  1.00  0.00     0.134 A 
ATOM     69  F   UNL A   1      49.160  25.932  30.229  1.00  0.00    -0.206 F 
ATOM     70  C   UNL A   1      50.958  25.734  28.732  1.00  0.00     0.040 A 
ATOM     71  C   UNL A   1      50.621  26.161  26.386  1.00  0.00     0.040 A 
ATOM     72  F   UNL A   1      48.506  26.806  25.605  1.00  0.00    -0.206 F 
ATOM     73  C   UNL A   1      51.467  25.810  27.437  1.00  0.00     0.006 A 
ENDBRANCH  45  66
BRANCH  57  74
ATOM     74  C   UNL A   1      45.518  32.284  29.684  1.00  0.00     0.057 A 
ATOM     75  C   UNL A   1      45.885  32.664  30.981  1.00  0.00     0.134 A 
ATOM     76  C   UNL A   1      45.675  33.228  28.663  1.00  0.00     0.134 A 
ATOM     77  F   UNL A   1      45.745  31.808  32.005  1.00  0.00    -0.206 F 
ATOM     78  C   UNL A   1      46.369  33.943  31.255  1.00  0.00     0.040 A 
ATOM     79  C   UNL A   1      46.182  34.502  28.920  1.00  0.00     0.040 A 
ATOM     80  F   UNL A   1      45.349  32.924  27.397  1.00  0.00    -0.206 F 
ATOM     81  C   UNL A   1      46.526  34.865  30.221  1.00  0.00     0.006 A 
ENDBRANCH  57  74
ENDBRANCH  31  32
ENDBRANCH  24  26
ENDBRANCH  23  24
ENDBRANCH  22  23
ENDBRANCH   1  22
TORSDOF 15
ENDMDL
