MODEL 1
REMARK VINA RESULT:     -13.1      0.000      0.000
REMARK SMILES O=C(N/N=C/c1ccccc1O)C(=O)Nc1cccc(C(=O)OCCOC(=O)c2ccc(-c3c4nc(c(-c5c(F)cccc5F)c5ccc([nH]5)c(-c5c(F)cccc5F)c5nc(c(-c6c(F)cccc6F)c6ccc3[nH]6)C=C5)C=C4)cc2)c1
REMARK SMILES IDX 23 1 21 2 22 3 20 4 16 5 17 6 83 7 18 8 19 9 15 10 13 11
REMARK SMILES IDX 14 12 2 14 1 15 3 16 4 18 5 19 6 20 7 21 11 22 8 23 10 24
REMARK SMILES IDX 9 25 12 26 24 28 25 29 26 30 27 31 28 32 29 33 30 34 82 35
REMARK SMILES IDX 31 36 81 37 32 38 33 39 34 40 75 41 35 42 80 43 74 44 76 45
REMARK SMILES IDX 36 46 79 47 73 48 72 49 37 51 63 52 46 53 62 54 47 55 50 56
REMARK SMILES IDX 61 57 77 58 48 59 49 60 60 62 78 63 51 64 38 65 39 66 44 67
REMARK SMILES IDX 40 68 41 69 43 70 45 71 42 72 64 73 65 74 70 75 66 76 67 77
REMARK SMILES IDX 69 78 71 79 68 80 52 81 53 82 58 83 54 84 55 85 57 86 59 87
REMARK SMILES IDX 56 88
REMARK H PARENT 15 13 3 17 12 27 76 50 50 61
REMARK Flexibility Score: inf
ROOT
ATOM      1  O   UNL A   1      33.962  32.740  28.454  1.00  0.00    -0.458 OA
ENDROOT
BRANCH   1   2
ATOM      2  C   UNL A   1      32.892  32.553  27.647  1.00  0.00     0.338 C 
ATOM      3  O   UNL A   1      32.059  33.385  27.323  1.00  0.00    -0.246 OA
BRANCH   2   4
ATOM      4  C   UNL A   1      32.852  31.165  27.135  1.00  0.00     0.062 A 
ATOM      5  C   UNL A   1      31.948  29.203  24.825  1.00  0.00     0.042 A 
ATOM      6  C   UNL A   1      33.371  28.126  25.170  1.00  0.00     0.026 A 
ATOM      7  C   UNL A   1      31.649  30.690  25.814  1.00  0.00     0.041 A 
ATOM      8  C   UNL A   1      34.510  28.544  26.558  1.00  0.00     0.003 A 
ATOM      9  C   UNL A   1      34.249  30.062  27.514  1.00  0.00     0.016 A 
BRANCH   5  10
ATOM     10  N   UNL A   1      31.628  29.242  23.462  1.00  0.00    -0.318 N 
ATOM     11  C   UNL A   1      30.449  28.749  22.905  1.00  0.00     0.315 C 
ATOM     12  O   UNL A   1      30.082  29.250  21.836  1.00  0.00    -0.263 OA
ATOM     13  H   UNL A   1      32.285  29.648  22.852  1.00  0.00     0.170 HD
BRANCH  11  14
ATOM     14  C   UNL A   1      29.549  27.643  23.503  1.00  0.00     0.329 C 
ATOM     15  O   UNL A   1      28.330  27.741  23.363  1.00  0.00    -0.262 OA
ATOM     16  N   UNL A   1      30.073  26.654  24.341  1.00  0.00    -0.239 N 
ATOM     17  H   UNL A   1      29.879  26.635  25.307  1.00  0.00     0.194 HD
BRANCH  16  18
ATOM     18  N   UNL A   1      30.870  25.712  23.748  1.00  0.00    -0.180 NA
ATOM     19  C   UNL A   1      31.846  25.169  24.558  1.00  0.00     0.145 C 
BRANCH  19  20
ATOM     20  C   UNL A   1      33.839  24.449  24.344  1.00  0.00     0.036 A 
ATOM     21  C   UNL A   1      35.004  24.566  25.342  1.00  0.00     0.013 A 
ATOM     22  C   UNL A   1      34.576  23.616  23.260  1.00  0.00     0.124 A 
ATOM     23  C   UNL A   1      36.278  23.929  25.402  1.00  0.00     0.001 A 
ATOM     24  C   UNL A   1      35.818  22.894  23.369  1.00  0.00     0.047 A 
ATOM     25  C   UNL A   1      36.648  23.023  24.453  1.00  0.00     0.004 A 
BRANCH  22  26
ATOM     26  O   UNL A   1      34.153  23.523  21.929  1.00  0.00    -0.507 OA
ATOM     27  H   UNL A   1      33.973  24.300  21.439  1.00  0.00     0.293 HD
ENDBRANCH  22  26
ENDBRANCH  19  20
ENDBRANCH  16  18
ENDBRANCH  11  14
ENDBRANCH   5  10
ENDBRANCH   2   4
ENDBRANCH   1   2
BRANCH   1  28
ATOM     28  C   UNL A   1      34.005  34.000  29.143  1.00  0.00     0.275 C 
BRANCH  28  29
ATOM     29  C   UNL A   1      34.286  33.820  30.637  1.00  0.00     0.275 C 
BRANCH  29  30
ATOM     30  O   UNL A   1      34.488  32.434  30.971  1.00  0.00    -0.458 OA
BRANCH  30  31
ATOM     31  C   UNL A   1      35.436  32.179  31.898  1.00  0.00     0.338 C 
ATOM     32  O   UNL A   1      35.409  32.404  33.099  1.00  0.00    -0.246 OA
BRANCH  31  33
ATOM     33  C   UNL A   1      36.550  31.443  31.288  1.00  0.00     0.060 A 
ATOM     34  C   UNL A   1      37.473  30.834  32.135  1.00  0.00     0.016 A 
ATOM     35  C   UNL A   1      36.788  31.511  29.917  1.00  0.00     0.016 A 
ATOM     36  C   UNL A   1      38.659  30.319  31.633  1.00  0.00     0.010 A 
ATOM     37  C   UNL A   1      37.958  30.943  29.402  1.00  0.00     0.010 A 
ATOM     38  C   UNL A   1      38.913  30.363  30.259  1.00  0.00    -0.014 A 
BRANCH  38  39
ATOM     39  C   UNL A   1      40.200  29.850  29.732  1.00  0.00     0.031 A 
ATOM     40  C   UNL A   1      41.384  30.769  29.631  1.00  0.00     0.074 A 
ATOM     41  C   UNL A   1      40.314  28.561  29.363  1.00  0.00     0.049 A 
ATOM     42  N   UNL A   1      42.532  30.577  29.035  1.00  0.00    -0.248 NA
ATOM     43  C   UNL A   1      41.254  32.082  30.281  1.00  0.00     0.031 C 
ATOM     44  C   UNL A   1      39.261  27.551  29.474  1.00  0.00     0.029 A 
ATOM     45  N   UNL A   1      41.370  27.882  28.811  1.00  0.00    -0.354 N 
ATOM     46  C   UNL A   1      43.239  31.762  29.188  1.00  0.00     0.074 A 
ATOM     47  C   UNL A   1      42.394  32.666  29.938  1.00  0.00     0.031 C 
ATOM     48  C   UNL A   1      39.726  26.379  29.014  1.00  0.00     0.029 A 
ATOM     49  C   UNL A   1      41.080  26.574  28.506  1.00  0.00     0.049 A 
ATOM     50  H   UNL A   1      42.252  28.292  28.650  1.00  0.00     0.167 HD
ATOM     51  C   UNL A   1      44.478  32.065  28.734  1.00  0.00     0.037 A 
ATOM     52  C   UNL A   1      41.802  25.652  27.845  1.00  0.00     0.037 A 
ATOM     53  C   UNL A   1      45.328  31.143  28.027  1.00  0.00     0.049 A 
ATOM     54  C   UNL A   1      43.157  26.025  27.315  1.00  0.00     0.074 A 
ATOM     55  C   UNL A   1      46.607  31.348  27.539  1.00  0.00     0.029 A 
ATOM     56  N   UNL A   1      44.986  29.835  27.715  1.00  0.00    -0.354 N 
ATOM     57  N   UNL A   1      43.799  27.164  27.418  1.00  0.00    -0.248 NA
ATOM     58  C   UNL A   1      43.879  24.991  26.561  1.00  0.00     0.031 C 
ATOM     59  C   UNL A   1      47.026  30.174  26.903  1.00  0.00     0.029 A 
ATOM     60  C   UNL A   1      46.024  29.226  27.031  1.00  0.00     0.049 A 
ATOM     61  H   UNL A   1      44.132  29.404  27.947  1.00  0.00     0.167 HD
ATOM     62  C   UNL A   1      45.005  26.980  26.754  1.00  0.00     0.074 A 
ATOM     63  C   UNL A   1      45.011  25.615  26.268  1.00  0.00     0.031 C 
ATOM     64  C   UNL A   1      46.013  27.864  26.559  1.00  0.00     0.037 A 
BRANCH  51  65
ATOM     65  C   UNL A   1      44.972  33.463  28.952  1.00  0.00     0.057 A 
ATOM     66  C   UNL A   1      44.694  34.503  28.056  1.00  0.00     0.134 A 
ATOM     67  C   UNL A   1      45.713  33.779  30.098  1.00  0.00     0.134 A 
ATOM     68  F   UNL A   1      44.006  34.264  26.929  1.00  0.00    -0.206 F 
ATOM     69  C   UNL A   1      45.152  35.803  28.283  1.00  0.00     0.040 A 
ATOM     70  C   UNL A   1      46.156  35.079  30.348  1.00  0.00     0.040 A 
ATOM     71  F   UNL A   1      46.012  32.831  30.998  1.00  0.00    -0.206 F 
ATOM     72  C   UNL A   1      45.879  36.095  29.436  1.00  0.00     0.006 A 
ENDBRANCH  51  65
BRANCH  52  73
ATOM     73  C   UNL A   1      41.234  24.303  27.606  1.00  0.00     0.057 A 
ATOM     74  C   UNL A   1      41.680  23.192  28.329  1.00  0.00     0.134 A 
ATOM     75  C   UNL A   1      40.228  24.094  26.654  1.00  0.00     0.134 A 
ATOM     76  F   UNL A   1      42.657  23.325  29.237  1.00  0.00    -0.206 F 
ATOM     77  C   UNL A   1      41.151  21.919  28.110  1.00  0.00     0.040 A 
ATOM     78  C   UNL A   1      39.672  22.833  26.443  1.00  0.00     0.040 A 
ATOM     79  F   UNL A   1      39.758  25.120  25.930  1.00  0.00    -0.206 F 
ATOM     80  C   UNL A   1      40.138  21.739  27.169  1.00  0.00     0.006 A 
ENDBRANCH  52  73
BRANCH  64  81
ATOM     81  C   UNL A   1      47.217  27.369  25.817  1.00  0.00     0.057 A 
ATOM     82  C   UNL A   1      47.359  27.555  24.435  1.00  0.00     0.134 A 
ATOM     83  C   UNL A   1      48.258  26.725  26.496  1.00  0.00     0.134 A 
ATOM     84  F   UNL A   1      46.389  28.151  23.726  1.00  0.00    -0.206 F 
ATOM     85  C   UNL A   1      48.487  27.097  23.753  1.00  0.00     0.040 A 
ATOM     86  C   UNL A   1      49.400  26.283  25.829  1.00  0.00     0.040 A 
ATOM     87  F   UNL A   1      48.184  26.523  27.820  1.00  0.00    -0.206 F 
ATOM     88  C   UNL A   1      49.514  26.464  24.451  1.00  0.00     0.006 A 
ENDBRANCH  64  81
ENDBRANCH  38  39
ENDBRANCH  31  33
ENDBRANCH  30  31
ENDBRANCH  29  30
ENDBRANCH  28  29
ENDBRANCH   1  28
TORSDOF 16
ENDMDL
MODEL 2
REMARK VINA RESULT:     -12.6      3.297      8.373
REMARK SMILES O=C(N/N=C/c1ccccc1O)C(=O)Nc1cccc(C(=O)OCCOC(=O)c2ccc(-c3c4nc(c(-c5c(F)cccc5F)c5ccc([nH]5)c(-c5c(F)cccc5F)c5nc(c(-c6c(F)cccc6F)c6ccc3[nH]6)C=C5)C=C4)cc2)c1
REMARK SMILES IDX 23 1 21 2 22 3 20 4 16 5 17 6 83 7 18 8 19 9 15 10 13 11
REMARK SMILES IDX 14 12 2 14 1 15 3 16 4 18 5 19 6 20 7 21 11 22 8 23 10 24
REMARK SMILES IDX 9 25 12 26 24 28 25 29 26 30 27 31 28 32 29 33 30 34 82 35
REMARK SMILES IDX 31 36 81 37 32 38 33 39 34 40 75 41 35 42 80 43 74 44 76 45
REMARK SMILES IDX 36 46 79 47 73 48 72 49 37 51 63 52 46 53 62 54 47 55 50 56
REMARK SMILES IDX 61 57 77 58 48 59 49 60 60 62 78 63 51 64 38 65 39 66 44 67
REMARK SMILES IDX 40 68 41 69 43 70 45 71 42 72 64 73 65 74 70 75 66 76 67 77
REMARK SMILES IDX 69 78 71 79 68 80 52 81 53 82 58 83 54 84 55 85 57 86 59 87
REMARK SMILES IDX 56 88
REMARK H PARENT 15 13 3 17 12 27 76 50 50 61
REMARK Flexibility Score: inf
ROOT
ATOM      1  O   UNL A   1      38.091  21.836  25.024  1.00  0.00    -0.458 OA
ENDROOT
BRANCH   1   2
ATOM      2  C   UNL A   1      37.041  22.376  24.363  1.00  0.00     0.338 C 
ATOM      3  O   UNL A   1      36.921  22.510  23.155  1.00  0.00    -0.246 OA
BRANCH   2   4
ATOM      4  C   UNL A   1      35.971  22.774  25.305  1.00  0.00     0.062 A 
ATOM      5  C   UNL A   1      33.583  24.748  25.943  1.00  0.00     0.042 A 
ATOM      6  C   UNL A   1      32.738  23.437  26.878  1.00  0.00     0.026 A 
ATOM      7  C   UNL A   1      35.205  24.452  25.192  1.00  0.00     0.041 A 
ATOM      8  C   UNL A   1      33.554  21.797  27.079  1.00  0.00     0.003 A 
ATOM      9  C   UNL A   1      35.150  21.477  26.281  1.00  0.00     0.016 A 
BRANCH   5  10
ATOM     10  N   UNL A   1      32.686  25.583  25.267  1.00  0.00    -0.318 N 
ATOM     11  C   UNL A   1      32.030  25.255  24.081  1.00  0.00     0.315 C 
ATOM     12  O   UNL A   1      30.959  25.828  23.855  1.00  0.00    -0.263 OA
ATOM     13  H   UNL A   1      32.503  26.468  25.658  1.00  0.00     0.170 HD
BRANCH  11  14
ATOM     14  C   UNL A   1      32.510  24.233  23.025  1.00  0.00     0.329 C 
ATOM     15  O   UNL A   1      33.462  24.539  22.305  1.00  0.00    -0.262 OA
ATOM     16  N   UNL A   1      31.781  23.071  22.753  1.00  0.00    -0.239 N 
ATOM     17  H   UNL A   1      31.285  22.954  21.909  1.00  0.00     0.194 HD
BRANCH  16  18
ATOM     18  N   UNL A   1      31.793  22.104  23.722  1.00  0.00    -0.180 NA
ATOM     19  C   UNL A   1      32.783  21.151  23.594  1.00  0.00     0.145 C 
BRANCH  19  20
ATOM     20  C   UNL A   1      33.018  19.072  23.984  1.00  0.00     0.036 A 
ATOM     21  C   UNL A   1      33.271  17.938  22.975  1.00  0.00     0.013 A 
ATOM     22  C   UNL A   1      33.072  18.215  25.278  1.00  0.00     0.124 A 
ATOM     23  C   UNL A   1      33.671  16.580  23.144  1.00  0.00     0.001 A 
ATOM     24  C   UNL A   1      33.574  16.875  25.451  1.00  0.00     0.047 A 
ATOM     25  C   UNL A   1      33.906  16.074  24.388  1.00  0.00     0.004 A 
BRANCH  22  26
ATOM     26  O   UNL A   1      32.529  18.619  26.503  1.00  0.00    -0.507 OA
ATOM     27  H   UNL A   1      33.075  18.679  27.262  1.00  0.00     0.293 HD
ENDBRANCH  22  26
ENDBRANCH  19  20
ENDBRANCH  16  18
ENDBRANCH  11  14
ENDBRANCH   5  10
ENDBRANCH   2   4
ENDBRANCH   1   2
BRANCH   1  28
ATOM     28  C   UNL A   1      38.119  20.401  25.078  1.00  0.00     0.275 C 
BRANCH  28  29
ATOM     29  C   UNL A   1      39.179  19.891  26.058  1.00  0.00     0.275 C 
BRANCH  29  30
ATOM     30  O   UNL A   1      40.253  19.222  25.372  1.00  0.00    -0.458 OA
BRANCH  30  31
ATOM     31  C   UNL A   1      41.464  19.280  25.965  1.00  0.00     0.338 C 
ATOM     32  O   UNL A   1      42.313  18.405  26.053  1.00  0.00    -0.246 OA
BRANCH  31  33
ATOM     33  C   UNL A   1      41.728  20.645  26.436  1.00  0.00     0.060 A 
ATOM     34  C   UNL A   1      41.890  21.646  25.481  1.00  0.00     0.016 A 
ATOM     35  C   UNL A   1      42.000  20.899  27.778  1.00  0.00     0.016 A 
ATOM     36  C   UNL A   1      42.359  22.899  25.845  1.00  0.00     0.010 A 
ATOM     37  C   UNL A   1      42.420  22.179  28.155  1.00  0.00     0.010 A 
ATOM     38  C   UNL A   1      42.625  23.182  27.188  1.00  0.00    -0.014 A 
BRANCH  38  39
ATOM     39  C   UNL A   1      43.167  24.509  27.567  1.00  0.00     0.031 A 
ATOM     40  C   UNL A   1      42.239  25.578  28.069  1.00  0.00     0.074 A 
ATOM     41  C   UNL A   1      44.488  24.750  27.479  1.00  0.00     0.049 A 
ATOM     42  N   UNL A   1      42.474  26.847  28.275  1.00  0.00    -0.248 NA
ATOM     43  C   UNL A   1      40.860  25.163  28.371  1.00  0.00     0.031 C 
ATOM     44  C   UNL A   1      45.502  23.777  27.072  1.00  0.00     0.029 A 
ATOM     45  N   UNL A   1      45.203  25.895  27.723  1.00  0.00    -0.354 N 
ATOM     46  C   UNL A   1      41.263  27.395  28.676  1.00  0.00     0.074 A 
ATOM     47  C   UNL A   1      40.295  26.319  28.691  1.00  0.00     0.031 C 
ATOM     48  C   UNL A   1      46.709  24.363  27.101  1.00  0.00     0.029 A 
ATOM     49  C   UNL A   1      46.544  25.769  27.454  1.00  0.00     0.049 A 
ATOM     50  H   UNL A   1      44.795  26.726  28.058  1.00  0.00     0.167 HD
ATOM     51  C   UNL A   1      40.987  28.682  28.994  1.00  0.00     0.037 A 
ATOM     52  C   UNL A   1      47.522  26.692  27.442  1.00  0.00     0.037 A 
ATOM     53  C   UNL A   1      41.967  29.736  29.020  1.00  0.00     0.049 A 
ATOM     54  C   UNL A   1      47.183  28.121  27.759  1.00  0.00     0.074 A 
ATOM     55  C   UNL A   1      41.792  31.070  29.345  1.00  0.00     0.029 A 
ATOM     56  N   UNL A   1      43.310  29.572  28.716  1.00  0.00    -0.354 N 
ATOM     57  N   UNL A   1      46.026  28.642  28.087  1.00  0.00    -0.248 NA
ATOM     58  C   UNL A   1      48.283  29.092  27.685  1.00  0.00     0.031 C 
ATOM     59  C   UNL A   1      43.024  31.720  29.206  1.00  0.00     0.029 A 
ATOM     60  C   UNL A   1      43.973  30.782  28.835  1.00  0.00     0.049 A 
ATOM     61  H   UNL A   1      43.731  28.721  28.456  1.00  0.00     0.167 HD
ATOM     62  C   UNL A   1      46.259  29.998  28.271  1.00  0.00     0.074 A 
ATOM     63  C   UNL A   1      47.672  30.216  28.035  1.00  0.00     0.031 C 
ATOM     64  C   UNL A   1      45.381  30.977  28.599  1.00  0.00     0.037 A 
BRANCH  51  65
ATOM     65  C   UNL A   1      39.561  29.029  29.300  1.00  0.00     0.057 A 
ATOM     66  C   UNL A   1      38.645  29.377  28.300  1.00  0.00     0.134 A 
ATOM     67  C   UNL A   1      39.091  28.982  30.619  1.00  0.00     0.134 A 
ATOM     68  F   UNL A   1      39.035  29.459  27.019  1.00  0.00    -0.206 F 
ATOM     69  C   UNL A   1      37.316  29.683  28.604  1.00  0.00     0.040 A 
ATOM     70  C   UNL A   1      37.760  29.264  30.932  1.00  0.00     0.040 A 
ATOM     71  F   UNL A   1      39.916  28.653  31.625  1.00  0.00    -0.206 F 
ATOM     72  C   UNL A   1      36.869  29.620  29.922  1.00  0.00     0.006 A 
ENDBRANCH  51  65
BRANCH  52  73
ATOM     73  C   UNL A   1      48.903  26.299  27.071  1.00  0.00     0.057 A 
ATOM     74  C   UNL A   1      49.328  26.319  25.738  1.00  0.00     0.134 A 
ATOM     75  C   UNL A   1      49.833  25.901  28.039  1.00  0.00     0.134 A 
ATOM     76  F   UNL A   1      48.476  26.668  24.763  1.00  0.00    -0.206 F 
ATOM     77  C   UNL A   1      50.625  25.950  25.381  1.00  0.00     0.040 A 
ATOM     78  C   UNL A   1      51.140  25.555  27.701  1.00  0.00     0.040 A 
ATOM     79  F   UNL A   1      49.486  25.863  29.335  1.00  0.00    -0.206 F 
ATOM     80  C   UNL A   1      51.538  25.574  26.365  1.00  0.00     0.006 A 
ENDBRANCH  52  73
BRANCH  64  81
ATOM     81  C   UNL A   1      45.933  32.361  28.754  1.00  0.00     0.057 A 
ATOM     82  C   UNL A   1      46.449  32.816  29.974  1.00  0.00     0.134 A 
ATOM     83  C   UNL A   1      45.974  33.238  27.663  1.00  0.00     0.134 A 
ATOM     84  F   UNL A   1      46.424  32.029  31.059  1.00  0.00    -0.206 F 
ATOM     85  C   UNL A   1      46.968  34.105  30.107  1.00  0.00     0.040 A 
ATOM     86  C   UNL A   1      46.511  34.520  27.778  1.00  0.00     0.040 A 
ATOM     87  F   UNL A   1      45.501  32.859  26.466  1.00  0.00    -0.206 F 
ATOM     88  C   UNL A   1      47.006  34.959  29.006  1.00  0.00     0.006 A 
ENDBRANCH  64  81
ENDBRANCH  38  39
ENDBRANCH  31  33
ENDBRANCH  30  31
ENDBRANCH  29  30
ENDBRANCH  28  29
ENDBRANCH   1  28
TORSDOF 16
ENDMDL
MODEL 3
REMARK VINA RESULT:     -12.5      2.141      3.258
REMARK SMILES O=C(N/N=C/c1ccccc1O)C(=O)Nc1cccc(C(=O)OCCOC(=O)c2ccc(-c3c4nc(c(-c5c(F)cccc5F)c5ccc([nH]5)c(-c5c(F)cccc5F)c5nc(c(-c6c(F)cccc6F)c6ccc3[nH]6)C=C5)C=C4)cc2)c1
REMARK SMILES IDX 23 1 21 2 22 3 20 4 16 5 17 6 83 7 18 8 19 9 15 10 13 11
REMARK SMILES IDX 14 12 2 14 1 15 3 16 4 18 5 19 6 20 7 21 11 22 8 23 10 24
REMARK SMILES IDX 9 25 12 26 24 28 25 29 26 30 27 31 28 32 29 33 30 34 82 35
REMARK SMILES IDX 31 36 81 37 32 38 33 39 34 40 75 41 35 42 80 43 74 44 76 45
REMARK SMILES IDX 36 46 79 47 73 48 72 49 37 51 63 52 46 53 62 54 47 55 50 56
REMARK SMILES IDX 61 57 77 58 48 59 49 60 60 62 78 63 51 64 38 65 39 66 44 67
REMARK SMILES IDX 40 68 41 69 43 70 45 71 42 72 64 73 65 74 70 75 66 76 67 77
REMARK SMILES IDX 69 78 71 79 68 80 52 81 53 82 58 83 54 84 55 85 57 86 59 87
REMARK SMILES IDX 56 88
REMARK H PARENT 15 13 3 17 12 27 76 50 50 61
REMARK Flexibility Score: inf
ROOT
ATOM      1  O   UNL A   1      33.469  30.082  25.832  1.00  0.00    -0.458 OA
ENDROOT
BRANCH   1   2
ATOM      2  C   UNL A   1      32.150  29.945  26.104  1.00  0.00     0.338 C 
ATOM      3  O   UNL A   1      31.476  30.639  26.850  1.00  0.00    -0.246 OA
BRANCH   2   4
ATOM      4  C   UNL A   1      31.562  28.829  25.330  1.00  0.00     0.062 A 
ATOM      5  C   UNL A   1      30.340  25.913  25.370  1.00  0.00     0.042 A 
ATOM      6  C   UNL A   1      29.289  26.324  23.945  1.00  0.00     0.026 A 
ATOM      7  C   UNL A   1      31.503  27.126  26.044  1.00  0.00     0.041 A 
ATOM      8  C   UNL A   1      29.427  27.989  23.166  1.00  0.00     0.003 A 
ATOM      9  C   UNL A   1      30.548  29.226  23.873  1.00  0.00     0.016 A 
BRANCH   5  10
ATOM     10  N   UNL A   1      29.708  25.038  26.262  1.00  0.00    -0.318 N 
ATOM     11  C   UNL A   1      30.121  23.733  26.527  1.00  0.00     0.315 C 
ATOM     12  O   UNL A   1      29.807  23.257  27.623  1.00  0.00    -0.263 OA
ATOM     13  H   UNL A   1      28.913  25.369  26.739  1.00  0.00     0.170 HD
BRANCH  11  14
ATOM     14  C   UNL A   1      30.945  22.827  25.582  1.00  0.00     0.329 C 
ATOM     15  O   UNL A   1      30.744  22.909  24.370  1.00  0.00    -0.262 OA
ATOM     16  N   UNL A   1      31.760  21.807  26.082  1.00  0.00    -0.239 N 
ATOM     17  H   UNL A   1      31.528  20.856  25.974  1.00  0.00     0.194 HD
BRANCH  16  18
ATOM     18  N   UNL A   1      32.901  22.200  26.729  1.00  0.00    -0.180 NA
ATOM     19  C   UNL A   1      33.875  22.757  25.926  1.00  0.00     0.145 C 
BRANCH  19  20
ATOM     20  C   UNL A   1      36.002  22.805  25.845  1.00  0.00     0.036 A 
ATOM     21  C   UNL A   1      36.936  23.994  26.126  1.00  0.00     0.013 A 
ATOM     22  C   UNL A   1      37.097  21.736  25.584  1.00  0.00     0.124 A 
ATOM     23  C   UNL A   1      38.346  24.075  26.329  1.00  0.00     0.001 A 
ATOM     24  C   UNL A   1      38.505  21.795  25.888  1.00  0.00     0.047 A 
ATOM     25  C   UNL A   1      39.119  22.952  26.294  1.00  0.00     0.004 A 
BRANCH  22  26
ATOM     26  O   UNL A   1      36.868  20.538  24.897  1.00  0.00    -0.507 OA
ATOM     27  H   UNL A   1      37.561  19.917  24.791  1.00  0.00     0.293 HD
ENDBRANCH  22  26
ENDBRANCH  19  20
ENDBRANCH  16  18
ENDBRANCH  11  14
ENDBRANCH   5  10
ENDBRANCH   2   4
ENDBRANCH   1   2
BRANCH   1  28
ATOM     28  C   UNL A   1      34.312  29.020  26.307  1.00  0.00     0.275 C 
BRANCH  28  29
ATOM     29  C   UNL A   1      34.707  29.223  27.772  1.00  0.00     0.275 C 
BRANCH  29  30
ATOM     30  O   UNL A   1      35.478  30.426  27.949  1.00  0.00    -0.458 OA
BRANCH  30  31
ATOM     31  C   UNL A   1      36.078  30.576  29.148  1.00  0.00     0.338 C 
ATOM     32  O   UNL A   1      35.564  30.783  30.238  1.00  0.00    -0.246 OA
BRANCH  31  33
ATOM     33  C   UNL A   1      37.520  30.333  29.023  1.00  0.00     0.060 A 
ATOM     34  C   UNL A   1      38.034  30.085  27.752  1.00  0.00     0.016 A 
ATOM     35  C   UNL A   1      38.319  30.162  30.151  1.00  0.00     0.016 A 
ATOM     36  C   UNL A   1      39.334  29.631  27.591  1.00  0.00     0.010 A 
ATOM     37  C   UNL A   1      39.647  29.756  29.988  1.00  0.00     0.010 A 
ATOM     38  C   UNL A   1      40.158  29.466  28.708  1.00  0.00    -0.014 A 
BRANCH  38  39
ATOM     39  C   UNL A   1      41.533  28.940  28.536  1.00  0.00     0.031 A 
ATOM     40  C   UNL A   1      42.707  29.871  28.634  1.00  0.00     0.074 A 
ATOM     41  C   UNL A   1      41.732  27.627  28.311  1.00  0.00     0.049 A 
ATOM     42  N   UNL A   1      43.962  29.656  28.336  1.00  0.00    -0.248 NA
ATOM     43  C   UNL A   1      42.428  31.230  29.126  1.00  0.00     0.031 C 
ATOM     44  C   UNL A   1      40.683  26.608  28.260  1.00  0.00     0.029 A 
ATOM     45  N   UNL A   1      42.888  26.928  28.075  1.00  0.00    -0.354 N 
ATOM     46  C   UNL A   1      44.612  30.864  28.549  1.00  0.00     0.074 A 
ATOM     47  C   UNL A   1      43.615  31.808  29.008  1.00  0.00     0.031 C 
ATOM     48  C   UNL A   1      41.244  25.413  28.018  1.00  0.00     0.029 A 
ATOM     49  C   UNL A   1      42.678  25.595  27.820  1.00  0.00     0.049 A 
ATOM     50  H   UNL A   1      43.782  27.343  28.088  1.00  0.00     0.167 HD
ATOM     51  C   UNL A   1      45.922  31.156  28.369  1.00  0.00     0.037 A 
ATOM     52  C   UNL A   1      43.535  24.638  27.421  1.00  0.00     0.037 A 
ATOM     53  C   UNL A   1      46.914  30.198  27.955  1.00  0.00     0.049 A 
ATOM     54  C   UNL A   1      44.975  24.996  27.189  1.00  0.00     0.074 A 
ATOM     55  C   UNL A   1      48.270  30.390  27.759  1.00  0.00     0.029 A 
ATOM     56  N   UNL A   1      46.656  28.863  27.682  1.00  0.00    -0.354 N 
ATOM     57  N   UNL A   1      45.574  26.152  27.342  1.00  0.00    -0.248 NA
ATOM     58  C   UNL A   1      45.853  23.920  26.709  1.00  0.00     0.031 C 
ATOM     59  C   UNL A   1      48.828  29.177  27.336  1.00  0.00     0.029 A 
ATOM     60  C   UNL A   1      47.825  28.222  27.308  1.00  0.00     0.049 A 
ATOM     61  H   UNL A   1      45.772  28.433  27.746  1.00  0.00     0.167 HD
ATOM     62  C   UNL A   1      46.901  25.941  26.990  1.00  0.00     0.074 A 
ATOM     63  C   UNL A   1      47.022  24.542  26.633  1.00  0.00     0.031 C 
ATOM     64  C   UNL A   1      47.925  26.827  26.960  1.00  0.00     0.037 A 
BRANCH  51  65
ATOM     65  C   UNL A   1      46.350  32.577  28.578  1.00  0.00     0.057 A 
ATOM     66  C   UNL A   1      46.249  33.545  27.571  1.00  0.00     0.134 A 
ATOM     67  C   UNL A   1      46.843  32.990  29.823  1.00  0.00     0.134 A 
ATOM     68  F   UNL A   1      45.803  33.211  26.350  1.00  0.00    -0.206 F 
ATOM     69  C   UNL A   1      46.640  34.868  27.789  1.00  0.00     0.040 A 
ATOM     70  C   UNL A   1      47.215  34.314  30.060  1.00  0.00     0.040 A 
ATOM     71  F   UNL A   1      46.963  32.114  30.832  1.00  0.00    -0.206 F 
ATOM     72  C   UNL A   1      47.118  35.257  29.040  1.00  0.00     0.006 A 
ENDBRANCH  51  65
BRANCH  52  73
ATOM     73  C   UNL A   1      43.040  23.263  27.171  1.00  0.00     0.057 A 
ATOM     74  C   UNL A   1      42.750  22.394  28.229  1.00  0.00     0.134 A 
ATOM     75  C   UNL A   1      42.839  22.786  25.870  1.00  0.00     0.134 A 
ATOM     76  F   UNL A   1      42.945  22.785  29.496  1.00  0.00    -0.206 F 
ATOM     77  C   UNL A   1      42.285  21.098  28.001  1.00  0.00     0.040 A 
ATOM     78  C   UNL A   1      42.349  21.503  25.627  1.00  0.00     0.040 A 
ATOM     79  F   UNL A   1      43.097  23.572  24.814  1.00  0.00    -0.206 F 
ATOM     80  C   UNL A   1      42.075  20.653  26.696  1.00  0.00     0.006 A 
ENDBRANCH  52  73
BRANCH  64  81
ATOM     81  C   UNL A   1      49.269  26.300  26.558  1.00  0.00     0.057 A 
ATOM     82  C   UNL A   1      49.753  26.436  25.251  1.00  0.00     0.134 A 
ATOM     83  C   UNL A   1      50.098  25.674  27.497  1.00  0.00     0.134 A 
ATOM     84  F   UNL A   1      48.999  27.012  24.303  1.00  0.00    -0.206 F 
ATOM     85  C   UNL A   1      51.009  25.947  24.886  1.00  0.00     0.040 A 
ATOM     86  C   UNL A   1      51.365  25.202  27.150  1.00  0.00     0.040 A 
ATOM     87  F   UNL A   1      49.695  25.519  28.767  1.00  0.00    -0.206 F 
ATOM     88  C   UNL A   1      51.821  25.334  25.839  1.00  0.00     0.006 A 
ENDBRANCH  64  81
ENDBRANCH  38  39
ENDBRANCH  31  33
ENDBRANCH  30  31
ENDBRANCH  29  30
ENDBRANCH  28  29
ENDBRANCH   1  28
TORSDOF 16
ENDMDL
