MODEL 1
REMARK VINA RESULT:     -11.2      0.000      0.000
REMARK SMILES CC(C)(C)c1csc(NC(=O)Cn2cccc2C(=O)OCCOC(=O)c2ccc(-c3c4nc(c(-c5c(F)cccc5F)c5ccc([nH]5)c(-c5c(F)cccc5F)c5nc(c(-c6c(F)cccc6F)c6ccc3[nH]6)C=C5)C=C4)cc2)n1
REMARK SMILES IDX 21 1 20 2 18 3 19 4 17 5 13 6 14 7 15 8 16 9 12 10 10 11
REMARK SMILES IDX 9 12 11 14 8 15 5 16 6 17 80 18 7 19 2 20 1 21 3 22 4 23
REMARK SMILES IDX 22 24 23 25 24 26 25 27 26 28 27 29 79 30 28 31 78 32 29 33
REMARK SMILES IDX 30 34 31 35 72 36 32 37 77 38 71 39 73 40 33 41 76 42 70 43
REMARK SMILES IDX 69 44 34 46 60 47 43 48 59 49 44 50 47 51 58 52 74 53 45 54
REMARK SMILES IDX 46 55 57 57 75 58 48 59 35 60 36 61 41 62 37 63 38 64 40 65
REMARK SMILES IDX 42 66 39 67 61 68 62 69 67 70 63 71 64 72 66 73 68 74 65 75
REMARK SMILES IDX 49 76 50 77 55 78 51 79 52 80 54 81 56 82 53 83
REMARK H PARENT 9 13 73 45 47 56
REMARK Flexibility Score: inf
ROOT
ATOM      1  C   UNL A   1      32.945  28.539  26.872  1.00  0.00     0.275 C 
ENDROOT
BRANCH   1   2
ATOM      2  O   UNL A   1      33.100  27.109  26.823  1.00  0.00    -0.457 OA
BRANCH   2   3
ATOM      3  C   UNL A   1      32.062  26.408  26.305  1.00  0.00     0.355 C 
ATOM      4  O   UNL A   1      30.913  26.466  26.736  1.00  0.00    -0.244 OA
BRANCH   3   5
ATOM      5  C   UNL A   1      32.453  25.668  25.118  1.00  0.00     0.128 A 
ATOM      6  N   UNL A   1      31.965  24.480  24.591  1.00  0.00    -0.333 N 
ATOM      7  C   UNL A   1      32.547  24.282  23.350  1.00  0.00     0.087 A 
ATOM      8  C   UNL A   1      33.593  25.157  23.209  1.00  0.00     0.020 A 
ATOM      9  C   UNL A   1      33.527  26.031  24.307  1.00  0.00     0.035 A 
BRANCH   6  10
ATOM     10  C   UNL A   1      30.891  23.610  25.082  1.00  0.00     0.222 C 
BRANCH  10  11
ATOM     11  C   UNL A   1      31.094  22.887  26.403  1.00  0.00     0.246 C 
ATOM     12  N   UNL A   1      32.174  22.145  26.751  1.00  0.00    -0.300 N 
ATOM     13  H   UNL A   1      32.182  21.900  27.705  1.00  0.00     0.172 HD
ATOM     14  O   UNL A   1      30.177  22.928  27.243  1.00  0.00    -0.273 OA
BRANCH  12  15
ATOM     15  C   UNL A   1      33.250  21.666  26.065  1.00  0.00     0.189 A 
ATOM     16  C   UNL A   1      35.270  21.672  25.145  1.00  0.00     0.059 A 
ATOM     17  C   UNL A   1      34.840  20.410  24.778  1.00  0.00     0.093 A 
ATOM     18  N   UNL A   1      34.340  22.381  25.901  1.00  0.00    -0.224 NA
ATOM     19  S   UNL A   1      33.361  20.058  25.548  1.00  0.00    -0.105 S 
BRANCH  16  20
ATOM     20  C   UNL A   1      36.589  22.329  24.779  1.00  0.00     0.005 C 
ATOM     21  C   UNL A   1      36.888  23.556  25.657  1.00  0.00     0.017 C 
ATOM     22  C   UNL A   1      36.578  22.774  23.303  1.00  0.00     0.017 C 
ATOM     23  C   UNL A   1      37.724  21.329  24.995  1.00  0.00     0.017 C 
ENDBRANCH  16  20
ENDBRANCH  12  15
ENDBRANCH  10  11
ENDBRANCH   6  10
ENDBRANCH   3   5
ENDBRANCH   2   3
ENDBRANCH   1   2
BRANCH   1  24
ATOM     24  C   UNL A   1      34.228  29.284  26.490  1.00  0.00     0.275 C 
BRANCH  24  25
ATOM     25  O   UNL A   1      35.377  28.915  27.266  1.00  0.00    -0.458 OA
BRANCH  25  26
ATOM     26  C   UNL A   1      35.936  29.964  27.904  1.00  0.00     0.338 C 
ATOM     27  O   UNL A   1      35.546  31.119  27.893  1.00  0.00    -0.246 OA
BRANCH  26  28
ATOM     28  C   UNL A   1      37.255  29.655  28.440  1.00  0.00     0.060 A 
ATOM     29  C   UNL A   1      38.337  29.778  27.566  1.00  0.00     0.016 A 
ATOM     30  C   UNL A   1      37.341  28.928  29.634  1.00  0.00     0.016 A 
ATOM     31  C   UNL A   1      39.492  29.077  27.845  1.00  0.00     0.010 A 
ATOM     32  C   UNL A   1      38.480  28.184  29.885  1.00  0.00     0.010 A 
ATOM     33  C   UNL A   1      39.535  28.233  28.969  1.00  0.00    -0.014 A 
BRANCH  33  34
ATOM     34  C   UNL A   1      40.843  27.649  29.304  1.00  0.00     0.031 A 
ATOM     35  C   UNL A   1      41.011  26.361  28.461  1.00  0.00     0.074 A 
ATOM     36  C   UNL A   1      41.591  28.260  30.282  1.00  0.00     0.049 A 
ATOM     37  N   UNL A   1      41.691  25.290  28.707  1.00  0.00    -0.248 NA
ATOM     38  C   UNL A   1      40.243  26.205  27.183  1.00  0.00     0.031 C 
ATOM     39  C   UNL A   1      41.275  29.560  30.922  1.00  0.00     0.029 A 
ATOM     40  N   UNL A   1      42.755  27.930  30.958  1.00  0.00    -0.354 N 
ATOM     41  C   UNL A   1      41.648  24.485  27.546  1.00  0.00     0.074 A 
ATOM     42  C   UNL A   1      40.618  25.014  26.716  1.00  0.00     0.031 C 
ATOM     43  C   UNL A   1      42.113  29.826  31.954  1.00  0.00     0.029 A 
ATOM     44  C   UNL A   1      43.106  28.775  32.059  1.00  0.00     0.049 A 
ATOM     45  H   UNL A   1      43.308  27.159  30.697  1.00  0.00     0.167 HD
ATOM     46  C   UNL A   1      42.608  23.555  27.271  1.00  0.00     0.037 A 
ATOM     47  C   UNL A   1      44.108  28.615  32.990  1.00  0.00     0.037 A 
ATOM     48  C   UNL A   1      43.524  23.497  28.359  1.00  0.00     0.049 A 
ATOM     49  C   UNL A   1      44.939  27.546  32.429  1.00  0.00     0.074 A 
ATOM     50  C   UNL A   1      43.360  23.061  29.647  1.00  0.00     0.029 A 
ATOM     51  N   UNL A   1      44.596  24.354  28.288  1.00  0.00    -0.354 N 
ATOM     52  N   UNL A   1      45.711  27.692  31.395  1.00  0.00    -0.248 NA
ATOM     53  C   UNL A   1      44.843  26.199  33.001  1.00  0.00     0.031 C 
ATOM     54  C   UNL A   1      43.997  24.071  30.387  1.00  0.00     0.029 A 
ATOM     55  C   UNL A   1      44.794  24.857  29.545  1.00  0.00     0.049 A 
ATOM     56  H   UNL A   1      45.123  24.567  27.484  1.00  0.00     0.167 HD
ATOM     57  C   UNL A   1      45.866  26.395  30.983  1.00  0.00     0.074 A 
ATOM     58  C   UNL A   1      45.640  25.560  32.148  1.00  0.00     0.031 C 
ATOM     59  C   UNL A   1      45.549  26.074  29.700  1.00  0.00     0.037 A 
BRANCH  46  60
ATOM     60  C   UNL A   1      43.021  22.872  26.001  1.00  0.00     0.057 A 
ATOM     61  C   UNL A   1      43.202  21.469  26.041  1.00  0.00     0.134 A 
ATOM     62  C   UNL A   1      43.602  23.534  24.917  1.00  0.00     0.134 A 
ATOM     63  F   UNL A   1      42.644  20.726  27.012  1.00  0.00    -0.206 F 
ATOM     64  C   UNL A   1      44.044  20.797  25.156  1.00  0.00     0.040 A 
ATOM     65  C   UNL A   1      44.408  22.857  23.991  1.00  0.00     0.040 A 
ATOM     66  F   UNL A   1      43.505  24.860  24.766  1.00  0.00    -0.206 F 
ATOM     67  C   UNL A   1      44.670  21.497  24.136  1.00  0.00     0.006 A 
ENDBRANCH  46  60
BRANCH  47  68
ATOM     68  C   UNL A   1      44.593  29.146  34.333  1.00  0.00     0.057 A 
ATOM     69  C   UNL A   1      45.663  30.015  34.551  1.00  0.00     0.134 A 
ATOM     70  C   UNL A   1      43.855  28.856  35.525  1.00  0.00     0.134 A 
ATOM     71  F   UNL A   1      46.526  30.307  33.573  1.00  0.00    -0.206 F 
ATOM     72  C   UNL A   1      45.899  30.625  35.810  1.00  0.00     0.040 A 
ATOM     73  C   UNL A   1      44.036  29.497  36.755  1.00  0.00     0.040 A 
ATOM     74  F   UNL A   1      42.899  27.917  35.561  1.00  0.00    -0.206 F 
ATOM     75  C   UNL A   1      45.057  30.408  36.899  1.00  0.00     0.006 A 
ENDBRANCH  47  68
BRANCH  59  76
ATOM     76  C   UNL A   1      45.693  27.209  28.699  1.00  0.00     0.057 A 
ATOM     77  C   UNL A   1      46.925  27.867  28.566  1.00  0.00     0.134 A 
ATOM     78  C   UNL A   1      44.646  27.749  27.936  1.00  0.00     0.134 A 
ATOM     79  F   UNL A   1      48.004  27.413  29.221  1.00  0.00    -0.206 F 
ATOM     80  C   UNL A   1      47.093  29.004  27.761  1.00  0.00     0.040 A 
ATOM     81  C   UNL A   1      44.793  28.889  27.127  1.00  0.00     0.040 A 
ATOM     82  F   UNL A   1      43.439  27.188  27.937  1.00  0.00    -0.206 F 
ATOM     83  C   UNL A   1      46.023  29.526  27.044  1.00  0.00     0.006 A 
ENDBRANCH  59  76
ENDBRANCH  33  34
ENDBRANCH  26  28
ENDBRANCH  25  26
ENDBRANCH  24  25
ENDBRANCH   1  24
TORSDOF 15
ENDMDL
MODEL 2
REMARK VINA RESULT:     -11.2      4.272      8.610
REMARK SMILES CC(C)(C)c1csc(NC(=O)Cn2cccc2C(=O)OCCOC(=O)c2ccc(-c3c4nc(c(-c5c(F)cccc5F)c5ccc([nH]5)c(-c5c(F)cccc5F)c5nc(c(-c6c(F)cccc6F)c6ccc3[nH]6)C=C5)C=C4)cc2)n1
REMARK SMILES IDX 21 1 20 2 18 3 19 4 17 5 13 6 14 7 15 8 16 9 12 10 10 11
REMARK SMILES IDX 9 12 11 14 8 15 5 16 6 17 80 18 7 19 2 20 1 21 3 22 4 23
REMARK SMILES IDX 22 24 23 25 24 26 25 27 26 28 27 29 79 30 28 31 78 32 29 33
REMARK SMILES IDX 30 34 31 35 72 36 32 37 77 38 71 39 73 40 33 41 76 42 70 43
REMARK SMILES IDX 69 44 34 46 60 47 43 48 59 49 44 50 47 51 58 52 74 53 45 54
REMARK SMILES IDX 46 55 57 57 75 58 48 59 35 60 36 61 41 62 37 63 38 64 40 65
REMARK SMILES IDX 42 66 39 67 61 68 62 69 67 70 63 71 64 72 66 73 68 74 65 75
REMARK SMILES IDX 49 76 50 77 55 78 51 79 52 80 54 81 56 82 53 83
REMARK H PARENT 9 13 73 45 47 56
REMARK Flexibility Score: inf
ROOT
ATOM      1  C   UNL A   1      36.441  23.193  25.427  1.00  0.00     0.275 C 
ENDROOT
BRANCH   1   2
ATOM      2  O   UNL A   1      35.748  24.279  24.786  1.00  0.00    -0.457 OA
BRANCH   2   3
ATOM      3  C   UNL A   1      34.746  23.937  23.939  1.00  0.00     0.355 C 
ATOM      4  O   UNL A   1      34.913  23.303  22.900  1.00  0.00    -0.244 OA
BRANCH   3   5
ATOM      5  C   UNL A   1      33.446  24.317  24.464  1.00  0.00     0.128 A 
ATOM      6  N   UNL A   1      32.284  24.703  23.810  1.00  0.00    -0.333 N 
ATOM      7  C   UNL A   1      31.266  24.790  24.745  1.00  0.00     0.087 A 
ATOM      8  C   UNL A   1      31.815  24.749  26.000  1.00  0.00     0.020 A 
ATOM      9  C   UNL A   1      33.175  24.440  25.826  1.00  0.00     0.035 A 
BRANCH   6  10
ATOM     10  C   UNL A   1      32.020  24.840  22.374  1.00  0.00     0.222 C 
BRANCH  10  11
ATOM     11  C   UNL A   1      32.744  25.934  21.607  1.00  0.00     0.246 C 
ATOM     12  N   UNL A   1      32.892  27.223  22.001  1.00  0.00    -0.300 N 
ATOM     13  H   UNL A   1      33.529  27.726  21.443  1.00  0.00     0.172 HD
ATOM     14  O   UNL A   1      33.217  25.657  20.490  1.00  0.00    -0.273 OA
BRANCH  12  15
ATOM     15  C   UNL A   1      32.346  27.973  23.001  1.00  0.00     0.189 A 
ATOM     16  C   UNL A   1      32.140  28.861  25.025  1.00  0.00     0.059 A 
ATOM     17  C   UNL A   1      31.009  29.374  24.417  1.00  0.00     0.093 A 
ATOM     18  N   UNL A   1      32.909  28.060  24.184  1.00  0.00    -0.224 NA
ATOM     19  S   UNL A   1      31.030  29.007  22.753  1.00  0.00    -0.105 S 
BRANCH  16  20
ATOM     20  C   UNL A   1      32.570  29.057  26.467  1.00  0.00     0.005 C 
ATOM     21  C   UNL A   1      31.745  28.195  27.439  1.00  0.00     0.017 C 
ATOM     22  C   UNL A   1      32.419  30.536  26.877  1.00  0.00     0.017 C 
ATOM     23  C   UNL A   1      34.031  28.640  26.617  1.00  0.00     0.017 C 
ENDBRANCH  16  20
ENDBRANCH  12  15
ENDBRANCH  10  11
ENDBRANCH   6  10
ENDBRANCH   3   5
ENDBRANCH   2   3
ENDBRANCH   1   2
BRANCH   1  24
ATOM     24  C   UNL A   1      37.926  23.495  25.656  1.00  0.00     0.275 C 
BRANCH  24  25
ATOM     25  O   UNL A   1      38.175  24.529  26.619  1.00  0.00    -0.458 OA
BRANCH  25  26
ATOM     26  C   UNL A   1      39.351  24.372  27.263  1.00  0.00     0.338 C 
ATOM     27  O   UNL A   1      39.851  23.321  27.627  1.00  0.00    -0.246 OA
BRANCH  26  28
ATOM     28  C   UNL A   1      39.902  25.634  27.739  1.00  0.00     0.060 A 
ATOM     29  C   UNL A   1      39.781  25.900  29.105  1.00  0.00     0.016 A 
ATOM     30  C   UNL A   1      40.179  26.640  26.806  1.00  0.00     0.016 A 
ATOM     31  C   UNL A   1      39.840  27.211  29.528  1.00  0.00     0.010 A 
ATOM     32  C   UNL A   1      40.185  27.959  27.225  1.00  0.00     0.010 A 
ATOM     33  C   UNL A   1      39.978  28.239  28.579  1.00  0.00    -0.014 A 
BRANCH  33  34
ATOM     34  C   UNL A   1      40.204  29.595  29.105  1.00  0.00     0.031 A 
ATOM     35  C   UNL A   1      38.819  30.259  29.298  1.00  0.00     0.074 A 
ATOM     36  C   UNL A   1      41.503  30.022  29.248  1.00  0.00     0.049 A 
ATOM     37  N   UNL A   1      38.485  31.507  29.264  1.00  0.00    -0.248 NA
ATOM     38  C   UNL A   1      37.603  29.402  29.481  1.00  0.00     0.031 C 
ATOM     39  C   UNL A   1      42.711  29.180  29.077  1.00  0.00     0.029 A 
ATOM     40  N   UNL A   1      42.093  31.239  29.550  1.00  0.00    -0.354 N 
ATOM     41  C   UNL A   1      37.133  31.595  29.668  1.00  0.00     0.074 A 
ATOM     42  C   UNL A   1      36.604  30.273  29.625  1.00  0.00     0.031 C 
ATOM     43  C   UNL A   1      43.847  29.917  29.133  1.00  0.00     0.029 A 
ATOM     44  C   UNL A   1      43.517  31.301  29.416  1.00  0.00     0.049 A 
ATOM     45  H   UNL A   1      41.563  32.017  29.839  1.00  0.00     0.167 HD
ATOM     46  C   UNL A   1      36.606  32.735  30.201  1.00  0.00     0.037 A 
ATOM     47  C   UNL A   1      44.350  32.393  29.504  1.00  0.00     0.037 A 
ATOM     48  C   UNL A   1      37.592  33.761  30.167  1.00  0.00     0.049 A 
ATOM     49  C   UNL A   1      43.495  33.439  30.072  1.00  0.00     0.074 A 
ATOM     50  C   UNL A   1      38.160  34.424  29.111  1.00  0.00     0.029 A 
ATOM     51  N   UNL A   1      38.410  33.846  31.268  1.00  0.00    -0.354 N 
ATOM     52  N   UNL A   1      43.088  33.456  31.305  1.00  0.00    -0.248 NA
ATOM     53  C   UNL A   1      42.986  34.496  29.191  1.00  0.00     0.031 C 
ATOM     54  C   UNL A   1      39.522  34.424  29.459  1.00  0.00     0.029 A 
ATOM     55  C   UNL A   1      39.675  34.096  30.812  1.00  0.00     0.049 A 
ATOM     56  H   UNL A   1      38.137  33.745  32.209  1.00  0.00     0.167 HD
ATOM     57  C   UNL A   1      41.995  34.277  31.222  1.00  0.00     0.074 A 
ATOM     58  C   UNL A   1      42.199  35.123  30.062  1.00  0.00     0.031 C 
ATOM     59  C   UNL A   1      40.797  33.818  31.672  1.00  0.00     0.037 A 
BRANCH  46  60
ATOM     60  C   UNL A   1      35.389  32.992  31.038  1.00  0.00     0.057 A 
ATOM     61  C   UNL A   1      34.544  34.060  30.654  1.00  0.00     0.134 A 
ATOM     62  C   UNL A   1      35.235  32.531  32.348  1.00  0.00     0.134 A 
ATOM     63  F   UNL A   1      34.572  34.550  29.403  1.00  0.00    -0.206 F 
ATOM     64  C   UNL A   1      33.723  34.730  31.560  1.00  0.00     0.040 A 
ATOM     65  C   UNL A   1      34.373  33.165  33.252  1.00  0.00     0.040 A 
ATOM     66  F   UNL A   1      35.977  31.528  32.834  1.00  0.00    -0.206 F 
ATOM     67  C   UNL A   1      33.652  34.295  32.875  1.00  0.00     0.006 A 
ENDBRANCH  46  60
BRANCH  47  68
ATOM     68  C   UNL A   1      45.776  32.841  29.209  1.00  0.00     0.057 A 
ATOM     69  C   UNL A   1      46.747  33.209  30.142  1.00  0.00     0.134 A 
ATOM     70  C   UNL A   1      46.276  32.796  27.868  1.00  0.00     0.134 A 
ATOM     71  F   UNL A   1      46.430  33.409  31.425  1.00  0.00    -0.206 F 
ATOM     72  C   UNL A   1      48.106  33.397  29.786  1.00  0.00     0.040 A 
ATOM     73  C   UNL A   1      47.623  32.916  27.512  1.00  0.00     0.040 A 
ATOM     74  F   UNL A   1      45.469  32.629  26.811  1.00  0.00    -0.206 F 
ATOM     75  C   UNL A   1      48.557  33.201  28.482  1.00  0.00     0.006 A 
ENDBRANCH  47  68
BRANCH  59  76
ATOM     76  C   UNL A   1      40.880  32.778  32.777  1.00  0.00     0.057 A 
ATOM     77  C   UNL A   1      41.559  33.081  33.968  1.00  0.00     0.134 A 
ATOM     78  C   UNL A   1      40.413  31.458  32.680  1.00  0.00     0.134 A 
ATOM     79  F   UNL A   1      42.015  34.324  34.184  1.00  0.00    -0.206 F 
ATOM     80  C   UNL A   1      41.787  32.129  34.973  1.00  0.00     0.040 A 
ATOM     81  C   UNL A   1      40.636  30.488  33.673  1.00  0.00     0.040 A 
ATOM     82  F   UNL A   1      39.714  31.056  31.621  1.00  0.00    -0.206 F 
ATOM     83  C   UNL A   1      41.334  30.823  34.824  1.00  0.00     0.006 A 
ENDBRANCH  59  76
ENDBRANCH  33  34
ENDBRANCH  26  28
ENDBRANCH  25  26
ENDBRANCH  24  25
ENDBRANCH   1  24
TORSDOF 15
ENDMDL
MODEL 3
REMARK VINA RESULT:     -11.2      1.677      2.048
REMARK SMILES CC(C)(C)c1csc(NC(=O)Cn2cccc2C(=O)OCCOC(=O)c2ccc(-c3c4nc(c(-c5c(F)cccc5F)c5ccc([nH]5)c(-c5c(F)cccc5F)c5nc(c(-c6c(F)cccc6F)c6ccc3[nH]6)C=C5)C=C4)cc2)n1
REMARK SMILES IDX 21 1 20 2 18 3 19 4 17 5 13 6 14 7 15 8 16 9 12 10 10 11
REMARK SMILES IDX 9 12 11 14 8 15 5 16 6 17 80 18 7 19 2 20 1 21 3 22 4 23
REMARK SMILES IDX 22 24 23 25 24 26 25 27 26 28 27 29 79 30 28 31 78 32 29 33
REMARK SMILES IDX 30 34 31 35 72 36 32 37 77 38 71 39 73 40 33 41 76 42 70 43
REMARK SMILES IDX 69 44 34 46 60 47 43 48 59 49 44 50 47 51 58 52 74 53 45 54
REMARK SMILES IDX 46 55 57 57 75 58 48 59 35 60 36 61 41 62 37 63 38 64 40 65
REMARK SMILES IDX 42 66 39 67 61 68 62 69 67 70 63 71 64 72 66 73 68 74 65 75
REMARK SMILES IDX 49 76 50 77 55 78 51 79 52 80 54 81 56 82 53 83
REMARK H PARENT 9 13 73 45 47 56
REMARK Flexibility Score: inf
ROOT
ATOM      1  C   UNL A   1      33.832  28.699  25.823  1.00  0.00     0.275 C 
ENDROOT
BRANCH   1   2
ATOM      2  O   UNL A   1      33.069  27.484  25.930  1.00  0.00    -0.457 OA
BRANCH   2   3
ATOM      3  C   UNL A   1      32.940  26.752  24.796  1.00  0.00     0.355 C 
ATOM      4  O   UNL A   1      33.867  26.150  24.260  1.00  0.00    -0.244 OA
BRANCH   3   5
ATOM      5  C   UNL A   1      31.557  26.681  24.357  1.00  0.00     0.128 A 
ATOM      6  N   UNL A   1      30.695  25.598  24.255  1.00  0.00    -0.333 N 
ATOM      7  C   UNL A   1      29.429  26.074  23.955  1.00  0.00     0.087 A 
ATOM      8  C   UNL A   1      29.530  27.391  23.586  1.00  0.00     0.020 A 
ATOM      9  C   UNL A   1      30.857  27.774  23.850  1.00  0.00     0.035 A 
BRANCH   6  10
ATOM     10  C   UNL A   1      30.927  24.184  24.569  1.00  0.00     0.222 C 
BRANCH  10  11
ATOM     11  C   UNL A   1      31.139  23.793  26.022  1.00  0.00     0.246 C 
ATOM     12  N   UNL A   1      32.189  23.092  26.517  1.00  0.00    -0.300 N 
ATOM     13  H   UNL A   1      32.220  23.086  27.501  1.00  0.00     0.172 HD
ATOM     14  O   UNL A   1      30.258  24.093  26.848  1.00  0.00    -0.273 OA
BRANCH  12  15
ATOM     15  C   UNL A   1      33.211  22.394  25.945  1.00  0.00     0.189 A 
ATOM     16  C   UNL A   1      35.226  22.034  25.085  1.00  0.00     0.059 A 
ATOM     17  C   UNL A   1      34.664  20.782  24.920  1.00  0.00     0.093 A 
ATOM     18  N   UNL A   1      34.373  22.953  25.691  1.00  0.00    -0.224 NA
ATOM     19  S   UNL A   1      33.151  20.720  25.701  1.00  0.00    -0.105 S 
BRANCH  16  20
ATOM     20  C   UNL A   1      36.610  22.477  24.648  1.00  0.00     0.005 C 
ATOM     21  C   UNL A   1      37.115  23.683  25.460  1.00  0.00     0.017 C 
ATOM     22  C   UNL A   1      36.607  22.860  23.154  1.00  0.00     0.017 C 
ATOM     23  C   UNL A   1      37.598  21.333  24.872  1.00  0.00     0.017 C 
ENDBRANCH  16  20
ENDBRANCH  12  15
ENDBRANCH  10  11
ENDBRANCH   6  10
ENDBRANCH   3   5
ENDBRANCH   2   3
ENDBRANCH   1   2
BRANCH   1  24
ATOM     24  C   UNL A   1      34.345  29.194  27.179  1.00  0.00     0.275 C 
BRANCH  24  25
ATOM     25  O   UNL A   1      35.720  28.878  27.441  1.00  0.00    -0.458 OA
BRANCH  25  26
ATOM     26  C   UNL A   1      36.445  29.957  27.803  1.00  0.00     0.338 C 
ATOM     27  O   UNL A   1      36.145  31.128  27.639  1.00  0.00    -0.246 OA
BRANCH  26  28
ATOM     28  C   UNL A   1      37.801  29.611  28.205  1.00  0.00     0.060 A 
ATOM     29  C   UNL A   1      38.787  29.669  27.218  1.00  0.00     0.016 A 
ATOM     30  C   UNL A   1      37.988  28.912  29.404  1.00  0.00     0.016 A 
ATOM     31  C   UNL A   1      39.939  28.931  27.394  1.00  0.00     0.010 A 
ATOM     32  C   UNL A   1      39.120  28.131  29.555  1.00  0.00     0.010 A 
ATOM     33  C   UNL A   1      40.072  28.115  28.531  1.00  0.00    -0.014 A 
BRANCH  33  34
ATOM     34  C   UNL A   1      41.387  27.489  28.742  1.00  0.00     0.031 A 
ATOM     35  C   UNL A   1      41.255  25.990  28.383  1.00  0.00     0.074 A 
ATOM     36  C   UNL A   1      42.398  28.269  29.253  1.00  0.00     0.049 A 
ATOM     37  N   UNL A   1      41.913  24.969  28.823  1.00  0.00    -0.248 NA
ATOM     38  C   UNL A   1      40.173  25.543  27.446  1.00  0.00     0.031 C 
ATOM     39  C   UNL A   1      42.334  29.737  29.458  1.00  0.00     0.029 A 
ATOM     40  N   UNL A   1      43.677  28.012  29.720  1.00  0.00    -0.354 N 
ATOM     41  C   UNL A   1      41.524  23.849  28.054  1.00  0.00     0.074 A 
ATOM     42  C   UNL A   1      40.345  24.225  27.348  1.00  0.00     0.031 C 
ATOM     43  C   UNL A   1      43.426  30.198  30.116  1.00  0.00     0.029 A 
ATOM     44  C   UNL A   1      44.351  29.106  30.350  1.00  0.00     0.049 A 
ATOM     45  H   UNL A   1      44.097  27.127  29.623  1.00  0.00     0.167 HD
ATOM     46  C   UNL A   1      42.324  22.753  27.908  1.00  0.00     0.037 A 
ATOM     47  C   UNL A   1      45.550  29.112  31.027  1.00  0.00     0.037 A 
ATOM     48  C   UNL A   1      43.487  22.918  28.712  1.00  0.00     0.049 A 
ATOM     49  C   UNL A   1      46.143  27.813  30.698  1.00  0.00     0.074 A 
ATOM     50  C   UNL A   1      43.640  22.945  30.073  1.00  0.00     0.029 A 
ATOM     51  N   UNL A   1      44.551  23.545  28.108  1.00  0.00    -0.354 N 
ATOM     52  N   UNL A   1      46.626  27.508  29.532  1.00  0.00    -0.248 NA
ATOM     53  C   UNL A   1      46.123  26.748  31.707  1.00  0.00     0.031 C 
ATOM     54  C   UNL A   1      44.505  24.038  30.254  1.00  0.00     0.029 A 
ATOM     55  C   UNL A   1      45.098  24.390  29.035  1.00  0.00     0.049 A 
ATOM     56  H   UNL A   1      44.861  23.411  27.184  1.00  0.00     0.167 HD
ATOM     57  C   UNL A   1      46.594  26.140  29.571  1.00  0.00     0.074 A 
ATOM     58  C   UNL A   1      46.632  25.763  30.971  1.00  0.00     0.031 C 
ATOM     59  C   UNL A   1      45.936  25.473  28.585  1.00  0.00     0.037 A 
BRANCH  46  60
ATOM     60  C   UNL A   1      42.352  21.648  26.895  1.00  0.00     0.057 A 
ATOM     61  C   UNL A   1      41.709  20.433  27.232  1.00  0.00     0.134 A 
ATOM     62  C   UNL A   1      43.265  21.584  25.840  1.00  0.00     0.134 A 
ATOM     63  F   UNL A   1      40.776  20.389  28.199  1.00  0.00    -0.206 F 
ATOM     64  C   UNL A   1      42.074  19.211  26.671  1.00  0.00     0.040 A 
ATOM     65  C   UNL A   1      43.600  20.367  25.232  1.00  0.00     0.040 A 
ATOM     66  F   UNL A   1      43.941  22.663  25.426  1.00  0.00    -0.206 F 
ATOM     67  C   UNL A   1      43.042  19.172  25.679  1.00  0.00     0.006 A 
ENDBRANCH  46  60
BRANCH  47  68
ATOM     68  C   UNL A   1      46.398  29.971  31.957  1.00  0.00     0.057 A 
ATOM     69  C   UNL A   1      47.733  30.334  31.774  1.00  0.00     0.134 A 
ATOM     70  C   UNL A   1      45.798  30.595  33.097  1.00  0.00     0.134 A 
ATOM     71  F   UNL A   1      48.480  29.762  30.824  1.00  0.00    -0.206 F 
ATOM     72  C   UNL A   1      48.368  31.314  32.578  1.00  0.00     0.040 A 
ATOM     73  C   UNL A   1      46.391  31.608  33.858  1.00  0.00     0.040 A 
ATOM     74  F   UNL A   1      44.581  30.252  33.542  1.00  0.00    -0.206 F 
ATOM     75  C   UNL A   1      47.684  31.989  33.588  1.00  0.00     0.006 A 
ENDBRANCH  47  68
BRANCH  59  76
ATOM     76  C   UNL A   1      45.877  26.194  27.248  1.00  0.00     0.057 A 
ATOM     77  C   UNL A   1      47.068  26.582  26.614  1.00  0.00     0.134 A 
ATOM     78  C   UNL A   1      44.701  26.616  26.608  1.00  0.00     0.134 A 
ATOM     79  F   UNL A   1      48.252  26.201  27.118  1.00  0.00    -0.206 F 
ATOM     80  C   UNL A   1      47.087  27.363  25.449  1.00  0.00     0.040 A 
ATOM     81  C   UNL A   1      44.699  27.403  25.444  1.00  0.00     0.040 A 
ATOM     82  F   UNL A   1      43.505  26.274  27.082  1.00  0.00    -0.206 F 
ATOM     83  C   UNL A   1      45.899  27.786  24.864  1.00  0.00     0.006 A 
ENDBRANCH  59  76
ENDBRANCH  33  34
ENDBRANCH  26  28
ENDBRANCH  25  26
ENDBRANCH  24  25
ENDBRANCH   1  24
TORSDOF 15
ENDMDL
