MODEL 1
REMARK VINA RESULT:     -12.2      0.000      0.000
REMARK SMILES Cc1nc2cc(S(=O)(=O)N3CCC(C(=O)OCCOC(=O)c4ccc(-c5c6nc(c(-c7c(F)cccc7F)c7ccc([nH]7)c(-c7c(F)cccc7F)c7nc(c(-c8c(F)cccc8F)c8ccc5[nH]8)C=C7)C=C6)cc4)CC3)ccc2n1C1CCCC1
REMARK SMILES IDX 17 1 16 2 14 3 15 4 13 5 10 6 11 7 77 8 12 9 76 10 7 11 8 12
REMARK SMILES IDX 9 13 6 14 1 15 2 16 3 17 81 18 4 19 80 20 5 21 79 22 78 23
REMARK SMILES IDX 82 24 83 25 86 26 84 27 85 28 18 29 19 30 20 31 21 32 22 33
REMARK SMILES IDX 23 34 75 35 24 36 74 37 25 38 26 39 27 40 68 41 28 42 73 43
REMARK SMILES IDX 67 44 69 45 29 46 72 47 66 48 65 49 30 51 56 52 39 53 55 54
REMARK SMILES IDX 40 55 43 56 54 57 70 58 41 59 42 60 53 62 71 63 44 64 31 65
REMARK SMILES IDX 32 66 37 67 33 68 34 69 36 70 38 71 35 72 57 73 58 74 63 75
REMARK SMILES IDX 59 76 60 77 62 78 64 79 61 80 45 81 46 82 51 83 47 84 48 85
REMARK SMILES IDX 50 86 52 87 49 88
REMARK H PARENT 69 50 43 61
REMARK Flexibility Score: inf
ROOT
ATOM      1  C   UNL A   1      31.771  29.847  26.933  1.00  0.00     0.274 C 
ENDROOT
BRANCH   1   2
ATOM      2  O   UNL A   1      32.221  28.741  26.124  1.00  0.00    -0.462 OA
BRANCH   2   3
ATOM      3  C   UNL A   1      31.728  27.521  26.449  1.00  0.00     0.309 C 
ATOM      4  O   UNL A   1      30.777  27.323  27.197  1.00  0.00    -0.252 OA
BRANCH   3   5
ATOM      5  C   UNL A   1      32.420  26.395  25.715  1.00  0.00     0.102 C 
ATOM      6  N   UNL A   1      34.138  24.266  24.858  1.00  0.00    -0.198 NA
ATOM      7  C   UNL A   1      34.135  25.535  24.086  1.00  0.00     0.103 C 
ATOM      8  C   UNL A   1      32.958  23.989  25.702  1.00  0.00     0.103 C 
ATOM      9  C   UNL A   1      33.695  26.725  24.947  1.00  0.00     0.032 C 
ATOM     10  C   UNL A   1      32.657  25.185  26.601  1.00  0.00     0.032 C 
BRANCH   6  11
ATOM     11  S   UNL A   1      34.912  22.906  24.168  1.00  0.00     0.243 S 
ATOM     12  O   UNL A   1      35.187  23.229  22.787  1.00  0.00    -0.207 OA
ATOM     13  O   UNL A   1      34.128  21.740  24.529  1.00  0.00    -0.207 OA
BRANCH  11  14
ATOM     14  C   UNL A   1      36.501  22.691  24.952  1.00  0.00     0.085 A 
ATOM     15  C   UNL A   1      41.091  24.626  28.284  1.00  0.00     0.088 C 
ATOM     16  C   UNL A   1      40.031  23.982  27.465  1.00  0.00     0.106 A 
ATOM     17  N   UNL A   1      38.873  24.536  27.168  1.00  0.00    -0.233 NA
ATOM     18  N   UNL A   1      40.135  22.724  26.905  1.00  0.00    -0.325 N 
ATOM     19  C   UNL A   1      38.215  23.640  26.369  1.00  0.00     0.090 A 
ATOM     20  C   UNL A   1      38.983  22.496  26.177  1.00  0.00     0.068 A 
ATOM     21  C   UNL A   1      36.956  23.748  25.758  1.00  0.00     0.052 A 
ATOM     22  C   UNL A   1      38.541  21.433  25.381  1.00  0.00     0.030 A 
ATOM     23  C   UNL A   1      37.285  21.553  24.780  1.00  0.00     0.024 A 
BRANCH  18  24
ATOM     24  C   UNL A   1      41.265  21.823  27.042  1.00  0.00     0.089 C 
ATOM     25  C   UNL A   1      40.900  20.344  27.165  1.00  0.00     0.025 C 
ATOM     26  C   UNL A   1      42.254  21.882  25.876  1.00  0.00     0.025 C 
ATOM     27  C   UNL A   1      42.178  19.611  26.791  1.00  0.00     0.002 C 
ATOM     28  C   UNL A   1      42.984  20.545  25.896  1.00  0.00     0.002 C 
ENDBRANCH  18  24
ENDBRANCH  11  14
ENDBRANCH   6  11
ENDBRANCH   3   5
ENDBRANCH   2   3
ENDBRANCH   1   2
BRANCH   1  29
ATOM     29  C   UNL A   1      32.801  30.980  26.871  1.00  0.00     0.275 C 
BRANCH  29  30
ATOM     30  O   UNL A   1      33.981  30.575  27.587  1.00  0.00    -0.458 OA
BRANCH  30  31
ATOM     31  C   UNL A   1      34.981  31.486  27.680  1.00  0.00     0.338 C 
ATOM     32  O   UNL A   1      34.880  32.699  27.610  1.00  0.00    -0.246 OA
BRANCH  31  33
ATOM     33  C   UNL A   1      36.169  30.789  28.230  1.00  0.00     0.060 A 
ATOM     34  C   UNL A   1      37.181  31.480  28.897  1.00  0.00     0.016 A 
ATOM     35  C   UNL A   1      36.365  29.455  27.852  1.00  0.00     0.016 A 
ATOM     36  C   UNL A   1      38.442  30.899  29.012  1.00  0.00     0.010 A 
ATOM     37  C   UNL A   1      37.632  28.881  27.968  1.00  0.00     0.010 A 
ATOM     38  C   UNL A   1      38.700  29.630  28.466  1.00  0.00    -0.014 A 
BRANCH  38  39
ATOM     39  C   UNL A   1      40.001  29.002  28.736  1.00  0.00     0.031 A 
ATOM     40  C   UNL A   1      40.196  28.851  30.194  1.00  0.00     0.074 A 
ATOM     41  C   UNL A   1      40.967  28.558  27.898  1.00  0.00     0.049 A 
ATOM     42  N   UNL A   1      40.937  29.606  30.929  1.00  0.00    -0.248 NA
ATOM     43  C   UNL A   1      39.343  27.921  30.941  1.00  0.00     0.031 C 
ATOM     44  C   UNL A   1      40.953  28.437  26.448  1.00  0.00     0.029 A 
ATOM     45  N   UNL A   1      42.214  28.076  28.211  1.00  0.00    -0.354 N 
ATOM     46  C   UNL A   1      40.787  29.145  32.225  1.00  0.00     0.074 A 
ATOM     47  C   UNL A   1      39.690  28.211  32.197  1.00  0.00     0.031 C 
ATOM     48  C   UNL A   1      42.015  27.706  26.022  1.00  0.00     0.029 A 
ATOM     49  C   UNL A   1      42.903  27.479  27.151  1.00  0.00     0.049 A 
ATOM     50  H   UNL A   1      42.595  28.144  29.116  1.00  0.00     0.167 HD
ATOM     51  C   UNL A   1      41.730  29.426  33.161  1.00  0.00     0.037 A 
ATOM     52  C   UNL A   1      44.139  26.908  27.177  1.00  0.00     0.037 A 
ATOM     53  C   UNL A   1      42.597  30.491  32.716  1.00  0.00     0.049 A 
ATOM     54  C   UNL A   1      44.863  27.496  28.321  1.00  0.00     0.074 A 
ATOM     55  C   UNL A   1      42.444  31.828  32.415  1.00  0.00     0.029 A 
ATOM     56  N   UNL A   1      43.797  30.112  32.171  1.00  0.00    -0.354 N 
ATOM     57  N   UNL A   1      45.290  28.724  28.351  1.00  0.00    -0.248 NA
ATOM     58  C   UNL A   1      44.772  26.829  29.607  1.00  0.00     0.031 C 
ATOM     59  C   UNL A   1      43.353  32.080  31.343  1.00  0.00     0.029 A 
ATOM     60  C   UNL A   1      44.046  30.898  31.080  1.00  0.00     0.049 A 
ATOM     61  H   UNL A   1      44.381  29.395  32.508  1.00  0.00     0.167 HD
ATOM     62  C   UNL A   1      45.061  29.132  29.653  1.00  0.00     0.074 A 
ATOM     63  C   UNL A   1      44.859  27.895  30.406  1.00  0.00     0.031 C 
ATOM     64  C   UNL A   1      44.781  30.440  29.925  1.00  0.00     0.037 A 
BRANCH  51  65
ATOM     65  C   UNL A   1      42.149  28.477  34.254  1.00  0.00     0.057 A 
ATOM     66  C   UNL A   1      41.756  28.601  35.599  1.00  0.00     0.134 A 
ATOM     67  C   UNL A   1      42.663  27.218  33.893  1.00  0.00     0.134 A 
ATOM     68  F   UNL A   1      41.199  29.715  36.082  1.00  0.00    -0.206 F 
ATOM     69  C   UNL A   1      41.810  27.541  36.505  1.00  0.00     0.040 A 
ATOM     70  C   UNL A   1      42.675  26.136  34.779  1.00  0.00     0.040 A 
ATOM     71  F   UNL A   1      43.074  26.976  32.640  1.00  0.00    -0.206 F 
ATOM     72  C   UNL A   1      42.233  26.291  36.086  1.00  0.00     0.006 A 
ENDBRANCH  51  65
BRANCH  52  73
ATOM     73  C   UNL A   1      44.727  25.767  26.432  1.00  0.00     0.057 A 
ATOM     74  C   UNL A   1      44.763  24.487  27.004  1.00  0.00     0.134 A 
ATOM     75  C   UNL A   1      45.569  25.965  25.320  1.00  0.00     0.134 A 
ATOM     76  F   UNL A   1      44.053  24.216  28.109  1.00  0.00    -0.206 F 
ATOM     77  C   UNL A   1      45.609  23.476  26.528  1.00  0.00     0.040 A 
ATOM     78  C   UNL A   1      46.421  24.962  24.833  1.00  0.00     0.040 A 
ATOM     79  F   UNL A   1      45.645  27.164  24.725  1.00  0.00    -0.206 F 
ATOM     80  C   UNL A   1      46.455  23.716  25.449  1.00  0.00     0.006 A 
ENDBRANCH  52  73
BRANCH  64  81
ATOM     81  C   UNL A   1      45.078  31.447  28.849  1.00  0.00     0.057 A 
ATOM     82  C   UNL A   1      46.226  32.236  28.983  1.00  0.00     0.134 A 
ATOM     83  C   UNL A   1      44.242  31.725  27.757  1.00  0.00     0.134 A 
ATOM     84  F   UNL A   1      47.049  32.059  30.029  1.00  0.00    -0.206 F 
ATOM     85  C   UNL A   1      46.541  33.245  28.071  1.00  0.00     0.040 A 
ATOM     86  C   UNL A   1      44.564  32.710  26.816  1.00  0.00     0.040 A 
ATOM     87  F   UNL A   1      43.076  31.083  27.592  1.00  0.00    -0.206 F 
ATOM     88  C   UNL A   1      45.714  33.476  26.975  1.00  0.00     0.006 A 
ENDBRANCH  64  81
ENDBRANCH  38  39
ENDBRANCH  31  33
ENDBRANCH  30  31
ENDBRANCH  29  30
ENDBRANCH   1  29
TORSDOF 14
ENDMDL
MODEL 2
REMARK VINA RESULT:     -11.8      2.599      8.589
REMARK SMILES Cc1nc2cc(S(=O)(=O)N3CCC(C(=O)OCCOC(=O)c4ccc(-c5c6nc(c(-c7c(F)cccc7F)c7ccc([nH]7)c(-c7c(F)cccc7F)c7nc(c(-c8c(F)cccc8F)c8ccc5[nH]8)C=C7)C=C6)cc4)CC3)ccc2n1C1CCCC1
REMARK SMILES IDX 17 1 16 2 14 3 15 4 13 5 10 6 11 7 77 8 12 9 76 10 7 11 8 12
REMARK SMILES IDX 9 13 6 14 1 15 2 16 3 17 81 18 4 19 80 20 5 21 79 22 78 23
REMARK SMILES IDX 82 24 83 25 86 26 84 27 85 28 18 29 19 30 20 31 21 32 22 33
REMARK SMILES IDX 23 34 75 35 24 36 74 37 25 38 26 39 27 40 68 41 28 42 73 43
REMARK SMILES IDX 67 44 69 45 29 46 72 47 66 48 65 49 30 51 56 52 39 53 55 54
REMARK SMILES IDX 40 55 43 56 54 57 70 58 41 59 42 60 53 62 71 63 44 64 31 65
REMARK SMILES IDX 32 66 37 67 33 68 34 69 36 70 38 71 35 72 57 73 58 74 63 75
REMARK SMILES IDX 59 76 60 77 62 78 64 79 61 80 45 81 46 82 51 83 47 84 48 85
REMARK SMILES IDX 50 86 52 87 49 88
REMARK H PARENT 69 50 43 61
REMARK Flexibility Score: inf
ROOT
ATOM      1  C   UNL A   1      37.056  21.372  24.569  1.00  0.00     0.274 C 
ENDROOT
BRANCH   1   2
ATOM      2  O   UNL A   1      36.154  22.445  24.912  1.00  0.00    -0.462 OA
BRANCH   2   3
ATOM      3  C   UNL A   1      35.758  23.244  23.891  1.00  0.00     0.309 C 
ATOM      4  O   UNL A   1      36.025  23.058  22.709  1.00  0.00    -0.252 OA
BRANCH   3   5
ATOM      5  C   UNL A   1      34.856  24.369  24.344  1.00  0.00     0.102 C 
ATOM      6  N   UNL A   1      32.662  26.044  25.118  1.00  0.00    -0.198 NA
ATOM      7  C   UNL A   1      33.406  26.372  23.875  1.00  0.00     0.103 C 
ATOM      8  C   UNL A   1      33.354  25.199  26.114  1.00  0.00     0.103 C 
ATOM      9  C   UNL A   1      34.086  25.137  23.274  1.00  0.00     0.032 C 
ATOM     10  C   UNL A   1      33.906  23.942  25.448  1.00  0.00     0.032 C 
BRANCH   6  11
ATOM     11  S   UNL A   1      31.577  27.210  25.739  1.00  0.00     0.243 S 
ATOM     12  O   UNL A   1      30.890  26.600  26.855  1.00  0.00    -0.207 OA
ATOM     13  O   UNL A   1      30.847  27.758  24.611  1.00  0.00    -0.207 OA
BRANCH  11  14
ATOM     14  C   UNL A   1      32.518  28.566  26.420  1.00  0.00     0.085 A 
ATOM     15  C   UNL A   1      37.553  30.976  28.601  1.00  0.00     0.088 C 
ATOM     16  C   UNL A   1      36.236  30.546  28.061  1.00  0.00     0.106 A 
ATOM     17  N   UNL A   1      35.990  29.363  27.538  1.00  0.00    -0.233 NA
ATOM     18  N   UNL A   1      35.103  31.336  28.052  1.00  0.00    -0.325 N 
ATOM     19  C   UNL A   1      34.662  29.360  27.208  1.00  0.00     0.090 A 
ATOM     20  C   UNL A   1      34.073  30.579  27.526  1.00  0.00     0.068 A 
ATOM     21  C   UNL A   1      33.886  28.336  26.643  1.00  0.00     0.052 A 
ATOM     22  C   UNL A   1      32.713  30.826  27.304  1.00  0.00     0.030 A 
ATOM     23  C   UNL A   1      31.953  29.797  26.740  1.00  0.00     0.024 A 
BRANCH  18  24
ATOM     24  C   UNL A   1      35.014  32.702  28.534  1.00  0.00     0.089 C 
ATOM     25  C   UNL A   1      33.883  33.529  27.925  1.00  0.00     0.025 C 
ATOM     26  C   UNL A   1      34.808  32.819  30.046  1.00  0.00     0.025 C 
ATOM     27  C   UNL A   1      33.685  34.674  28.906  1.00  0.00     0.002 C 
ATOM     28  C   UNL A   1      34.177  34.188  30.265  1.00  0.00     0.002 C 
ENDBRANCH  18  24
ENDBRANCH  11  14
ENDBRANCH   6  11
ENDBRANCH   3   5
ENDBRANCH   2   3
ENDBRANCH   1   2
BRANCH   1  29
ATOM     29  C   UNL A   1      38.143  21.254  25.642  1.00  0.00     0.275 C 
BRANCH  29  30
ATOM     30  O   UNL A   1      38.662  22.565  25.925  1.00  0.00    -0.458 OA
BRANCH  30  31
ATOM     31  C   UNL A   1      39.908  22.628  26.456  1.00  0.00     0.338 C 
ATOM     32  O   UNL A   1      40.899  22.028  26.076  1.00  0.00    -0.246 OA
BRANCH  31  33
ATOM     33  C   UNL A   1      39.952  23.809  27.351  1.00  0.00     0.060 A 
ATOM     34  C   UNL A   1      38.928  24.757  27.366  1.00  0.00     0.016 A 
ATOM     35  C   UNL A   1      41.161  24.076  28.006  1.00  0.00     0.016 A 
ATOM     36  C   UNL A   1      39.185  26.031  27.869  1.00  0.00     0.010 A 
ATOM     37  C   UNL A   1      41.411  25.355  28.505  1.00  0.00     0.010 A 
ATOM     38  C   UNL A   1      40.459  26.365  28.359  1.00  0.00    -0.014 A 
BRANCH  38  39
ATOM     39  C   UNL A   1      40.640  27.672  29.006  1.00  0.00     0.031 A 
ATOM     40  C   UNL A   1      41.685  28.445  28.302  1.00  0.00     0.074 A 
ATOM     41  C   UNL A   1      40.016  28.233  30.068  1.00  0.00     0.049 A 
ATOM     42  N   UNL A   1      42.897  28.602  28.710  1.00  0.00    -0.248 NA
ATOM     43  C   UNL A   1      41.437  28.910  26.934  1.00  0.00     0.031 C 
ATOM     44  C   UNL A   1      38.861  27.764  30.819  1.00  0.00     0.029 A 
ATOM     45  N   UNL A   1      40.302  29.419  30.699  1.00  0.00    -0.354 N 
ATOM     46  C   UNL A   1      43.537  29.340  27.729  1.00  0.00     0.074 A 
ATOM     47  C   UNL A   1      42.643  29.375  26.600  1.00  0.00     0.031 C 
ATOM     48  C   UNL A   1      38.395  28.745  31.635  1.00  0.00     0.029 A 
ATOM     49  C   UNL A   1      39.343  29.847  31.621  1.00  0.00     0.049 A 
ATOM     50  H   UNL A   1      41.121  29.932  30.514  1.00  0.00     0.167 HD
ATOM     51  C   UNL A   1      44.666  30.034  28.028  1.00  0.00     0.037 A 
ATOM     52  C   UNL A   1      39.358  30.983  32.372  1.00  0.00     0.037 A 
ATOM     53  C   UNL A   1      45.226  29.594  29.283  1.00  0.00     0.049 A 
ATOM     54  C   UNL A   1      40.768  31.407  32.487  1.00  0.00     0.074 A 
ATOM     55  C   UNL A   1      45.773  28.422  29.764  1.00  0.00     0.029 A 
ATOM     56  N   UNL A   1      44.923  30.352  30.385  1.00  0.00    -0.354 N 
ATOM     57  N   UNL A   1      41.656  30.775  33.194  1.00  0.00    -0.248 NA
ATOM     58  C   UNL A   1      41.291  32.324  31.491  1.00  0.00     0.031 C 
ATOM     59  C   UNL A   1      45.383  28.358  31.135  1.00  0.00     0.029 A 
ATOM     60  C   UNL A   1      44.661  29.514  31.433  1.00  0.00     0.049 A 
ATOM     61  H   UNL A   1      44.900  31.336  30.416  1.00  0.00     0.167 HD
ATOM     62  C   UNL A   1      42.808  30.840  32.431  1.00  0.00     0.074 A 
ATOM     63  C   UNL A   1      42.558  31.904  31.460  1.00  0.00     0.031 C 
ATOM     64  C   UNL A   1      43.728  29.833  32.488  1.00  0.00     0.037 A 
BRANCH  51  65
ATOM     65  C   UNL A   1      45.016  31.376  27.440  1.00  0.00     0.057 A 
ATOM     66  C   UNL A   1      44.364  32.577  27.774  1.00  0.00     0.134 A 
ATOM     67  C   UNL A   1      46.258  31.527  26.797  1.00  0.00     0.134 A 
ATOM     68  F   UNL A   1      43.204  32.602  28.436  1.00  0.00    -0.206 F 
ATOM     69  C   UNL A   1      44.926  33.835  27.544  1.00  0.00     0.040 A 
ATOM     70  C   UNL A   1      46.852  32.779  26.607  1.00  0.00     0.040 A 
ATOM     71  F   UNL A   1      46.976  30.457  26.426  1.00  0.00    -0.206 F 
ATOM     72  C   UNL A   1      46.193  33.938  26.995  1.00  0.00     0.006 A 
ENDBRANCH  51  65
BRANCH  52  73
ATOM     73  C   UNL A   1      38.274  31.867  32.868  1.00  0.00     0.057 A 
ATOM     74  C   UNL A   1      37.886  32.997  32.133  1.00  0.00     0.134 A 
ATOM     75  C   UNL A   1      37.845  31.832  34.209  1.00  0.00     0.134 A 
ATOM     76  F   UNL A   1      38.301  33.162  30.869  1.00  0.00    -0.206 F 
ATOM     77  C   UNL A   1      37.152  34.046  32.703  1.00  0.00     0.040 A 
ATOM     78  C   UNL A   1      37.111  32.875  34.792  1.00  0.00     0.040 A 
ATOM     79  F   UNL A   1      38.199  30.819  35.013  1.00  0.00    -0.206 F 
ATOM     80  C   UNL A   1      36.776  33.997  34.042  1.00  0.00     0.006 A 
ENDBRANCH  52  73
BRANCH  64  81
ATOM     81  C   UNL A   1      43.626  28.868  33.635  1.00  0.00     0.057 A 
ATOM     82  C   UNL A   1      44.499  29.032  34.716  1.00  0.00     0.134 A 
ATOM     83  C   UNL A   1      42.776  27.750  33.670  1.00  0.00     0.134 A 
ATOM     84  F   UNL A   1      45.372  30.051  34.730  1.00  0.00    -0.206 F 
ATOM     85  C   UNL A   1      44.524  28.140  35.789  1.00  0.00     0.040 A 
ATOM     86  C   UNL A   1      42.767  26.869  34.757  1.00  0.00     0.040 A 
ATOM     87  F   UNL A   1      41.967  27.459  32.642  1.00  0.00    -0.206 F 
ATOM     88  C   UNL A   1      43.645  27.060  35.819  1.00  0.00     0.006 A 
ENDBRANCH  64  81
ENDBRANCH  38  39
ENDBRANCH  31  33
ENDBRANCH  30  31
ENDBRANCH  29  30
ENDBRANCH   1  29
TORSDOF 14
ENDMDL
MODEL 3
REMARK VINA RESULT:     -11.5      2.872      8.971
REMARK SMILES Cc1nc2cc(S(=O)(=O)N3CCC(C(=O)OCCOC(=O)c4ccc(-c5c6nc(c(-c7c(F)cccc7F)c7ccc([nH]7)c(-c7c(F)cccc7F)c7nc(c(-c8c(F)cccc8F)c8ccc5[nH]8)C=C7)C=C6)cc4)CC3)ccc2n1C1CCCC1
REMARK SMILES IDX 17 1 16 2 14 3 15 4 13 5 10 6 11 7 77 8 12 9 76 10 7 11 8 12
REMARK SMILES IDX 9 13 6 14 1 15 2 16 3 17 81 18 4 19 80 20 5 21 79 22 78 23
REMARK SMILES IDX 82 24 83 25 86 26 84 27 85 28 18 29 19 30 20 31 21 32 22 33
REMARK SMILES IDX 23 34 75 35 24 36 74 37 25 38 26 39 27 40 68 41 28 42 73 43
REMARK SMILES IDX 67 44 69 45 29 46 72 47 66 48 65 49 30 51 56 52 39 53 55 54
REMARK SMILES IDX 40 55 43 56 54 57 70 58 41 59 42 60 53 62 71 63 44 64 31 65
REMARK SMILES IDX 32 66 37 67 33 68 34 69 36 70 38 71 35 72 57 73 58 74 63 75
REMARK SMILES IDX 59 76 60 77 62 78 64 79 61 80 45 81 46 82 51 83 47 84 48 85
REMARK SMILES IDX 50 86 52 87 49 88
REMARK H PARENT 69 50 43 61
REMARK Flexibility Score: inf
ROOT
ATOM      1  C   UNL A   1      40.087  21.406  26.850  1.00  0.00     0.274 C 
ENDROOT
BRANCH   1   2
ATOM      2  O   UNL A   1      39.159  21.821  25.826  1.00  0.00    -0.462 OA
BRANCH   2   3
ATOM      3  C   UNL A   1      38.365  22.877  26.130  1.00  0.00     0.309 C 
ATOM      4  O   UNL A   1      38.696  23.827  26.831  1.00  0.00    -0.252 OA
BRANCH   3   5
ATOM      5  C   UNL A   1      37.025  22.822  25.432  1.00  0.00     0.102 C 
ATOM      6  N   UNL A   1      34.617  23.362  23.973  1.00  0.00    -0.198 NA
ATOM      7  C   UNL A   1      34.520  23.060  25.424  1.00  0.00     0.103 C 
ATOM      8  C   UNL A   1      35.839  22.913  23.273  1.00  0.00     0.103 C 
ATOM      9  C   UNL A   1      35.818  23.399  26.165  1.00  0.00     0.032 C 
ATOM     10  C   UNL A   1      37.082  23.383  24.023  1.00  0.00     0.032 C 
BRANCH   6  11
ATOM     11  S   UNL A   1      33.176  23.367  23.052  1.00  0.00     0.243 S 
ATOM     12  O   UNL A   1      32.261  22.448  23.691  1.00  0.00    -0.207 OA
ATOM     13  O   UNL A   1      33.558  23.209  21.661  1.00  0.00    -0.207 OA
BRANCH  11  14
ATOM     14  C   UNL A   1      32.422  24.980  23.175  1.00  0.00     0.085 A 
ATOM     15  C   UNL A   1      31.691  30.322  25.791  1.00  0.00     0.088 C 
ATOM     16  C   UNL A   1      31.769  29.061  25.007  1.00  0.00     0.106 A 
ATOM     17  N   UNL A   1      32.609  28.076  25.253  1.00  0.00    -0.233 NA
ATOM     18  N   UNL A   1      30.960  28.763  23.928  1.00  0.00    -0.325 N 
ATOM     19  C   UNL A   1      32.325  27.096  24.340  1.00  0.00     0.090 A 
ATOM     20  C   UNL A   1      31.290  27.491  23.499  1.00  0.00     0.068 A 
ATOM     21  C   UNL A   1      32.909  25.830  24.182  1.00  0.00     0.052 A 
ATOM     22  C   UNL A   1      30.798  26.659  22.488  1.00  0.00     0.030 A 
ATOM     23  C   UNL A   1      31.389  25.400  22.342  1.00  0.00     0.024 A 
BRANCH  18  24
ATOM     24  C   UNL A   1      29.935  29.626  23.370  1.00  0.00     0.089 C 
ATOM     25  C   UNL A   1      30.184  30.076  21.930  1.00  0.00     0.025 C 
ATOM     26  C   UNL A   1      28.539  29.001  23.343  1.00  0.00     0.025 C 
ATOM     27  C   UNL A   1      28.814  30.506  21.430  1.00  0.00     0.002 C 
ATOM     28  C   UNL A   1      27.779  29.749  22.255  1.00  0.00     0.002 C 
ENDBRANCH  18  24
ENDBRANCH  11  14
ENDBRANCH   6  11
ENDBRANCH   3   5
ENDBRANCH   2   3
ENDBRANCH   1   2
BRANCH   1  29
ATOM     29  C   UNL A   1      41.490  21.279  26.248  1.00  0.00     0.275 C 
BRANCH  29  30
ATOM     30  O   UNL A   1      42.305  22.360  26.735  1.00  0.00    -0.458 OA
BRANCH  30  31
ATOM     31  C   UNL A   1      42.822  23.202  25.807  1.00  0.00     0.338 C 
ATOM     32  O   UNL A   1      43.066  22.949  24.640  1.00  0.00    -0.246 OA
BRANCH  31  33
ATOM     33  C   UNL A   1      42.713  24.579  26.346  1.00  0.00     0.060 A 
ATOM     34  C   UNL A   1      43.261  24.929  27.581  1.00  0.00     0.016 A 
ATOM     35  C   UNL A   1      41.838  25.458  25.695  1.00  0.00     0.016 A 
ATOM     36  C   UNL A   1      42.787  26.062  28.241  1.00  0.00     0.010 A 
ATOM     37  C   UNL A   1      41.366  26.588  26.364  1.00  0.00     0.010 A 
ATOM     38  C   UNL A   1      41.768  26.848  27.675  1.00  0.00    -0.014 A 
BRANCH  38  39
ATOM     39  C   UNL A   1      41.404  28.106  28.341  1.00  0.00     0.031 A 
ATOM     40  C   UNL A   1      42.422  29.140  28.062  1.00  0.00     0.074 A 
ATOM     41  C   UNL A   1      40.334  28.432  29.105  1.00  0.00     0.049 A 
ATOM     42  N   UNL A   1      43.342  29.521  28.880  1.00  0.00    -0.248 NA
ATOM     43  C   UNL A   1      42.573  29.651  26.695  1.00  0.00     0.031 C 
ATOM     44  C   UNL A   1      39.129  27.667  29.388  1.00  0.00     0.029 A 
ATOM     45  N   UNL A   1      40.098  29.597  29.792  1.00  0.00    -0.354 N 
ATOM     46  C   UNL A   1      44.099  30.456  28.196  1.00  0.00     0.074 A 
ATOM     47  C   UNL A   1      43.678  30.389  26.819  1.00  0.00     0.031 C 
ATOM     48  C   UNL A   1      38.193  28.455  29.977  1.00  0.00     0.029 A 
ATOM     49  C   UNL A   1      38.805  29.733  30.304  1.00  0.00     0.049 A 
ATOM     50  H   UNL A   1      40.790  30.287  29.916  1.00  0.00     0.167 HD
ATOM     51  C   UNL A   1      44.858  31.350  28.881  1.00  0.00     0.037 A 
ATOM     52  C   UNL A   1      38.293  30.781  31.008  1.00  0.00     0.037 A 
ATOM     53  C   UNL A   1      45.024  30.940  30.255  1.00  0.00     0.049 A 
ATOM     54  C   UNL A   1      39.434  31.487  31.624  1.00  0.00     0.074 A 
ATOM     55  C   UNL A   1      45.621  29.878  30.904  1.00  0.00     0.029 A 
ATOM     56  N   UNL A   1      44.187  31.524  31.171  1.00  0.00    -0.354 N 
ATOM     57  N   UNL A   1      40.136  31.005  32.606  1.00  0.00    -0.248 NA
ATOM     58  C   UNL A   1      40.050  32.573  30.883  1.00  0.00     0.031 C 
ATOM     59  C   UNL A   1      44.797  29.621  32.041  1.00  0.00     0.029 A 
ATOM     60  C   UNL A   1      43.772  30.567  32.054  1.00  0.00     0.049 A 
ATOM     61  H   UNL A   1      43.929  32.474  31.189  1.00  0.00     0.167 HD
ATOM     62  C   UNL A   1      41.435  31.378  32.312  1.00  0.00     0.074 A 
ATOM     63  C   UNL A   1      41.306  32.438  31.314  1.00  0.00     0.031 C 
ATOM     64  C   UNL A   1      42.481  30.591  32.700  1.00  0.00     0.037 A 
BRANCH  51  65
ATOM     65  C   UNL A   1      45.075  32.779  28.457  1.00  0.00     0.057 A 
ATOM     66  C   UNL A   1      46.257  33.253  27.859  1.00  0.00     0.134 A 
ATOM     67  C   UNL A   1      43.955  33.619  28.318  1.00  0.00     0.134 A 
ATOM     68  F   UNL A   1      47.391  32.547  27.857  1.00  0.00    -0.206 F 
ATOM     69  C   UNL A   1      46.313  34.440  27.126  1.00  0.00     0.040 A 
ATOM     70  C   UNL A   1      43.988  34.783  27.545  1.00  0.00     0.040 A 
ATOM     71  F   UNL A   1      42.770  33.279  28.846  1.00  0.00    -0.206 F 
ATOM     72  C   UNL A   1      45.166  35.189  26.932  1.00  0.00     0.006 A 
ENDBRANCH  51  65
BRANCH  52  73
ATOM     73  C   UNL A   1      36.932  31.368  31.076  1.00  0.00     0.057 A 
ATOM     74  C   UNL A   1      36.404  32.067  29.981  1.00  0.00     0.134 A 
ATOM     75  C   UNL A   1      36.270  31.563  32.304  1.00  0.00     0.134 A 
ATOM     76  F   UNL A   1      37.002  32.007  28.782  1.00  0.00    -0.206 F 
ATOM     77  C   UNL A   1      35.312  32.938  30.102  1.00  0.00     0.040 A 
ATOM     78  C   UNL A   1      35.176  32.431  32.440  1.00  0.00     0.040 A 
ATOM     79  F   UNL A   1      36.719  30.977  33.422  1.00  0.00    -0.206 F 
ATOM     80  C   UNL A   1      34.704  33.136  31.338  1.00  0.00     0.006 A 
ENDBRANCH  52  73
BRANCH  64  81
ATOM     81  C   UNL A   1      42.204  29.537  33.734  1.00  0.00     0.057 A 
ATOM     82  C   UNL A   1      42.505  29.827  35.070  1.00  0.00     0.134 A 
ATOM     83  C   UNL A   1      41.748  28.239  33.455  1.00  0.00     0.134 A 
ATOM     84  F   UNL A   1      42.991  31.033  35.406  1.00  0.00    -0.206 F 
ATOM     85  C   UNL A   1      42.350  28.882  36.085  1.00  0.00     0.040 A 
ATOM     86  C   UNL A   1      41.554  27.294  34.469  1.00  0.00     0.040 A 
ATOM     87  F   UNL A   1      41.516  27.838  32.197  1.00  0.00    -0.206 F 
ATOM     88  C   UNL A   1      41.859  27.614  35.788  1.00  0.00     0.006 A 
ENDBRANCH  64  81
ENDBRANCH  38  39
ENDBRANCH  31  33
ENDBRANCH  30  31
ENDBRANCH  29  30
ENDBRANCH   1  29
TORSDOF 14
ENDMDL
