MODEL 1
REMARK VINA RESULT:     -10.8      0.000      0.000
REMARK SMILES CC[C@@H]1CCCN1C(=O)N1CC[C@@H](C(=O)OCCOC(=O)c2ccc(-c3c4nc(c(-c5c(F)cccc5F)c5ccc([nH]5)c(-c5c(F)cccc5F)c5nc(c(-c6c(F)cccc6F)c6ccc3[nH]6)C=C5)C=C4)cc2)[C@@H]1C
REMARK SMILES IDX 17 1 16 2 14 3 15 4 13 5 10 6 11 7 76 8 12 9 77 10 8 11 9 12
REMARK SMILES IDX 7 13 3 14 4 15 5 16 6 17 2 18 1 19 18 20 19 21 20 22 21 23
REMARK SMILES IDX 22 24 23 25 75 26 24 27 74 28 25 29 26 30 27 31 68 32 28 33
REMARK SMILES IDX 73 34 67 35 69 36 29 37 72 38 66 39 65 40 30 42 56 43 39 44
REMARK SMILES IDX 55 45 40 46 43 47 54 48 70 49 41 50 42 51 53 53 71 54 44 55
REMARK SMILES IDX 31 56 32 57 37 58 33 59 34 60 36 61 38 62 35 63 57 64 58 65
REMARK SMILES IDX 63 66 59 67 60 68 62 69 64 70 61 71 45 72 46 73 51 74 47 75
REMARK SMILES IDX 48 76 50 77 52 78 49 79
REMARK H PARENT 69 41 43 52
REMARK Flexibility Score: inf
ROOT
ATOM      1  C   UNL A   1      35.109  20.341  24.956  1.00  0.00     0.274 C 
ENDROOT
BRANCH   1   2
ATOM      2  O   UNL A   1      33.977  21.097  25.433  1.00  0.00    -0.462 OA
BRANCH   2   3
ATOM      3  C   UNL A   1      33.114  21.566  24.493  1.00  0.00     0.311 C 
ATOM      4  O   UNL A   1      32.743  20.937  23.509  1.00  0.00    -0.252 OA
BRANCH   3   5
ATOM      5  C   UNL A   1      32.650  22.980  24.774  1.00  0.00     0.123 C 
ATOM      6  N   UNL A   1      32.651  25.025  23.609  1.00  0.00    -0.321 N 
ATOM      7  C   UNL A   1      31.512  24.288  23.106  1.00  0.00     0.122 C 
ATOM      8  C   UNL A   1      33.581  24.050  24.169  1.00  0.00     0.098 C 
ATOM      9  C   UNL A   1      31.249  23.282  24.209  1.00  0.00     0.039 C 
ATOM     10  C   UNL A   1      34.534  24.680  25.185  1.00  0.00     0.032 C 
BRANCH   6  11
ATOM     11  C   UNL A   1      33.096  26.123  22.919  1.00  0.00     0.320 C 
ATOM     12  O   UNL A   1      33.715  25.999  21.863  1.00  0.00    -0.248 OA
BRANCH  11  13
ATOM     13  N   UNL A   1      32.794  27.356  23.463  1.00  0.00    -0.322 N 
ATOM     14  C   UNL A   1      31.530  27.834  24.060  1.00  0.00     0.086 C 
ATOM     15  C   UNL A   1      31.880  29.288  24.411  1.00  0.00     0.027 C 
ATOM     16  C   UNL A   1      33.311  29.185  24.902  1.00  0.00     0.024 C 
ATOM     17  C   UNL A   1      33.914  28.133  23.985  1.00  0.00     0.122 C 
BRANCH  14  18
ATOM     18  C   UNL A   1      30.211  27.812  23.278  1.00  0.00     0.022 C 
ATOM     19  C   UNL A   1      30.043  29.009  22.351  1.00  0.00     0.006 C 
ENDBRANCH  14  18
ENDBRANCH  11  13
ENDBRANCH   6  11
ENDBRANCH   3   5
ENDBRANCH   2   3
ENDBRANCH   1   2
BRANCH   1  20
ATOM     20  C   UNL A   1      36.286  21.243  24.591  1.00  0.00     0.275 C 
BRANCH  20  21
ATOM     21  O   UNL A   1      36.959  21.695  25.776  1.00  0.00    -0.458 OA
BRANCH  21  22
ATOM     22  C   UNL A   1      38.274  21.389  25.832  1.00  0.00     0.338 C 
ATOM     23  O   UNL A   1      38.832  20.408  25.378  1.00  0.00    -0.246 OA
BRANCH  22  24
ATOM     24  C   UNL A   1      38.993  22.517  26.431  1.00  0.00     0.060 A 
ATOM     25  C   UNL A   1      38.575  23.803  26.097  1.00  0.00     0.016 A 
ATOM     26  C   UNL A   1      40.116  22.321  27.232  1.00  0.00     0.016 A 
ATOM     27  C   UNL A   1      39.298  24.911  26.516  1.00  0.00     0.010 A 
ATOM     28  C   UNL A   1      40.821  23.437  27.693  1.00  0.00     0.010 A 
ATOM     29  C   UNL A   1      40.428  24.737  27.319  1.00  0.00    -0.014 A 
BRANCH  29  30
ATOM     30  C   UNL A   1      41.227  25.914  27.727  1.00  0.00     0.031 A 
ATOM     31  C   UNL A   1      40.598  26.976  28.578  1.00  0.00     0.074 A 
ATOM     32  C   UNL A   1      42.513  26.020  27.346  1.00  0.00     0.049 A 
ATOM     33  N   UNL A   1      41.052  28.162  28.891  1.00  0.00    -0.248 NA
ATOM     34  C   UNL A   1      39.276  26.665  29.145  1.00  0.00     0.031 C 
ATOM     35  C   UNL A   1      43.254  25.021  26.577  1.00  0.00     0.029 A 
ATOM     36  N   UNL A   1      43.420  27.029  27.547  1.00  0.00    -0.354 N 
ATOM     37  C   UNL A   1      40.054  28.758  29.649  1.00  0.00     0.074 A 
ATOM     38  C   UNL A   1      38.972  27.802  29.756  1.00  0.00     0.031 C 
ATOM     39  C   UNL A   1      44.502  25.467  26.367  1.00  0.00     0.029 A 
ATOM     40  C   UNL A   1      44.626  26.809  26.930  1.00  0.00     0.049 A 
ATOM     41  H   UNL A   1      43.225  27.833  28.081  1.00  0.00     0.167 HD
ATOM     42  C   UNL A   1      40.043  29.995  30.198  1.00  0.00     0.037 A 
ATOM     43  C   UNL A   1      45.694  27.617  26.792  1.00  0.00     0.037 A 
ATOM     44  C   UNL A   1      41.142  30.922  30.120  1.00  0.00     0.049 A 
ATOM     45  C   UNL A   1      45.645  28.998  27.379  1.00  0.00     0.074 A 
ATOM     46  C   UNL A   1      41.239  32.194  30.655  1.00  0.00     0.029 A 
ATOM     47  N   UNL A   1      42.341  30.667  29.472  1.00  0.00    -0.354 N 
ATOM     48  N   UNL A   1      44.680  29.575  28.052  1.00  0.00    -0.248 NA
ATOM     49  C   UNL A   1      46.826  29.847  27.169  1.00  0.00     0.031 C 
ATOM     50  C   UNL A   1      42.486  32.721  30.303  1.00  0.00     0.029 A 
ATOM     51  C   UNL A   1      43.179  31.763  29.579  1.00  0.00     0.049 A 
ATOM     52  H   UNL A   1      42.563  29.830  29.004  1.00  0.00     0.167 HD
ATOM     53  C   UNL A   1      45.137  30.850  28.356  1.00  0.00     0.074 A 
ATOM     54  C   UNL A   1      46.475  30.956  27.807  1.00  0.00     0.031 C 
ATOM     55  C   UNL A   1      44.505  31.845  29.023  1.00  0.00     0.037 A 
BRANCH  42  56
ATOM     56  C   UNL A   1      38.787  30.429  30.889  1.00  0.00     0.057 A 
ATOM     57  C   UNL A   1      38.569  30.202  32.252  1.00  0.00     0.134 A 
ATOM     58  C   UNL A   1      37.785  31.100  30.174  1.00  0.00     0.134 A 
ATOM     59  F   UNL A   1      39.483  29.551  32.988  1.00  0.00    -0.206 F 
ATOM     60  C   UNL A   1      37.388  30.607  32.878  1.00  0.00     0.040 A 
ATOM     61  C   UNL A   1      36.610  31.529  30.794  1.00  0.00     0.040 A 
ATOM     62  F   UNL A   1      37.933  31.350  28.865  1.00  0.00    -0.206 F 
ATOM     63  C   UNL A   1      36.407  31.278  32.148  1.00  0.00     0.006 A 
ENDBRANCH  42  56
BRANCH  43  64
ATOM     64  C   UNL A   1      46.874  27.151  26.026  1.00  0.00     0.057 A 
ATOM     65  C   UNL A   1      46.991  27.396  24.654  1.00  0.00     0.134 A 
ATOM     66  C   UNL A   1      47.921  26.462  26.650  1.00  0.00     0.134 A 
ATOM     67  F   UNL A   1      46.010  28.032  23.996  1.00  0.00    -0.206 F 
ATOM     68  C   UNL A   1      48.105  26.969  23.928  1.00  0.00     0.040 A 
ATOM     69  C   UNL A   1      49.050  26.049  25.943  1.00  0.00     0.040 A 
ATOM     70  F   UNL A   1      47.869  26.198  27.964  1.00  0.00    -0.206 F 
ATOM     71  C   UNL A   1      49.141  26.299  24.575  1.00  0.00     0.006 A 
ENDBRANCH  43  64
BRANCH  55  72
ATOM     72  C   UNL A   1      45.264  33.123  29.211  1.00  0.00     0.057 A 
ATOM     73  C   UNL A   1      46.116  33.316  30.304  1.00  0.00     0.134 A 
ATOM     74  C   UNL A   1      45.169  34.155  28.269  1.00  0.00     0.134 A 
ATOM     75  F   UNL A   1      46.237  32.369  31.247  1.00  0.00    -0.206 F 
ATOM     76  C   UNL A   1      46.836  34.501  30.464  1.00  0.00     0.040 A 
ATOM     77  C   UNL A   1      45.898  35.335  28.409  1.00  0.00     0.040 A 
ATOM     78  F   UNL A   1      44.373  34.028  27.197  1.00  0.00    -0.206 F 
ATOM     79  C   UNL A   1      46.732  35.512  29.511  1.00  0.00     0.006 A 
ENDBRANCH  55  72
ENDBRANCH  29  30
ENDBRANCH  22  24
ENDBRANCH  21  22
ENDBRANCH  20  21
ENDBRANCH   1  20
TORSDOF 14
ENDMDL
MODEL 2
REMARK VINA RESULT:     -10.8      3.914      8.823
REMARK SMILES CC[C@@H]1CCCN1C(=O)N1CC[C@@H](C(=O)OCCOC(=O)c2ccc(-c3c4nc(c(-c5c(F)cccc5F)c5ccc([nH]5)c(-c5c(F)cccc5F)c5nc(c(-c6c(F)cccc6F)c6ccc3[nH]6)C=C5)C=C4)cc2)[C@@H]1C
REMARK SMILES IDX 17 1 16 2 14 3 15 4 13 5 10 6 11 7 76 8 12 9 77 10 8 11 9 12
REMARK SMILES IDX 7 13 3 14 4 15 5 16 6 17 2 18 1 19 18 20 19 21 20 22 21 23
REMARK SMILES IDX 22 24 23 25 75 26 24 27 74 28 25 29 26 30 27 31 68 32 28 33
REMARK SMILES IDX 73 34 67 35 69 36 29 37 72 38 66 39 65 40 30 42 56 43 39 44
REMARK SMILES IDX 55 45 40 46 43 47 54 48 70 49 41 50 42 51 53 53 71 54 44 55
REMARK SMILES IDX 31 56 32 57 37 58 33 59 34 60 36 61 38 62 35 63 57 64 58 65
REMARK SMILES IDX 63 66 59 67 60 68 62 69 64 70 61 71 45 72 46 73 51 74 47 75
REMARK SMILES IDX 48 76 50 77 52 78 49 79
REMARK H PARENT 69 41 43 52
REMARK Flexibility Score: inf
ROOT
ATOM      1  C   UNL A   1      31.257  29.283  24.965  1.00  0.00     0.274 C 
ENDROOT
BRANCH   1   2
ATOM      2  O   UNL A   1      32.163  28.208  25.289  1.00  0.00    -0.462 OA
BRANCH   2   3
ATOM      3  C   UNL A   1      31.671  27.206  26.066  1.00  0.00     0.311 C 
ATOM      4  O   UNL A   1      31.101  27.369  27.137  1.00  0.00    -0.252 OA
BRANCH   3   5
ATOM      5  C   UNL A   1      31.911  25.833  25.475  1.00  0.00     0.123 C 
ATOM      6  N   UNL A   1      32.332  23.677  26.321  1.00  0.00    -0.321 N 
ATOM      7  C   UNL A   1      30.900  23.862  26.415  1.00  0.00     0.122 C 
ATOM      8  C   UNL A   1      32.936  25.004  26.276  1.00  0.00     0.098 C 
ATOM      9  C   UNL A   1      30.637  24.968  25.413  1.00  0.00     0.039 C 
ATOM     10  C   UNL A   1      34.331  24.983  25.650  1.00  0.00     0.032 C 
BRANCH   6  11
ATOM     11  C   UNL A   1      32.920  22.646  27.006  1.00  0.00     0.320 C 
ATOM     12  O   UNL A   1      32.741  22.506  28.215  1.00  0.00    -0.248 OA
BRANCH  11  13
ATOM     13  N   UNL A   1      33.698  21.778  26.265  1.00  0.00    -0.322 N 
ATOM     14  C   UNL A   1      33.498  21.283  24.888  1.00  0.00     0.086 C 
ATOM     15  C   UNL A   1      34.694  20.332  24.721  1.00  0.00     0.027 C 
ATOM     16  C   UNL A   1      35.815  21.067  25.430  1.00  0.00     0.024 C 
ATOM     17  C   UNL A   1      35.112  21.700  26.620  1.00  0.00     0.122 C 
BRANCH  14  18
ATOM     18  C   UNL A   1      32.216  20.550  24.472  1.00  0.00     0.022 C 
ATOM     19  C   UNL A   1      32.481  19.193  23.833  1.00  0.00     0.006 C 
ENDBRANCH  14  18
ENDBRANCH  11  13
ENDBRANCH   6  11
ENDBRANCH   3   5
ENDBRANCH   2   3
ENDBRANCH   1   2
BRANCH   1  20
ATOM     20  C   UNL A   1      31.542  30.538  25.786  1.00  0.00     0.275 C 
BRANCH  20  21
ATOM     21  O   UNL A   1      32.750  30.379  26.547  1.00  0.00    -0.458 OA
BRANCH  21  22
ATOM     22  C   UNL A   1      33.205  31.509  27.130  1.00  0.00     0.338 C 
ATOM     23  O   UNL A   1      32.612  32.560  27.287  1.00  0.00    -0.246 OA
BRANCH  22  24
ATOM     24  C   UNL A   1      34.532  31.243  27.695  1.00  0.00     0.060 A 
ATOM     25  C   UNL A   1      34.820  29.938  28.087  1.00  0.00     0.016 A 
ATOM     26  C   UNL A   1      35.444  32.271  27.921  1.00  0.00     0.016 A 
ATOM     27  C   UNL A   1      36.000  29.647  28.757  1.00  0.00     0.010 A 
ATOM     28  C   UNL A   1      36.655  31.972  28.554  1.00  0.00     0.010 A 
ATOM     29  C   UNL A   1      36.929  30.663  28.994  1.00  0.00    -0.014 A 
BRANCH  29  30
ATOM     30  C   UNL A   1      38.167  30.364  29.749  1.00  0.00     0.031 A 
ATOM     31  C   UNL A   1      39.214  29.485  29.133  1.00  0.00     0.074 A 
ATOM     32  C   UNL A   1      38.353  30.888  30.973  1.00  0.00     0.049 A 
ATOM     33  N   UNL A   1      40.274  28.952  29.683  1.00  0.00    -0.248 NA
ATOM     34  C   UNL A   1      39.040  29.155  27.710  1.00  0.00     0.031 C 
ATOM     35  C   UNL A   1      37.440  31.811  31.648  1.00  0.00     0.029 A 
ATOM     36  N   UNL A   1      39.373  30.709  31.872  1.00  0.00    -0.354 N 
ATOM     37  C   UNL A   1      40.867  28.185  28.689  1.00  0.00     0.074 A 
ATOM     38  C   UNL A   1      40.053  28.326  27.500  1.00  0.00     0.031 C 
ATOM     39  C   UNL A   1      37.938  32.114  32.857  1.00  0.00     0.029 A 
ATOM     40  C   UNL A   1      39.170  31.359  33.065  1.00  0.00     0.049 A 
ATOM     41  H   UNL A   1      40.174  30.168  31.682  1.00  0.00     0.167 HD
ATOM     42  C   UNL A   1      41.985  27.427  28.770  1.00  0.00     0.037 A 
ATOM     43  C   UNL A   1      39.871  31.311  34.213  1.00  0.00     0.037 A 
ATOM     44  C   UNL A   1      42.809  27.327  29.946  1.00  0.00     0.049 A 
ATOM     45  C   UNL A   1      41.088  30.434  34.290  1.00  0.00     0.074 A 
ATOM     46  C   UNL A   1      43.971  26.598  30.126  1.00  0.00     0.029 A 
ATOM     47  N   UNL A   1      42.559  27.987  31.139  1.00  0.00    -0.354 N 
ATOM     48  N   UNL A   1      41.615  29.673  33.363  1.00  0.00    -0.248 NA
ATOM     49  C   UNL A   1      41.794  30.396  35.577  1.00  0.00     0.031 C 
ATOM     50  C   UNL A   1      44.408  26.793  31.441  1.00  0.00     0.029 A 
ATOM     51  C   UNL A   1      43.536  27.671  32.067  1.00  0.00     0.049 A 
ATOM     52  H   UNL A   1      41.799  28.590  31.302  1.00  0.00     0.167 HD
ATOM     53  C   UNL A   1      42.720  29.070  33.949  1.00  0.00     0.074 A 
ATOM     54  C   UNL A   1      42.796  29.570  35.308  1.00  0.00     0.031 C 
ATOM     55  C   UNL A   1      43.590  28.180  33.413  1.00  0.00     0.037 A 
BRANCH  42  56
ATOM     56  C   UNL A   1      42.351  26.613  27.566  1.00  0.00     0.057 A 
ATOM     57  C   UNL A   1      41.917  25.293  27.398  1.00  0.00     0.134 A 
ATOM     58  C   UNL A   1      43.142  27.169  26.553  1.00  0.00     0.134 A 
ATOM     59  F   UNL A   1      41.169  24.698  28.340  1.00  0.00    -0.206 F 
ATOM     60  C   UNL A   1      42.274  24.546  26.273  1.00  0.00     0.040 A 
ATOM     61  C   UNL A   1      43.488  26.440  25.414  1.00  0.00     0.040 A 
ATOM     62  F   UNL A   1      43.590  28.429  26.652  1.00  0.00    -0.206 F 
ATOM     63  C   UNL A   1      43.058  25.123  25.274  1.00  0.00     0.006 A 
ENDBRANCH  42  56
BRANCH  43  64
ATOM     64  C   UNL A   1      39.405  32.081  35.391  1.00  0.00     0.057 A 
ATOM     65  C   UNL A   1      39.803  33.406  35.594  1.00  0.00     0.134 A 
ATOM     66  C   UNL A   1      38.539  31.514  36.334  1.00  0.00     0.134 A 
ATOM     67  F   UNL A   1      40.648  33.997  34.737  1.00  0.00    -0.206 F 
ATOM     68  C   UNL A   1      39.360  34.140  36.696  1.00  0.00     0.040 A 
ATOM     69  C   UNL A   1      38.070  32.241  37.428  1.00  0.00     0.040 A 
ATOM     70  F   UNL A   1      38.121  30.247  36.194  1.00  0.00    -0.206 F 
ATOM     71  C   UNL A   1      38.486  33.559  37.613  1.00  0.00     0.006 A 
ENDBRANCH  43  64
BRANCH  55  72
ATOM     72  C   UNL A   1      44.707  27.709  34.295  1.00  0.00     0.057 A 
ATOM     73  C   UNL A   1      45.915  28.410  34.383  1.00  0.00     0.134 A 
ATOM     74  C   UNL A   1      44.555  26.567  35.090  1.00  0.00     0.134 A 
ATOM     75  F   UNL A   1      46.124  29.503  33.635  1.00  0.00    -0.206 F 
ATOM     76  C   UNL A   1      46.945  27.977  35.221  1.00  0.00     0.040 A 
ATOM     77  C   UNL A   1      45.570  26.137  35.945  1.00  0.00     0.040 A 
ATOM     78  F   UNL A   1      43.418  25.856  35.053  1.00  0.00    -0.206 F 
ATOM     79  C   UNL A   1      46.770  26.841  36.009  1.00  0.00     0.006 A 
ENDBRANCH  55  72
ENDBRANCH  29  30
ENDBRANCH  22  24
ENDBRANCH  21  22
ENDBRANCH  20  21
ENDBRANCH   1  20
TORSDOF 14
ENDMDL
MODEL 3
REMARK VINA RESULT:     -10.7      0.880      2.118
REMARK SMILES CC[C@@H]1CCCN1C(=O)N1CC[C@@H](C(=O)OCCOC(=O)c2ccc(-c3c4nc(c(-c5c(F)cccc5F)c5ccc([nH]5)c(-c5c(F)cccc5F)c5nc(c(-c6c(F)cccc6F)c6ccc3[nH]6)C=C5)C=C4)cc2)[C@@H]1C
REMARK SMILES IDX 17 1 16 2 14 3 15 4 13 5 10 6 11 7 76 8 12 9 77 10 8 11 9 12
REMARK SMILES IDX 7 13 3 14 4 15 5 16 6 17 2 18 1 19 18 20 19 21 20 22 21 23
REMARK SMILES IDX 22 24 23 25 75 26 24 27 74 28 25 29 26 30 27 31 68 32 28 33
REMARK SMILES IDX 73 34 67 35 69 36 29 37 72 38 66 39 65 40 30 42 56 43 39 44
REMARK SMILES IDX 55 45 40 46 43 47 54 48 70 49 41 50 42 51 53 53 71 54 44 55
REMARK SMILES IDX 31 56 32 57 37 58 33 59 34 60 36 61 38 62 35 63 57 64 58 65
REMARK SMILES IDX 63 66 59 67 60 68 62 69 64 70 61 71 45 72 46 73 51 74 47 75
REMARK SMILES IDX 48 76 50 77 52 78 49 79
REMARK H PARENT 69 41 43 52
REMARK Flexibility Score: inf
ROOT
ATOM      1  C   UNL A   1      35.000  20.277  24.999  1.00  0.00     0.274 C 
ENDROOT
BRANCH   1   2
ATOM      2  O   UNL A   1      33.859  20.876  25.647  1.00  0.00    -0.462 OA
BRANCH   2   3
ATOM      3  C   UNL A   1      32.636  20.568  25.141  1.00  0.00     0.311 C 
ATOM      4  O   UNL A   1      32.184  19.433  25.049  1.00  0.00    -0.252 OA
BRANCH   3   5
ATOM      5  C   UNL A   1      31.866  21.787  24.678  1.00  0.00     0.123 C 
ATOM      6  N   UNL A   1      32.165  24.119  24.789  1.00  0.00    -0.321 N 
ATOM      7  C   UNL A   1      32.977  23.672  23.678  1.00  0.00     0.122 C 
ATOM      8  C   UNL A   1      31.962  22.970  25.663  1.00  0.00     0.098 C 
ATOM      9  C   UNL A   1      32.357  22.335  23.324  1.00  0.00     0.039 C 
ATOM     10  C   UNL A   1      30.728  23.130  26.551  1.00  0.00     0.032 C 
BRANCH   6  11
ATOM     11  C   UNL A   1      32.358  25.378  25.295  1.00  0.00     0.320 C 
ATOM     12  O   UNL A   1      33.192  25.585  26.176  1.00  0.00    -0.248 OA
BRANCH  11  13
ATOM     13  N   UNL A   1      31.586  26.386  24.753  1.00  0.00    -0.322 N 
ATOM     14  C   UNL A   1      31.958  27.430  23.776  1.00  0.00     0.086 C 
ATOM     15  C   UNL A   1      30.650  28.228  23.657  1.00  0.00     0.027 C 
ATOM     16  C   UNL A   1      29.588  27.147  23.697  1.00  0.00     0.024 C 
ATOM     17  C   UNL A   1      30.145  26.155  24.705  1.00  0.00     0.122 C 
BRANCH  14  18
ATOM     18  C   UNL A   1      33.114  28.404  24.039  1.00  0.00     0.022 C 
ATOM     19  C   UNL A   1      34.019  28.601  22.829  1.00  0.00     0.006 C 
ENDBRANCH  14  18
ENDBRANCH  11  13
ENDBRANCH   6  11
ENDBRANCH   3   5
ENDBRANCH   2   3
ENDBRANCH   1   2
BRANCH   1  20
ATOM     20  C   UNL A   1      36.065  21.312  24.643  1.00  0.00     0.275 C 
BRANCH  20  21
ATOM     21  O   UNL A   1      36.808  21.691  25.812  1.00  0.00    -0.458 OA
BRANCH  21  22
ATOM     22  C   UNL A   1      38.126  21.399  25.765  1.00  0.00     0.338 C 
ATOM     23  O   UNL A   1      38.663  20.456  25.215  1.00  0.00    -0.246 OA
BRANCH  22  24
ATOM     24  C   UNL A   1      38.872  22.498  26.386  1.00  0.00     0.060 A 
ATOM     25  C   UNL A   1      38.431  23.797  26.145  1.00  0.00     0.016 A 
ATOM     26  C   UNL A   1      40.036  22.266  27.114  1.00  0.00     0.016 A 
ATOM     27  C   UNL A   1      39.172  24.886  26.585  1.00  0.00     0.010 A 
ATOM     28  C   UNL A   1      40.761  23.360  27.597  1.00  0.00     0.010 A 
ATOM     29  C   UNL A   1      40.343  24.675  27.317  1.00  0.00    -0.014 A 
BRANCH  29  30
ATOM     30  C   UNL A   1      41.159  25.834  27.746  1.00  0.00     0.031 A 
ATOM     31  C   UNL A   1      40.540  26.897  28.603  1.00  0.00     0.074 A 
ATOM     32  C   UNL A   1      42.449  25.923  27.377  1.00  0.00     0.049 A 
ATOM     33  N   UNL A   1      41.011  28.071  28.933  1.00  0.00    -0.248 NA
ATOM     34  C   UNL A   1      39.208  26.602  29.155  1.00  0.00     0.031 C 
ATOM     35  C   UNL A   1      43.181  24.919  26.604  1.00  0.00     0.029 A 
ATOM     36  N   UNL A   1      43.372  26.914  27.598  1.00  0.00    -0.354 N 
ATOM     37  C   UNL A   1      40.016  28.675  29.690  1.00  0.00     0.074 A 
ATOM     38  C   UNL A   1      38.917  27.737  29.775  1.00  0.00     0.031 C 
ATOM     39  C   UNL A   1      44.439  25.347  26.411  1.00  0.00     0.029 A 
ATOM     40  C   UNL A   1      44.580  26.679  26.990  1.00  0.00     0.049 A 
ATOM     41  H   UNL A   1      43.186  27.715  28.140  1.00  0.00     0.167 HD
ATOM     42  C   UNL A   1      40.022  29.906  30.253  1.00  0.00     0.037 A 
ATOM     43  C   UNL A   1      45.662  27.471  26.872  1.00  0.00     0.037 A 
ATOM     44  C   UNL A   1      41.137  30.815  30.196  1.00  0.00     0.049 A 
ATOM     45  C   UNL A   1      45.632  28.846  27.473  1.00  0.00     0.074 A 
ATOM     46  C   UNL A   1      41.250  32.079  30.746  1.00  0.00     0.029 A 
ATOM     47  N   UNL A   1      42.337  30.547  29.555  1.00  0.00    -0.354 N 
ATOM     48  N   UNL A   1      44.671  29.431  28.145  1.00  0.00    -0.248 NA
ATOM     49  C   UNL A   1      46.828  29.677  27.285  1.00  0.00     0.031 C 
ATOM     50  C   UNL A   1      42.510  32.589  30.412  1.00  0.00     0.029 A 
ATOM     51  C   UNL A   1      43.193  31.627  29.683  1.00  0.00     0.049 A 
ATOM     52  H   UNL A   1      42.550  29.712  29.080  1.00  0.00     0.167 HD
ATOM     53  C   UNL A   1      45.146  30.695  28.467  1.00  0.00     0.074 A 
ATOM     54  C   UNL A   1      46.491  30.784  27.932  1.00  0.00     0.031 C 
ATOM     55  C   UNL A   1      44.525  31.693  29.140  1.00  0.00     0.037 A 
BRANCH  42  56
ATOM     56  C   UNL A   1      38.767  30.354  30.937  1.00  0.00     0.057 A 
ATOM     57  C   UNL A   1      37.755  31.046  30.263  1.00  0.00     0.134 A 
ATOM     58  C   UNL A   1      38.565  30.073  32.295  1.00  0.00     0.134 A 
ATOM     59  F   UNL A   1      37.895  31.360  28.965  1.00  0.00    -0.206 F 
ATOM     60  C   UNL A   1      36.594  31.462  30.918  1.00  0.00     0.040 A 
ATOM     61  C   UNL A   1      37.400  30.465  32.957  1.00  0.00     0.040 A 
ATOM     62  F   UNL A   1      39.496  29.412  32.999  1.00  0.00    -0.206 F 
ATOM     63  C   UNL A   1      36.414  31.167  32.269  1.00  0.00     0.006 A 
ENDBRANCH  42  56
BRANCH  43  64
ATOM     64  C   UNL A   1      46.842  26.993  26.110  1.00  0.00     0.057 A 
ATOM     65  C   UNL A   1      47.875  26.291  26.739  1.00  0.00     0.134 A 
ATOM     66  C   UNL A   1      46.957  27.216  24.733  1.00  0.00     0.134 A 
ATOM     67  F   UNL A   1      47.832  26.066  28.061  1.00  0.00    -0.206 F 
ATOM     68  C   UNL A   1      48.983  25.830  26.026  1.00  0.00     0.040 A 
ATOM     69  C   UNL A   1      48.047  26.742  24.003  1.00  0.00     0.040 A 
ATOM     70  F   UNL A   1      45.998  27.882  24.072  1.00  0.00    -0.206 F 
ATOM     71  C   UNL A   1      49.068  26.050  24.653  1.00  0.00     0.006 A 
ENDBRANCH  43  64
BRANCH  55  72
ATOM     72  C   UNL A   1      45.304  32.956  29.350  1.00  0.00     0.057 A 
ATOM     73  C   UNL A   1      45.221  34.026  28.452  1.00  0.00     0.134 A 
ATOM     74  C   UNL A   1      46.114  33.115  30.480  1.00  0.00     0.134 A 
ATOM     75  F   UNL A   1      44.472  33.927  27.344  1.00  0.00    -0.206 F 
ATOM     76  C   UNL A   1      45.933  35.208  28.662  1.00  0.00     0.040 A 
ATOM     77  C   UNL A   1      46.815  34.299  30.711  1.00  0.00     0.040 A 
ATOM     78  F   UNL A   1      46.231  32.127  31.381  1.00  0.00    -0.206 F 
ATOM     79  C   UNL A   1      46.729  35.348  29.798  1.00  0.00     0.006 A 
ENDBRANCH  55  72
ENDBRANCH  29  30
ENDBRANCH  22  24
ENDBRANCH  21  22
ENDBRANCH  20  21
ENDBRANCH   1  20
TORSDOF 14
ENDMDL
