MODEL 1
REMARK VINA RESULT:      -9.4      0.000      0.000
REMARK SMILES Cc1cc2c(c(C)c1Cl)C=C(C(=O)OCCOC(=O)c1ccc(-c3c4nc(c(-c5c(F)cccc5F)c5ccc([nH]5)c(-c5c(F)cccc5F)c5nc(c(-c6c(F)cccc6F)c6ccc3[nH]6)C=C5)C=C4)cc1)[C@H](C(F)(F)F)O2
REMARK SMILES IDX 16 1 15 2 14 3 12 4 13 5 11 6 1 7 2 8 3 9 8 10 4 11 6 12
REMARK SMILES IDX 9 13 5 14 79 15 7 16 10 17 74 18 75 19 76 20 77 21 78 22
REMARK SMILES IDX 17 23 18 24 19 25 20 26 21 27 73 28 22 29 72 30 23 31 24 32
REMARK SMILES IDX 25 33 66 34 26 35 71 36 65 37 67 38 27 39 70 40 64 41 63 42
REMARK SMILES IDX 28 44 54 45 37 46 53 47 38 48 41 49 52 50 68 51 39 52 40 53
REMARK SMILES IDX 51 55 69 56 42 57 29 58 30 59 35 60 31 61 32 62 34 63 36 64
REMARK SMILES IDX 33 65 55 66 56 67 61 68 57 69 58 70 60 71 62 72 59 73 43 74
REMARK SMILES IDX 44 75 49 76 45 77 46 78 48 79 50 80 47 81
REMARK H PARENT 67 43 41 54
REMARK Flexibility Score: inf
ROOT
ATOM      1  C   UNL A   1      45.497  23.453  25.060  1.00  0.00     0.275 C 
ENDROOT
BRANCH   1   2
ATOM      2  C   UNL A   1      46.540  24.495  24.660  1.00  0.00     0.275 C 
BRANCH   2   3
ATOM      3  O   UNL A   1      45.984  25.822  24.774  1.00  0.00    -0.459 OA
BRANCH   3   4
ATOM      4  C   UNL A   1      46.829  26.795  25.185  1.00  0.00     0.338 C 
ATOM      5  O   UNL A   1      47.754  27.264  24.548  1.00  0.00    -0.246 OA
BRANCH   4   6
ATOM      6  C   UNL A   1      46.436  27.281  26.521  1.00  0.00     0.087 C 
ATOM      7  C   UNL A   1      44.614  30.894  31.602  1.00  0.00     0.046 C 
ATOM      8  C   UNL A   1      44.743  30.156  30.297  1.00  0.00    -0.028 A 
ATOM      9  C   UNL A   1      45.799  29.249  30.131  1.00  0.00     0.052 A 
ATOM     10  C   UNL A   1      43.842  30.359  29.234  1.00  0.00     0.047 A 
ATOM     11  C   UNL A   1      45.986  28.585  28.921  1.00  0.00     0.128 A 
ATOM     12  C   UNL A   1      44.011  29.689  28.002  1.00  0.00    -0.021 A 
ATOM     13  Cl  UNL A   1      42.530  31.476  29.463  1.00  0.00    -0.084 Cl
ATOM     14  C   UNL A   1      45.123  28.821  27.847  1.00  0.00     0.022 A 
ATOM     15  O   UNL A   1      47.083  27.770  28.856  1.00  0.00    -0.475 OA
ATOM     16  C   UNL A   1      43.046  29.887  26.856  1.00  0.00     0.047 C 
ATOM     17  C   UNL A   1      45.478  28.218  26.564  1.00  0.00     0.027 C 
ATOM     18  C   UNL A   1      47.188  26.836  27.743  1.00  0.00     0.316 C 
BRANCH  18  19
ATOM     19  C   UNL A   1      46.859  25.411  28.225  1.00  0.00     0.430 C 
ATOM     20  F   UNL A   1      47.025  25.283  29.564  1.00  0.00    -0.167 F 
ATOM     21  F   UNL A   1      45.563  25.096  27.981  1.00  0.00    -0.167 F 
ATOM     22  F   UNL A   1      47.621  24.471  27.623  1.00  0.00    -0.167 F 
ENDBRANCH  18  19
ENDBRANCH   4   6
ENDBRANCH   3   4
ENDBRANCH   2   3
ENDBRANCH   1   2
BRANCH   1  23
ATOM     23  O   UNL A   1      44.215  23.858  24.549  1.00  0.00    -0.458 OA
BRANCH  23  24
ATOM     24  C   UNL A   1      43.133  23.313  25.150  1.00  0.00     0.338 C 
ATOM     25  O   UNL A   1      42.681  22.191  24.992  1.00  0.00    -0.246 OA
BRANCH  24  26
ATOM     26  C   UNL A   1      42.549  24.287  26.091  1.00  0.00     0.060 A 
ATOM     27  C   UNL A   1      42.719  25.652  25.873  1.00  0.00     0.016 A 
ATOM     28  C   UNL A   1      41.934  23.843  27.261  1.00  0.00     0.016 A 
ATOM     29  C   UNL A   1      42.384  26.564  26.872  1.00  0.00     0.010 A 
ATOM     30  C   UNL A   1      41.497  24.773  28.215  1.00  0.00     0.010 A 
ATOM     31  C   UNL A   1      41.765  26.146  28.059  1.00  0.00    -0.014 A 
BRANCH  31  32
ATOM     32  C   UNL A   1      41.460  27.124  29.150  1.00  0.00     0.031 A 
ATOM     33  C   UNL A   1      42.330  27.189  30.384  1.00  0.00     0.074 A 
ATOM     34  C   UNL A   1      40.435  27.996  29.038  1.00  0.00     0.049 A 
ATOM     35  N   UNL A   1      42.121  27.821  31.513  1.00  0.00    -0.248 NA
ATOM     36  C   UNL A   1      43.593  26.434  30.352  1.00  0.00     0.031 C 
ATOM     37  C   UNL A   1      39.534  28.109  27.891  1.00  0.00     0.029 A 
ATOM     38  N   UNL A   1      39.995  28.977  29.895  1.00  0.00    -0.354 N 
ATOM     39  C   UNL A   1      43.184  27.484  32.343  1.00  0.00     0.074 A 
ATOM     40  C   UNL A   1      44.041  26.594  31.589  1.00  0.00     0.031 C 
ATOM     41  C   UNL A   1      38.709  29.149  28.077  1.00  0.00     0.029 A 
ATOM     42  C   UNL A   1      38.938  29.706  29.404  1.00  0.00     0.049 A 
ATOM     43  H   UNL A   1      40.398  29.141  30.779  1.00  0.00     0.167 HD
ATOM     44  C   UNL A   1      43.427  27.880  33.616  1.00  0.00     0.037 A 
ATOM     45  C   UNL A   1      38.204  30.687  29.966  1.00  0.00     0.037 A 
ATOM     46  C   UNL A   1      42.624  28.830  34.342  1.00  0.00     0.049 A 
ATOM     47  C   UNL A   1      38.471  31.090  31.387  1.00  0.00     0.074 A 
ATOM     48  C   UNL A   1      42.791  29.286  35.639  1.00  0.00     0.029 A 
ATOM     49  N   UNL A   1      41.527  29.496  33.823  1.00  0.00    -0.354 N 
ATOM     50  N   UNL A   1      39.408  30.672  32.200  1.00  0.00    -0.248 NA
ATOM     51  C   UNL A   1      37.552  32.072  31.981  1.00  0.00     0.031 C 
ATOM     52  C   UNL A   1      41.779  30.212  35.913  1.00  0.00     0.029 A 
ATOM     53  C   UNL A   1      41.004  30.358  34.774  1.00  0.00     0.049 A 
ATOM     54  H   UNL A   1      41.170  29.376  32.913  1.00  0.00     0.167 HD
ATOM     55  C   UNL A   1      39.190  31.333  33.401  1.00  0.00     0.074 A 
ATOM     56  C   UNL A   1      38.050  32.203  33.203  1.00  0.00     0.031 C 
ATOM     57  C   UNL A   1      39.869  31.216  34.568  1.00  0.00     0.037 A 
BRANCH  44  58
ATOM     58  C   UNL A   1      44.600  27.274  34.329  1.00  0.00     0.057 A 
ATOM     59  C   UNL A   1      45.860  27.881  34.340  1.00  0.00     0.134 A 
ATOM     60  C   UNL A   1      44.441  26.097  35.076  1.00  0.00     0.134 A 
ATOM     61  F   UNL A   1      46.081  29.002  33.636  1.00  0.00    -0.206 F 
ATOM     62  C   UNL A   1      46.926  27.336  35.060  1.00  0.00     0.040 A 
ATOM     63  C   UNL A   1      45.492  25.556  35.818  1.00  0.00     0.040 A 
ATOM     64  F   UNL A   1      43.257  25.470  35.115  1.00  0.00    -0.206 F 
ATOM     65  C   UNL A   1      46.740  26.175  35.810  1.00  0.00     0.006 A 
ENDBRANCH  44  58
BRANCH  45  66
ATOM     66  C   UNL A   1      37.110  31.325  29.191  1.00  0.00     0.057 A 
ATOM     67  C   UNL A   1      35.909  30.648  28.948  1.00  0.00     0.134 A 
ATOM     68  C   UNL A   1      37.227  32.629  28.692  1.00  0.00     0.134 A 
ATOM     69  F   UNL A   1      35.749  29.387  29.376  1.00  0.00    -0.206 F 
ATOM     70  C   UNL A   1      34.864  31.244  28.242  1.00  0.00     0.040 A 
ATOM     71  C   UNL A   1      36.180  33.247  28.008  1.00  0.00     0.040 A 
ATOM     72  F   UNL A   1      38.352  33.331  28.888  1.00  0.00    -0.206 F 
ATOM     73  C   UNL A   1      34.993  32.553  27.780  1.00  0.00     0.006 A 
ENDBRANCH  45  66
BRANCH  57  74
ATOM     74  C   UNL A   1      39.402  32.050  35.722  1.00  0.00     0.057 A 
ATOM     75  C   UNL A   1      39.895  33.343  35.935  1.00  0.00     0.134 A 
ATOM     76  C   UNL A   1      38.413  31.579  36.594  1.00  0.00     0.134 A 
ATOM     77  F   UNL A   1      40.852  33.845  35.140  1.00  0.00    -0.206 F 
ATOM     78  C   UNL A   1      39.427  34.136  36.983  1.00  0.00     0.040 A 
ATOM     79  C   UNL A   1      37.924  32.369  37.634  1.00  0.00     0.040 A 
ATOM     80  F   UNL A   1      37.896  30.351  36.438  1.00  0.00    -0.206 F 
ATOM     81  C   UNL A   1      38.432  33.651  37.832  1.00  0.00     0.006 A 
ENDBRANCH  57  74
ENDBRANCH  31  32
ENDBRANCH  24  26
ENDBRANCH  23  24
ENDBRANCH   1  23
TORSDOF 12
ENDMDL
MODEL 2
REMARK VINA RESULT:      -9.2      4.064     10.318
REMARK SMILES Cc1cc2c(c(C)c1Cl)C=C(C(=O)OCCOC(=O)c1ccc(-c3c4nc(c(-c5c(F)cccc5F)c5ccc([nH]5)c(-c5c(F)cccc5F)c5nc(c(-c6c(F)cccc6F)c6ccc3[nH]6)C=C5)C=C4)cc1)[C@H](C(F)(F)F)O2
REMARK SMILES IDX 16 1 15 2 14 3 12 4 13 5 11 6 1 7 2 8 3 9 8 10 4 11 6 12
REMARK SMILES IDX 9 13 5 14 79 15 7 16 10 17 74 18 75 19 76 20 77 21 78 22
REMARK SMILES IDX 17 23 18 24 19 25 20 26 21 27 73 28 22 29 72 30 23 31 24 32
REMARK SMILES IDX 25 33 66 34 26 35 71 36 65 37 67 38 27 39 70 40 64 41 63 42
REMARK SMILES IDX 28 44 54 45 37 46 53 47 38 48 41 49 52 50 68 51 39 52 40 53
REMARK SMILES IDX 51 55 69 56 42 57 29 58 30 59 35 60 31 61 32 62 34 63 36 64
REMARK SMILES IDX 33 65 55 66 56 67 61 68 57 69 58 70 60 71 62 72 59 73 43 74
REMARK SMILES IDX 44 75 49 76 45 77 46 78 48 79 50 80 47 81
REMARK H PARENT 67 43 41 54
REMARK Flexibility Score: inf
ROOT
ATOM      1  C   UNL A   1      35.418  33.410  33.666  1.00  0.00     0.275 C 
ENDROOT
BRANCH   1   2
ATOM      2  C   UNL A   1      36.513  33.372  34.730  1.00  0.00     0.275 C 
BRANCH   2   3
ATOM      3  O   UNL A   1      37.191  32.098  34.701  1.00  0.00    -0.459 OA
BRANCH   3   4
ATOM      4  C   UNL A   1      38.298  31.987  35.469  1.00  0.00     0.338 C 
ATOM      5  O   UNL A   1      38.333  31.963  36.686  1.00  0.00    -0.246 OA
BRANCH   4   6
ATOM      6  C   UNL A   1      39.494  31.825  34.622  1.00  0.00     0.087 C 
ATOM      7  C   UNL A   1      44.984  29.746  31.841  1.00  0.00     0.046 C 
ATOM      8  C   UNL A   1      43.592  29.933  32.381  1.00  0.00    -0.028 A 
ATOM      9  C   UNL A   1      43.226  31.184  32.897  1.00  0.00     0.052 A 
ATOM     10  C   UNL A   1      42.650  28.886  32.393  1.00  0.00     0.047 A 
ATOM     11  C   UNL A   1      41.965  31.385  33.453  1.00  0.00     0.128 A 
ATOM     12  C   UNL A   1      41.364  29.073  32.948  1.00  0.00    -0.021 A 
ATOM     13  Cl  UNL A   1      43.116  27.345  31.736  1.00  0.00    -0.084 Cl
ATOM     14  C   UNL A   1      41.045  30.334  33.513  1.00  0.00     0.022 A 
ATOM     15  O   UNL A   1      41.741  32.629  33.979  1.00  0.00    -0.475 OA
ATOM     16  C   UNL A   1      40.340  27.963  32.959  1.00  0.00     0.047 C 
ATOM     17  C   UNL A   1      39.810  30.573  34.258  1.00  0.00     0.027 C 
ATOM     18  C   UNL A   1      40.375  33.003  34.317  1.00  0.00     0.316 C 
BRANCH  18  19
ATOM     19  C   UNL A   1      39.821  33.971  33.255  1.00  0.00     0.430 C 
ATOM     20  F   UNL A   1      40.807  34.490  32.485  1.00  0.00    -0.167 F 
ATOM     21  F   UNL A   1      38.981  33.335  32.400  1.00  0.00    -0.167 F 
ATOM     22  F   UNL A   1      39.135  35.001  33.799  1.00  0.00    -0.167 F 
ENDBRANCH  18  19
ENDBRANCH   4   6
ENDBRANCH   3   4
ENDBRANCH   2   3
ENDBRANCH   1   2
BRANCH   1  23
ATOM     23  O   UNL A   1      35.384  32.140  32.991  1.00  0.00    -0.458 OA
BRANCH  23  24
ATOM     24  C   UNL A   1      35.244  32.183  31.646  1.00  0.00     0.338 C 
ATOM     25  O   UNL A   1      34.362  32.733  31.007  1.00  0.00    -0.246 OA
BRANCH  24  26
ATOM     26  C   UNL A   1      36.364  31.464  31.011  1.00  0.00     0.060 A 
ATOM     27  C   UNL A   1      37.037  30.468  31.713  1.00  0.00     0.016 A 
ATOM     28  C   UNL A   1      36.828  31.864  29.759  1.00  0.00     0.016 A 
ATOM     29  C   UNL A   1      38.236  29.956  31.220  1.00  0.00     0.010 A 
ATOM     30  C   UNL A   1      37.975  31.267  29.217  1.00  0.00     0.010 A 
ATOM     31  C   UNL A   1      38.728  30.341  29.964  1.00  0.00    -0.014 A 
BRANCH  31  32
ATOM     32  C   UNL A   1      40.044  29.831  29.466  1.00  0.00     0.031 A 
ATOM     33  C   UNL A   1      41.256  30.733  29.449  1.00  0.00     0.074 A 
ATOM     34  C   UNL A   1      40.188  28.549  29.068  1.00  0.00     0.049 A 
ATOM     35  N   UNL A   1      42.422  30.544  28.881  1.00  0.00    -0.248 NA
ATOM     36  C   UNL A   1      41.140  32.023  30.148  1.00  0.00     0.031 C 
ATOM     37  C   UNL A   1      39.139  27.531  29.076  1.00  0.00     0.029 A 
ATOM     38  N   UNL A   1      41.292  27.875  28.600  1.00  0.00    -0.354 N 
ATOM     39  C   UNL A   1      43.146  31.711  29.093  1.00  0.00     0.074 A 
ATOM     40  C   UNL A   1      42.292  32.604  29.846  1.00  0.00     0.031 C 
ATOM     41  C   UNL A   1      39.664  26.350  28.718  1.00  0.00     0.029 A 
ATOM     42  C   UNL A   1      41.059  26.546  28.340  1.00  0.00     0.049 A 
ATOM     43  H   UNL A   1      42.168  28.305  28.464  1.00  0.00     0.167 HD
ATOM     44  C   UNL A   1      44.407  32.012  28.699  1.00  0.00     0.037 A 
ATOM     45  C   UNL A   1      41.857  25.593  27.818  1.00  0.00     0.037 A 
ATOM     46  C   UNL A   1      45.291  31.097  28.024  1.00  0.00     0.049 A 
ATOM     47  C   UNL A   1      43.240  25.955  27.364  1.00  0.00     0.074 A 
ATOM     48  C   UNL A   1      46.585  31.318  27.581  1.00  0.00     0.029 A 
ATOM     49  N   UNL A   1      44.987  29.780  27.726  1.00  0.00    -0.354 N 
ATOM     50  N   UNL A   1      43.868  27.100  27.463  1.00  0.00    -0.248 NA
ATOM     51  C   UNL A   1      44.012  24.902  26.686  1.00  0.00     0.031 C 
ATOM     52  C   UNL A   1      47.056  30.139  26.994  1.00  0.00     0.029 A 
ATOM     53  C   UNL A   1      46.067  29.175  27.104  1.00  0.00     0.049 A 
ATOM     54  H   UNL A   1      44.131  29.337  27.928  1.00  0.00     0.167 HD
ATOM     55  C   UNL A   1      45.102  26.909  26.857  1.00  0.00     0.074 A 
ATOM     56  C   UNL A   1      45.149  25.530  26.419  1.00  0.00     0.031 C 
ATOM     57  C   UNL A   1      46.102  27.804  26.670  1.00  0.00     0.037 A 
BRANCH  44  58
ATOM     58  C   UNL A   1      44.914  33.399  28.965  1.00  0.00     0.057 A 
ATOM     59  C   UNL A   1      44.694  34.456  28.075  1.00  0.00     0.134 A 
ATOM     60  C   UNL A   1      45.573  33.692  30.168  1.00  0.00     0.134 A 
ATOM     61  F   UNL A   1      44.080  34.240  26.902  1.00  0.00    -0.206 F 
ATOM     62  C   UNL A   1      45.119  35.754  28.366  1.00  0.00     0.040 A 
ATOM     63  C   UNL A   1      45.981  34.990  30.480  1.00  0.00     0.040 A 
ATOM     64  F   UNL A   1      45.808  32.727  31.068  1.00  0.00    -0.206 F 
ATOM     65  C   UNL A   1      45.756  36.026  29.576  1.00  0.00     0.006 A 
ENDBRANCH  44  58
BRANCH  45  66
ATOM     66  C   UNL A   1      41.345  24.209  27.658  1.00  0.00     0.057 A 
ATOM     67  C   UNL A   1      40.401  23.901  26.672  1.00  0.00     0.134 A 
ATOM     68  C   UNL A   1      41.797  23.159  28.468  1.00  0.00     0.134 A 
ATOM     69  F   UNL A   1      39.909  24.868  25.884  1.00  0.00    -0.206 F 
ATOM     70  C   UNL A   1      39.929  22.599  26.494  1.00  0.00     0.040 A 
ATOM     71  C   UNL A   1      41.354  21.850  28.283  1.00  0.00     0.040 A 
ATOM     72  F   UNL A   1      42.699  23.389  29.433  1.00  0.00    -0.206 F 
ATOM     73  C   UNL A   1      40.415  21.567  27.294  1.00  0.00     0.006 A 
ENDBRANCH  45  66
BRANCH  57  74
ATOM     74  C   UNL A   1      47.334  27.324  25.965  1.00  0.00     0.057 A 
ATOM     75  C   UNL A   1      48.376  26.697  26.660  1.00  0.00     0.134 A 
ATOM     76  C   UNL A   1      47.455  27.437  24.575  1.00  0.00     0.134 A 
ATOM     77  F   UNL A   1      48.322  26.570  27.995  1.00  0.00    -0.206 F 
ATOM     78  C   UNL A   1      49.502  26.209  25.997  1.00  0.00     0.040 A 
ATOM     79  C   UNL A   1      48.568  26.936  23.899  1.00  0.00     0.040 A 
ATOM     80  F   UNL A   1      46.487  28.021  23.852  1.00  0.00    -0.206 F 
ATOM     81  C   UNL A   1      49.596  26.321  24.611  1.00  0.00     0.006 A 
ENDBRANCH  57  74
ENDBRANCH  31  32
ENDBRANCH  24  26
ENDBRANCH  23  24
ENDBRANCH   1  23
TORSDOF 12
ENDMDL
MODEL 3
REMARK VINA RESULT:      -9.1      5.344     10.335
REMARK SMILES Cc1cc2c(c(C)c1Cl)C=C(C(=O)OCCOC(=O)c1ccc(-c3c4nc(c(-c5c(F)cccc5F)c5ccc([nH]5)c(-c5c(F)cccc5F)c5nc(c(-c6c(F)cccc6F)c6ccc3[nH]6)C=C5)C=C4)cc1)[C@H](C(F)(F)F)O2
REMARK SMILES IDX 16 1 15 2 14 3 12 4 13 5 11 6 1 7 2 8 3 9 8 10 4 11 6 12
REMARK SMILES IDX 9 13 5 14 79 15 7 16 10 17 74 18 75 19 76 20 77 21 78 22
REMARK SMILES IDX 17 23 18 24 19 25 20 26 21 27 73 28 22 29 72 30 23 31 24 32
REMARK SMILES IDX 25 33 66 34 26 35 71 36 65 37 67 38 27 39 70 40 64 41 63 42
REMARK SMILES IDX 28 44 54 45 37 46 53 47 38 48 41 49 52 50 68 51 39 52 40 53
REMARK SMILES IDX 51 55 69 56 42 57 29 58 30 59 35 60 31 61 32 62 34 63 36 64
REMARK SMILES IDX 33 65 55 66 56 67 61 68 57 69 58 70 60 71 62 72 59 73 43 74
REMARK SMILES IDX 44 75 49 76 45 77 46 78 48 79 50 80 47 81
REMARK H PARENT 67 43 41 54
REMARK Flexibility Score: inf
ROOT
ATOM      1  C   UNL A   1      31.779  29.926  25.328  1.00  0.00     0.275 C 
ENDROOT
BRANCH   1   2
ATOM      2  C   UNL A   1      32.908  29.280  24.526  1.00  0.00     0.275 C 
BRANCH   2   3
ATOM      3  O   UNL A   1      32.425  28.871  23.229  1.00  0.00    -0.459 OA
BRANCH   3   4
ATOM      4  C   UNL A   1      33.182  27.971  22.561  1.00  0.00     0.338 C 
ATOM      5  O   UNL A   1      34.106  28.221  21.809  1.00  0.00    -0.246 OA
BRANCH   4   6
ATOM      6  C   UNL A   1      32.778  26.598  22.920  1.00  0.00     0.087 C 
ATOM      7  C   UNL A   1      32.527  20.181  23.896  1.00  0.00     0.046 C 
ATOM      8  C   UNL A   1      32.845  21.652  23.879  1.00  0.00    -0.028 A 
ATOM      9  C   UNL A   1      31.956  22.532  23.247  1.00  0.00     0.052 A 
ATOM     10  C   UNL A   1      34.015  22.167  24.471  1.00  0.00     0.047 A 
ATOM     11  C   UNL A   1      32.240  23.893  23.163  1.00  0.00     0.128 A 
ATOM     12  C   UNL A   1      34.315  23.546  24.402  1.00  0.00    -0.021 A 
ATOM     13  Cl  UNL A   1      35.098  21.063  25.263  1.00  0.00    -0.084 Cl
ATOM     14  C   UNL A   1      33.424  24.402  23.705  1.00  0.00     0.022 A 
ATOM     15  O   UNL A   1      31.329  24.646  22.472  1.00  0.00    -0.475 OA
ATOM     16  C   UNL A   1      35.560  24.116  25.041  1.00  0.00     0.047 C 
ATOM     17  C   UNL A   1      33.730  25.806  23.434  1.00  0.00     0.027 C 
ATOM     18  C   UNL A   1      31.403  26.096  22.581  1.00  0.00     0.316 C 
BRANCH  18  19
ATOM     19  C   UNL A   1      30.280  26.608  23.502  1.00  0.00     0.430 C 
ATOM     20  F   UNL A   1      29.745  27.766  23.046  1.00  0.00    -0.167 F 
ATOM     21  F   UNL A   1      29.253  25.724  23.563  1.00  0.00    -0.167 F 
ATOM     22  F   UNL A   1      30.704  26.820  24.769  1.00  0.00    -0.167 F 
ENDBRANCH  18  19
ENDBRANCH   4   6
ENDBRANCH   3   4
ENDBRANCH   2   3
ENDBRANCH   1   2
BRANCH   1  23
ATOM     23  O   UNL A   1      32.192  30.041  26.701  1.00  0.00    -0.458 OA
BRANCH  23  24
ATOM     24  C   UNL A   1      32.794  31.201  27.048  1.00  0.00     0.338 C 
ATOM     25  O   UNL A   1      32.329  32.328  26.985  1.00  0.00    -0.246 OA
BRANCH  24  26
ATOM     26  C   UNL A   1      34.147  30.920  27.563  1.00  0.00     0.060 A 
ATOM     27  C   UNL A   1      34.565  29.602  27.733  1.00  0.00     0.016 A 
ATOM     28  C   UNL A   1      34.960  31.967  27.995  1.00  0.00     0.016 A 
ATOM     29  C   UNL A   1      35.736  29.328  28.438  1.00  0.00     0.010 A 
ATOM     30  C   UNL A   1      36.190  31.687  28.606  1.00  0.00     0.010 A 
ATOM     31  C   UNL A   1      36.573  30.362  28.885  1.00  0.00    -0.014 A 
BRANCH  31  32
ATOM     32  C   UNL A   1      37.798  30.062  29.690  1.00  0.00     0.031 A 
ATOM     33  C   UNL A   1      38.937  29.275  29.084  1.00  0.00     0.074 A 
ATOM     34  C   UNL A   1      37.933  30.523  30.953  1.00  0.00     0.049 A 
ATOM     35  N   UNL A   1      39.985  28.749  29.670  1.00  0.00    -0.248 NA
ATOM     36  C   UNL A   1      38.886  29.034  27.634  1.00  0.00     0.031 C 
ATOM     37  C   UNL A   1      36.958  31.346  31.668  1.00  0.00     0.029 A 
ATOM     38  N   UNL A   1      38.964  30.385  31.852  1.00  0.00    -0.354 N 
ATOM     39  C   UNL A   1      40.674  28.061  28.678  1.00  0.00     0.074 A 
ATOM     40  C   UNL A   1      39.930  28.238  27.450  1.00  0.00     0.031 C 
ATOM     41  C   UNL A   1      37.469  31.707  32.853  1.00  0.00     0.029 A 
ATOM     42  C   UNL A   1      38.756  31.049  33.037  1.00  0.00     0.049 A 
ATOM     43  H   UNL A   1      39.776  29.859  31.664  1.00  0.00     0.167 HD
ATOM     44  C   UNL A   1      41.822  27.349  28.779  1.00  0.00     0.037 A 
ATOM     45  C   UNL A   1      39.492  31.095  34.165  1.00  0.00     0.037 A 
ATOM     46  C   UNL A   1      42.611  27.239  29.979  1.00  0.00     0.049 A 
ATOM     47  C   UNL A   1      40.746  30.277  34.265  1.00  0.00     0.074 A 
ATOM     48  C   UNL A   1      43.787  26.533  30.175  1.00  0.00     0.029 A 
ATOM     49  N   UNL A   1      42.327  27.880  31.172  1.00  0.00    -0.354 N 
ATOM     50  N   UNL A   1      41.320  29.534  33.353  1.00  0.00    -0.248 NA
ATOM     51  C   UNL A   1      41.431  30.272  35.566  1.00  0.00     0.031 C 
ATOM     52  C   UNL A   1      44.201  26.729  31.496  1.00  0.00     0.029 A 
ATOM     53  C   UNL A   1      43.302  27.585  32.111  1.00  0.00     0.049 A 
ATOM     54  H   UNL A   1      41.547  28.460  31.331  1.00  0.00     0.167 HD
ATOM     55  C   UNL A   1      42.428  28.968  33.968  1.00  0.00     0.074 A 
ATOM     56  C   UNL A   1      42.464  29.476  35.323  1.00  0.00     0.031 C 
ATOM     57  C   UNL A   1      43.327  28.093  33.456  1.00  0.00     0.037 A 
BRANCH  44  58
ATOM     58  C   UNL A   1      42.297  26.605  27.565  1.00  0.00     0.057 A 
ATOM     59  C   UNL A   1      43.157  27.184  26.626  1.00  0.00     0.134 A 
ATOM     60  C   UNL A   1      41.940  25.262  27.375  1.00  0.00     0.134 A 
ATOM     61  F   UNL A   1      43.527  28.468  26.743  1.00  0.00    -0.206 F 
ATOM     62  C   UNL A   1      43.639  26.458  25.534  1.00  0.00     0.040 A 
ATOM     63  C   UNL A   1      42.433  24.520  26.301  1.00  0.00     0.040 A 
ATOM     64  F   UNL A   1      41.125  24.645  28.243  1.00  0.00    -0.206 F 
ATOM     65  C   UNL A   1      43.284  25.119  25.375  1.00  0.00     0.006 A 
ENDBRANCH  44  58
BRANCH  45  66
ATOM     66  C   UNL A   1      39.032  31.920  35.312  1.00  0.00     0.057 A 
ATOM     67  C   UNL A   1      39.346  33.281  35.391  1.00  0.00     0.134 A 
ATOM     68  C   UNL A   1      38.254  31.376  36.342  1.00  0.00     0.134 A 
ATOM     69  F   UNL A   1      40.112  33.852  34.449  1.00  0.00    -0.206 F 
ATOM     70  C   UNL A   1      38.900  34.073  36.450  1.00  0.00     0.040 A 
ATOM     71  C   UNL A   1      37.779  32.162  37.392  1.00  0.00     0.040 A 
ATOM     72  F   UNL A   1      37.921  30.078  36.326  1.00  0.00    -0.206 F 
ATOM     73  C   UNL A   1      38.104  33.516  37.449  1.00  0.00     0.006 A 
ENDBRANCH  45  66
BRANCH  57  74
ATOM     74  C   UNL A   1      44.430  27.631  34.359  1.00  0.00     0.057 A 
ATOM     75  C   UNL A   1      45.621  28.356  34.488  1.00  0.00     0.134 A 
ATOM     76  C   UNL A   1      44.278  26.484  35.148  1.00  0.00     0.134 A 
ATOM     77  F   UNL A   1      45.829  29.457  33.750  1.00  0.00    -0.206 F 
ATOM     78  C   UNL A   1      46.628  27.950  35.364  1.00  0.00     0.040 A 
ATOM     79  C   UNL A   1      45.270  26.078  36.040  1.00  0.00     0.040 A 
ATOM     80  F   UNL A   1      43.157  25.751  35.075  1.00  0.00    -0.206 F 
ATOM     81  C   UNL A   1      46.450  26.811  36.149  1.00  0.00     0.006 A 
ENDBRANCH  57  74
ENDBRANCH  31  32
ENDBRANCH  24  26
ENDBRANCH  23  24
ENDBRANCH   1  23
TORSDOF 12
ENDMDL
