MODEL 1
REMARK VINA RESULT:     -11.3      0.000      0.000
REMARK SMILES Cn1ncc(C(=O)OCCOC(=O)c2ccc(-c3c4nc(c(-c5c(F)cccc5F)c5ccc([nH]5)c(-c5c(F)cccc5F)c5nc(c(-c6c(F)cccc6F)c6ccc3[nH]6)C=C5)C=C4)cc2)c1C(=O)Nc1ccccn1
REMARK SMILES IDX 9 1 8 2 6 3 7 4 5 5 1 6 2 7 3 8 68 9 4 10 69 11 70 12 71 13
REMARK SMILES IDX 72 15 73 16 77 17 74 18 76 19 75 20 10 21 11 22 12 23 13 24
REMARK SMILES IDX 14 25 15 26 67 27 16 28 66 29 17 30 18 31 19 32 60 33 20 34
REMARK SMILES IDX 65 35 59 36 61 37 21 38 64 39 58 40 57 41 22 43 48 44 31 45
REMARK SMILES IDX 47 46 32 47 35 48 46 49 62 50 33 51 34 52 45 54 63 55 36 56
REMARK SMILES IDX 23 57 24 58 29 59 25 60 26 61 28 62 30 63 27 64 49 65 50 66
REMARK SMILES IDX 55 67 51 68 52 69 54 70 56 71 53 72 37 73 38 74 43 75 39 76
REMARK SMILES IDX 40 77 42 78 44 79 41 80
REMARK H PARENT 71 14 61 42 35 53
REMARK Flexibility Score: inf
ROOT
ATOM      1  C   UNL A   1      31.741  30.031  25.013  1.00  0.00     0.275 C 
ENDROOT
BRANCH   1   2
ATOM      2  O   UNL A   1      33.087  29.526  25.128  1.00  0.00    -0.458 OA
BRANCH   2   3
ATOM      3  C   UNL A   1      33.507  28.717  24.118  1.00  0.00     0.342 C 
ATOM      4  O   UNL A   1      33.960  29.124  23.051  1.00  0.00    -0.246 OA
BRANCH   3   5
ATOM      5  C   UNL A   1      33.510  27.298  24.435  1.00  0.00     0.111 A 
ATOM      6  C   UNL A   1      34.557  23.989  23.962  1.00  0.00     0.174 C 
ATOM      7  N   UNL A   1      33.783  25.141  24.364  1.00  0.00    -0.262 N 
ATOM      8  N   UNL A   1      33.865  25.425  25.674  1.00  0.00    -0.180 NA
ATOM      9  C   UNL A   1      33.282  26.188  23.605  1.00  0.00     0.140 A 
ATOM     10  C   UNL A   1      33.897  26.750  25.674  1.00  0.00     0.151 A 
BRANCH   9  11
ATOM     11  C   UNL A   1      32.890  26.231  22.207  1.00  0.00     0.275 C 
ATOM     12  O   UNL A   1      33.628  25.777  21.328  1.00  0.00    -0.267 OA
ATOM     13  N   UNL A   1      31.668  26.665  21.765  1.00  0.00    -0.305 N 
ATOM     14  H   UNL A   1      31.533  26.546  20.797  1.00  0.00     0.171 HD
BRANCH  13  15
ATOM     15  C   UNL A   1      30.586  27.235  22.410  1.00  0.00     0.132 A 
ATOM     16  C   UNL A   1      29.767  26.545  23.291  1.00  0.00     0.047 A 
ATOM     17  N   UNL A   1      30.352  28.506  22.026  1.00  0.00    -0.239 NA
ATOM     18  C   UNL A   1      28.600  27.174  23.727  1.00  0.00     0.005 A 
ATOM     19  C   UNL A   1      29.194  29.073  22.421  1.00  0.00     0.113 A 
ATOM     20  C   UNL A   1      28.285  28.445  23.253  1.00  0.00     0.020 A 
ENDBRANCH  13  15
ENDBRANCH   9  11
ENDBRANCH   3   5
ENDBRANCH   2   3
ENDBRANCH   1   2
BRANCH   1  21
ATOM     21  C   UNL A   1      31.416  30.977  26.168  1.00  0.00     0.275 C 
BRANCH  21  22
ATOM     22  O   UNL A   1      32.427  30.893  27.191  1.00  0.00    -0.458 OA
BRANCH  22  23
ATOM     23  C   UNL A   1      33.164  32.015  27.357  1.00  0.00     0.338 C 
ATOM     24  O   UNL A   1      32.790  33.170  27.290  1.00  0.00    -0.246 OA
BRANCH  23  25
ATOM     25  C   UNL A   1      34.533  31.661  27.760  1.00  0.00     0.060 A 
ATOM     26  C   UNL A   1      34.800  30.328  28.037  1.00  0.00     0.016 A 
ATOM     27  C   UNL A   1      35.477  32.636  28.063  1.00  0.00     0.016 A 
ATOM     28  C   UNL A   1      35.931  29.971  28.760  1.00  0.00     0.010 A 
ATOM     29  C   UNL A   1      36.689  32.253  28.657  1.00  0.00     0.010 A 
ATOM     30  C   UNL A   1      36.913  30.921  29.059  1.00  0.00    -0.014 A 
BRANCH  30  31
ATOM     31  C   UNL A   1      38.148  30.522  29.799  1.00  0.00     0.031 A 
ATOM     32  C   UNL A   1      39.164  29.609  29.157  1.00  0.00     0.074 A 
ATOM     33  C   UNL A   1      38.378  30.985  31.046  1.00  0.00     0.049 A 
ATOM     34  N   UNL A   1      40.190  28.998  29.697  1.00  0.00    -0.248 NA
ATOM     35  C   UNL A   1      38.995  29.333  27.722  1.00  0.00     0.031 C 
ATOM     36  C   UNL A   1      37.520  31.918  31.781  1.00  0.00     0.029 A 
ATOM     37  N   UNL A   1      39.408  30.735  31.922  1.00  0.00    -0.354 N 
ATOM     38  C   UNL A   1      40.750  28.223  28.687  1.00  0.00     0.074 A 
ATOM     39  C   UNL A   1      39.943  28.432  27.503  1.00  0.00     0.031 C 
ATOM     40  C   UNL A   1      38.074  32.191  32.970  1.00  0.00     0.029 A 
ATOM     41  C   UNL A   1      39.266  31.371  33.133  1.00  0.00     0.049 A 
ATOM     42  H   UNL A   1      40.174  30.156  31.703  1.00  0.00     0.167 HD
ATOM     43  C   UNL A   1      41.836  27.415  28.741  1.00  0.00     0.037 A 
ATOM     44  C   UNL A   1      39.976  31.269  34.273  1.00  0.00     0.037 A 
ATOM     45  C   UNL A   1      42.667  27.253  29.907  1.00  0.00     0.049 A 
ATOM     46  C   UNL A   1      41.137  30.319  34.328  1.00  0.00     0.074 A 
ATOM     47  C   UNL A   1      43.803  26.473  30.056  1.00  0.00     0.029 A 
ATOM     48  N   UNL A   1      42.460  27.889  31.123  1.00  0.00    -0.354 N 
ATOM     49  N   UNL A   1      41.629  29.559  33.380  1.00  0.00    -0.248 NA
ATOM     50  C   UNL A   1      41.830  30.198  35.618  1.00  0.00     0.031 C 
ATOM     51  C   UNL A   1      44.251  26.597  31.375  1.00  0.00     0.029 A 
ATOM     52  C   UNL A   1      43.432  27.499  32.032  1.00  0.00     0.049 A 
ATOM     53  H   UNL A   1      41.732  28.524  31.311  1.00  0.00     0.167 HD
ATOM     54  C   UNL A   1      42.700  28.886  33.952  1.00  0.00     0.074 A 
ATOM     55  C   UNL A   1      42.799  29.343  35.322  1.00  0.00     0.031 C 
ATOM     56  C   UNL A   1      43.524  27.967  33.392  1.00  0.00     0.037 A 
BRANCH  43  57
ATOM     57  C   UNL A   1      42.174  26.613  27.516  1.00  0.00     0.057 A 
ATOM     58  C   UNL A   1      43.000  27.107  26.498  1.00  0.00     0.134 A 
ATOM     59  C   UNL A   1      41.696  25.302  27.375  1.00  0.00     0.134 A 
ATOM     60  F   UNL A   1      43.485  28.356  26.563  1.00  0.00    -0.206 F 
ATOM     61  C   UNL A   1      43.315  26.338  25.375  1.00  0.00     0.040 A 
ATOM     62  C   UNL A   1      42.028  24.514  26.273  1.00  0.00     0.040 A 
ATOM     63  F   UNL A   1      40.909  24.759  28.317  1.00  0.00    -0.206 F 
ATOM     64  C   UNL A   1      42.834  25.035  25.264  1.00  0.00     0.006 A 
ENDBRANCH  43  57
BRANCH  44  65
ATOM     65  C   UNL A   1      39.570  32.044  35.475  1.00  0.00     0.057 A 
ATOM     66  C   UNL A   1      40.147  33.286  35.766  1.00  0.00     0.134 A 
ATOM     67  C   UNL A   1      38.606  31.559  36.369  1.00  0.00     0.134 A 
ATOM     68  F   UNL A   1      41.094  33.794  34.964  1.00  0.00    -0.206 F 
ATOM     69  C   UNL A   1      39.792  34.009  36.907  1.00  0.00     0.040 A 
ATOM     70  C   UNL A   1      38.216  32.286  37.494  1.00  0.00     0.040 A 
ATOM     71  F   UNL A   1      38.013  30.377  36.149  1.00  0.00    -0.206 F 
ATOM     72  C   UNL A   1      38.817  33.511  37.770  1.00  0.00     0.006 A 
ENDBRANCH  44  65
BRANCH  56  73
ATOM     73  C   UNL A   1      44.630  27.427  34.251  1.00  0.00     0.057 A 
ATOM     74  C   UNL A   1      45.873  28.065  34.348  1.00  0.00     0.134 A 
ATOM     75  C   UNL A   1      44.438  26.266  35.011  1.00  0.00     0.134 A 
ATOM     76  F   UNL A   1      46.127  29.172  33.633  1.00  0.00    -0.206 F 
ATOM     77  C   UNL A   1      46.894  27.553  35.150  1.00  0.00     0.040 A 
ATOM     78  C   UNL A   1      45.440  25.762  35.839  1.00  0.00     0.040 A 
ATOM     79  F   UNL A   1      43.268  25.610  34.969  1.00  0.00    -0.206 F 
ATOM     80  C   UNL A   1      46.676  26.402  35.904  1.00  0.00     0.006 A 
ENDBRANCH  56  73
ENDBRANCH  30  31
ENDBRANCH  23  25
ENDBRANCH  22  23
ENDBRANCH  21  22
ENDBRANCH   1  21
TORSDOF 13
ENDMDL
MODEL 2
REMARK VINA RESULT:     -11.2      1.280      6.520
REMARK SMILES Cn1ncc(C(=O)OCCOC(=O)c2ccc(-c3c4nc(c(-c5c(F)cccc5F)c5ccc([nH]5)c(-c5c(F)cccc5F)c5nc(c(-c6c(F)cccc6F)c6ccc3[nH]6)C=C5)C=C4)cc2)c1C(=O)Nc1ccccn1
REMARK SMILES IDX 9 1 8 2 6 3 7 4 5 5 1 6 2 7 3 8 68 9 4 10 69 11 70 12 71 13
REMARK SMILES IDX 72 15 73 16 77 17 74 18 76 19 75 20 10 21 11 22 12 23 13 24
REMARK SMILES IDX 14 25 15 26 67 27 16 28 66 29 17 30 18 31 19 32 60 33 20 34
REMARK SMILES IDX 65 35 59 36 61 37 21 38 64 39 58 40 57 41 22 43 48 44 31 45
REMARK SMILES IDX 47 46 32 47 35 48 46 49 62 50 33 51 34 52 45 54 63 55 36 56
REMARK SMILES IDX 23 57 24 58 29 59 25 60 26 61 28 62 30 63 27 64 49 65 50 66
REMARK SMILES IDX 55 67 51 68 52 69 54 70 56 71 53 72 37 73 38 74 43 75 39 76
REMARK SMILES IDX 40 77 42 78 44 79 41 80
REMARK H PARENT 71 14 61 42 35 53
REMARK Flexibility Score: inf
ROOT
ATOM      1  C   UNL A   1      31.291  31.363  26.094  1.00  0.00     0.275 C 
ENDROOT
BRANCH   1   2
ATOM      2  O   UNL A   1      31.646  30.096  26.684  1.00  0.00    -0.458 OA
BRANCH   2   3
ATOM      3  C   UNL A   1      32.529  29.338  25.979  1.00  0.00     0.342 C 
ATOM      4  O   UNL A   1      33.743  29.528  25.963  1.00  0.00    -0.246 OA
BRANCH   3   5
ATOM      5  C   UNL A   1      31.950  28.175  25.328  1.00  0.00     0.111 A 
ATOM      6  C   UNL A   1      32.010  25.501  23.065  1.00  0.00     0.174 C 
ATOM      7  N   UNL A   1      31.539  26.530  23.964  1.00  0.00    -0.262 N 
ATOM      8  N   UNL A   1      31.117  26.066  25.153  1.00  0.00    -0.180 NA
ATOM      9  C   UNL A   1      31.781  27.896  23.962  1.00  0.00     0.140 A 
ATOM     10  C   UNL A   1      31.556  26.994  25.990  1.00  0.00     0.151 A 
BRANCH   9  11
ATOM     11  C   UNL A   1      32.084  28.794  22.861  1.00  0.00     0.275 C 
ATOM     12  O   UNL A   1      33.212  28.824  22.361  1.00  0.00    -0.267 OA
ATOM     13  N   UNL A   1      31.154  29.580  22.233  1.00  0.00    -0.305 N 
ATOM     14  H   UNL A   1      31.508  30.062  21.451  1.00  0.00     0.171 HD
BRANCH  13  15
ATOM     15  C   UNL A   1      29.816  29.829  22.480  1.00  0.00     0.132 A 
ATOM     16  C   UNL A   1      29.337  31.038  22.959  1.00  0.00     0.047 A 
ATOM     17  N   UNL A   1      29.034  28.746  22.294  1.00  0.00    -0.239 NA
ATOM     18  C   UNL A   1      27.998  31.102  23.348  1.00  0.00     0.005 A 
ATOM     19  C   UNL A   1      27.758  28.819  22.723  1.00  0.00     0.113 A 
ATOM     20  C   UNL A   1      27.203  29.962  23.266  1.00  0.00     0.020 A 
ENDBRANCH  13  15
ENDBRANCH   9  11
ENDBRANCH   3   5
ENDBRANCH   2   3
ENDBRANCH   1   2
BRANCH   1  21
ATOM     21  C   UNL A   1      31.403  32.489  27.121  1.00  0.00     0.275 C 
BRANCH  21  22
ATOM     22  O   UNL A   1      32.542  33.324  26.834  1.00  0.00    -0.458 OA
BRANCH  22  23
ATOM     23  C   UNL A   1      33.107  33.908  27.915  1.00  0.00     0.338 C 
ATOM     24  O   UNL A   1      32.657  34.810  28.596  1.00  0.00    -0.246 OA
BRANCH  23  25
ATOM     25  C   UNL A   1      34.357  33.217  28.265  1.00  0.00     0.060 A 
ATOM     26  C   UNL A   1      34.292  31.853  28.506  1.00  0.00     0.016 A 
ATOM     27  C   UNL A   1      35.520  33.920  28.556  1.00  0.00     0.016 A 
ATOM     28  C   UNL A   1      35.320  31.208  29.184  1.00  0.00     0.010 A 
ATOM     29  C   UNL A   1      36.615  33.235  29.101  1.00  0.00     0.010 A 
ATOM     30  C   UNL A   1      36.514  31.878  29.468  1.00  0.00    -0.014 A 
BRANCH  30  31
ATOM     31  C   UNL A   1      37.632  31.166  30.159  1.00  0.00     0.031 A 
ATOM     32  C   UNL A   1      37.890  31.392  31.629  1.00  0.00     0.074 A 
ATOM     33  C   UNL A   1      38.415  30.301  29.481  1.00  0.00     0.049 A 
ATOM     34  N   UNL A   1      38.916  31.025  32.357  1.00  0.00    -0.248 NA
ATOM     35  C   UNL A   1      36.869  32.144  32.374  1.00  0.00     0.031 C 
ATOM     36  C   UNL A   1      38.258  29.934  28.071  1.00  0.00     0.029 A 
ATOM     37  N   UNL A   1      39.505  29.567  29.886  1.00  0.00    -0.354 N 
ATOM     38  C   UNL A   1      38.692  31.549  33.625  1.00  0.00     0.074 A 
ATOM     39  C   UNL A   1      37.438  32.270  33.565  1.00  0.00     0.031 C 
ATOM     40  C   UNL A   1      39.183  29.022  27.742  1.00  0.00     0.029 A 
ATOM     41  C   UNL A   1      40.070  28.820  28.879  1.00  0.00     0.049 A 
ATOM     42  H   UNL A   1      39.848  29.576  30.809  1.00  0.00     0.167 HD
ATOM     43  C   UNL A   1      39.460  31.438  34.736  1.00  0.00     0.037 A 
ATOM     44  C   UNL A   1      41.205  28.096  28.846  1.00  0.00     0.037 A 
ATOM     45  C   UNL A   1      40.680  30.675  34.805  1.00  0.00     0.049 A 
ATOM     46  C   UNL A   1      42.071  28.040  30.072  1.00  0.00     0.074 A 
ATOM     47  C   UNL A   1      41.518  30.484  35.892  1.00  0.00     0.029 A 
ATOM     48  N   UNL A   1      41.232  29.966  33.748  1.00  0.00    -0.354 N 
ATOM     49  N   UNL A   1      41.871  28.577  31.250  1.00  0.00    -0.248 NA
ATOM     50  C   UNL A   1      43.331  27.294  29.955  1.00  0.00     0.031 C 
ATOM     51  C   UNL A   1      42.603  29.703  35.477  1.00  0.00     0.029 A 
ATOM     52  C   UNL A   1      42.412  29.359  34.150  1.00  0.00     0.049 A 
ATOM     53  H   UNL A   1      40.843  29.904  32.846  1.00  0.00     0.167 HD
ATOM     54  C   UNL A   1      42.968  28.217  32.021  1.00  0.00     0.074 A 
ATOM     55  C   UNL A   1      43.819  27.398  31.183  1.00  0.00     0.031 C 
ATOM     56  C   UNL A   1      43.247  28.540  33.308  1.00  0.00     0.037 A 
BRANCH  43  57
ATOM     57  C   UNL A   1      39.026  32.187  35.965  1.00  0.00     0.057 A 
ATOM     58  C   UNL A   1      39.410  33.511  36.214  1.00  0.00     0.134 A 
ATOM     59  C   UNL A   1      38.172  31.581  36.898  1.00  0.00     0.134 A 
ATOM     60  F   UNL A   1      40.234  34.150  35.369  1.00  0.00    -0.206 F 
ATOM     61  C   UNL A   1      38.983  34.195  37.355  1.00  0.00     0.040 A 
ATOM     62  C   UNL A   1      37.714  32.263  38.026  1.00  0.00     0.040 A 
ATOM     63  F   UNL A   1      37.754  30.318  36.719  1.00  0.00    -0.206 F 
ATOM     64  C   UNL A   1      38.126  33.572  38.261  1.00  0.00     0.006 A 
ENDBRANCH  43  57
BRANCH  44  65
ATOM     65  C   UNL A   1      41.618  27.416  27.591  1.00  0.00     0.057 A 
ATOM     66  C   UNL A   1      41.321  26.066  27.366  1.00  0.00     0.134 A 
ATOM     67  C   UNL A   1      42.331  28.092  26.591  1.00  0.00     0.134 A 
ATOM     68  F   UNL A   1      40.664  25.356  28.294  1.00  0.00    -0.206 F 
ATOM     69  C   UNL A   1      41.729  25.412  26.202  1.00  0.00     0.040 A 
ATOM     70  C   UNL A   1      42.715  27.460  25.409  1.00  0.00     0.040 A 
ATOM     71  F   UNL A   1      42.647  29.386  26.743  1.00  0.00    -0.206 F 
ATOM     72  C   UNL A   1      42.421  26.113  25.215  1.00  0.00     0.006 A 
ENDBRANCH  44  65
BRANCH  56  73
ATOM     73  C   UNL A   1      44.504  27.973  33.898  1.00  0.00     0.057 A 
ATOM     74  C   UNL A   1      45.715  28.677  33.880  1.00  0.00     0.134 A 
ATOM     75  C   UNL A   1      44.497  26.715  34.514  1.00  0.00     0.134 A 
ATOM     76  F   UNL A   1      45.794  29.880  33.291  1.00  0.00    -0.206 F 
ATOM     77  C   UNL A   1      46.878  28.140  34.433  1.00  0.00     0.040 A 
ATOM     78  C   UNL A   1      45.646  26.180  35.096  1.00  0.00     0.040 A 
ATOM     79  F   UNL A   1      43.369  25.991  34.571  1.00  0.00    -0.206 F 
ATOM     80  C   UNL A   1      46.844  26.891  35.049  1.00  0.00     0.006 A 
ENDBRANCH  56  73
ENDBRANCH  30  31
ENDBRANCH  23  25
ENDBRANCH  22  23
ENDBRANCH  21  22
ENDBRANCH   1  21
TORSDOF 13
ENDMDL
MODEL 3
REMARK VINA RESULT:     -11.2      4.239      8.832
REMARK SMILES Cn1ncc(C(=O)OCCOC(=O)c2ccc(-c3c4nc(c(-c5c(F)cccc5F)c5ccc([nH]5)c(-c5c(F)cccc5F)c5nc(c(-c6c(F)cccc6F)c6ccc3[nH]6)C=C5)C=C4)cc2)c1C(=O)Nc1ccccn1
REMARK SMILES IDX 9 1 8 2 6 3 7 4 5 5 1 6 2 7 3 8 68 9 4 10 69 11 70 12 71 13
REMARK SMILES IDX 72 15 73 16 77 17 74 18 76 19 75 20 10 21 11 22 12 23 13 24
REMARK SMILES IDX 14 25 15 26 67 27 16 28 66 29 17 30 18 31 19 32 60 33 20 34
REMARK SMILES IDX 65 35 59 36 61 37 21 38 64 39 58 40 57 41 22 43 48 44 31 45
REMARK SMILES IDX 47 46 32 47 35 48 46 49 62 50 33 51 34 52 45 54 63 55 36 56
REMARK SMILES IDX 23 57 24 58 29 59 25 60 26 61 28 62 30 63 27 64 49 65 50 66
REMARK SMILES IDX 55 67 51 68 52 69 54 70 56 71 53 72 37 73 38 74 43 75 39 76
REMARK SMILES IDX 40 77 42 78 44 79 41 80
REMARK H PARENT 71 14 61 42 35 53
REMARK Flexibility Score: inf
ROOT
ATOM      1  C   UNL A   1      35.197  20.782  25.282  1.00  0.00     0.275 C 
ENDROOT
BRANCH   1   2
ATOM      2  O   UNL A   1      35.069  22.200  25.050  1.00  0.00    -0.458 OA
BRANCH   2   3
ATOM      3  C   UNL A   1      34.034  22.814  25.682  1.00  0.00     0.342 C 
ATOM      4  O   UNL A   1      34.111  23.326  26.797  1.00  0.00    -0.246 OA
BRANCH   3   5
ATOM      5  C   UNL A   1      32.827  22.951  24.884  1.00  0.00     0.111 A 
ATOM      6  C   UNL A   1      30.239  24.798  23.412  1.00  0.00     0.174 C 
ATOM      7  N   UNL A   1      31.008  23.701  23.954  1.00  0.00    -0.262 N 
ATOM      8  N   UNL A   1      31.523  22.881  23.022  1.00  0.00    -0.180 NA
ATOM      9  C   UNL A   1      31.598  23.555  25.200  1.00  0.00     0.140 A 
ATOM     10  C   UNL A   1      32.715  22.596  23.525  1.00  0.00     0.151 A 
BRANCH   9  11
ATOM     11  C   UNL A   1      31.230  24.122  26.486  1.00  0.00     0.275 C 
ATOM     12  O   UNL A   1      30.719  23.421  27.364  1.00  0.00    -0.267 OA
ATOM     13  N   UNL A   1      31.505  25.410  26.865  1.00  0.00    -0.305 N 
ATOM     14  H   UNL A   1      31.266  25.607  27.799  1.00  0.00     0.171 HD
BRANCH  13  15
ATOM     15  C   UNL A   1      32.053  26.488  26.193  1.00  0.00     0.132 A 
ATOM     16  C   UNL A   1      33.417  26.696  26.061  1.00  0.00     0.047 A 
ATOM     17  N   UNL A   1      31.125  27.366  25.759  1.00  0.00    -0.239 NA
ATOM     18  C   UNL A   1      33.843  27.915  25.531  1.00  0.00     0.005 A 
ATOM     19  C   UNL A   1      31.563  28.555  25.297  1.00  0.00     0.113 A 
ATOM     20  C   UNL A   1      32.901  28.879  25.179  1.00  0.00     0.020 A 
ENDBRANCH  13  15
ENDBRANCH   9  11
ENDBRANCH   3   5
ENDBRANCH   2   3
ENDBRANCH   1   2
BRANCH   1  21
ATOM     21  C   UNL A   1      36.620  20.310  24.985  1.00  0.00     0.275 C 
BRANCH  21  22
ATOM     22  O   UNL A   1      37.558  21.390  25.159  1.00  0.00    -0.458 OA
BRANCH  22  23
ATOM     23  C   UNL A   1      38.718  21.044  25.763  1.00  0.00     0.338 C 
ATOM     24  O   UNL A   1      39.306  19.982  25.699  1.00  0.00    -0.246 OA
BRANCH  23  25
ATOM     25  C   UNL A   1      39.283  22.205  26.467  1.00  0.00     0.060 A 
ATOM     26  C   UNL A   1      38.781  23.459  26.148  1.00  0.00     0.016 A 
ATOM     27  C   UNL A   1      40.419  22.094  27.260  1.00  0.00     0.016 A 
ATOM     28  C   UNL A   1      39.489  24.607  26.480  1.00  0.00     0.010 A 
ATOM     29  C   UNL A   1      41.048  23.259  27.723  1.00  0.00     0.010 A 
ATOM     30  C   UNL A   1      40.621  24.533  27.299  1.00  0.00    -0.014 A 
BRANCH  30  31
ATOM     31  C   UNL A   1      41.354  25.776  27.687  1.00  0.00     0.031 A 
ATOM     32  C   UNL A   1      40.678  26.831  28.528  1.00  0.00     0.074 A 
ATOM     33  C   UNL A   1      42.634  25.964  27.302  1.00  0.00     0.049 A 
ATOM     34  N   UNL A   1      41.071  28.051  28.803  1.00  0.00    -0.248 NA
ATOM     35  C   UNL A   1      39.382  26.475  29.126  1.00  0.00     0.031 C 
ATOM     36  C   UNL A   1      43.442  25.013  26.533  1.00  0.00     0.029 A 
ATOM     37  N   UNL A   1      43.488  27.023  27.505  1.00  0.00    -0.354 N 
ATOM     38  C   UNL A   1      40.049  28.623  29.553  1.00  0.00     0.074 A 
ATOM     39  C   UNL A   1      39.012  27.621  29.680  1.00  0.00     0.031 C 
ATOM     40  C   UNL A   1      44.675  25.509  26.367  1.00  0.00     0.029 A 
ATOM     41  C   UNL A   1      44.718  26.858  26.915  1.00  0.00     0.049 A 
ATOM     42  H   UNL A   1      43.241  27.822  28.025  1.00  0.00     0.167 HD
ATOM     43  C   UNL A   1      39.983  29.867  30.086  1.00  0.00     0.037 A 
ATOM     44  C   UNL A   1      45.752  27.709  26.773  1.00  0.00     0.037 A 
ATOM     45  C   UNL A   1      41.041  30.842  30.002  1.00  0.00     0.049 A 
ATOM     46  C   UNL A   1      45.629  29.103  27.318  1.00  0.00     0.074 A 
ATOM     47  C   UNL A   1      41.077  32.123  30.529  1.00  0.00     0.029 A 
ATOM     48  N   UNL A   1      42.254  30.641  29.360  1.00  0.00    -0.354 N 
ATOM     49  N   UNL A   1      44.640  29.646  27.985  1.00  0.00    -0.248 NA
ATOM     50  C   UNL A   1      46.760  30.009  27.072  1.00  0.00     0.031 C 
ATOM     51  C   UNL A   1      42.290  32.714  30.160  1.00  0.00     0.029 A 
ATOM     52  C   UNL A   1      43.034  31.783  29.455  1.00  0.00     0.049 A 
ATOM     53  H   UNL A   1      42.521  29.810  28.904  1.00  0.00     0.167 HD
ATOM     54  C   UNL A   1      45.036  30.948  28.256  1.00  0.00     0.074 A 
ATOM     55  C   UNL A   1      46.364  31.107  27.701  1.00  0.00     0.031 C 
ATOM     56  C   UNL A   1      44.358  31.927  28.904  1.00  0.00     0.037 A 
BRANCH  43  57
ATOM     57  C   UNL A   1      38.710  30.264  30.780  1.00  0.00     0.057 A 
ATOM     58  C   UNL A   1      38.497  30.040  32.146  1.00  0.00     0.134 A 
ATOM     59  C   UNL A   1      37.695  30.924  30.072  1.00  0.00     0.134 A 
ATOM     60  F   UNL A   1      39.422  29.406  32.883  1.00  0.00    -0.206 F 
ATOM     61  C   UNL A   1      37.314  30.432  32.776  1.00  0.00     0.040 A 
ATOM     62  C   UNL A   1      36.521  31.347  30.696  1.00  0.00     0.040 A 
ATOM     63  F   UNL A   1      37.835  31.182  28.762  1.00  0.00    -0.206 F 
ATOM     64  C   UNL A   1      36.324  31.094  32.051  1.00  0.00     0.006 A 
ENDBRANCH  43  57
BRANCH  44  65
ATOM     65  C   UNL A   1      46.969  27.286  26.033  1.00  0.00     0.057 A 
ATOM     66  C   UNL A   1      47.075  27.463  24.648  1.00  0.00     0.134 A 
ATOM     67  C   UNL A   1      48.052  26.683  26.687  1.00  0.00     0.134 A 
ATOM     68  F   UNL A   1      46.063  28.012  23.959  1.00  0.00    -0.206 F 
ATOM     69  C   UNL A   1      48.203  27.044  23.940  1.00  0.00     0.040 A 
ATOM     70  C   UNL A   1      49.199  26.290  25.998  1.00  0.00     0.040 A 
ATOM     71  F   UNL A   1      48.016  26.484  28.013  1.00  0.00    -0.206 F 
ATOM     72  C   UNL A   1      49.273  26.463  24.619  1.00  0.00     0.006 A 
ENDBRANCH  44  65
BRANCH  56  73
ATOM     73  C   UNL A   1      45.058  33.242  29.082  1.00  0.00     0.057 A 
ATOM     74  C   UNL A   1      45.897  33.494  30.175  1.00  0.00     0.134 A 
ATOM     75  C   UNL A   1      44.910  34.260  28.132  1.00  0.00     0.134 A 
ATOM     76  F   UNL A   1      46.069  32.566  31.128  1.00  0.00    -0.206 F 
ATOM     77  C   UNL A   1      46.543  34.721  30.329  1.00  0.00     0.040 A 
ATOM     78  C   UNL A   1      45.574  35.480  28.259  1.00  0.00     0.040 A 
ATOM     79  F   UNL A   1      44.126  34.082  27.057  1.00  0.00    -0.206 F 
ATOM     80  C   UNL A   1      46.388  35.716  29.365  1.00  0.00     0.006 A 
ENDBRANCH  56  73
ENDBRANCH  30  31
ENDBRANCH  23  25
ENDBRANCH  22  23
ENDBRANCH  21  22
ENDBRANCH   1  21
TORSDOF 13
ENDMDL
