MODEL 1
REMARK VINA RESULT:     -13.2      0.000      0.000
REMARK SMILES O=C(OCCOC(=O)[C@]1(NC(=O)C2CCN(C(=O)C3CC3)CC2)CCCc2ccccc21)c1ccc(-c2c3nc(c(-c4c(F)cccc4F)c4ccc([nH]4)c(-c4c(F)cccc4F)c4nc(c(-c5c(F)cccc5F)c5ccc2[nH]5)C=C4)C=C3)cc1
REMARK SMILES IDX 5 1 4 2 3 3 2 4 1 5 33 6 34 7 86 8 35 9 85 10 36 11 37 12
REMARK SMILES IDX 38 13 79 14 39 15 84 16 78 17 80 18 40 19 83 20 77 21 76 22
REMARK SMILES IDX 41 24 67 25 50 26 66 27 51 28 54 29 65 30 81 31 52 32 53 33
REMARK SMILES IDX 64 35 82 36 55 37 42 38 43 39 48 40 44 41 45 42 47 43 49 44
REMARK SMILES IDX 46 45 68 46 69 47 74 48 70 49 71 50 73 51 75 52 72 53 56 54
REMARK SMILES IDX 57 55 62 56 58 57 59 58 61 59 63 60 60 61 6 62 7 63 8 64
REMARK SMILES IDX 9 65 24 66 32 67 25 68 27 69 31 70 26 71 28 72 30 73 29 74
REMARK SMILES IDX 10 75 11 76 12 78 13 79 14 80 23 81 15 82 22 83 16 84 17 85
REMARK SMILES IDX 18 86 19 87 20 88 21 89
REMARK H PARENT 80 23 54 34 10 77
REMARK Flexibility Score: inf
ROOT
ATOM      1  C   UNL A   1      32.736  31.370  27.283  1.00  0.00     0.274 C 
ENDROOT
BRANCH   1   2
ATOM      2  C   UNL A   1      32.210  32.790  26.875  1.00  0.00     0.275 C 
BRANCH   2   3
ATOM      3  O   UNL A   1      32.139  33.763  27.949  1.00  0.00    -0.458 OA
BRANCH   3   4
ATOM      4  C   UNL A   1      33.150  34.418  28.575  1.00  0.00     0.338 C 
ATOM      5  O   UNL A   1      33.164  35.638  28.673  1.00  0.00    -0.246 OA
BRANCH   4   6
ATOM      6  C   UNL A   1      34.359  33.685  29.017  1.00  0.00     0.060 A 
ATOM      7  C   UNL A   1      34.382  32.707  30.563  1.00  0.00     0.016 A 
ATOM      8  C   UNL A   1      35.872  33.686  27.963  1.00  0.00     0.016 A 
ATOM      9  C   UNL A   1      35.872  31.843  31.099  1.00  0.00     0.010 A 
ATOM     10  C   UNL A   1      37.395  32.783  28.512  1.00  0.00     0.010 A 
ATOM     11  C   UNL A   1      37.374  31.891  30.111  1.00  0.00    -0.014 A 
BRANCH  11  12
ATOM     12  C   UNL A   1      38.509  31.158  30.770  1.00  0.00     0.031 A 
ATOM     13  C   UNL A   1      39.115  29.922  30.158  1.00  0.00     0.074 A 
ATOM     14  C   UNL A   1      39.213  31.727  31.781  1.00  0.00     0.049 A 
ATOM     15  N   UNL A   1      40.268  29.369  30.442  1.00  0.00    -0.248 NA
ATOM     16  C   UNL A   1      38.455  29.327  28.995  1.00  0.00     0.031 C 
ATOM     17  C   UNL A   1      39.072  33.080  32.327  1.00  0.00     0.029 A 
ATOM     18  N   UNL A   1      40.160  31.179  32.618  1.00  0.00    -0.354 N 
ATOM     19  C   UNL A   1      40.545  28.500  29.397  1.00  0.00     0.074 A 
ATOM     20  C   UNL A   1      39.413  28.547  28.502  1.00  0.00     0.031 C 
ATOM     21  C   UNL A   1      39.671  33.160  33.523  1.00  0.00     0.029 A 
ATOM     22  C   UNL A   1      40.294  31.888  33.794  1.00  0.00     0.049 A 
ATOM     23  H   UNL A   1      40.682  30.373  32.402  1.00  0.00     0.167 HD
ATOM     24  C   UNL A   1      41.644  27.728  29.222  1.00  0.00     0.037 A 
ATOM     25  C   UNL A   1      40.791  31.510  34.982  1.00  0.00     0.037 A 
ATOM     26  C   UNL A   1      42.591  27.467  30.273  1.00  0.00     0.049 A 
ATOM     27  C   UNL A   1      41.629  30.281  34.999  1.00  0.00     0.074 A 
ATOM     28  C   UNL A   1      43.630  26.555  30.293  1.00  0.00     0.029 A 
ATOM     29  N   UNL A   1      42.527  28.033  31.538  1.00  0.00    -0.354 N 
ATOM     30  N   UNL A   1      41.932  29.504  33.991  1.00  0.00    -0.248 NA
ATOM     31  C   UNL A   1      42.274  29.932  36.265  1.00  0.00     0.031 C 
ATOM     32  C   UNL A   1      44.091  26.463  31.613  1.00  0.00     0.029 A 
ATOM     33  C   UNL A   1      43.418  27.397  32.383  1.00  0.00     0.049 A 
ATOM     34  H   UNL A   1      41.935  28.777  31.795  1.00  0.00     0.167 HD
ATOM     35  C   UNL A   1      42.881  28.626  34.472  1.00  0.00     0.074 A 
ATOM     36  C   UNL A   1      43.066  28.942  35.876  1.00  0.00     0.031 C 
ATOM     37  C   UNL A   1      43.572  27.686  33.786  1.00  0.00     0.037 A 
BRANCH  24  38
ATOM     38  C   UNL A   1      41.798  26.994  27.927  1.00  0.00     0.057 A 
ATOM     39  C   UNL A   1      41.232  25.729  27.726  1.00  0.00     0.134 A 
ATOM     40  C   UNL A   1      42.448  27.592  26.842  1.00  0.00     0.134 A 
ATOM     41  F   UNL A   1      40.583  25.106  28.721  1.00  0.00    -0.206 F 
ATOM     42  C   UNL A   1      41.319  25.081  26.489  1.00  0.00     0.040 A 
ATOM     43  C   UNL A   1      42.537  26.958  25.602  1.00  0.00     0.040 A 
ATOM     44  F   UNL A   1      42.991  28.812  26.969  1.00  0.00    -0.206 F 
ATOM     45  C   UNL A   1      41.976  25.695  25.423  1.00  0.00     0.006 A 
ENDBRANCH  24  38
BRANCH  25  46
ATOM     46  C   UNL A   1      40.462  32.252  36.222  1.00  0.00     0.057 A 
ATOM     47  C   UNL A   1      39.250  32.102  36.895  1.00  0.00     0.134 A 
ATOM     48  C   UNL A   1      41.365  33.201  36.726  1.00  0.00     0.134 A 
ATOM     49  F   UNL A   1      38.331  31.238  36.443  1.00  0.00    -0.206 F 
ATOM     50  C   UNL A   1      38.939  32.876  38.018  1.00  0.00     0.040 A 
ATOM     51  C   UNL A   1      41.079  33.964  37.859  1.00  0.00     0.040 A 
ATOM     52  F   UNL A   1      42.533  33.421  36.103  1.00  0.00    -0.206 F 
ATOM     53  C   UNL A   1      39.857  33.807  38.505  1.00  0.00     0.006 A 
ENDBRANCH  25  46
BRANCH  37  54
ATOM     54  C   UNL A   1      44.624  26.947  34.545  1.00  0.00     0.057 A 
ATOM     55  C   UNL A   1      45.929  27.434  34.671  1.00  0.00     0.134 A 
ATOM     56  C   UNL A   1      44.316  25.730  35.164  1.00  0.00     0.134 A 
ATOM     57  F   UNL A   1      46.288  28.583  34.079  1.00  0.00    -0.206 F 
ATOM     58  C   UNL A   1      46.904  26.716  35.360  1.00  0.00     0.040 A 
ATOM     59  C   UNL A   1      45.270  25.024  35.891  1.00  0.00     0.040 A 
ATOM     60  F   UNL A   1      43.080  25.213  35.078  1.00  0.00    -0.206 F 
ATOM     61  C   UNL A   1      46.572  25.512  35.980  1.00  0.00     0.006 A 
ENDBRANCH  37  54
ENDBRANCH  11  12
ENDBRANCH   4   6
ENDBRANCH   3   4
ENDBRANCH   2   3
ENDBRANCH   1   2
BRANCH   1  62
ATOM     62  O   UNL A   1      32.041  30.232  26.676  1.00  0.00    -0.460 OA
BRANCH  62  63
ATOM     63  C   UNL A   1      32.743  29.076  26.741  1.00  0.00     0.336 C 
ATOM     64  O   UNL A   1      33.721  29.040  27.485  1.00  0.00    -0.249 OA
BRANCH  63  65
ATOM     65  C   UNL A   1      32.127  27.760  25.987  1.00  0.00     0.164 C 
ATOM     66  C   UNL A   1      33.391  27.166  25.207  1.00  0.00     0.046 C 
ATOM     67  C   UNL A   1      31.231  28.091  24.700  1.00  0.00    -0.008 A 
ATOM     68  C   UNL A   1      34.077  28.159  24.222  1.00  0.00     0.008 C 
ATOM     69  C   UNL A   1      31.684  28.890  23.640  1.00  0.00    -0.042 A 
ATOM     70  C   UNL A   1      30.119  27.326  24.324  1.00  0.00     0.007 A 
ATOM     71  C   UNL A   1      33.149  28.906  23.276  1.00  0.00     0.036 C 
ATOM     72  C   UNL A   1      30.825  29.281  22.576  1.00  0.00     0.004 A 
ATOM     73  C   UNL A   1      29.338  27.564  23.184  1.00  0.00     0.000 A 
ATOM     74  C   UNL A   1      29.627  28.626  22.364  1.00  0.00     0.000 A 
BRANCH  65  75
ATOM     75  N   UNL A   1      31.283  26.430  26.848  1.00  0.00    -0.336 N 
ATOM     76  C   UNL A   1      30.511  24.629  26.768  1.00  0.00     0.224 C 
ATOM     77  H   UNL A   1      31.145  26.745  27.770  1.00  0.00     0.164 HD
ATOM     78  O   UNL A   1      29.348  24.228  27.122  1.00  0.00    -0.275 OA
BRANCH  76  79
ATOM     79  C   UNL A   1      31.209  23.094  26.220  1.00  0.00     0.082 C 
ATOM     80  C   UNL A   1      32.187  22.495  27.281  1.00  0.00     0.035 C 
ATOM     81  C   UNL A   1      31.944  23.357  24.881  1.00  0.00     0.035 C 
ATOM     82  C   UNL A   1      33.620  23.042  27.251  1.00  0.00     0.120 C 
ATOM     83  C   UNL A   1      33.286  24.025  25.086  1.00  0.00     0.120 C 
ATOM     84  N   UNL A   1      34.098  23.141  25.875  1.00  0.00    -0.342 N 
ATOM     85  C   UNL A   1      35.082  22.283  25.409  1.00  0.00     0.225 C 
ATOM     86  O   UNL A   1      35.639  21.488  26.164  1.00  0.00    -0.275 OA
BRANCH  85  87
ATOM     87  C   UNL A   1      35.543  22.262  23.982  1.00  0.00     0.079 C 
ATOM     88  C   UNL A   1      35.524  23.341  22.932  1.00  0.00     0.014 C 
ATOM     89  C   UNL A   1      36.828  22.935  23.570  1.00  0.00     0.014 C 
ENDBRANCH  85  87
ENDBRANCH  76  79
ENDBRANCH  65  75
ENDBRANCH  63  65
ENDBRANCH  62  63
ENDBRANCH   1  62
TORSDOF 14
ENDMDL
MODEL 2
REMARK VINA RESULT:     -12.9      0.503      6.037
REMARK SMILES O=C(OCCOC(=O)[C@]1(NC(=O)C2CCN(C(=O)C3CC3)CC2)CCCc2ccccc21)c1ccc(-c2c3nc(c(-c4c(F)cccc4F)c4ccc([nH]4)c(-c4c(F)cccc4F)c4nc(c(-c5c(F)cccc5F)c5ccc2[nH]5)C=C4)C=C3)cc1
REMARK SMILES IDX 5 1 4 2 3 3 2 4 1 5 33 6 34 7 86 8 35 9 85 10 36 11 37 12
REMARK SMILES IDX 38 13 79 14 39 15 84 16 78 17 80 18 40 19 83 20 77 21 76 22
REMARK SMILES IDX 41 24 67 25 50 26 66 27 51 28 54 29 65 30 81 31 52 32 53 33
REMARK SMILES IDX 64 35 82 36 55 37 42 38 43 39 48 40 44 41 45 42 47 43 49 44
REMARK SMILES IDX 46 45 68 46 69 47 74 48 70 49 71 50 73 51 75 52 72 53 56 54
REMARK SMILES IDX 57 55 62 56 58 57 59 58 61 59 63 60 60 61 6 62 7 63 8 64
REMARK SMILES IDX 9 65 24 66 32 67 25 68 27 69 31 70 26 71 28 72 30 73 29 74
REMARK SMILES IDX 10 75 11 76 12 78 13 79 14 80 23 81 15 82 22 83 16 84 17 85
REMARK SMILES IDX 18 86 19 87 20 88 21 89
REMARK H PARENT 80 23 54 34 10 77
REMARK Flexibility Score: inf
ROOT
ATOM      1  C   UNL A   1      32.609  31.317  26.966  1.00  0.00     0.274 C 
ENDROOT
BRANCH   1   2
ATOM      2  C   UNL A   1      31.615  32.509  27.197  1.00  0.00     0.275 C 
BRANCH   2   3
ATOM      3  O   UNL A   1      32.229  33.817  27.331  1.00  0.00    -0.458 OA
BRANCH   3   4
ATOM      4  C   UNL A   1      32.976  34.308  28.353  1.00  0.00     0.338 C 
ATOM      5  O   UNL A   1      32.743  35.402  28.852  1.00  0.00    -0.246 OA
BRANCH   4   6
ATOM      6  C   UNL A   1      34.206  33.608  28.788  1.00  0.00     0.060 A 
ATOM      7  C   UNL A   1      34.202  32.438  30.196  1.00  0.00     0.016 A 
ATOM      8  C   UNL A   1      35.781  33.852  27.862  1.00  0.00     0.016 A 
ATOM      9  C   UNL A   1      35.716  31.615  30.729  1.00  0.00     0.010 A 
ATOM     10  C   UNL A   1      37.330  32.991  28.406  1.00  0.00     0.010 A 
ATOM     11  C   UNL A   1      37.272  31.897  29.873  1.00  0.00    -0.014 A 
BRANCH  11  12
ATOM     12  C   UNL A   1      38.414  31.163  30.517  1.00  0.00     0.031 A 
ATOM     13  C   UNL A   1      39.009  31.614  31.826  1.00  0.00     0.074 A 
ATOM     14  C   UNL A   1      38.769  29.920  30.101  1.00  0.00     0.049 A 
ATOM     15  N   UNL A   1      39.774  30.928  32.639  1.00  0.00    -0.248 NA
ATOM     16  C   UNL A   1      38.581  32.900  32.378  1.00  0.00     0.031 C 
ATOM     17  C   UNL A   1      38.113  29.090  29.086  1.00  0.00     0.029 A 
ATOM     18  N   UNL A   1      39.865  29.155  30.432  1.00  0.00    -0.354 N 
ATOM     19  C   UNL A   1      39.763  31.612  33.845  1.00  0.00     0.074 A 
ATOM     20  C   UNL A   1      38.970  32.801  33.645  1.00  0.00     0.031 C 
ATOM     21  C   UNL A   1      38.933  28.104  28.696  1.00  0.00     0.029 A 
ATOM     22  C   UNL A   1      40.140  28.195  29.480  1.00  0.00     0.049 A 
ATOM     23  H   UNL A   1      40.392  29.279  31.254  1.00  0.00     0.167 HD
ATOM     24  C   UNL A   1      40.377  31.272  35.003  1.00  0.00     0.037 A 
ATOM     25  C   UNL A   1      41.277  27.528  29.225  1.00  0.00     0.037 A 
ATOM     26  C   UNL A   1      41.404  30.267  35.077  1.00  0.00     0.049 A 
ATOM     27  C   UNL A   1      42.316  27.541  30.289  1.00  0.00     0.074 A 
ATOM     28  C   UNL A   1      42.242  29.964  36.134  1.00  0.00     0.029 A 
ATOM     29  N   UNL A   1      41.814  29.492  34.002  1.00  0.00    -0.354 N 
ATOM     30  N   UNL A   1      42.267  28.143  31.451  1.00  0.00    -0.248 NA
ATOM     31  C   UNL A   1      43.506  26.718  30.070  1.00  0.00     0.031 C 
ATOM     32  C   UNL A   1      43.251  29.120  35.651  1.00  0.00     0.029 A 
ATOM     33  C   UNL A   1      42.973  28.811  34.329  1.00  0.00     0.049 A 
ATOM     34  H   UNL A   1      41.350  29.435  33.136  1.00  0.00     0.167 HD
ATOM     35  C   UNL A   1      43.371  27.696  32.147  1.00  0.00     0.074 A 
ATOM     36  C   UNL A   1      44.094  26.809  31.255  1.00  0.00     0.031 C 
ATOM     37  C   UNL A   1      43.711  27.960  33.430  1.00  0.00     0.037 A 
BRANCH  24  38
ATOM     38  C   UNL A   1      40.084  32.081  36.227  1.00  0.00     0.057 A 
ATOM     39  C   UNL A   1      40.913  33.136  36.629  1.00  0.00     0.134 A 
ATOM     40  C   UNL A   1      38.918  31.857  36.967  1.00  0.00     0.134 A 
ATOM     41  F   UNL A   1      42.039  33.413  35.956  1.00  0.00    -0.206 F 
ATOM     42  C   UNL A   1      40.593  33.933  37.733  1.00  0.00     0.040 A 
ATOM     43  C   UNL A   1      38.586  32.648  38.067  1.00  0.00     0.040 A 
ATOM     44  F   UNL A   1      38.075  30.874  36.617  1.00  0.00    -0.206 F 
ATOM     45  C   UNL A   1      39.427  33.688  38.457  1.00  0.00     0.006 A 
ENDBRANCH  24  38
BRANCH  25  46
ATOM     46  C   UNL A   1      41.503  26.868  27.918  1.00  0.00     0.057 A 
ATOM     47  C   UNL A   1      41.278  25.508  27.707  1.00  0.00     0.134 A 
ATOM     48  C   UNL A   1      42.027  27.608  26.845  1.00  0.00     0.134 A 
ATOM     49  F   UNL A   1      40.813  24.741  28.702  1.00  0.00    -0.206 F 
ATOM     50  C   UNL A   1      41.577  24.900  26.483  1.00  0.00     0.040 A 
ATOM     51  C   UNL A   1      42.309  27.021  25.611  1.00  0.00     0.040 A 
ATOM     52  F   UNL A   1      42.301  28.913  26.994  1.00  0.00    -0.206 F 
ATOM     53  C   UNL A   1      42.090  25.659  25.430  1.00  0.00     0.006 A 
ENDBRANCH  25  46
BRANCH  37  54
ATOM     54  C   UNL A   1      44.912  27.249  33.960  1.00  0.00     0.057 A 
ATOM     55  C   UNL A   1      44.826  25.983  34.547  1.00  0.00     0.134 A 
ATOM     56  C   UNL A   1      46.175  27.846  33.871  1.00  0.00     0.134 A 
ATOM     57  F   UNL A   1      43.639  25.372  34.680  1.00  0.00    -0.206 F 
ATOM     58  C   UNL A   1      45.954  25.347  35.061  1.00  0.00     0.040 A 
ATOM     59  C   UNL A   1      47.315  27.204  34.343  1.00  0.00     0.040 A 
ATOM     60  F   UNL A   1      46.320  29.060  33.318  1.00  0.00    -0.206 F 
ATOM     61  C   UNL A   1      47.204  25.954  34.950  1.00  0.00     0.006 A 
ENDBRANCH  37  54
ENDBRANCH  11  12
ENDBRANCH   4   6
ENDBRANCH   3   4
ENDBRANCH   2   3
ENDBRANCH   1   2
BRANCH   1  62
ATOM     62  O   UNL A   1      32.138  30.258  26.070  1.00  0.00    -0.460 OA
BRANCH  62  63
ATOM     63  C   UNL A   1      32.727  29.059  26.298  1.00  0.00     0.336 C 
ATOM     64  O   UNL A   1      33.659  29.022  27.098  1.00  0.00    -0.249 OA
BRANCH  63  65
ATOM     65  C   UNL A   1      32.031  27.726  25.652  1.00  0.00     0.164 C 
ATOM     66  C   UNL A   1      33.162  27.168  24.668  1.00  0.00     0.046 C 
ATOM     67  C   UNL A   1      30.922  28.032  24.534  1.00  0.00    -0.008 A 
ATOM     68  C   UNL A   1      33.645  28.180  23.587  1.00  0.00     0.008 C 
ATOM     69  C   UNL A   1      31.169  28.843  23.417  1.00  0.00    -0.042 A 
ATOM     70  C   UNL A   1      29.785  27.235  24.346  1.00  0.00     0.007 A 
ATOM     71  C   UNL A   1      32.551  28.901  22.813  1.00  0.00     0.036 C 
ATOM     72  C   UNL A   1      30.134  29.209  22.514  1.00  0.00     0.004 A 
ATOM     73  C   UNL A   1      28.817  27.451  23.354  1.00  0.00     0.000 A 
ATOM     74  C   UNL A   1      28.935  28.520  22.502  1.00  0.00     0.000 A 
BRANCH  65  75
ATOM     75  N   UNL A   1      31.379  26.372  26.635  1.00  0.00    -0.336 N 
ATOM     76  C   UNL A   1      30.679  24.541  26.681  1.00  0.00     0.224 C 
ATOM     77  H   UNL A   1      31.368  26.692  27.566  1.00  0.00     0.164 HD
ATOM     78  O   UNL A   1      29.600  24.099  27.206  1.00  0.00    -0.275 OA
BRANCH  76  79
ATOM     79  C   UNL A   1      31.350  23.030  26.041  1.00  0.00     0.082 C 
ATOM     80  C   UNL A   1      32.194  22.274  27.117  1.00  0.00     0.035 C 
ATOM     81  C   UNL A   1      32.219  23.380  24.806  1.00  0.00     0.035 C 
ATOM     82  C   UNL A   1      33.647  22.736  27.271  1.00  0.00     0.120 C 
ATOM     83  C   UNL A   1      33.567  23.946  25.198  1.00  0.00     0.120 C 
ATOM     84  N   UNL A   1      34.257  22.943  25.960  1.00  0.00    -0.342 N 
ATOM     85  C   UNL A   1      35.238  22.079  25.498  1.00  0.00     0.225 C 
ATOM     86  O   UNL A   1      35.682  21.183  26.213  1.00  0.00    -0.275 OA
BRANCH  85  87
ATOM     87  C   UNL A   1      35.829  22.172  24.122  1.00  0.00     0.079 C 
ATOM     88  C   UNL A   1      35.832  23.307  23.133  1.00  0.00     0.014 C 
ATOM     89  C   UNL A   1      37.097  22.950  23.872  1.00  0.00     0.014 C 
ENDBRANCH  85  87
ENDBRANCH  76  79
ENDBRANCH  65  75
ENDBRANCH  63  65
ENDBRANCH  62  63
ENDBRANCH   1  62
TORSDOF 14
ENDMDL
MODEL 3
REMARK VINA RESULT:     -12.8      4.146      9.720
REMARK SMILES O=C(OCCOC(=O)[C@]1(NC(=O)C2CCN(C(=O)C3CC3)CC2)CCCc2ccccc21)c1ccc(-c2c3nc(c(-c4c(F)cccc4F)c4ccc([nH]4)c(-c4c(F)cccc4F)c4nc(c(-c5c(F)cccc5F)c5ccc2[nH]5)C=C4)C=C3)cc1
REMARK SMILES IDX 5 1 4 2 3 3 2 4 1 5 33 6 34 7 86 8 35 9 85 10 36 11 37 12
REMARK SMILES IDX 38 13 79 14 39 15 84 16 78 17 80 18 40 19 83 20 77 21 76 22
REMARK SMILES IDX 41 24 67 25 50 26 66 27 51 28 54 29 65 30 81 31 52 32 53 33
REMARK SMILES IDX 64 35 82 36 55 37 42 38 43 39 48 40 44 41 45 42 47 43 49 44
REMARK SMILES IDX 46 45 68 46 69 47 74 48 70 49 71 50 73 51 75 52 72 53 56 54
REMARK SMILES IDX 57 55 62 56 58 57 59 58 61 59 63 60 60 61 6 62 7 63 8 64
REMARK SMILES IDX 9 65 24 66 32 67 25 68 27 69 31 70 26 71 28 72 30 73 29 74
REMARK SMILES IDX 10 75 11 76 12 78 13 79 14 80 23 81 15 82 22 83 16 84 17 85
REMARK SMILES IDX 18 86 19 87 20 88 21 89
REMARK H PARENT 80 23 54 34 10 77
REMARK Flexibility Score: inf
ROOT
ATOM      1  C   UNL A   1      38.022  20.832  25.442  1.00  0.00     0.274 C 
ENDROOT
BRANCH   1   2
ATOM      2  C   UNL A   1      38.864  19.603  24.951  1.00  0.00     0.275 C 
BRANCH   2   3
ATOM      3  O   UNL A   1      39.872  19.125  25.879  1.00  0.00    -0.458 OA
BRANCH   3   4
ATOM      4  C   UNL A   1      41.154  19.544  26.037  1.00  0.00     0.338 C 
ATOM      5  O   UNL A   1      42.097  18.765  25.984  1.00  0.00    -0.246 OA
BRANCH   4   6
ATOM      6  C   UNL A   1      41.442  20.937  26.449  1.00  0.00     0.060 A 
ATOM      7  C   UNL A   1      42.019  22.196  25.252  1.00  0.00     0.016 A 
ATOM      8  C   UNL A   1      41.157  21.459  28.194  1.00  0.00     0.016 A 
ATOM      9  C   UNL A   1      42.392  23.880  25.778  1.00  0.00     0.010 A 
ATOM     10  C   UNL A   1      41.528  23.196  28.723  1.00  0.00     0.010 A 
ATOM     11  C   UNL A   1      42.179  24.383  27.491  1.00  0.00    -0.014 A 
BRANCH  11  12
ATOM     12  C   UNL A   1      42.604  25.806  27.721  1.00  0.00     0.031 A 
ATOM     13  C   UNL A   1      41.630  26.860  28.180  1.00  0.00     0.074 A 
ATOM     14  C   UNL A   1      43.918  26.138  27.798  1.00  0.00     0.049 A 
ATOM     15  N   UNL A   1      41.902  28.030  28.702  1.00  0.00    -0.248 NA
ATOM     16  C   UNL A   1      40.207  26.522  28.219  1.00  0.00     0.031 C 
ATOM     17  C   UNL A   1      45.077  25.241  27.757  1.00  0.00     0.029 A 
ATOM     18  N   UNL A   1      44.517  27.377  27.834  1.00  0.00    -0.354 N 
ATOM     19  C   UNL A   1      40.724  28.473  29.285  1.00  0.00     0.074 A 
ATOM     20  C   UNL A   1      39.716  27.479  29.000  1.00  0.00     0.031 C 
ATOM     21  C   UNL A   1      46.192  25.939  27.503  1.00  0.00     0.029 A 
ATOM     22  C   UNL A   1      45.836  27.334  27.430  1.00  0.00     0.049 A 
ATOM     23  H   UNL A   1      44.058  28.201  28.117  1.00  0.00     0.167 HD
ATOM     24  C   UNL A   1      40.514  29.616  29.980  1.00  0.00     0.037 A 
ATOM     25  C   UNL A   1      46.634  28.311  26.971  1.00  0.00     0.037 A 
ATOM     26  C   UNL A   1      41.441  30.717  29.972  1.00  0.00     0.049 A 
ATOM     27  C   UNL A   1      46.196  29.710  27.223  1.00  0.00     0.074 A 
ATOM     28  C   UNL A   1      41.267  31.997  30.464  1.00  0.00     0.029 A 
ATOM     29  N   UNL A   1      42.668  30.697  29.325  1.00  0.00    -0.354 N 
ATOM     30  N   UNL A   1      45.109  30.112  27.830  1.00  0.00    -0.248 NA
ATOM     31  C   UNL A   1      47.119  30.777  26.835  1.00  0.00     0.031 C 
ATOM     32  C   UNL A   1      42.319  32.786  29.981  1.00  0.00     0.029 A 
ATOM     33  C   UNL A   1      43.201  31.973  29.290  1.00  0.00     0.049 A 
ATOM     34  H   UNL A   1      43.095  29.894  28.948  1.00  0.00     0.167 HD
ATOM     35  C   UNL A   1      45.255  31.476  27.988  1.00  0.00     0.074 A 
ATOM     36  C   UNL A   1      46.519  31.832  27.369  1.00  0.00     0.031 C 
ATOM     37  C   UNL A   1      44.436  32.333  28.640  1.00  0.00     0.037 A 
BRANCH  24  38
ATOM     38  C   UNL A   1      39.196  29.802  30.663  1.00  0.00     0.057 A 
ATOM     39  C   UNL A   1      38.994  29.415  31.994  1.00  0.00     0.134 A 
ATOM     40  C   UNL A   1      38.141  30.449  30.010  1.00  0.00     0.134 A 
ATOM     41  F   UNL A   1      39.969  28.803  32.681  1.00  0.00    -0.206 F 
ATOM     42  C   UNL A   1      37.781  29.658  32.646  1.00  0.00     0.040 A 
ATOM     43  C   UNL A   1      36.928  30.701  30.652  1.00  0.00     0.040 A 
ATOM     44  F   UNL A   1      38.282  30.860  28.742  1.00  0.00    -0.206 F 
ATOM     45  C   UNL A   1      36.742  30.301  31.974  1.00  0.00     0.006 A 
ENDBRANCH  24  38
BRANCH  25  46
ATOM     46  C   UNL A   1      47.857  28.000  26.194  1.00  0.00     0.057 A 
ATOM     47  C   UNL A   1      47.832  27.686  24.835  1.00  0.00     0.134 A 
ATOM     48  C   UNL A   1      49.100  27.948  26.844  1.00  0.00     0.134 A 
ATOM     49  F   UNL A   1      46.671  27.683  24.166  1.00  0.00    -0.206 F 
ATOM     50  C   UNL A   1      48.995  27.320  24.149  1.00  0.00     0.040 A 
ATOM     51  C   UNL A   1      50.273  27.607  26.168  1.00  0.00     0.040 A 
ATOM     52  F   UNL A   1      49.187  28.202  28.158  1.00  0.00    -0.206 F 
ATOM     53  C   UNL A   1      50.221  27.284  24.816  1.00  0.00     0.006 A 
ENDBRANCH  25  46
BRANCH  37  54
ATOM     54  C   UNL A   1      44.901  33.747  28.746  1.00  0.00     0.057 A 
ATOM     55  C   UNL A   1      45.758  34.172  29.767  1.00  0.00     0.134 A 
ATOM     56  C   UNL A   1      44.485  34.693  27.803  1.00  0.00     0.134 A 
ATOM     57  F   UNL A   1      46.171  33.315  30.712  1.00  0.00    -0.206 F 
ATOM     58  C   UNL A   1      46.159  35.503  29.864  1.00  0.00     0.040 A 
ATOM     59  C   UNL A   1      44.912  36.016  27.865  1.00  0.00     0.040 A 
ATOM     60  F   UNL A   1      43.663  34.344  26.801  1.00  0.00    -0.206 F 
ATOM     61  C   UNL A   1      45.743  36.426  28.906  1.00  0.00     0.006 A 
ENDBRANCH  37  54
ENDBRANCH  11  12
ENDBRANCH   4   6
ENDBRANCH   3   4
ENDBRANCH   2   3
ENDBRANCH   1   2
BRANCH   1  62
ATOM     62  O   UNL A   1      37.240  21.522  24.413  1.00  0.00    -0.460 OA
BRANCH  62  63
ATOM     63  C   UNL A   1      36.738  22.710  24.826  1.00  0.00     0.336 C 
ATOM     64  O   UNL A   1      37.522  23.530  25.298  1.00  0.00    -0.249 OA
BRANCH  63  65
ATOM     65  C   UNL A   1      35.173  23.044  24.484  1.00  0.00     0.164 C 
ATOM     66  C   UNL A   1      34.621  23.644  25.860  1.00  0.00     0.046 C 
ATOM     67  C   UNL A   1      34.217  21.757  24.426  1.00  0.00    -0.008 A 
ATOM     68  C   UNL A   1      34.782  22.705  27.093  1.00  0.00     0.008 C 
ATOM     69  C   UNL A   1      34.131  20.824  25.469  1.00  0.00    -0.042 A 
ATOM     70  C   UNL A   1      33.124  21.655  23.555  1.00  0.00     0.007 A 
ATOM     71  C   UNL A   1      34.326  21.267  26.898  1.00  0.00     0.036 C 
ATOM     72  C   UNL A   1      33.381  19.623  25.339  1.00  0.00     0.004 A 
ATOM     73  C   UNL A   1      32.246  20.562  23.506  1.00  0.00     0.000 A 
ATOM     74  C   UNL A   1      32.448  19.482  24.329  1.00  0.00     0.000 A 
BRANCH  65  75
ATOM     75  N   UNL A   1      34.658  24.102  23.127  1.00  0.00    -0.336 N 
ATOM     76  C   UNL A   1      33.182  24.905  22.117  1.00  0.00     0.224 C 
ATOM     77  H   UNL A   1      35.486  24.421  22.700  1.00  0.00     0.164 HD
ATOM     78  O   UNL A   1      32.967  24.903  20.856  1.00  0.00    -0.275 OA
BRANCH  76  79
ATOM     79  C   UNL A   1      31.787  25.853  22.663  1.00  0.00     0.082 C 
ATOM     80  C   UNL A   1      31.813  27.303  22.083  1.00  0.00     0.035 C 
ATOM     81  C   UNL A   1      31.807  25.880  24.213  1.00  0.00     0.035 C 
ATOM     82  C   UNL A   1      32.674  28.314  22.850  1.00  0.00     0.120 C 
ATOM     83  C   UNL A   1      32.828  26.858  24.754  1.00  0.00     0.120 C 
ATOM     84  N   UNL A   1      32.467  28.168  24.289  1.00  0.00    -0.342 N 
ATOM     85  C   UNL A   1      31.792  29.144  25.004  1.00  0.00     0.225 C 
ATOM     86  O   UNL A   1      31.436  30.192  24.467  1.00  0.00    -0.275 OA
BRANCH  85  87
ATOM     87  C   UNL A   1      31.454  29.009  26.460  1.00  0.00     0.079 C 
ATOM     88  C   UNL A   1      31.867  27.967  27.466  1.00  0.00     0.014 C 
ATOM     89  C   UNL A   1      32.464  29.351  27.526  1.00  0.00     0.014 C 
ENDBRANCH  85  87
ENDBRANCH  76  79
ENDBRANCH  65  75
ENDBRANCH  63  65
ENDBRANCH  62  63
ENDBRANCH   1  62
TORSDOF 14
ENDMDL
