MODEL 1
REMARK VINA RESULT:     -12.0      0.000      0.000
REMARK SMILES O=C(OCCOC(=O)[C@H]1C=C[C@H](NS(=O)(=O)c2ccc3c(c2)CCO3)C1)c1ccc(-c2c3nc(c(-c4c(F)cccc4F)c4ccc([nH]4)c(-c4c(F)cccc4F)c4nc(c(-c5c(F)cccc5F)c5ccc2[nH]5)C=C4)C=C3)cc1
REMARK SMILES IDX 5 1 4 2 3 3 2 4 1 5 27 6 28 7 80 8 29 9 79 10 30 11 31 12
REMARK SMILES IDX 32 13 73 14 33 15 78 16 72 17 74 18 34 19 77 20 71 21 70 22
REMARK SMILES IDX 35 24 61 25 44 26 60 27 45 28 48 29 59 30 75 31 46 32 47 33
REMARK SMILES IDX 58 35 76 36 49 37 36 38 37 39 42 40 38 41 39 42 41 43 43 44
REMARK SMILES IDX 40 45 62 46 63 47 68 48 64 49 65 50 67 51 69 52 66 53 50 54
REMARK SMILES IDX 51 55 56 56 52 57 53 58 55 59 57 60 54 61 6 62 7 63 8 64
REMARK SMILES IDX 9 65 10 66 26 67 11 68 12 69 13 70 14 72 15 73 16 74 17 75
REMARK SMILES IDX 18 76 22 77 19 78 21 79 20 80 23 81 25 82 24 83
REMARK H PARENT 74 23 48 34 13 71
REMARK Flexibility Score: inf
ROOT
ATOM      1  C   UNL A   1      44.341  19.343  25.060  1.00  0.00     0.274 C 
ENDROOT
BRANCH   1   2
ATOM      2  C   UNL A   1      45.079  20.369  24.188  1.00  0.00     0.275 C 
BRANCH   2   3
ATOM      3  O   UNL A   1      44.457  21.655  24.109  1.00  0.00    -0.458 OA
BRANCH   3   4
ATOM      4  C   UNL A   1      44.982  22.879  24.329  1.00  0.00     0.338 C 
ATOM      5  O   UNL A   1      45.783  23.321  23.506  1.00  0.00    -0.246 OA
BRANCH   4   6
ATOM      6  C   UNL A   1      44.719  23.707  25.557  1.00  0.00     0.060 A 
ATOM      7  C   UNL A   1      45.401  24.855  25.981  1.00  0.00     0.016 A 
ATOM      8  C   UNL A   1      43.620  23.299  26.323  1.00  0.00     0.016 A 
ATOM      9  C   UNL A   1      44.932  25.641  27.041  1.00  0.00     0.010 A 
ATOM     10  C   UNL A   1      43.119  24.105  27.344  1.00  0.00     0.010 A 
ATOM     11  C   UNL A   1      43.744  25.314  27.683  1.00  0.00    -0.014 A 
BRANCH  11  12
ATOM     12  C   UNL A   1      43.138  26.156  28.743  1.00  0.00     0.031 A 
ATOM     13  C   UNL A   1      43.692  26.004  30.124  1.00  0.00     0.074 A 
ATOM     14  C   UNL A   1      42.179  27.075  28.434  1.00  0.00     0.049 A 
ATOM     15  N   UNL A   1      43.471  26.721  31.190  1.00  0.00    -0.248 NA
ATOM     16  C   UNL A   1      44.729  24.965  30.297  1.00  0.00     0.031 C 
ATOM     17  C   UNL A   1      42.108  27.792  26.664  1.00  0.00     0.029 A 
ATOM     18  N   UNL A   1      41.228  28.183  29.547  1.00  0.00    -0.354 N 
ATOM     19  C   UNL A   1      44.357  26.233  32.142  1.00  0.00     0.074 A 
ATOM     20  C   UNL A   1      45.044  25.102  31.570  1.00  0.00     0.031 C 
ATOM     21  C   UNL A   1      41.331  29.274  26.673  1.00  0.00     0.029 A 
ATOM     22  C   UNL A   1      40.628  29.733  28.645  1.00  0.00     0.049 A 
ATOM     23  H   UNL A   1      41.050  27.994  30.497  1.00  0.00     0.167 HD
ATOM     24  C   UNL A   1      44.643  26.738  33.361  1.00  0.00     0.037 A 
ATOM     25  C   UNL A   1      39.376  30.194  29.339  1.00  0.00     0.037 A 
ATOM     26  C   UNL A   1      43.934  27.840  33.942  1.00  0.00     0.049 A 
ATOM     27  C   UNL A   1      39.671  30.385  30.828  1.00  0.00     0.074 A 
ATOM     28  C   UNL A   1      44.113  28.398  35.190  1.00  0.00     0.029 A 
ATOM     29  N   UNL A   1      42.888  28.531  33.328  1.00  0.00    -0.354 N 
ATOM     30  N   UNL A   1      40.619  29.878  31.588  1.00  0.00    -0.248 NA
ATOM     31  C   UNL A   1      38.848  31.399  31.493  1.00  0.00     0.031 C 
ATOM     32  C   UNL A   1      43.134  29.380  35.358  1.00  0.00     0.029 A 
ATOM     33  C   UNL A   1      42.390  29.496  34.187  1.00  0.00     0.049 A 
ATOM     34  H   UNL A   1      42.555  28.358  32.417  1.00  0.00     0.167 HD
ATOM     35  C   UNL A   1      40.548  30.544  32.805  1.00  0.00     0.074 A 
ATOM     36  C   UNL A   1      39.465  31.506  32.662  1.00  0.00     0.031 C 
ATOM     37  C   UNL A   1      41.308  30.426  33.928  1.00  0.00     0.037 A 
BRANCH  24  38
ATOM     38  C   UNL A   1      45.762  26.062  34.106  1.00  0.00     0.057 A 
ATOM     39  C   UNL A   1      47.100  26.459  33.941  1.00  0.00     0.134 A 
ATOM     40  C   UNL A   1      45.520  24.940  34.904  1.00  0.00     0.134 A 
ATOM     41  F   UNL A   1      47.409  27.500  33.150  1.00  0.00    -0.206 F 
ATOM     42  C   UNL A   1      48.156  25.739  34.506  1.00  0.00     0.040 A 
ATOM     43  C   UNL A   1      46.565  24.229  35.499  1.00  0.00     0.040 A 
ATOM     44  F   UNL A   1      44.269  24.495  35.091  1.00  0.00    -0.206 F 
ATOM     45  C   UNL A   1      47.888  24.619  35.290  1.00  0.00     0.006 A 
ENDBRANCH  24  38
BRANCH  25  46
ATOM     46  C   UNL A   1      37.778  30.630  28.837  1.00  0.00     0.057 A 
ATOM     47  C   UNL A   1      37.108  31.894  28.554  1.00  0.00     0.134 A 
ATOM     48  C   UNL A   1      36.903  29.564  28.542  1.00  0.00     0.134 A 
ATOM     49  F   UNL A   1      37.578  33.133  28.751  1.00  0.00    -0.206 F 
ATOM     50  C   UNL A   1      35.821  32.052  28.006  1.00  0.00     0.040 A 
ATOM     51  C   UNL A   1      35.640  29.720  27.892  1.00  0.00     0.040 A 
ATOM     52  F   UNL A   1      37.224  28.323  28.911  1.00  0.00    -0.206 F 
ATOM     53  C   UNL A   1      35.093  30.964  27.619  1.00  0.00     0.006 A 
ENDBRANCH  25  46
BRANCH  37  54
ATOM     54  C   UNL A   1      41.021  31.419  35.025  1.00  0.00     0.057 A 
ATOM     55  C   UNL A   1      41.750  32.605  35.167  1.00  0.00     0.134 A 
ATOM     56  C   UNL A   1      39.966  31.194  35.924  1.00  0.00     0.134 A 
ATOM     57  F   UNL A   1      42.769  32.879  34.338  1.00  0.00    -0.206 F 
ATOM     58  C   UNL A   1      41.478  33.506  36.197  1.00  0.00     0.040 A 
ATOM     59  C   UNL A   1      39.657  32.109  36.929  1.00  0.00     0.040 A 
ATOM     60  F   UNL A   1      39.206  30.094  35.823  1.00  0.00    -0.206 F 
ATOM     61  C   UNL A   1      40.426  33.262  37.078  1.00  0.00     0.006 A 
ENDBRANCH  37  54
ENDBRANCH  11  12
ENDBRANCH   4   6
ENDBRANCH   3   4
ENDBRANCH   2   3
ENDBRANCH   1   2
BRANCH   1  62
ATOM     62  O   UNL A   1      43.261  19.858  25.872  1.00  0.00    -0.462 OA
BRANCH  62  63
ATOM     63  C   UNL A   1      42.246  18.975  26.112  1.00  0.00     0.312 C 
ATOM     64  O   UNL A   1      42.289  17.793  25.788  1.00  0.00    -0.252 OA
BRANCH  63  65
ATOM     65  C   UNL A   1      41.017  19.579  26.803  1.00  0.00     0.123 C 
ATOM     66  C   UNL A   1      41.234  20.820  27.614  1.00  0.00    -0.015 C 
ATOM     67  C   UNL A   1      39.816  19.931  25.921  1.00  0.00     0.043 C 
ATOM     68  C   UNL A   1      40.349  21.781  27.313  1.00  0.00    -0.011 C 
ATOM     69  C   UNL A   1      39.561  21.430  26.102  1.00  0.00     0.093 C 
BRANCH  69  70
ATOM     70  N   UNL A   1      38.140  21.665  26.217  1.00  0.00    -0.204 NA
ATOM     71  H   UNL A   1      37.963  21.867  27.200  1.00  0.00     0.142 HD
BRANCH  70  72
ATOM     72  S   UNL A   1      37.362  22.882  25.334  1.00  0.00     0.241 S 
ATOM     73  O   UNL A   1      38.107  24.054  25.736  1.00  0.00    -0.207 OA
ATOM     74  O   UNL A   1      37.405  22.441  23.953  1.00  0.00    -0.207 OA
BRANCH  72  75
ATOM     75  C   UNL A   1      35.592  23.063  26.100  1.00  0.00     0.083 A 
ATOM     76  C   UNL A   1      34.267  21.902  27.228  1.00  0.00     0.025 A 
ATOM     77  C   UNL A   1      34.715  24.532  25.457  1.00  0.00     0.029 A 
ATOM     78  C   UNL A   1      32.688  22.387  27.647  1.00  0.00     0.048 A 
ATOM     79  C   UNL A   1      32.953  24.678  25.882  1.00  0.00    -0.001 A 
ATOM     80  C   UNL A   1      32.167  23.751  27.102  1.00  0.00     0.122 A 
ATOM     81  C   UNL A   1      31.587  23.910  25.101  1.00  0.00     0.081 C 
ATOM     82  O   UNL A   1      30.810  24.050  27.245  1.00  0.00    -0.493 OA
ATOM     83  C   UNL A   1      30.468  24.477  25.923  1.00  0.00     0.234 C 
ENDBRANCH  72  75
ENDBRANCH  70  72
ENDBRANCH  69  70
ENDBRANCH  63  65
ENDBRANCH  62  63
ENDBRANCH   1  62
TORSDOF 14
ENDMDL
MODEL 2
REMARK VINA RESULT:     -11.7      4.001      9.391
REMARK SMILES O=C(OCCOC(=O)[C@H]1C=C[C@H](NS(=O)(=O)c2ccc3c(c2)CCO3)C1)c1ccc(-c2c3nc(c(-c4c(F)cccc4F)c4ccc([nH]4)c(-c4c(F)cccc4F)c4nc(c(-c5c(F)cccc5F)c5ccc2[nH]5)C=C4)C=C3)cc1
REMARK SMILES IDX 5 1 4 2 3 3 2 4 1 5 27 6 28 7 80 8 29 9 79 10 30 11 31 12
REMARK SMILES IDX 32 13 73 14 33 15 78 16 72 17 74 18 34 19 77 20 71 21 70 22
REMARK SMILES IDX 35 24 61 25 44 26 60 27 45 28 48 29 59 30 75 31 46 32 47 33
REMARK SMILES IDX 58 35 76 36 49 37 36 38 37 39 42 40 38 41 39 42 41 43 43 44
REMARK SMILES IDX 40 45 62 46 63 47 68 48 64 49 65 50 67 51 69 52 66 53 50 54
REMARK SMILES IDX 51 55 56 56 52 57 53 58 55 59 57 60 54 61 6 62 7 63 8 64
REMARK SMILES IDX 9 65 10 66 26 67 11 68 12 69 13 70 14 72 15 73 16 74 17 75
REMARK SMILES IDX 18 76 22 77 19 78 21 79 20 80 23 81 25 82 24 83
REMARK H PARENT 74 23 48 34 13 71
REMARK Flexibility Score: inf
ROOT
ATOM      1  C   UNL A   1      32.567  31.497  26.879  1.00  0.00     0.274 C 
ENDROOT
BRANCH   1   2
ATOM      2  C   UNL A   1      31.857  32.829  27.163  1.00  0.00     0.275 C 
BRANCH   2   3
ATOM      3  O   UNL A   1      32.710  33.884  27.616  1.00  0.00    -0.458 OA
BRANCH   3   4
ATOM      4  C   UNL A   1      33.463  33.960  28.734  1.00  0.00     0.338 C 
ATOM      5  O   UNL A   1      33.088  34.711  29.634  1.00  0.00    -0.246 OA
BRANCH   4   6
ATOM      6  C   UNL A   1      34.777  33.253  28.923  1.00  0.00     0.060 A 
ATOM      7  C   UNL A   1      36.041  33.653  28.468  1.00  0.00     0.016 A 
ATOM      8  C   UNL A   1      34.718  32.089  29.700  1.00  0.00     0.016 A 
ATOM      9  C   UNL A   1      37.211  33.002  28.878  1.00  0.00     0.010 A 
ATOM     10  C   UNL A   1      35.881  31.470  30.153  1.00  0.00     0.010 A 
ATOM     11  C   UNL A   1      37.147  31.951  29.785  1.00  0.00    -0.014 A 
BRANCH  11  12
ATOM     12  C   UNL A   1      38.351  31.284  30.337  1.00  0.00     0.031 A 
ATOM     13  C   UNL A   1      38.726  31.624  31.744  1.00  0.00     0.074 A 
ATOM     14  C   UNL A   1      39.021  30.348  29.605  1.00  0.00     0.049 A 
ATOM     15  N   UNL A   1      39.615  31.074  32.522  1.00  0.00    -0.248 NA
ATOM     16  C   UNL A   1      37.900  32.656  32.404  1.00  0.00     0.031 C 
ATOM     17  C   UNL A   1      38.088  29.383  28.245  1.00  0.00     0.029 A 
ATOM     18  N   UNL A   1      40.558  29.431  30.015  1.00  0.00    -0.354 N 
ATOM     19  C   UNL A   1      39.433  31.677  33.760  1.00  0.00     0.074 A 
ATOM     20  C   UNL A   1      38.428  32.700  33.611  1.00  0.00     0.031 C 
ATOM     21  C   UNL A   1      38.863  27.934  27.931  1.00  0.00     0.029 A 
ATOM     22  C   UNL A   1      40.652  27.779  29.101  1.00  0.00     0.049 A 
ATOM     23  H   UNL A   1      41.249  29.760  30.634  1.00  0.00     0.167 HD
ATOM     24  C   UNL A   1      39.991  31.349  34.945  1.00  0.00     0.037 A 
ATOM     25  C   UNL A   1      42.109  27.448  28.932  1.00  0.00     0.037 A 
ATOM     26  C   UNL A   1      41.017  30.357  35.084  1.00  0.00     0.049 A 
ATOM     27  C   UNL A   1      42.790  27.469  30.302  1.00  0.00     0.074 A 
ATOM     28  C   UNL A   1      41.682  29.983  36.232  1.00  0.00     0.029 A 
ATOM     29  N   UNL A   1      41.548  29.604  34.035  1.00  0.00    -0.354 N 
ATOM     30  N   UNL A   1      42.442  28.063  31.425  1.00  0.00    -0.248 NA
ATOM     31  C   UNL A   1      43.946  26.579  30.429  1.00  0.00     0.031 C 
ATOM     32  C   UNL A   1      42.660  29.055  35.870  1.00  0.00     0.029 A 
ATOM     33  C   UNL A   1      42.559  28.784  34.508  1.00  0.00     0.049 A 
ATOM     34  H   UNL A   1      41.248  29.649  33.098  1.00  0.00     0.167 HD
ATOM     35  C   UNL A   1      43.298  27.582  32.407  1.00  0.00     0.074 A 
ATOM     36  C   UNL A   1      44.171  26.630  31.735  1.00  0.00     0.031 C 
ATOM     37  C   UNL A   1      43.358  27.847  33.741  1.00  0.00     0.037 A 
BRANCH  24  38
ATOM     38  C   UNL A   1      39.482  32.104  36.143  1.00  0.00     0.057 A 
ATOM     39  C   UNL A   1      38.372  31.653  36.878  1.00  0.00     0.134 A 
ATOM     40  C   UNL A   1      40.026  33.343  36.497  1.00  0.00     0.134 A 
ATOM     41  F   UNL A   1      37.771  30.495  36.562  1.00  0.00    -0.206 F 
ATOM     42  C   UNL A   1      37.799  32.426  37.891  1.00  0.00     0.040 A 
ATOM     43  C   UNL A   1      39.480  34.111  37.528  1.00  0.00     0.040 A 
ATOM     44  F   UNL A   1      41.074  33.842  35.827  1.00  0.00    -0.206 F 
ATOM     45  C   UNL A   1      38.355  33.660  38.219  1.00  0.00     0.006 A 
ENDBRANCH  24  38
BRANCH  25  46
ATOM     46  C   UNL A   1      43.120  26.975  27.609  1.00  0.00     0.057 A 
ATOM     47  C   UNL A   1      44.231  27.601  26.901  1.00  0.00     0.134 A 
ATOM     48  C   UNL A   1      42.929  25.670  27.112  1.00  0.00     0.134 A 
ATOM     49  F   UNL A   1      44.693  28.850  27.041  1.00  0.00    -0.206 F 
ATOM     50  C   UNL A   1      45.045  26.995  25.924  1.00  0.00     0.040 A 
ATOM     51  C   UNL A   1      43.814  25.021  26.197  1.00  0.00     0.040 A 
ATOM     52  F   UNL A   1      41.843  24.979  27.467  1.00  0.00    -0.206 F 
ATOM     53  C   UNL A   1      44.878  25.680  25.599  1.00  0.00     0.006 A 
ENDBRANCH  25  46
BRANCH  37  54
ATOM     54  C   UNL A   1      44.347  27.029  34.532  1.00  0.00     0.057 A 
ATOM     55  C   UNL A   1      44.023  25.775  35.060  1.00  0.00     0.134 A 
ATOM     56  C   UNL A   1      45.656  27.497  34.725  1.00  0.00     0.134 A 
ATOM     57  F   UNL A   1      42.790  25.271  34.908  1.00  0.00    -0.206 F 
ATOM     58  C   UNL A   1      44.949  25.039  35.800  1.00  0.00     0.040 A 
ATOM     59  C   UNL A   1      46.602  26.750  35.425  1.00  0.00     0.040 A 
ATOM     60  F   UNL A   1      46.042  28.677  34.215  1.00  0.00    -0.206 F 
ATOM     61  C   UNL A   1      46.243  25.523  35.980  1.00  0.00     0.006 A 
ENDBRANCH  37  54
ENDBRANCH  11  12
ENDBRANCH   4   6
ENDBRANCH   3   4
ENDBRANCH   2   3
ENDBRANCH   1   2
BRANCH   1  62
ATOM     62  O   UNL A   1      31.730  30.316  26.882  1.00  0.00    -0.462 OA
BRANCH  62  63
ATOM     63  C   UNL A   1      32.270  29.223  26.266  1.00  0.00     0.312 C 
ATOM     64  O   UNL A   1      33.376  28.770  26.541  1.00  0.00    -0.252 OA
BRANCH  63  65
ATOM     65  C   UNL A   1      31.395  28.607  25.167  1.00  0.00     0.123 C 
ATOM     66  C   UNL A   1      30.663  29.557  24.267  1.00  0.00    -0.015 C 
ATOM     67  C   UNL A   1      32.068  27.636  24.193  1.00  0.00     0.043 C 
ATOM     68  C   UNL A   1      30.833  29.257  22.972  1.00  0.00    -0.011 C 
ATOM     69  C   UNL A   1      31.883  28.220  22.790  1.00  0.00     0.093 C 
BRANCH  69  70
ATOM     70  N   UNL A   1      31.534  27.161  21.871  1.00  0.00    -0.204 NA
ATOM     71  H   UNL A   1      31.269  27.617  20.998  1.00  0.00     0.142 HD
BRANCH  70  72
ATOM     72  S   UNL A   1      32.631  25.941  21.456  1.00  0.00     0.241 S 
ATOM     73  O   UNL A   1      32.174  25.578  20.132  1.00  0.00    -0.207 OA
ATOM     74  O   UNL A   1      33.944  26.531  21.626  1.00  0.00    -0.207 OA
BRANCH  72  75
ATOM     75  C   UNL A   1      32.233  24.436  22.609  1.00  0.00     0.083 A 
ATOM     76  C   UNL A   1      31.161  24.076  24.369  1.00  0.00     0.025 A 
ATOM     77  C   UNL A   1      33.278  22.986  22.228  1.00  0.00     0.029 A 
ATOM     78  C   UNL A   1      31.120  22.574  25.175  1.00  0.00     0.048 A 
ATOM     79  C   UNL A   1      33.202  21.598  23.400  1.00  0.00    -0.001 A 
ATOM     80  C   UNL A   1      31.989  21.410  24.608  1.00  0.00     0.122 A 
ATOM     81  C   UNL A   1      34.056  21.419  24.919  1.00  0.00     0.081 C 
ATOM     82  O   UNL A   1      32.144  20.258  25.382  1.00  0.00    -0.493 OA
ATOM     83  C   UNL A   1      33.560  20.066  25.335  1.00  0.00     0.234 C 
ENDBRANCH  72  75
ENDBRANCH  70  72
ENDBRANCH  69  70
ENDBRANCH  63  65
ENDBRANCH  62  63
ENDBRANCH   1  62
TORSDOF 14
ENDMDL
MODEL 3
REMARK VINA RESULT:     -11.7      4.033      6.529
REMARK SMILES O=C(OCCOC(=O)[C@H]1C=C[C@H](NS(=O)(=O)c2ccc3c(c2)CCO3)C1)c1ccc(-c2c3nc(c(-c4c(F)cccc4F)c4ccc([nH]4)c(-c4c(F)cccc4F)c4nc(c(-c5c(F)cccc5F)c5ccc2[nH]5)C=C4)C=C3)cc1
REMARK SMILES IDX 5 1 4 2 3 3 2 4 1 5 27 6 28 7 80 8 29 9 79 10 30 11 31 12
REMARK SMILES IDX 32 13 73 14 33 15 78 16 72 17 74 18 34 19 77 20 71 21 70 22
REMARK SMILES IDX 35 24 61 25 44 26 60 27 45 28 48 29 59 30 75 31 46 32 47 33
REMARK SMILES IDX 58 35 76 36 49 37 36 38 37 39 42 40 38 41 39 42 41 43 43 44
REMARK SMILES IDX 40 45 62 46 63 47 68 48 64 49 65 50 67 51 69 52 66 53 50 54
REMARK SMILES IDX 51 55 56 56 52 57 53 58 55 59 57 60 54 61 6 62 7 63 8 64
REMARK SMILES IDX 9 65 10 66 26 67 11 68 12 69 13 70 14 72 15 73 16 74 17 75
REMARK SMILES IDX 18 76 22 77 19 78 21 79 20 80 23 81 25 82 24 83
REMARK H PARENT 74 23 48 34 13 71
REMARK Flexibility Score: inf
ROOT
ATOM      1  C   UNL A   1      38.836  20.670  26.115  1.00  0.00     0.274 C 
ENDROOT
BRANCH   1   2
ATOM      2  C   UNL A   1      39.654  19.515  25.520  1.00  0.00     0.275 C 
BRANCH   2   3
ATOM      3  O   UNL A   1      40.946  19.325  26.104  1.00  0.00    -0.458 OA
BRANCH   3   4
ATOM      4  C   UNL A   1      42.015  20.148  26.113  1.00  0.00     0.338 C 
ATOM      5  O   UNL A   1      43.076  19.724  25.656  1.00  0.00    -0.246 OA
BRANCH   4   6
ATOM      6  C   UNL A   1      42.023  21.523  26.722  1.00  0.00     0.060 A 
ATOM      7  C   UNL A   1      42.184  21.864  28.072  1.00  0.00     0.016 A 
ATOM      8  C   UNL A   1      41.916  22.578  25.806  1.00  0.00     0.016 A 
ATOM      9  C   UNL A   1      42.365  23.192  28.479  1.00  0.00     0.010 A 
ATOM     10  C   UNL A   1      42.147  23.894  26.200  1.00  0.00     0.010 A 
ATOM     11  C   UNL A   1      42.424  24.212  27.537  1.00  0.00    -0.014 A 
BRANCH  11  12
ATOM     12  C   UNL A   1      42.712  25.623  27.890  1.00  0.00     0.031 A 
ATOM     13  C   UNL A   1      44.037  26.170  27.461  1.00  0.00     0.074 A 
ATOM     14  C   UNL A   1      41.767  26.391  28.505  1.00  0.00     0.049 A 
ATOM     15  N   UNL A   1      44.477  27.396  27.487  1.00  0.00    -0.248 NA
ATOM     16  C   UNL A   1      44.951  25.212  26.804  1.00  0.00     0.031 C 
ATOM     17  C   UNL A   1      39.920  25.951  28.286  1.00  0.00     0.029 A 
ATOM     18  N   UNL A   1      41.883  28.122  29.106  1.00  0.00    -0.354 N 
ATOM     19  C   UNL A   1      45.700  27.354  26.830  1.00  0.00     0.074 A 
ATOM     20  C   UNL A   1      45.983  25.978  26.508  1.00  0.00     0.031 C 
ATOM     21  C   UNL A   1      38.969  27.299  28.566  1.00  0.00     0.029 A 
ATOM     22  C   UNL A   1      40.189  28.957  29.163  1.00  0.00     0.049 A 
ATOM     23  H   UNL A   1      42.725  28.561  29.367  1.00  0.00     0.167 HD
ATOM     24  C   UNL A   1      46.483  28.384  26.446  1.00  0.00     0.037 A 
ATOM     25  C   UNL A   1      40.249  30.011  30.234  1.00  0.00     0.037 A 
ATOM     26  C   UNL A   1      46.218  29.748  26.799  1.00  0.00     0.049 A 
ATOM     27  C   UNL A   1      41.424  30.949  29.948  1.00  0.00     0.074 A 
ATOM     28  C   UNL A   1      46.975  30.862  26.501  1.00  0.00     0.029 A 
ATOM     29  N   UNL A   1      45.128  30.181  27.556  1.00  0.00    -0.354 N 
ATOM     30  N   UNL A   1      42.513  30.767  29.232  1.00  0.00    -0.248 NA
ATOM     31  C   UNL A   1      41.252  32.318  30.440  1.00  0.00     0.031 C 
ATOM     32  C   UNL A   1      46.382  31.957  27.133  1.00  0.00     0.029 A 
ATOM     33  C   UNL A   1      45.209  31.548  27.761  1.00  0.00     0.049 A 
ATOM     34  H   UNL A   1      44.409  29.600  27.894  1.00  0.00     0.167 HD
ATOM     35  C   UNL A   1      43.135  32.006  29.137  1.00  0.00     0.074 A 
ATOM     36  C   UNL A   1      42.276  32.931  29.862  1.00  0.00     0.031 C 
ATOM     37  C   UNL A   1      44.273  32.381  28.492  1.00  0.00     0.037 A 
BRANCH  24  38
ATOM     38  C   UNL A   1      47.687  28.022  25.619  1.00  0.00     0.057 A 
ATOM     39  C   UNL A   1      47.582  27.766  24.241  1.00  0.00     0.134 A 
ATOM     40  C   UNL A   1      48.935  27.817  26.216  1.00  0.00     0.134 A 
ATOM     41  F   UNL A   1      46.403  27.897  23.612  1.00  0.00    -0.206 F 
ATOM     42  C   UNL A   1      48.661  27.278  23.500  1.00  0.00     0.040 A 
ATOM     43  C   UNL A   1      50.029  27.358  25.479  1.00  0.00     0.040 A 
ATOM     44  F   UNL A   1      49.102  28.025  27.530  1.00  0.00    -0.206 F 
ATOM     45  C   UNL A   1      49.891  27.074  24.121  1.00  0.00     0.006 A 
ENDBRANCH  24  38
BRANCH  25  46
ATOM     46  C   UNL A   1      39.274  30.437  31.599  1.00  0.00     0.057 A 
ATOM     47  C   UNL A   1      39.423  30.290  33.043  1.00  0.00     0.134 A 
ATOM     48  C   UNL A   1      38.097  31.163  31.325  1.00  0.00     0.134 A 
ATOM     49  F   UNL A   1      40.376  29.624  33.705  1.00  0.00    -0.206 F 
ATOM     50  C   UNL A   1      38.579  30.838  34.028  1.00  0.00     0.040 A 
ATOM     51  C   UNL A   1      37.299  31.804  32.321  1.00  0.00     0.040 A 
ATOM     52  F   UNL A   1      37.650  31.248  30.070  1.00  0.00    -0.206 F 
ATOM     53  C   UNL A   1      37.536  31.646  33.678  1.00  0.00     0.006 A 
ENDBRANCH  25  46
BRANCH  37  54
ATOM     54  C   UNL A   1      44.576  33.858  28.496  1.00  0.00     0.057 A 
ATOM     55  C   UNL A   1      45.332  34.461  29.508  1.00  0.00     0.134 A 
ATOM     56  C   UNL A   1      44.134  34.673  27.443  1.00  0.00     0.134 A 
ATOM     57  F   UNL A   1      45.786  33.736  30.541  1.00  0.00    -0.206 F 
ATOM     58  C   UNL A   1      45.591  35.831  29.501  1.00  0.00     0.040 A 
ATOM     59  C   UNL A   1      44.425  36.036  27.403  1.00  0.00     0.040 A 
ATOM     60  F   UNL A   1      43.433  34.152  26.424  1.00  0.00    -0.206 F 
ATOM     61  C   UNL A   1      45.142  36.622  28.444  1.00  0.00     0.006 A 
ENDBRANCH  37  54
ENDBRANCH  11  12
ENDBRANCH   4   6
ENDBRANCH   3   4
ENDBRANCH   2   3
ENDBRANCH   1   2
BRANCH   1  62
ATOM     62  O   UNL A   1      38.403  21.690  25.185  1.00  0.00    -0.462 OA
BRANCH  62  63
ATOM     63  C   UNL A   1      38.077  22.889  25.751  1.00  0.00     0.312 C 
ATOM     64  O   UNL A   1      38.696  23.383  26.687  1.00  0.00    -0.252 OA
BRANCH  63  65
ATOM     65  C   UNL A   1      36.847  23.575  25.145  1.00  0.00     0.123 C 
ATOM     66  C   UNL A   1      36.557  23.299  23.700  1.00  0.00    -0.015 C 
ATOM     67  C   UNL A   1      35.499  23.341  25.832  1.00  0.00     0.043 C 
ATOM     68  C   UNL A   1      35.277  22.954  23.499  1.00  0.00    -0.011 C 
ATOM     69  C   UNL A   1      34.573  22.714  24.786  1.00  0.00     0.093 C 
BRANCH  69  70
ATOM     70  N   UNL A   1      33.264  23.317  24.880  1.00  0.00    -0.204 NA
ATOM     71  H   UNL A   1      33.284  24.139  24.277  1.00  0.00     0.142 HD
BRANCH  70  72
ATOM     72  S   UNL A   1      31.858  22.466  24.477  1.00  0.00     0.241 S 
ATOM     73  O   UNL A   1      31.189  22.386  25.757  1.00  0.00    -0.207 OA
ATOM     74  O   UNL A   1      31.251  23.216  23.395  1.00  0.00    -0.207 OA
BRANCH  72  75
ATOM     75  C   UNL A   1      32.419  20.665  24.035  1.00  0.00     0.083 A 
ATOM     76  C   UNL A   1      32.153  19.301  22.472  1.00  0.00     0.025 A 
ATOM     77  C   UNL A   1      33.160  19.808  25.469  1.00  0.00     0.029 A 
ATOM     78  C   UNL A   1      32.748  17.703  22.484  1.00  0.00     0.048 A 
ATOM     79  C   UNL A   1      33.485  18.029  25.274  1.00  0.00    -0.001 A 
ATOM     80  C   UNL A   1      33.477  17.198  23.766  1.00  0.00     0.122 A 
ATOM     81  C   UNL A   1      32.360  16.699  25.460  1.00  0.00     0.081 C 
ATOM     82  O   UNL A   1      33.761  15.836  23.876  1.00  0.00    -0.493 OA
ATOM     83  C   UNL A   1      33.280  15.545  25.191  1.00  0.00     0.234 C 
ENDBRANCH  72  75
ENDBRANCH  70  72
ENDBRANCH  69  70
ENDBRANCH  63  65
ENDBRANCH  62  63
ENDBRANCH   1  62
TORSDOF 14
ENDMDL
