MODEL 1
REMARK VINA RESULT:     -10.8      0.000      0.000
REMARK SMILES CCC1CN(c2cc(F)ccc2C(=O)OCCOC(=O)c2ccc(-c3c4nc(c(-c5c(F)cccc5F)c5ccc([nH]5)c(-c5c(F)cccc5F)c5nc(c(-c6c(F)cccc6F)c6ccc3[nH]6)C=C5)C=C4)cc2)C1
REMARK SMILES IDX 16 1 15 2 13 3 14 4 12 5 6 6 7 7 8 8 11 9 9 10 10 11 5 12
REMARK SMILES IDX 3 13 4 14 75 15 2 16 1 17 17 18 18 19 19 20 20 21 21 22
REMARK SMILES IDX 22 23 74 24 23 25 73 26 24 27 25 28 26 29 67 30 27 31 72 32
REMARK SMILES IDX 66 33 68 34 28 35 71 36 65 37 64 38 29 40 55 41 38 42 54 43
REMARK SMILES IDX 39 44 42 45 53 46 69 47 40 48 41 49 52 51 70 52 43 53 30 54
REMARK SMILES IDX 31 55 36 56 32 57 33 58 35 59 37 60 34 61 56 62 57 63 62 64
REMARK SMILES IDX 58 65 59 66 61 67 63 68 60 69 44 70 45 71 50 72 46 73 47 74
REMARK SMILES IDX 49 75 51 76 48 77
REMARK H PARENT 68 39 42 50
REMARK Flexibility Score: inf
ROOT
ATOM      1  C   UNL A   1      35.982  22.361  23.855  1.00  0.00     0.275 C 
ENDROOT
BRANCH   1   2
ATOM      2  O   UNL A   1      35.072  23.135  24.664  1.00  0.00    -0.458 OA
BRANCH   2   3
ATOM      3  C   UNL A   1      33.944  23.589  24.063  1.00  0.00     0.340 C 
ATOM      4  O   UNL A   1      33.838  23.968  22.909  1.00  0.00    -0.246 OA
BRANCH   3   5
ATOM      5  C   UNL A   1      32.779  23.429  24.967  1.00  0.00     0.083 A 
ATOM      6  C   UNL A   1      32.166  22.187  25.238  1.00  0.00     0.054 A 
ATOM      7  C   UNL A   1      30.978  22.203  25.992  1.00  0.00     0.066 A 
ATOM      8  C   UNL A   1      30.467  23.391  26.509  1.00  0.00     0.125 A 
ATOM      9  C   UNL A   1      32.269  24.618  25.529  1.00  0.00     0.021 A 
ATOM     10  F   UNL A   1      29.352  23.359  27.250  1.00  0.00    -0.207 F 
ATOM     11  C   UNL A   1      31.108  24.599  26.295  1.00  0.00     0.040 A 
BRANCH   6  12
ATOM     12  N   UNL A   1      32.715  20.952  24.847  1.00  0.00    -0.370 N 
ATOM     13  C   UNL A   1      32.839  18.915  24.531  1.00  0.00     0.028 C 
ATOM     14  C   UNL A   1      33.227  19.888  25.652  1.00  0.00     0.122 C 
ATOM     15  C   UNL A   1      32.528  20.155  23.681  1.00  0.00     0.122 C 
BRANCH  13  16
ATOM     16  C   UNL A   1      33.944  17.989  24.046  1.00  0.00     0.004 C 
ATOM     17  C   UNL A   1      33.413  16.575  23.877  1.00  0.00     0.004 C 
ENDBRANCH  13  16
ENDBRANCH   6  12
ENDBRANCH   3   5
ENDBRANCH   2   3
ENDBRANCH   1   2
BRANCH   1  18
ATOM     18  C   UNL A   1      36.404  21.104  24.606  1.00  0.00     0.275 C 
BRANCH  18  19
ATOM     19  O   UNL A   1      37.062  21.498  25.822  1.00  0.00    -0.458 OA
BRANCH  19  20
ATOM     20  C   UNL A   1      38.386  21.243  25.879  1.00  0.00     0.338 C 
ATOM     21  O   UNL A   1      38.986  20.253  25.497  1.00  0.00    -0.246 OA
BRANCH  20  22
ATOM     22  C   UNL A   1      39.053  22.423  26.435  1.00  0.00     0.060 A 
ATOM     23  C   UNL A   1      38.540  23.682  26.125  1.00  0.00     0.016 A 
ATOM     24  C   UNL A   1      40.225  22.293  27.174  1.00  0.00     0.016 A 
ATOM     25  C   UNL A   1      39.231  24.829  26.508  1.00  0.00     0.010 A 
ATOM     26  C   UNL A   1      40.886  23.444  27.609  1.00  0.00     0.010 A 
ATOM     27  C   UNL A   1      40.413  24.722  27.254  1.00  0.00    -0.014 A 
BRANCH  27  28
ATOM     28  C   UNL A   1      41.196  25.937  27.608  1.00  0.00     0.031 A 
ATOM     29  C   UNL A   1      40.571  27.005  28.464  1.00  0.00     0.074 A 
ATOM     30  C   UNL A   1      42.467  26.084  27.187  1.00  0.00     0.049 A 
ATOM     31  N   UNL A   1      41.006  28.210  28.735  1.00  0.00    -0.248 NA
ATOM     32  C   UNL A   1      39.279  26.679  29.089  1.00  0.00     0.031 C 
ATOM     33  C   UNL A   1      43.220  25.102  26.405  1.00  0.00     0.029 A 
ATOM     34  N   UNL A   1      43.353  27.117  27.367  1.00  0.00    -0.354 N 
ATOM     35  C   UNL A   1      40.020  28.801  29.515  1.00  0.00     0.074 A 
ATOM     36  C   UNL A   1      38.965  27.824  29.676  1.00  0.00     0.031 C 
ATOM     37  C   UNL A   1      44.464  25.565  26.203  1.00  0.00     0.029 A 
ATOM     38  C   UNL A   1      44.573  26.905  26.772  1.00  0.00     0.049 A 
ATOM     39  H   UNL A   1      43.135  27.932  27.873  1.00  0.00     0.167 HD
ATOM     40  C   UNL A   1      39.999  30.046  30.048  1.00  0.00     0.037 A 
ATOM     41  C   UNL A   1      45.647  27.711  26.663  1.00  0.00     0.037 A 
ATOM     42  C   UNL A   1      41.075  30.995  29.934  1.00  0.00     0.049 A 
ATOM     43  C   UNL A   1      45.591  29.099  27.234  1.00  0.00     0.074 A 
ATOM     44  C   UNL A   1      41.145  32.282  30.440  1.00  0.00     0.029 A 
ATOM     45  N   UNL A   1      42.278  30.752  29.289  1.00  0.00    -0.354 N 
ATOM     46  N   UNL A   1      44.620  29.678  27.898  1.00  0.00    -0.248 NA
ATOM     47  C   UNL A   1      46.766  29.955  27.017  1.00  0.00     0.031 C 
ATOM     48  C   UNL A   1      42.381  32.827  30.078  1.00  0.00     0.029 A 
ATOM     49  C   UNL A   1      43.093  31.866  29.379  1.00  0.00     0.049 A 
ATOM     50  H   UNL A   1      42.515  29.912  28.834  1.00  0.00     0.167 HD
ATOM     51  C   UNL A   1      45.067  30.961  28.181  1.00  0.00     0.074 A 
ATOM     52  C   UNL A   1      46.403  31.072  27.634  1.00  0.00     0.031 C 
ATOM     53  C   UNL A   1      44.422  31.960  28.831  1.00  0.00     0.037 A 
BRANCH  40  54
ATOM     54  C   UNL A   1      38.764  30.468  30.784  1.00  0.00     0.057 A 
ATOM     55  C   UNL A   1      38.621  30.183  32.149  1.00  0.00     0.134 A 
ATOM     56  C   UNL A   1      37.697  31.105  30.141  1.00  0.00     0.134 A 
ATOM     57  F   UNL A   1      39.605  29.569  32.824  1.00  0.00    -0.206 F 
ATOM     58  C   UNL A   1      37.455  30.506  32.844  1.00  0.00     0.040 A 
ATOM     59  C   UNL A   1      36.534  31.454  30.831  1.00  0.00     0.040 A 
ATOM     60  F   UNL A   1      37.778  31.419  28.839  1.00  0.00    -0.206 F 
ATOM     61  C   UNL A   1      36.408  31.147  32.185  1.00  0.00     0.006 A 
ENDBRANCH  40  54
BRANCH  41  62
ATOM     62  C   UNL A   1      46.859  27.224  25.959  1.00  0.00     0.057 A 
ATOM     63  C   UNL A   1      47.885  26.561  26.642  1.00  0.00     0.134 A 
ATOM     64  C   UNL A   1      47.031  27.441  24.588  1.00  0.00     0.134 A 
ATOM     65  F   UNL A   1      47.779  26.323  27.958  1.00  0.00    -0.206 F 
ATOM     66  C   UNL A   1      49.052  26.156  25.993  1.00  0.00     0.040 A 
ATOM     67  C   UNL A   1      48.182  27.021  23.920  1.00  0.00     0.040 A 
ATOM     68  F   UNL A   1      46.071  28.050  23.876  1.00  0.00    -0.206 F 
ATOM     69  C   UNL A   1      49.202  26.384  24.627  1.00  0.00     0.006 A 
ENDBRANCH  41  62
BRANCH  53  70
ATOM     70  C   UNL A   1      45.152  33.256  29.002  1.00  0.00     0.057 A 
ATOM     71  C   UNL A   1      45.944  33.486  30.134  1.00  0.00     0.134 A 
ATOM     72  C   UNL A   1      45.013  34.302  28.082  1.00  0.00     0.134 A 
ATOM     73  F   UNL A   1      46.109  32.525  31.055  1.00  0.00    -0.206 F 
ATOM     74  C   UNL A   1      46.566  34.716  30.349  1.00  0.00     0.040 A 
ATOM     75  C   UNL A   1      45.644  35.532  28.278  1.00  0.00     0.040 A 
ATOM     76  F   UNL A   1      44.275  34.139  26.974  1.00  0.00    -0.206 F 
ATOM     77  C   UNL A   1      46.417  35.743  29.419  1.00  0.00     0.006 A 
ENDBRANCH  53  70
ENDBRANCH  27  28
ENDBRANCH  20  22
ENDBRANCH  19  20
ENDBRANCH  18  19
ENDBRANCH   1  18
TORSDOF 13
ENDMDL
MODEL 2
REMARK VINA RESULT:     -10.6      4.730      9.358
REMARK SMILES CCC1CN(c2cc(F)ccc2C(=O)OCCOC(=O)c2ccc(-c3c4nc(c(-c5c(F)cccc5F)c5ccc([nH]5)c(-c5c(F)cccc5F)c5nc(c(-c6c(F)cccc6F)c6ccc3[nH]6)C=C5)C=C4)cc2)C1
REMARK SMILES IDX 16 1 15 2 13 3 14 4 12 5 6 6 7 7 8 8 11 9 9 10 10 11 5 12
REMARK SMILES IDX 3 13 4 14 75 15 2 16 1 17 17 18 18 19 19 20 20 21 21 22
REMARK SMILES IDX 22 23 74 24 23 25 73 26 24 27 25 28 26 29 67 30 27 31 72 32
REMARK SMILES IDX 66 33 68 34 28 35 71 36 65 37 64 38 29 40 55 41 38 42 54 43
REMARK SMILES IDX 39 44 42 45 53 46 69 47 40 48 41 49 52 51 70 52 43 53 30 54
REMARK SMILES IDX 31 55 36 56 32 57 33 58 35 59 37 60 34 61 56 62 57 63 62 64
REMARK SMILES IDX 58 65 59 66 61 67 63 68 60 69 44 70 45 71 50 72 46 73 47 74
REMARK SMILES IDX 49 75 51 76 48 77
REMARK H PARENT 68 39 42 50
REMARK Flexibility Score: inf
ROOT
ATOM      1  C   UNL A   1      31.781  28.565  27.236  1.00  0.00     0.275 C 
ENDROOT
BRANCH   1   2
ATOM      2  O   UNL A   1      32.346  27.586  26.340  1.00  0.00    -0.458 OA
BRANCH   2   3
ATOM      3  C   UNL A   1      31.504  26.647  25.841  1.00  0.00     0.340 C 
ATOM      4  O   UNL A   1      30.509  26.201  26.387  1.00  0.00    -0.246 OA
BRANCH   3   5
ATOM      5  C   UNL A   1      31.869  26.318  24.442  1.00  0.00     0.083 A 
ATOM      6  C   UNL A   1      31.243  26.893  23.316  1.00  0.00     0.054 A 
ATOM      7  C   UNL A   1      31.585  26.377  22.052  1.00  0.00     0.066 A 
ATOM      8  C   UNL A   1      32.555  25.386  21.915  1.00  0.00     0.125 A 
ATOM      9  C   UNL A   1      32.876  25.343  24.283  1.00  0.00     0.021 A 
ATOM     10  F   UNL A   1      32.875  24.946  20.691  1.00  0.00    -0.207 F 
ATOM     11  C   UNL A   1      33.213  24.872  23.018  1.00  0.00     0.040 A 
BRANCH   6  12
ATOM     12  N   UNL A   1      30.355  27.981  23.396  1.00  0.00    -0.370 N 
ATOM     13  C   UNL A   1      29.197  29.571  22.766  1.00  0.00     0.028 C 
ATOM     14  C   UNL A   1      30.622  29.382  23.304  1.00  0.00     0.122 C 
ATOM     15  C   UNL A   1      28.963  28.094  23.117  1.00  0.00     0.122 C 
BRANCH  13  16
ATOM     16  C   UNL A   1      28.350  30.609  23.486  1.00  0.00     0.004 C 
ATOM     17  C   UNL A   1      28.035  31.770  22.558  1.00  0.00     0.004 C 
ENDBRANCH  13  16
ENDBRANCH   6  12
ENDBRANCH   3   5
ENDBRANCH   2   3
ENDBRANCH   1   2
BRANCH   1  18
ATOM     18  C   UNL A   1      31.721  29.924  26.548  1.00  0.00     0.275 C 
BRANCH  18  19
ATOM     19  O   UNL A   1      33.064  30.384  26.327  1.00  0.00    -0.458 OA
BRANCH  19  20
ATOM     20  C   UNL A   1      33.443  31.454  27.057  1.00  0.00     0.338 C 
ATOM     21  O   UNL A   1      32.840  32.496  27.246  1.00  0.00    -0.246 OA
BRANCH  20  22
ATOM     22  C   UNL A   1      34.729  31.143  27.687  1.00  0.00     0.060 A 
ATOM     23  C   UNL A   1      35.008  29.814  28.003  1.00  0.00     0.016 A 
ATOM     24  C   UNL A   1      35.608  32.161  28.046  1.00  0.00     0.016 A 
ATOM     25  C   UNL A   1      36.148  29.498  28.736  1.00  0.00     0.010 A 
ATOM     26  C   UNL A   1      36.782  31.836  28.730  1.00  0.00     0.010 A 
ATOM     27  C   UNL A   1      37.049  30.507  29.108  1.00  0.00    -0.014 A 
BRANCH  27  28
ATOM     28  C   UNL A   1      38.234  30.190  29.951  1.00  0.00     0.031 A 
ATOM     29  C   UNL A   1      39.339  29.333  29.393  1.00  0.00     0.074 A 
ATOM     30  C   UNL A   1      38.339  30.677  31.202  1.00  0.00     0.049 A 
ATOM     31  N   UNL A   1      40.359  28.793  30.009  1.00  0.00    -0.248 NA
ATOM     32  C   UNL A   1      39.282  29.037  27.952  1.00  0.00     0.031 C 
ATOM     33  C   UNL A   1      37.375  31.569  31.848  1.00  0.00     0.029 A 
ATOM     34  N   UNL A   1      39.313  30.494  32.152  1.00  0.00    -0.354 N 
ATOM     35  C   UNL A   1      41.033  28.053  29.046  1.00  0.00     0.074 A 
ATOM     36  C   UNL A   1      40.309  28.213  27.805  1.00  0.00     0.031 C 
ATOM     37  C   UNL A   1      37.824  31.883  33.074  1.00  0.00     0.029 A 
ATOM     38  C   UNL A   1      39.063  31.156  33.330  1.00  0.00     0.049 A 
ATOM     39  H   UNL A   1      40.113  29.941  32.004  1.00  0.00     0.167 HD
ATOM     40  C   UNL A   1      42.155  27.307  29.188  1.00  0.00     0.037 A 
ATOM     41  C   UNL A   1      39.735  31.150  34.498  1.00  0.00     0.037 A 
ATOM     42  C   UNL A   1      42.906  27.196  30.411  1.00  0.00     0.049 A 
ATOM     43  C   UNL A   1      40.959  30.291  34.642  1.00  0.00     0.074 A 
ATOM     44  C   UNL A   1      44.056  26.463  30.652  1.00  0.00     0.029 A 
ATOM     45  N   UNL A   1      42.595  27.853  31.591  1.00  0.00    -0.354 N 
ATOM     46  N   UNL A   1      41.541  29.528  33.749  1.00  0.00    -0.248 NA
ATOM     47  C   UNL A   1      41.604  30.270  35.963  1.00  0.00     0.031 C 
ATOM     48  C   UNL A   1      44.427  26.657  31.986  1.00  0.00     0.029 A 
ATOM     49  C   UNL A   1      43.528  27.538  32.564  1.00  0.00     0.049 A 
ATOM     50  H   UNL A   1      41.826  28.453  31.718  1.00  0.00     0.167 HD
ATOM     51  C   UNL A   1      42.619  28.941  34.396  1.00  0.00     0.074 A 
ATOM     52  C   UNL A   1      42.624  29.449  35.752  1.00  0.00     0.031 C 
ATOM     53  C   UNL A   1      43.520  28.054  33.909  1.00  0.00     0.037 A 
BRANCH  40  54
ATOM     54  C   UNL A   1      42.630  26.531  27.997  1.00  0.00     0.057 A 
ATOM     55  C   UNL A   1      43.515  27.113  27.080  1.00  0.00     0.134 A 
ATOM     56  C   UNL A   1      42.178  25.235  27.727  1.00  0.00     0.134 A 
ATOM     57  F   UNL A   1      43.983  28.355  27.278  1.00  0.00    -0.206 F 
ATOM     58  C   UNL A   1      43.923  26.437  25.930  1.00  0.00     0.040 A 
ATOM     59  C   UNL A   1      42.596  24.540  26.590  1.00  0.00     0.040 A 
ATOM     60  F   UNL A   1      41.342  24.616  28.574  1.00  0.00    -0.206 F 
ATOM     61  C   UNL A   1      43.465  25.145  25.684  1.00  0.00     0.006 A 
ENDBRANCH  40  54
BRANCH  41  62
ATOM     62  C   UNL A   1      39.242  31.971  35.630  1.00  0.00     0.057 A 
ATOM     63  C   UNL A   1      39.711  33.271  35.850  1.00  0.00     0.134 A 
ATOM     64  C   UNL A   1      38.309  31.459  36.538  1.00  0.00     0.134 A 
ATOM     65  F   UNL A   1      40.606  33.819  35.014  1.00  0.00    -0.206 F 
ATOM     66  C   UNL A   1      39.292  34.023  36.949  1.00  0.00     0.040 A 
ATOM     67  C   UNL A   1      37.863  32.208  37.628  1.00  0.00     0.040 A 
ATOM     68  F   UNL A   1      37.805  30.228  36.365  1.00  0.00    -0.206 F 
ATOM     69  C   UNL A   1      38.364  33.492  37.841  1.00  0.00     0.006 A 
ENDBRANCH  41  62
BRANCH  53  70
ATOM     70  C   UNL A   1      44.597  27.583  34.838  1.00  0.00     0.057 A 
ATOM     71  C   UNL A   1      45.817  28.264  34.920  1.00  0.00     0.134 A 
ATOM     72  C   UNL A   1      44.450  26.416  35.596  1.00  0.00     0.134 A 
ATOM     73  F   UNL A   1      46.021  29.384  34.210  1.00  0.00    -0.206 F 
ATOM     74  C   UNL A   1      46.861  27.794  35.718  1.00  0.00     0.040 A 
ATOM     75  C   UNL A   1      45.481  25.946  36.412  1.00  0.00     0.040 A 
ATOM     76  F   UNL A   1      43.301  25.725  35.566  1.00  0.00    -0.206 F 
ATOM     77  C   UNL A   1      46.693  26.631  36.468  1.00  0.00     0.006 A 
ENDBRANCH  53  70
ENDBRANCH  27  28
ENDBRANCH  20  22
ENDBRANCH  19  20
ENDBRANCH  18  19
ENDBRANCH   1  18
TORSDOF 13
ENDMDL
MODEL 3
REMARK VINA RESULT:     -10.6      3.520      7.421
REMARK SMILES CCC1CN(c2cc(F)ccc2C(=O)OCCOC(=O)c2ccc(-c3c4nc(c(-c5c(F)cccc5F)c5ccc([nH]5)c(-c5c(F)cccc5F)c5nc(c(-c6c(F)cccc6F)c6ccc3[nH]6)C=C5)C=C4)cc2)C1
REMARK SMILES IDX 16 1 15 2 13 3 14 4 12 5 6 6 7 7 8 8 11 9 9 10 10 11 5 12
REMARK SMILES IDX 3 13 4 14 75 15 2 16 1 17 17 18 18 19 19 20 20 21 21 22
REMARK SMILES IDX 22 23 74 24 23 25 73 26 24 27 25 28 26 29 67 30 27 31 72 32
REMARK SMILES IDX 66 33 68 34 28 35 71 36 65 37 64 38 29 40 55 41 38 42 54 43
REMARK SMILES IDX 39 44 42 45 53 46 69 47 40 48 41 49 52 51 70 52 43 53 30 54
REMARK SMILES IDX 31 55 36 56 32 57 33 58 35 59 37 60 34 61 56 62 57 63 62 64
REMARK SMILES IDX 58 65 59 66 61 67 63 68 60 69 44 70 45 71 50 72 46 73 47 74
REMARK SMILES IDX 49 75 51 76 48 77
REMARK H PARENT 68 39 42 50
REMARK Flexibility Score: inf
ROOT
ATOM      1  C   UNL A   1      32.616  29.994  26.887  1.00  0.00     0.275 C 
ENDROOT
BRANCH   1   2
ATOM      2  O   UNL A   1      33.193  28.778  26.367  1.00  0.00    -0.458 OA
BRANCH   2   3
ATOM      3  C   UNL A   1      32.386  27.691  26.300  1.00  0.00     0.340 C 
ATOM      4  O   UNL A   1      31.334  27.529  26.895  1.00  0.00    -0.246 OA
BRANCH   3   5
ATOM      5  C   UNL A   1      32.879  26.745  25.269  1.00  0.00     0.083 A 
ATOM      6  C   UNL A   1      32.291  26.605  23.994  1.00  0.00     0.054 A 
ATOM      7  C   UNL A   1      32.767  25.564  23.174  1.00  0.00     0.066 A 
ATOM      8  C   UNL A   1      33.823  24.751  23.579  1.00  0.00     0.125 A 
ATOM      9  C   UNL A   1      33.972  25.938  25.648  1.00  0.00     0.021 A 
ATOM     10  F   UNL A   1      34.268  23.793  22.755  1.00  0.00    -0.207 F 
ATOM     11  C   UNL A   1      34.439  24.935  24.805  1.00  0.00     0.040 A 
BRANCH   6  12
ATOM     12  N   UNL A   1      31.313  27.482  23.492  1.00  0.00    -0.370 N 
ATOM     13  C   UNL A   1      29.842  28.931  23.498  1.00  0.00     0.028 C 
ATOM     14  C   UNL A   1      29.889  27.399  23.569  1.00  0.00     0.122 C 
ATOM     15  C   UNL A   1      31.347  28.877  23.201  1.00  0.00     0.122 C 
BRANCH  13  16
ATOM     16  C   UNL A   1      28.933  29.516  22.428  1.00  0.00     0.004 C 
ATOM     17  C   UNL A   1      27.922  30.464  23.053  1.00  0.00     0.004 C 
ENDBRANCH  13  16
ENDBRANCH   6  12
ENDBRANCH   3   5
ENDBRANCH   2   3
ENDBRANCH   1   2
BRANCH   1  18
ATOM     18  C   UNL A   1      33.701  30.847  27.534  1.00  0.00     0.275 C 
BRANCH  18  19
ATOM     19  O   UNL A   1      34.735  29.977  28.023  1.00  0.00    -0.458 OA
BRANCH  19  20
ATOM     20  C   UNL A   1      35.620  30.540  28.872  1.00  0.00     0.338 C 
ATOM     21  O   UNL A   1      35.424  31.404  29.709  1.00  0.00    -0.246 OA
BRANCH  20  22
ATOM     22  C   UNL A   1      36.914  29.878  28.686  1.00  0.00     0.060 A 
ATOM     23  C   UNL A   1      37.540  29.320  29.800  1.00  0.00     0.016 A 
ATOM     24  C   UNL A   1      37.545  29.892  27.445  1.00  0.00     0.016 A 
ATOM     25  C   UNL A   1      38.834  28.819  29.692  1.00  0.00     0.010 A 
ATOM     26  C   UNL A   1      38.821  29.334  27.325  1.00  0.00     0.010 A 
ATOM     27  C   UNL A   1      39.490  28.821  28.453  1.00  0.00    -0.014 A 
BRANCH  27  28
ATOM     28  C   UNL A   1      40.897  28.352  28.341  1.00  0.00     0.031 A 
ATOM     29  C   UNL A   1      42.027  29.318  28.579  1.00  0.00     0.074 A 
ATOM     30  C   UNL A   1      41.174  27.067  28.048  1.00  0.00     0.049 A 
ATOM     31  N   UNL A   1      43.308  29.165  28.357  1.00  0.00    -0.248 NA
ATOM     32  C   UNL A   1      41.666  30.634  29.129  1.00  0.00     0.031 C 
ATOM     33  C   UNL A   1      40.182  26.009  27.854  1.00  0.00     0.029 A 
ATOM     34  N   UNL A   1      42.377  26.431  27.869  1.00  0.00    -0.354 N 
ATOM     35  C   UNL A   1      43.896  30.379  28.690  1.00  0.00     0.074 A 
ATOM     36  C   UNL A   1      42.835  31.258  29.130  1.00  0.00     0.031 C 
ATOM     37  C   UNL A   1      40.817  24.850  27.619  1.00  0.00     0.029 A 
ATOM     38  C   UNL A   1      42.255  25.096  27.568  1.00  0.00     0.049 A 
ATOM     39  H   UNL A   1      43.245  26.888  27.950  1.00  0.00     0.167 HD
ATOM     40  C   UNL A   1      45.204  30.726  28.633  1.00  0.00     0.037 A 
ATOM     41  C   UNL A   1      43.190  24.180  27.251  1.00  0.00     0.037 A 
ATOM     42  C   UNL A   1      46.264  29.832  28.249  1.00  0.00     0.049 A 
ATOM     43  C   UNL A   1      44.632  24.595  27.162  1.00  0.00     0.074 A 
ATOM     44  C   UNL A   1      47.622  30.093  28.160  1.00  0.00     0.029 A 
ATOM     45  N   UNL A   1      46.091  28.498  27.914  1.00  0.00    -0.354 N 
ATOM     46  N   UNL A   1      45.167  25.767  27.397  1.00  0.00    -0.248 NA
ATOM     47  C   UNL A   1      45.594  23.567  26.738  1.00  0.00     0.031 C 
ATOM     48  C   UNL A   1      48.266  28.924  27.746  1.00  0.00     0.029 A 
ATOM     49  C   UNL A   1      47.315  27.926  27.613  1.00  0.00     0.049 A 
ATOM     50  H   UNL A   1      45.226  28.029  27.893  1.00  0.00     0.167 HD
ATOM     51  C   UNL A   1      46.526  25.620  27.154  1.00  0.00     0.074 A 
ATOM     52  C   UNL A   1      46.737  24.240  26.771  1.00  0.00     0.031 C 
ATOM     53  C   UNL A   1      47.508  26.549  27.235  1.00  0.00     0.037 A 
BRANCH  40  54
ATOM     54  C   UNL A   1      45.564  32.141  28.969  1.00  0.00     0.057 A 
ATOM     55  C   UNL A   1      45.887  32.496  30.286  1.00  0.00     0.134 A 
ATOM     56  C   UNL A   1      45.542  33.162  28.012  1.00  0.00     0.134 A 
ATOM     57  F   UNL A   1      45.922  31.566  31.253  1.00  0.00    -0.206 F 
ATOM     58  C   UNL A   1      46.163  33.817  30.640  1.00  0.00     0.040 A 
ATOM     59  C   UNL A   1      45.838  34.484  28.349  1.00  0.00     0.040 A 
ATOM     60  F   UNL A   1      45.255  32.885  26.731  1.00  0.00    -0.206 F 
ATOM     61  C   UNL A   1      46.142  34.815  29.669  1.00  0.00     0.006 A 
ENDBRANCH  40  54
BRANCH  41  62
ATOM     62  C   UNL A   1      42.780  22.783  26.968  1.00  0.00     0.057 A 
ATOM     63  C   UNL A   1      42.445  21.896  27.998  1.00  0.00     0.134 A 
ATOM     64  C   UNL A   1      42.745  22.294  25.658  1.00  0.00     0.134 A 
ATOM     65  F   UNL A   1      42.459  22.305  29.275  1.00  0.00    -0.206 F 
ATOM     66  C   UNL A   1      42.116  20.565  27.738  1.00  0.00     0.040 A 
ATOM     67  C   UNL A   1      42.395  20.972  25.380  1.00  0.00     0.040 A 
ATOM     68  F   UNL A   1      43.033  23.104  24.628  1.00  0.00    -0.206 F 
ATOM     69  C   UNL A   1      42.089  20.100  26.425  1.00  0.00     0.006 A 
ENDBRANCH  41  62
BRANCH  53  70
ATOM     70  C   UNL A   1      48.904  26.108  26.919  1.00  0.00     0.057 A 
ATOM     71  C   UNL A   1      49.718  25.547  27.910  1.00  0.00     0.134 A 
ATOM     72  C   UNL A   1      49.464  26.304  25.651  1.00  0.00     0.134 A 
ATOM     73  F   UNL A   1      49.240  25.342  29.147  1.00  0.00    -0.206 F 
ATOM     74  C   UNL A   1      51.046  25.204  27.654  1.00  0.00     0.040 A 
ATOM     75  C   UNL A   1      50.787  25.949  25.378  1.00  0.00     0.040 A 
ATOM     76  F   UNL A   1      48.732  26.829  24.658  1.00  0.00    -0.206 F 
ATOM     77  C   UNL A   1      51.583  25.406  26.384  1.00  0.00     0.006 A 
ENDBRANCH  53  70
ENDBRANCH  27  28
ENDBRANCH  20  22
ENDBRANCH  19  20
ENDBRANCH  18  19
ENDBRANCH   1  18
TORSDOF 13
ENDMDL
