MODEL 1
REMARK VINA RESULT:     -13.6      0.000      0.000
REMARK SMILES Cc1ccc(-c2cc3cccnc3n2CCC(=O)OCCOC(=O)c2ccc(-c3c4nc(c(-c5c(F)cccc5F)c5ccc([nH]5)c(-c5c(F)cccc5F)c5nc(c(-c6c(F)cccc6F)c6ccc3[nH]6)C=C5)C=C4)cc2)cn1
REMARK SMILES IDX 20 1 19 2 17 3 18 4 16 5 15 6 14 7 6 8 7 9 8 10 13 11 9 12
REMARK SMILES IDX 12 13 10 14 11 15 5 16 1 17 2 18 3 19 80 20 4 21 79 22 21 23
REMARK SMILES IDX 22 24 23 25 24 26 25 27 26 28 78 29 27 30 77 31 28 32 29 33
REMARK SMILES IDX 30 34 71 35 31 36 76 37 70 38 72 39 32 40 75 41 69 42 68 43
REMARK SMILES IDX 33 45 59 46 42 47 58 48 43 49 46 50 57 51 73 52 44 53 45 54
REMARK SMILES IDX 56 56 74 57 47 58 34 59 35 60 40 61 36 62 37 63 39 64 41 65
REMARK SMILES IDX 38 66 60 67 61 68 66 69 62 70 63 71 65 72 67 73 64 74 48 75
REMARK SMILES IDX 49 76 54 77 50 78 51 79 53 80 55 81 52 82
REMARK H PARENT 72 44 46 55
REMARK Flexibility Score: inf
ROOT
ATOM      1  C   UNL A   1      33.179  28.546  26.464  1.00  0.00     0.274 C 
ENDROOT
BRANCH   1   2
ATOM      2  O   UNL A   1      33.949  27.462  25.858  1.00  0.00    -0.462 OA
BRANCH   2   3
ATOM      3  C   UNL A   1      33.625  27.088  24.588  1.00  0.00     0.307 C 
ATOM      4  O   UNL A   1      33.954  26.011  24.099  1.00  0.00    -0.252 OA
BRANCH   3   5
ATOM      5  C   UNL A   1      32.727  28.071  23.827  1.00  0.00     0.144 C 
BRANCH   5   6
ATOM      6  C   UNL A   1      31.937  27.603  22.598  1.00  0.00     0.136 C 
BRANCH   6   7
ATOM      7  N   UNL A   1      30.510  27.567  22.823  1.00  0.00    -0.325 N 
ATOM      8  C   UNL A   1      29.837  26.649  23.592  1.00  0.00     0.052 A 
ATOM      9  C   UNL A   1      28.569  27.171  23.806  1.00  0.00     0.039 A 
ATOM     10  C   UNL A   1      28.460  28.391  23.110  1.00  0.00     0.020 A 
ATOM     11  C   UNL A   1      29.657  28.571  22.430  1.00  0.00     0.140 A 
ATOM     12  C   UNL A   1      27.482  29.387  23.007  1.00  0.00     0.013 A 
ATOM     13  N   UNL A   1      29.968  29.591  21.607  1.00  0.00    -0.238 NA
ATOM     14  C   UNL A   1      27.753  30.459  22.163  1.00  0.00     0.021 A 
ATOM     15  C   UNL A   1      28.965  30.492  21.485  1.00  0.00     0.113 A 
BRANCH   8  16
ATOM     16  C   UNL A   1      30.394  25.487  24.277  1.00  0.00     0.017 A 
ATOM     17  C   UNL A   1      32.779  22.046  27.139  1.00  0.00     0.066 C 
ATOM     18  C   UNL A   1      32.119  23.047  26.245  1.00  0.00     0.037 A 
ATOM     19  C   UNL A   1      31.932  22.744  24.497  1.00  0.00     0.024 A 
ATOM     20  N   UNL A   1      31.494  24.494  27.007  1.00  0.00    -0.261 NA
ATOM     21  C   UNL A   1      31.013  23.940  23.505  1.00  0.00     0.014 A 
ATOM     22  C   UNL A   1      30.623  25.687  26.055  1.00  0.00     0.121 A 
ENDBRANCH   8  16
ENDBRANCH   6   7
ENDBRANCH   5   6
ENDBRANCH   3   5
ENDBRANCH   2   3
ENDBRANCH   1   2
BRANCH   1  23
ATOM     23  C   UNL A   1      33.986  29.870  27.181  1.00  0.00     0.275 C 
BRANCH  23  24
ATOM     24  O   UNL A   1      33.218  31.646  27.730  1.00  0.00    -0.458 OA
BRANCH  24  25
ATOM     25  C   UNL A   1      33.139  33.040  27.901  1.00  0.00     0.338 C 
ATOM     26  O   UNL A   1      32.235  33.818  27.611  1.00  0.00    -0.246 OA
BRANCH  25  27
ATOM     27  C   UNL A   1      34.210  33.524  28.747  1.00  0.00     0.060 A 
ATOM     28  C   UNL A   1      35.263  34.183  28.091  1.00  0.00     0.016 A 
ATOM     29  C   UNL A   1      34.339  32.826  29.938  1.00  0.00     0.016 A 
ATOM     30  C   UNL A   1      36.535  33.885  28.501  1.00  0.00     0.010 A 
ATOM     31  C   UNL A   1      35.602  32.552  30.356  1.00  0.00     0.010 A 
ATOM     32  C   UNL A   1      36.660  32.975  29.548  1.00  0.00    -0.014 A 
BRANCH  32  33
ATOM     33  C   UNL A   1      37.934  32.342  29.761  1.00  0.00     0.031 A 
ATOM     34  C   UNL A   1      37.992  30.976  29.219  1.00  0.00     0.074 A 
ATOM     35  C   UNL A   1      38.971  33.074  30.213  1.00  0.00     0.049 A 
ATOM     36  N   UNL A   1      38.229  29.878  29.852  1.00  0.00    -0.248 NA
ATOM     37  C   UNL A   1      37.563  30.791  27.821  1.00  0.00     0.031 C 
ATOM     38  C   UNL A   1      39.008  34.522  30.467  1.00  0.00     0.029 A 
ATOM     39  N   UNL A   1      40.260  32.703  30.392  1.00  0.00    -0.354 N 
ATOM     40  C   UNL A   1      38.199  28.891  28.876  1.00  0.00     0.074 A 
ATOM     41  C   UNL A   1      37.570  29.464  27.719  1.00  0.00     0.031 C 
ATOM     42  C   UNL A   1      40.296  34.927  30.527  1.00  0.00     0.029 A 
ATOM     43  C   UNL A   1      41.157  33.761  30.425  1.00  0.00     0.049 A 
ATOM     44  H   UNL A   1      40.539  31.764  30.490  1.00  0.00     0.167 HD
ATOM     45  C   UNL A   1      38.974  27.783  28.985  1.00  0.00     0.037 A 
ATOM     46  C   UNL A   1      42.501  33.665  30.275  1.00  0.00     0.037 A 
ATOM     47  C   UNL A   1      39.406  27.573  30.343  1.00  0.00     0.049 A 
ATOM     48  C   UNL A   1      42.867  32.236  30.461  1.00  0.00     0.074 A 
ATOM     49  C   UNL A   1      38.754  27.402  31.549  1.00  0.00     0.029 A 
ATOM     50  N   UNL A   1      40.704  27.896  30.660  1.00  0.00    -0.354 N 
ATOM     51  N   UNL A   1      42.816  31.610  31.603  1.00  0.00    -0.248 NA
ATOM     52  C   UNL A   1      42.859  31.374  29.285  1.00  0.00     0.031 C 
ATOM     53  C   UNL A   1      39.567  28.063  32.514  1.00  0.00     0.029 A 
ATOM     54  C   UNL A   1      40.687  28.569  31.855  1.00  0.00     0.049 A 
ATOM     55  H   UNL A   1      41.502  27.683  30.124  1.00  0.00     0.167 HD
ATOM     56  C   UNL A   1      42.348  30.339  31.296  1.00  0.00     0.074 A 
ATOM     57  C   UNL A   1      42.496  30.218  29.849  1.00  0.00     0.031 C 
ATOM     58  C   UNL A   1      41.611  29.625  32.197  1.00  0.00     0.037 A 
BRANCH  45  59
ATOM     59  C   UNL A   1      39.659  27.148  27.803  1.00  0.00     0.057 A 
ATOM     60  C   UNL A   1      40.568  27.812  26.951  1.00  0.00     0.134 A 
ATOM     61  C   UNL A   1      39.638  25.751  27.685  1.00  0.00     0.134 A 
ATOM     62  F   UNL A   1      40.780  29.133  27.002  1.00  0.00    -0.206 F 
ATOM     63  C   UNL A   1      41.401  27.138  26.058  1.00  0.00     0.040 A 
ATOM     64  C   UNL A   1      40.510  25.061  26.836  1.00  0.00     0.040 A 
ATOM     65  F   UNL A   1      38.826  25.009  28.453  1.00  0.00    -0.206 F 
ATOM     66  C   UNL A   1      41.400  25.755  26.024  1.00  0.00     0.006 A 
ENDBRANCH  45  59
BRANCH  46  67
ATOM     67  C   UNL A   1      43.442  34.665  29.722  1.00  0.00     0.057 A 
ATOM     68  C   UNL A   1      44.010  35.680  30.514  1.00  0.00     0.134 A 
ATOM     69  C   UNL A   1      43.628  34.794  28.339  1.00  0.00     0.134 A 
ATOM     70  F   UNL A   1      43.823  35.715  31.841  1.00  0.00    -0.206 F 
ATOM     71  C   UNL A   1      44.724  36.751  29.968  1.00  0.00     0.040 A 
ATOM     72  C   UNL A   1      44.327  35.870  27.776  1.00  0.00     0.040 A 
ATOM     73  F   UNL A   1      43.087  33.904  27.494  1.00  0.00    -0.206 F 
ATOM     74  C   UNL A   1      44.874  36.857  28.591  1.00  0.00     0.006 A 
ENDBRANCH  46  67
BRANCH  58  75
ATOM     75  C   UNL A   1      41.555  30.148  33.606  1.00  0.00     0.057 A 
ATOM     76  C   UNL A   1      40.564  31.071  33.952  1.00  0.00     0.134 A 
ATOM     77  C   UNL A   1      42.524  29.863  34.581  1.00  0.00     0.134 A 
ATOM     78  F   UNL A   1      39.642  31.443  33.051  1.00  0.00    -0.206 F 
ATOM     79  C   UNL A   1      40.521  31.664  35.216  1.00  0.00     0.040 A 
ATOM     80  C   UNL A   1      42.474  30.422  35.860  1.00  0.00     0.040 A 
ATOM     81  F   UNL A   1      43.574  29.080  34.304  1.00  0.00    -0.206 F 
ATOM     82  C   UNL A   1      41.469  31.329  36.180  1.00  0.00     0.006 A 
ENDBRANCH  58  75
ENDBRANCH  32  33
ENDBRANCH  25  27
ENDBRANCH  24  25
ENDBRANCH  23  24
ENDBRANCH   1  23
TORSDOF 14
ENDMDL
MODEL 2
REMARK VINA RESULT:     -13.6      4.126      8.850
REMARK SMILES Cc1ccc(-c2cc3cccnc3n2CCC(=O)OCCOC(=O)c2ccc(-c3c4nc(c(-c5c(F)cccc5F)c5ccc([nH]5)c(-c5c(F)cccc5F)c5nc(c(-c6c(F)cccc6F)c6ccc3[nH]6)C=C5)C=C4)cc2)cn1
REMARK SMILES IDX 20 1 19 2 17 3 18 4 16 5 15 6 14 7 6 8 7 9 8 10 13 11 9 12
REMARK SMILES IDX 12 13 10 14 11 15 5 16 1 17 2 18 3 19 80 20 4 21 79 22 21 23
REMARK SMILES IDX 22 24 23 25 24 26 25 27 26 28 78 29 27 30 77 31 28 32 29 33
REMARK SMILES IDX 30 34 71 35 31 36 76 37 70 38 72 39 32 40 75 41 69 42 68 43
REMARK SMILES IDX 33 45 59 46 42 47 58 48 43 49 46 50 57 51 73 52 44 53 45 54
REMARK SMILES IDX 56 56 74 57 47 58 34 59 35 60 40 61 36 62 37 63 39 64 41 65
REMARK SMILES IDX 38 66 60 67 61 68 66 69 62 70 63 71 65 72 67 73 64 74 48 75
REMARK SMILES IDX 49 76 54 77 50 78 51 79 53 80 55 81 52 82
REMARK H PARENT 72 44 46 55
REMARK Flexibility Score: inf
ROOT
ATOM      1  C   UNL A   1      36.290  23.617  25.979  1.00  0.00     0.274 C 
ENDROOT
BRANCH   1   2
ATOM      2  O   UNL A   1      35.428  22.814  25.115  1.00  0.00    -0.462 OA
BRANCH   2   3
ATOM      3  C   UNL A   1      35.187  21.525  25.482  1.00  0.00     0.307 C 
ATOM      4  O   UNL A   1      35.871  20.578  25.104  1.00  0.00    -0.252 OA
BRANCH   3   5
ATOM      5  C   UNL A   1      34.047  21.335  26.489  1.00  0.00     0.144 C 
BRANCH   5   6
ATOM      6  C   UNL A   1      32.587  21.369  26.019  1.00  0.00     0.136 C 
BRANCH   6   7
ATOM      7  N   UNL A   1      32.366  20.625  24.801  1.00  0.00    -0.325 N 
ATOM      8  C   UNL A   1      32.189  21.161  23.548  1.00  0.00     0.052 A 
ATOM      9  C   UNL A   1      32.350  20.116  22.649  1.00  0.00     0.039 A 
ATOM     10  C   UNL A   1      32.572  18.928  23.371  1.00  0.00     0.020 A 
ATOM     11  C   UNL A   1      32.488  19.258  24.717  1.00  0.00     0.140 A 
ATOM     12  C   UNL A   1      32.870  17.604  23.030  1.00  0.00     0.013 A 
ATOM     13  N   UNL A   1      32.598  18.412  25.760  1.00  0.00    -0.238 NA
ATOM     14  C   UNL A   1      32.987  16.690  24.072  1.00  0.00     0.021 A 
ATOM     15  C   UNL A   1      32.816  17.132  25.378  1.00  0.00     0.113 A 
BRANCH   8  16
ATOM     16  C   UNL A   1      32.108  22.573  23.191  1.00  0.00     0.017 A 
ATOM     17  C   UNL A   1      32.674  27.521  22.233  1.00  0.00     0.066 C 
ATOM     18  C   UNL A   1      32.472  26.078  22.572  1.00  0.00     0.037 A 
ATOM     19  C   UNL A   1      30.943  25.501  23.286  1.00  0.00     0.024 A 
ATOM     20  N   UNL A   1      33.783  24.986  22.180  1.00  0.00    -0.261 NA
ATOM     21  C   UNL A   1      30.727  23.728  23.549  1.00  0.00     0.014 A 
ATOM     22  C   UNL A   1      33.606  23.261  22.456  1.00  0.00     0.121 A 
ENDBRANCH   8  16
ENDBRANCH   6   7
ENDBRANCH   5   6
ENDBRANCH   3   5
ENDBRANCH   2   3
ENDBRANCH   1   2
BRANCH   1  23
ATOM     23  C   UNL A   1      37.983  23.396  25.940  1.00  0.00     0.275 C 
BRANCH  23  24
ATOM     24  O   UNL A   1      39.009  21.688  25.660  1.00  0.00    -0.458 OA
BRANCH  24  25
ATOM     25  C   UNL A   1      39.860  20.609  25.960  1.00  0.00     0.338 C 
ATOM     26  O   UNL A   1      39.768  19.426  25.650  1.00  0.00    -0.246 OA
BRANCH  25  27
ATOM     27  C   UNL A   1      41.112  21.072  26.522  1.00  0.00     0.060 A 
ATOM     28  C   UNL A   1      41.245  20.948  27.915  1.00  0.00     0.016 A 
ATOM     29  C   UNL A   1      41.746  22.036  25.754  1.00  0.00     0.016 A 
ATOM     30  C   UNL A   1      41.805  22.004  28.583  1.00  0.00     0.010 A 
ATOM     31  C   UNL A   1      42.323  23.070  26.419  1.00  0.00     0.010 A 
ATOM     32  C   UNL A   1      42.213  23.089  27.812  1.00  0.00    -0.014 A 
BRANCH  32  33
ATOM     33  C   UNL A   1      42.443  24.351  28.465  1.00  0.00     0.031 A 
ATOM     34  C   UNL A   1      41.394  25.341  28.182  1.00  0.00     0.074 A 
ATOM     35  C   UNL A   1      43.415  24.448  29.393  1.00  0.00     0.049 A 
ATOM     36  N   UNL A   1      41.522  26.501  27.632  1.00  0.00    -0.248 NA
ATOM     37  C   UNL A   1      39.998  24.915  28.383  1.00  0.00     0.031 C 
ATOM     38  C   UNL A   1      44.275  23.375  29.913  1.00  0.00     0.029 A 
ATOM     39  N   UNL A   1      43.734  25.501  30.183  1.00  0.00    -0.354 N 
ATOM     40  C   UNL A   1      40.240  27.036  27.630  1.00  0.00     0.074 A 
ATOM     41  C   UNL A   1      39.333  25.952  27.882  1.00  0.00     0.031 C 
ATOM     42  C   UNL A   1      44.830  23.780  31.078  1.00  0.00     0.029 A 
ATOM     43  C   UNL A   1      44.451  25.161  31.321  1.00  0.00     0.049 A 
ATOM     44  H   UNL A   1      43.480  26.427  29.969  1.00  0.00     0.167 HD
ATOM     45  C   UNL A   1      40.048  28.375  27.735  1.00  0.00     0.037 A 
ATOM     46  C   UNL A   1      44.620  25.944  32.414  1.00  0.00     0.037 A 
ATOM     47  C   UNL A   1      41.238  29.108  27.389  1.00  0.00     0.049 A 
ATOM     48  C   UNL A   1      44.249  27.331  32.027  1.00  0.00     0.074 A 
ATOM     49  C   UNL A   1      42.040  29.174  26.266  1.00  0.00     0.029 A 
ATOM     50  N   UNL A   1      41.981  29.644  28.414  1.00  0.00    -0.354 N 
ATOM     51  N   UNL A   1      44.949  28.078  31.220  1.00  0.00    -0.248 NA
ATOM     52  C   UNL A   1      42.856  27.731  32.183  1.00  0.00     0.031 C 
ATOM     53  C   UNL A   1      43.367  29.329  26.759  1.00  0.00     0.029 A 
ATOM     54  C   UNL A   1      43.302  29.386  28.151  1.00  0.00     0.049 A 
ATOM     55  H   UNL A   1      41.627  30.127  29.196  1.00  0.00     0.167 HD
ATOM     56  C   UNL A   1      44.012  28.758  30.455  1.00  0.00     0.074 A 
ATOM     57  C   UNL A   1      42.747  28.588  31.162  1.00  0.00     0.031 C 
ATOM     58  C   UNL A   1      44.292  29.137  29.173  1.00  0.00     0.037 A 
BRANCH  45  59
ATOM     59  C   UNL A   1      38.923  28.975  28.538  1.00  0.00     0.057 A 
ATOM     60  C   UNL A   1      37.800  29.625  27.982  1.00  0.00     0.134 A 
ATOM     61  C   UNL A   1      38.809  28.635  29.894  1.00  0.00     0.134 A 
ATOM     62  F   UNL A   1      37.707  29.934  26.684  1.00  0.00    -0.206 F 
ATOM     63  C   UNL A   1      36.647  29.907  28.716  1.00  0.00     0.040 A 
ATOM     64  C   UNL A   1      37.636  28.858  30.622  1.00  0.00     0.040 A 
ATOM     65  F   UNL A   1      39.805  27.999  30.528  1.00  0.00    -0.206 F 
ATOM     66  C   UNL A   1      36.548  29.490  30.032  1.00  0.00     0.006 A 
ENDBRANCH  45  59
BRANCH  46  67
ATOM     67  C   UNL A   1      44.816  25.534  33.822  1.00  0.00     0.057 A 
ATOM     68  C   UNL A   1      46.083  25.201  34.338  1.00  0.00     0.134 A 
ATOM     69  C   UNL A   1      43.724  25.230  34.645  1.00  0.00     0.134 A 
ATOM     70  F   UNL A   1      47.196  25.360  33.608  1.00  0.00    -0.206 F 
ATOM     71  C   UNL A   1      46.254  24.609  35.594  1.00  0.00     0.040 A 
ATOM     72  C   UNL A   1      43.878  24.622  35.899  1.00  0.00     0.040 A 
ATOM     73  F   UNL A   1      42.471  25.465  34.228  1.00  0.00    -0.206 F 
ATOM     74  C   UNL A   1      45.146  24.306  36.375  1.00  0.00     0.006 A 
ENDBRANCH  46  67
BRANCH  58  75
ATOM     75  C   UNL A   1      45.722  29.029  28.722  1.00  0.00     0.057 A 
ATOM     76  C   UNL A   1      46.534  30.166  28.749  1.00  0.00     0.134 A 
ATOM     77  C   UNL A   1      46.272  27.872  28.147  1.00  0.00     0.134 A 
ATOM     78  F   UNL A   1      46.056  31.327  29.223  1.00  0.00    -0.206 F 
ATOM     79  C   UNL A   1      47.840  30.150  28.252  1.00  0.00     0.040 A 
ATOM     80  C   UNL A   1      47.587  27.831  27.677  1.00  0.00     0.040 A 
ATOM     81  F   UNL A   1      45.534  26.769  27.973  1.00  0.00    -0.206 F 
ATOM     82  C   UNL A   1      48.376  28.976  27.728  1.00  0.00     0.006 A 
ENDBRANCH  58  75
ENDBRANCH  32  33
ENDBRANCH  25  27
ENDBRANCH  24  25
ENDBRANCH  23  24
ENDBRANCH   1  23
TORSDOF 14
ENDMDL
MODEL 3
REMARK VINA RESULT:     -13.0      2.255      6.491
REMARK SMILES Cc1ccc(-c2cc3cccnc3n2CCC(=O)OCCOC(=O)c2ccc(-c3c4nc(c(-c5c(F)cccc5F)c5ccc([nH]5)c(-c5c(F)cccc5F)c5nc(c(-c6c(F)cccc6F)c6ccc3[nH]6)C=C5)C=C4)cc2)cn1
REMARK SMILES IDX 20 1 19 2 17 3 18 4 16 5 15 6 14 7 6 8 7 9 8 10 13 11 9 12
REMARK SMILES IDX 12 13 10 14 11 15 5 16 1 17 2 18 3 19 80 20 4 21 79 22 21 23
REMARK SMILES IDX 22 24 23 25 24 26 25 27 26 28 78 29 27 30 77 31 28 32 29 33
REMARK SMILES IDX 30 34 71 35 31 36 76 37 70 38 72 39 32 40 75 41 69 42 68 43
REMARK SMILES IDX 33 45 59 46 42 47 58 48 43 49 46 50 57 51 73 52 44 53 45 54
REMARK SMILES IDX 56 56 74 57 47 58 34 59 35 60 40 61 36 62 37 63 39 64 41 65
REMARK SMILES IDX 38 66 60 67 61 68 66 69 62 70 63 71 65 72 67 73 64 74 48 75
REMARK SMILES IDX 49 76 54 77 50 78 51 79 53 80 55 81 52 82
REMARK H PARENT 72 44 46 55
REMARK Flexibility Score: inf
ROOT
ATOM      1  C   UNL A   1      33.307  32.101  27.655  1.00  0.00     0.274 C 
ENDROOT
BRANCH   1   2
ATOM      2  O   UNL A   1      33.927  31.003  26.917  1.00  0.00    -0.462 OA
BRANCH   2   3
ATOM      3  C   UNL A   1      33.300  29.793  26.937  1.00  0.00     0.307 C 
ATOM      4  O   UNL A   1      33.622  28.880  27.692  1.00  0.00    -0.252 OA
BRANCH   3   5
ATOM      5  C   UNL A   1      32.087  29.672  26.008  1.00  0.00     0.144 C 
BRANCH   5   6
ATOM      6  C   UNL A   1      32.280  29.628  24.486  1.00  0.00     0.136 C 
BRANCH   6   7
ATOM      7  N   UNL A   1      31.280  28.832  23.811  1.00  0.00    -0.325 N 
ATOM      8  C   UNL A   1      31.374  27.493  23.522  1.00  0.00     0.052 A 
ATOM      9  C   UNL A   1      30.094  27.072  23.191  1.00  0.00     0.039 A 
ATOM     10  C   UNL A   1      29.230  28.184  23.228  1.00  0.00     0.020 A 
ATOM     11  C   UNL A   1      30.014  29.289  23.531  1.00  0.00     0.140 A 
ATOM     12  C   UNL A   1      27.852  28.371  23.068  1.00  0.00     0.013 A 
ATOM     13  N   UNL A   1      29.598  30.567  23.625  1.00  0.00    -0.238 NA
ATOM     14  C   UNL A   1      27.374  29.675  23.150  1.00  0.00     0.021 A 
ATOM     15  C   UNL A   1      28.272  30.707  23.394  1.00  0.00     0.113 A 
BRANCH   8  16
ATOM     16  C   UNL A   1      32.513  26.612  23.759  1.00  0.00     0.017 A 
ATOM     17  C   UNL A   1      36.055  22.992  24.024  1.00  0.00     0.066 C 
ATOM     18  C   UNL A   1      34.987  24.040  24.007  1.00  0.00     0.037 A 
ATOM     19  C   UNL A   1      34.511  24.899  25.495  1.00  0.00     0.024 A 
ATOM     20  N   UNL A   1      34.277  24.414  22.451  1.00  0.00    -0.261 NA
ATOM     21  C   UNL A   1      33.306  26.238  25.372  1.00  0.00     0.014 A 
ATOM     22  C   UNL A   1      33.080  25.693  22.314  1.00  0.00     0.121 A 
ENDBRANCH   8  16
ENDBRANCH   6   7
ENDBRANCH   5   6
ENDBRANCH   3   5
ENDBRANCH   2   3
ENDBRANCH   1   2
BRANCH   1  23
ATOM     23  C   UNL A   1      34.182  32.912  28.876  1.00  0.00     0.275 C 
BRANCH  23  24
ATOM     24  O   UNL A   1      33.501  34.245  30.220  1.00  0.00    -0.458 OA
BRANCH  24  25
ATOM     25  C   UNL A   1      33.223  34.808  31.479  1.00  0.00     0.338 C 
ATOM     26  O   UNL A   1      32.214  35.380  31.879  1.00  0.00    -0.246 OA
BRANCH  25  27
ATOM     27  C   UNL A   1      34.221  34.424  32.455  1.00  0.00     0.060 A 
ATOM     28  C   UNL A   1      35.205  35.384  32.741  1.00  0.00     0.016 A 
ATOM     29  C   UNL A   1      34.408  33.053  32.551  1.00  0.00     0.016 A 
ATOM     30  C   UNL A   1      36.496  34.941  32.849  1.00  0.00     0.010 A 
ATOM     31  C   UNL A   1      35.687  32.615  32.684  1.00  0.00     0.010 A 
ATOM     32  C   UNL A   1      36.705  33.573  32.691  1.00  0.00    -0.014 A 
BRANCH  32  33
ATOM     33  C   UNL A   1      38.038  33.107  32.413  1.00  0.00     0.031 A 
ATOM     34  C   UNL A   1      38.919  33.159  33.589  1.00  0.00     0.074 A 
ATOM     35  C   UNL A   1      38.295  32.499  31.238  1.00  0.00     0.049 A 
ATOM     36  N   UNL A   1      40.025  33.808  33.727  1.00  0.00    -0.248 NA
ATOM     37  C   UNL A   1      38.416  32.542  34.830  1.00  0.00     0.031 C 
ATOM     38  C   UNL A   1      37.342  32.162  30.171  1.00  0.00     0.029 A 
ATOM     39  N   UNL A   1      39.440  31.912  30.818  1.00  0.00    -0.354 N 
ATOM     40  C   UNL A   1      40.465  33.491  35.006  1.00  0.00     0.074 A 
ATOM     41  C   UNL A   1      39.350  32.914  35.702  1.00  0.00     0.031 C 
ATOM     42  C   UNL A   1      37.898  31.233  29.360  1.00  0.00     0.029 A 
ATOM     43  C   UNL A   1      39.266  30.998  29.788  1.00  0.00     0.049 A 
ATOM     44  H   UNL A   1      40.321  32.115  31.208  1.00  0.00     0.167 HD
ATOM     45  C   UNL A   1      41.790  33.437  35.288  1.00  0.00     0.037 A 
ATOM     46  C   UNL A   1      40.163  30.058  29.403  1.00  0.00     0.037 A 
ATOM     47  C   UNL A   1      42.568  34.157  34.313  1.00  0.00     0.049 A 
ATOM     48  C   UNL A   1      41.476  30.429  29.996  1.00  0.00     0.074 A 
ATOM     49  C   UNL A   1      42.580  35.462  33.859  1.00  0.00     0.029 A 
ATOM     50  N   UNL A   1      43.254  33.425  33.374  1.00  0.00    -0.354 N 
ATOM     51  N   UNL A   1      42.186  31.454  29.617  1.00  0.00    -0.248 NA
ATOM     52  C   UNL A   1      41.789  29.920  31.326  1.00  0.00     0.031 C 
ATOM     53  C   UNL A   1      42.876  35.373  32.468  1.00  0.00     0.029 A 
ATOM     54  C   UNL A   1      43.066  34.027  32.157  1.00  0.00     0.049 A 
ATOM     55  H   UNL A   1      43.786  32.614  33.545  1.00  0.00     0.167 HD
ATOM     56  C   UNL A   1      42.720  31.974  30.789  1.00  0.00     0.074 A 
ATOM     57  C   UNL A   1      42.532  30.930  31.790  1.00  0.00     0.031 C 
ATOM     58  C   UNL A   1      42.990  33.308  30.906  1.00  0.00     0.037 A 
BRANCH  45  59
ATOM     59  C   UNL A   1      42.386  32.399  36.203  1.00  0.00     0.057 A 
ATOM     60  C   UNL A   1      42.393  31.011  35.944  1.00  0.00     0.134 A 
ATOM     61  C   UNL A   1      43.239  32.820  37.233  1.00  0.00     0.134 A 
ATOM     62  F   UNL A   1      41.708  30.456  34.937  1.00  0.00    -0.206 F 
ATOM     63  C   UNL A   1      43.195  30.112  36.648  1.00  0.00     0.040 A 
ATOM     64  C   UNL A   1      44.092  31.937  37.903  1.00  0.00     0.040 A 
ATOM     65  F   UNL A   1      43.332  34.118  37.560  1.00  0.00    -0.206 F 
ATOM     66  C   UNL A   1      44.076  30.579  37.607  1.00  0.00     0.006 A 
ENDBRANCH  45  59
BRANCH  46  67
ATOM     67  C   UNL A   1      39.909  28.735  28.792  1.00  0.00     0.057 A 
ATOM     68  C   UNL A   1      39.344  27.669  29.517  1.00  0.00     0.134 A 
ATOM     69  C   UNL A   1      40.433  28.407  27.534  1.00  0.00     0.134 A 
ATOM     70  F   UNL A   1      38.892  27.838  30.767  1.00  0.00    -0.206 F 
ATOM     71  C   UNL A   1      39.297  26.361  29.021  1.00  0.00     0.040 A 
ATOM     72  C   UNL A   1      40.409  27.099  27.032  1.00  0.00     0.040 A 
ATOM     73  F   UNL A   1      41.034  29.342  26.784  1.00  0.00    -0.206 F 
ATOM     74  C   UNL A   1      39.843  26.070  27.778  1.00  0.00     0.006 A 
ENDBRANCH  46  67
BRANCH  58  75
ATOM     75  C   UNL A   1      42.939  34.132  29.650  1.00  0.00     0.057 A 
ATOM     76  C   UNL A   1      44.112  34.330  28.915  1.00  0.00     0.134 A 
ATOM     77  C   UNL A   1      41.799  34.834  29.224  1.00  0.00     0.134 A 
ATOM     78  F   UNL A   1      45.256  33.746  29.300  1.00  0.00    -0.206 F 
ATOM     79  C   UNL A   1      44.147  35.164  27.796  1.00  0.00     0.040 A 
ATOM     80  C   UNL A   1      41.811  35.645  28.086  1.00  0.00     0.040 A 
ATOM     81  F   UNL A   1      40.662  34.797  29.929  1.00  0.00    -0.206 F 
ATOM     82  C   UNL A   1      42.990  35.813  27.368  1.00  0.00     0.006 A 
ENDBRANCH  58  75
ENDBRANCH  32  33
ENDBRANCH  25  27
ENDBRANCH  24  25
ENDBRANCH  23  24
ENDBRANCH   1  23
TORSDOF 14
ENDMDL
