MODEL 1
REMARK VINA RESULT:     -12.4      0.000      0.000
REMARK SMILES O=C(CCC(=O)OCCOC(=O)c1ccc(-c2c3nc(c(-c4c(F)cccc4F)c4ccc([nH]4)c(-c4c(F)cccc4F)c4nc(c(-c5c(F)cccc5F)c5ccc2[nH]5)C=C4)C=C3)cc1)/[NH+]=C1\S[C@H]2CS(=O)(=O)C[C@@H]2N1c1ccc(Oc2ccccc2)cc1
REMARK SMILES IDX 7 1 5 2 6 3 4 4 3 5 2 6 1 7 67 8 68 9 69 11 77 12 70 13
REMARK SMILES IDX 76 14 71 15 75 16 72 17 73 18 74 19 78 20 79 21 90 22 80 23
REMARK SMILES IDX 89 24 81 25 82 26 83 27 84 28 88 29 85 30 87 31 86 32 8 33
REMARK SMILES IDX 9 34 10 35 11 36 12 37 13 38 14 39 66 40 15 41 65 42 16 43
REMARK SMILES IDX 17 44 18 45 59 46 19 47 64 48 58 49 60 50 20 51 63 52 57 53
REMARK SMILES IDX 56 54 21 56 47 57 30 58 46 59 31 60 34 61 45 62 61 63 32 64
REMARK SMILES IDX 33 65 44 67 62 68 35 69 22 70 23 71 28 72 24 73 25 74 27 75
REMARK SMILES IDX 29 76 26 77 48 78 49 79 54 80 50 81 51 82 53 83 55 84 52 85
REMARK SMILES IDX 36 86 37 87 42 88 38 89 39 90 41 91 43 92 40 93
REMARK H PARENT 67 10 60 55 34 66
REMARK Flexibility Score: inf
ROOT
ATOM      1  O   UNL A   1      35.438  34.054  29.661  1.00  0.00    -0.462 OA
ENDROOT
BRANCH   1   2
ATOM      2  C   UNL A   1      34.954  33.671  28.458  1.00  0.00     0.306 C 
ATOM      3  O   UNL A   1      34.863  34.395  27.474  1.00  0.00    -0.252 OA
BRANCH   2   4
ATOM      4  C   UNL A   1      34.506  32.235  28.477  1.00  0.00     0.135 C 
BRANCH   4   5
ATOM      5  C   UNL A   1      35.151  31.327  27.436  1.00  0.00     0.139 C 
BRANCH   5   6
ATOM      6  C   UNL A   1      34.948  29.817  27.548  1.00  0.00     0.308 C 
ATOM      7  O   UNL A   1      35.018  29.281  28.652  1.00  0.00    -0.247 OA
ATOM      8  N   UNL A   1      34.744  29.076  26.415  1.00  0.00    -0.204 N 
ATOM      9  C   UNL A   1      33.548  28.806  25.995  1.00  0.00     0.319 C 
ATOM     10  H   UNL A   1      35.519  28.741  25.911  1.00  0.00     0.316 HD
ATOM     11  S   UNL A   1      32.021  29.527  26.585  1.00  0.00    -0.029 SA
ATOM     12  N   UNL A   1      33.260  27.944  24.931  1.00  0.00    -0.217 N 
ATOM     13  C   UNL A   1      31.084  28.932  25.135  1.00  0.00     0.120 C 
ATOM     14  C   UNL A   1      32.138  28.422  24.146  1.00  0.00     0.212 C 
ATOM     15  C   UNL A   1      30.262  29.855  24.252  1.00  0.00     0.156 C 
ATOM     16  C   UNL A   1      31.341  27.621  23.145  1.00  0.00     0.188 C 
ATOM     17  S   UNL A   1      30.074  28.856  22.746  1.00  0.00     0.155 S 
ATOM     18  O   UNL A   1      28.776  28.223  22.755  1.00  0.00    -0.229 OA
ATOM     19  O   UNL A   1      30.552  29.634  21.621  1.00  0.00    -0.229 OA
BRANCH  12  20
ATOM     20  C   UNL A   1      33.521  26.573  25.009  1.00  0.00     0.128 A 
ATOM     21  C   UNL A   1      33.005  25.780  26.044  1.00  0.00     0.056 A 
ATOM     22  C   UNL A   1      34.327  25.955  24.045  1.00  0.00     0.056 A 
ATOM     23  C   UNL A   1      33.342  24.425  26.147  1.00  0.00     0.051 A 
ATOM     24  C   UNL A   1      34.660  24.608  24.141  1.00  0.00     0.051 A 
ATOM     25  C   UNL A   1      34.199  23.843  25.213  1.00  0.00     0.127 A 
BRANCH  25  26
ATOM     26  O   UNL A   1      34.519  22.514  25.414  1.00  0.00    -0.457 OA
BRANCH  26  27
ATOM     27  C   UNL A   1      33.745  21.594  24.746  1.00  0.00     0.127 A 
ATOM     28  C   UNL A   1      32.860  22.057  23.776  1.00  0.00     0.047 A 
ATOM     29  C   UNL A   1      33.880  20.226  25.000  1.00  0.00     0.047 A 
ATOM     30  C   UNL A   1      32.153  21.138  23.001  1.00  0.00     0.004 A 
ATOM     31  C   UNL A   1      33.178  19.312  24.218  1.00  0.00     0.004 A 
ATOM     32  C   UNL A   1      32.324  19.767  23.212  1.00  0.00     0.000 A 
ENDBRANCH  26  27
ENDBRANCH  25  26
ENDBRANCH  12  20
ENDBRANCH   5   6
ENDBRANCH   4   5
ENDBRANCH   2   4
ENDBRANCH   1   2
BRANCH   1  33
ATOM     33  C   UNL A   1      34.486  34.123  30.739  1.00  0.00     0.274 C 
BRANCH  33  34
ATOM     34  C   UNL A   1      35.167  33.760  32.047  1.00  0.00     0.275 C 
BRANCH  34  35
ATOM     35  O   UNL A   1      35.211  32.344  32.294  1.00  0.00    -0.458 OA
BRANCH  35  36
ATOM     36  C   UNL A   1      36.284  31.936  32.996  1.00  0.00     0.338 C 
ATOM     37  O   UNL A   1      36.614  32.302  34.116  1.00  0.00    -0.246 OA
BRANCH  36  38
ATOM     38  C   UNL A   1      37.202  31.161  32.194  1.00  0.00     0.060 A 
ATOM     39  C   UNL A   1      37.007  30.998  30.826  1.00  0.00     0.016 A 
ATOM     40  C   UNL A   1      38.287  30.594  32.870  1.00  0.00     0.016 A 
ATOM     41  C   UNL A   1      37.983  30.328  30.107  1.00  0.00     0.010 A 
ATOM     42  C   UNL A   1      39.288  29.986  32.149  1.00  0.00     0.010 A 
ATOM     43  C   UNL A   1      39.152  29.896  30.762  1.00  0.00    -0.014 A 
BRANCH  43  44
ATOM     44  C   UNL A   1      40.340  29.560  29.971  1.00  0.00     0.031 A 
ATOM     45  C   UNL A   1      41.404  30.571  29.739  1.00  0.00     0.074 A 
ATOM     46  C   UNL A   1      40.354  28.332  29.423  1.00  0.00     0.049 A 
ATOM     47  N   UNL A   1      42.546  30.424  29.129  1.00  0.00    -0.248 NA
ATOM     48  C   UNL A   1      41.142  31.934  30.225  1.00  0.00     0.031 C 
ATOM     49  C   UNL A   1      39.259  27.357  29.525  1.00  0.00     0.029 A 
ATOM     50  N   UNL A   1      41.303  27.684  28.690  1.00  0.00    -0.354 N 
ATOM     51  C   UNL A   1      43.148  31.673  29.164  1.00  0.00     0.074 A 
ATOM     52  C   UNL A   1      42.219  32.579  29.802  1.00  0.00     0.031 C 
ATOM     53  C   UNL A   1      39.629  26.213  28.937  1.00  0.00     0.029 A 
ATOM     54  C   UNL A   1      40.966  26.387  28.391  1.00  0.00     0.049 A 
ATOM     55  H   UNL A   1      42.147  28.104  28.405  1.00  0.00     0.167 HD
ATOM     56  C   UNL A   1      44.379  32.006  28.714  1.00  0.00     0.037 A 
ATOM     57  C   UNL A   1      41.680  25.441  27.759  1.00  0.00     0.037 A 
ATOM     58  C   UNL A   1      45.248  31.056  28.069  1.00  0.00     0.049 A 
ATOM     59  C   UNL A   1      43.065  25.815  27.327  1.00  0.00     0.074 A 
ATOM     60  C   UNL A   1      46.534  31.231  27.595  1.00  0.00     0.029 A 
ATOM     61  N   UNL A   1      44.896  29.736  27.797  1.00  0.00    -0.354 N 
ATOM     62  N   UNL A   1      43.676  26.971  27.450  1.00  0.00    -0.248 NA
ATOM     63  C   UNL A   1      43.860  24.771  26.679  1.00  0.00     0.031 C 
ATOM     64  C   UNL A   1      46.943  30.028  27.008  1.00  0.00     0.029 A 
ATOM     65  C   UNL A   1      45.929  29.089  27.145  1.00  0.00     0.049 A 
ATOM     66  H   UNL A   1      44.035  29.322  28.038  1.00  0.00     0.167 HD
ATOM     67  C   UNL A   1      44.926  26.805  26.881  1.00  0.00     0.074 A 
ATOM     68  C   UNL A   1      44.996  25.417  26.451  1.00  0.00     0.031 C 
ATOM     69  C   UNL A   1      45.922  27.711  26.712  1.00  0.00     0.037 A 
BRANCH  56  70
ATOM     70  C   UNL A   1      44.808  33.433  28.897  1.00  0.00     0.057 A 
ATOM     71  C   UNL A   1      45.506  33.853  30.039  1.00  0.00     0.134 A 
ATOM     72  C   UNL A   1      44.473  34.412  27.955  1.00  0.00     0.134 A 
ATOM     73  F   UNL A   1      45.842  32.972  30.994  1.00  0.00    -0.206 F 
ATOM     74  C   UNL A   1      45.816  35.199  30.257  1.00  0.00     0.040 A 
ATOM     75  C   UNL A   1      44.800  35.757  28.149  1.00  0.00     0.040 A 
ATOM     76  F   UNL A   1      43.804  34.086  26.839  1.00  0.00    -0.206 F 
ATOM     77  C   UNL A   1      45.462  36.156  29.309  1.00  0.00     0.006 A 
ENDBRANCH  56  70
BRANCH  57  78
ATOM     78  C   UNL A   1      41.098  24.091  27.571  1.00  0.00     0.057 A 
ATOM     79  C   UNL A   1      40.110  23.853  26.610  1.00  0.00     0.134 A 
ATOM     80  C   UNL A   1      41.595  22.982  28.268  1.00  0.00     0.134 A 
ATOM     81  F   UNL A   1      39.593  24.871  25.906  1.00  0.00    -0.206 F 
ATOM     82  C   UNL A   1      39.638  22.564  26.348  1.00  0.00     0.040 A 
ATOM     83  C   UNL A   1      41.150  21.686  28.001  1.00  0.00     0.040 A 
ATOM     84  F   UNL A   1      42.563  23.138  29.184  1.00  0.00    -0.206 F 
ATOM     85  C   UNL A   1      40.168  21.474  27.037  1.00  0.00     0.006 A 
ENDBRANCH  57  78
BRANCH  69  86
ATOM     86  C   UNL A   1      47.136  27.215  25.994  1.00  0.00     0.057 A 
ATOM     87  C   UNL A   1      47.250  27.325  24.603  1.00  0.00     0.134 A 
ATOM     88  C   UNL A   1      48.208  26.658  26.698  1.00  0.00     0.134 A 
ATOM     89  F   UNL A   1      46.243  27.837  23.876  1.00  0.00    -0.206 F 
ATOM     90  C   UNL A   1      48.386  26.880  23.931  1.00  0.00     0.040 A 
ATOM     91  C   UNL A   1      49.360  26.230  26.041  1.00  0.00     0.040 A 
ATOM     92  F   UNL A   1      48.156  26.531  28.033  1.00  0.00    -0.206 F 
ATOM     93  C   UNL A   1      49.449  26.336  24.653  1.00  0.00     0.006 A 
ENDBRANCH  69  86
ENDBRANCH  43  44
ENDBRANCH  36  38
ENDBRANCH  35  36
ENDBRANCH  34  35
ENDBRANCH  33  34
ENDBRANCH   1  33
TORSDOF 16
ENDMDL
MODEL 2
REMARK VINA RESULT:     -12.3      0.560      5.948
REMARK SMILES O=C(CCC(=O)OCCOC(=O)c1ccc(-c2c3nc(c(-c4c(F)cccc4F)c4ccc([nH]4)c(-c4c(F)cccc4F)c4nc(c(-c5c(F)cccc5F)c5ccc2[nH]5)C=C4)C=C3)cc1)/[NH+]=C1\S[C@H]2CS(=O)(=O)C[C@@H]2N1c1ccc(Oc2ccccc2)cc1
REMARK SMILES IDX 7 1 5 2 6 3 4 4 3 5 2 6 1 7 67 8 68 9 69 11 77 12 70 13
REMARK SMILES IDX 76 14 71 15 75 16 72 17 73 18 74 19 78 20 79 21 90 22 80 23
REMARK SMILES IDX 89 24 81 25 82 26 83 27 84 28 88 29 85 30 87 31 86 32 8 33
REMARK SMILES IDX 9 34 10 35 11 36 12 37 13 38 14 39 66 40 15 41 65 42 16 43
REMARK SMILES IDX 17 44 18 45 59 46 19 47 64 48 58 49 60 50 20 51 63 52 57 53
REMARK SMILES IDX 56 54 21 56 47 57 30 58 46 59 31 60 34 61 45 62 61 63 32 64
REMARK SMILES IDX 33 65 44 67 62 68 35 69 22 70 23 71 28 72 24 73 25 74 27 75
REMARK SMILES IDX 29 76 26 77 48 78 49 79 54 80 50 81 51 82 53 83 55 84 52 85
REMARK SMILES IDX 36 86 37 87 42 88 38 89 39 90 41 91 43 92 40 93
REMARK H PARENT 67 10 60 55 34 66
REMARK Flexibility Score: inf
ROOT
ATOM      1  O   UNL A   1      35.075  33.845  29.762  1.00  0.00    -0.462 OA
ENDROOT
BRANCH   1   2
ATOM      2  C   UNL A   1      34.502  33.672  28.549  1.00  0.00     0.306 C 
ATOM      3  O   UNL A   1      34.289  34.565  27.739  1.00  0.00    -0.252 OA
BRANCH   2   4
ATOM      4  C   UNL A   1      34.124  32.234  28.319  1.00  0.00     0.135 C 
BRANCH   4   5
ATOM      5  C   UNL A   1      35.050  31.445  27.400  1.00  0.00     0.139 C 
BRANCH   5   6
ATOM      6  C   UNL A   1      34.961  29.921  27.396  1.00  0.00     0.308 C 
ATOM      7  O   UNL A   1      35.105  29.307  28.452  1.00  0.00    -0.247 OA
ATOM      8  N   UNL A   1      34.775  29.256  26.214  1.00  0.00    -0.204 N 
ATOM      9  C   UNL A   1      33.588  28.931  25.805  1.00  0.00     0.319 C 
ATOM     10  H   UNL A   1      35.556  29.020  25.664  1.00  0.00     0.316 HD
ATOM     11  S   UNL A   1      32.033  29.487  26.491  1.00  0.00    -0.029 SA
ATOM     12  N   UNL A   1      33.330  28.135  24.684  1.00  0.00    -0.217 N 
ATOM     13  C   UNL A   1      31.096  28.939  25.023  1.00  0.00     0.120 C 
ATOM     14  C   UNL A   1      32.151  28.588  23.969  1.00  0.00     0.212 C 
ATOM     15  C   UNL A   1      30.180  29.863  24.238  1.00  0.00     0.156 C 
ATOM     16  C   UNL A   1      31.383  27.810  22.928  1.00  0.00     0.188 C 
ATOM     17  S   UNL A   1      30.018  28.973  22.663  1.00  0.00     0.155 S 
ATOM     18  O   UNL A   1      28.769  28.246  22.655  1.00  0.00    -0.229 OA
ATOM     19  O   UNL A   1      30.401  29.871  21.592  1.00  0.00    -0.229 OA
BRANCH  12  20
ATOM     20  C   UNL A   1      33.692  26.786  24.645  1.00  0.00     0.128 A 
ATOM     21  C   UNL A   1      33.714  25.993  25.801  1.00  0.00     0.056 A 
ATOM     22  C   UNL A   1      34.057  26.191  23.431  1.00  0.00     0.056 A 
ATOM     23  C   UNL A   1      34.155  24.665  25.753  1.00  0.00     0.051 A 
ATOM     24  C   UNL A   1      34.490  24.870  23.378  1.00  0.00     0.051 A 
ATOM     25  C   UNL A   1      34.576  24.110  24.545  1.00  0.00     0.127 A 
BRANCH  25  26
ATOM     26  O   UNL A   1      35.041  22.810  24.592  1.00  0.00    -0.457 OA
BRANCH  26  27
ATOM     27  C   UNL A   1      34.084  21.821  24.593  1.00  0.00     0.127 A 
ATOM     28  C   UNL A   1      33.208  21.750  23.512  1.00  0.00     0.047 A 
ATOM     29  C   UNL A   1      34.025  20.882  25.627  1.00  0.00     0.047 A 
ATOM     30  C   UNL A   1      32.310  20.687  23.430  1.00  0.00     0.004 A 
ATOM     31  C   UNL A   1      33.132  19.818  25.535  1.00  0.00     0.004 A 
ATOM     32  C   UNL A   1      32.283  19.714  24.432  1.00  0.00     0.000 A 
ENDBRANCH  26  27
ENDBRANCH  25  26
ENDBRANCH  12  20
ENDBRANCH   5   6
ENDBRANCH   4   5
ENDBRANCH   2   4
ENDBRANCH   1   2
BRANCH   1  33
ATOM     33  C   UNL A   1      34.189  34.189  30.843  1.00  0.00     0.274 C 
BRANCH  33  34
ATOM     34  C   UNL A   1      34.569  33.404  32.087  1.00  0.00     0.275 C 
BRANCH  34  35
ATOM     35  O   UNL A   1      35.193  32.142  31.797  1.00  0.00    -0.458 OA
BRANCH  35  36
ATOM     36  C   UNL A   1      36.390  31.966  32.385  1.00  0.00     0.338 C 
ATOM     37  O   UNL A   1      36.815  32.542  33.377  1.00  0.00    -0.246 OA
BRANCH  36  38
ATOM     38  C   UNL A   1      37.284  31.166  31.580  1.00  0.00     0.060 A 
ATOM     39  C   UNL A   1      37.355  31.329  30.200  1.00  0.00     0.016 A 
ATOM     40  C   UNL A   1      38.066  30.231  32.266  1.00  0.00     0.016 A 
ATOM     41  C   UNL A   1      38.309  30.599  29.509  1.00  0.00     0.010 A 
ATOM     42  C   UNL A   1      39.056  29.555  31.592  1.00  0.00     0.010 A 
ATOM     43  C   UNL A   1      39.202  29.777  30.221  1.00  0.00    -0.014 A 
BRANCH  43  44
ATOM     44  C   UNL A   1      40.440  29.327  29.577  1.00  0.00     0.031 A 
ATOM     45  C   UNL A   1      40.560  27.940  29.056  1.00  0.00     0.074 A 
ATOM     46  C   UNL A   1      41.453  30.211  29.567  1.00  0.00     0.049 A 
ATOM     47  N   UNL A   1      41.548  27.401  28.400  1.00  0.00    -0.248 NA
ATOM     48  C   UNL A   1      39.440  27.027  29.334  1.00  0.00     0.031 C 
ATOM     49  C   UNL A   1      41.409  31.542  30.189  1.00  0.00     0.029 A 
ATOM     50  N   UNL A   1      42.698  30.147  29.018  1.00  0.00    -0.354 N 
ATOM     51  C   UNL A   1      41.170  26.086  28.176  1.00  0.00     0.074 A 
ATOM     52  C   UNL A   1      39.888  25.892  28.817  1.00  0.00     0.031 C 
ATOM     53  C   UNL A   1      42.549  32.191  29.927  1.00  0.00     0.029 A 
ATOM     54  C   UNL A   1      43.411  31.313  29.151  1.00  0.00     0.049 A 
ATOM     55  H   UNL A   1      43.052  29.344  28.569  1.00  0.00     0.167 HD
ATOM     56  C   UNL A   1      41.841  25.144  27.474  1.00  0.00     0.037 A 
ATOM     57  C   UNL A   1      44.625  31.633  28.674  1.00  0.00     0.037 A 
ATOM     58  C   UNL A   1      43.126  25.398  26.875  1.00  0.00     0.049 A 
ATOM     59  C   UNL A   1      45.322  30.597  27.846  1.00  0.00     0.074 A 
ATOM     60  C   UNL A   1      43.910  24.562  26.104  1.00  0.00     0.029 A 
ATOM     61  N   UNL A   1      43.821  26.599  27.001  1.00  0.00    -0.354 N 
ATOM     62  N   UNL A   1      44.918  29.384  27.546  1.00  0.00    -0.248 NA
ATOM     63  C   UNL A   1      46.624  30.962  27.288  1.00  0.00     0.031 C 
ATOM     64  C   UNL A   1      45.092  25.246  25.794  1.00  0.00     0.029 A 
ATOM     65  C   UNL A   1      45.034  26.522  26.341  1.00  0.00     0.049 A 
ATOM     66  H   UNL A   1      43.495  27.390  27.489  1.00  0.00     0.167 HD
ATOM     67  C   UNL A   1      45.923  28.826  26.775  1.00  0.00     0.074 A 
ATOM     68  C   UNL A   1      46.937  29.858  26.621  1.00  0.00     0.031 C 
ATOM     69  C   UNL A   1      46.016  27.577  26.253  1.00  0.00     0.037 A 
BRANCH  56  70
ATOM     70  C   UNL A   1      41.196  23.794  27.356  1.00  0.00     0.057 A 
ATOM     71  C   UNL A   1      41.703  22.672  28.029  1.00  0.00     0.134 A 
ATOM     72  C   UNL A   1      40.093  23.594  26.518  1.00  0.00     0.134 A 
ATOM     73  F   UNL A   1      42.771  22.786  28.832  1.00  0.00    -0.206 F 
ATOM     74  C   UNL A   1      41.164  21.396  27.839  1.00  0.00     0.040 A 
ATOM     75  C   UNL A   1      39.529  22.328  26.341  1.00  0.00     0.040 A 
ATOM     76  F   UNL A   1      39.556  24.619  25.840  1.00  0.00    -0.206 F 
ATOM     77  C   UNL A   1      40.073  21.222  26.991  1.00  0.00     0.006 A 
ENDBRANCH  56  70
BRANCH  57  78
ATOM     78  C   UNL A   1      45.180  32.982  28.939  1.00  0.00     0.057 A 
ATOM     79  C   UNL A   1      44.863  34.072  28.122  1.00  0.00     0.134 A 
ATOM     80  C   UNL A   1      45.949  33.239  30.082  1.00  0.00     0.134 A 
ATOM     81  F   UNL A   1      44.128  33.894  27.014  1.00  0.00    -0.206 F 
ATOM     82  C   UNL A   1      45.289  35.366  28.430  1.00  0.00     0.040 A 
ATOM     83  C   UNL A   1      46.362  34.531  30.415  1.00  0.00     0.040 A 
ATOM     84  F   UNL A   1      46.266  32.242  30.922  1.00  0.00    -0.206 F 
ATOM     85  C   UNL A   1      46.031  35.600  29.586  1.00  0.00     0.006 A 
ENDBRANCH  57  78
BRANCH  69  86
ATOM     86  C   UNL A   1      47.279  27.275  25.513  1.00  0.00     0.057 A 
ATOM     87  C   UNL A   1      48.364  26.663  26.154  1.00  0.00     0.134 A 
ATOM     88  C   UNL A   1      47.399  27.564  24.151  1.00  0.00     0.134 A 
ATOM     89  F   UNL A   1      48.308  26.379  27.464  1.00  0.00    -0.206 F 
ATOM     90  C   UNL A   1      49.537  26.364  25.464  1.00  0.00     0.040 A 
ATOM     91  C   UNL A   1      48.558  27.249  23.444  1.00  0.00     0.040 A 
ATOM     92  F   UNL A   1      46.390  28.146  23.485  1.00  0.00    -0.206 F 
ATOM     93  C   UNL A   1      49.633  26.651  24.103  1.00  0.00     0.006 A 
ENDBRANCH  69  86
ENDBRANCH  43  44
ENDBRANCH  36  38
ENDBRANCH  35  36
ENDBRANCH  34  35
ENDBRANCH  33  34
ENDBRANCH   1  33
TORSDOF 16
ENDMDL
MODEL 3
REMARK VINA RESULT:     -12.1      1.571      6.401
REMARK SMILES O=C(CCC(=O)OCCOC(=O)c1ccc(-c2c3nc(c(-c4c(F)cccc4F)c4ccc([nH]4)c(-c4c(F)cccc4F)c4nc(c(-c5c(F)cccc5F)c5ccc2[nH]5)C=C4)C=C3)cc1)/[NH+]=C1\S[C@H]2CS(=O)(=O)C[C@@H]2N1c1ccc(Oc2ccccc2)cc1
REMARK SMILES IDX 7 1 5 2 6 3 4 4 3 5 2 6 1 7 67 8 68 9 69 11 77 12 70 13
REMARK SMILES IDX 76 14 71 15 75 16 72 17 73 18 74 19 78 20 79 21 90 22 80 23
REMARK SMILES IDX 89 24 81 25 82 26 83 27 84 28 88 29 85 30 87 31 86 32 8 33
REMARK SMILES IDX 9 34 10 35 11 36 12 37 13 38 14 39 66 40 15 41 65 42 16 43
REMARK SMILES IDX 17 44 18 45 59 46 19 47 64 48 58 49 60 50 20 51 63 52 57 53
REMARK SMILES IDX 56 54 21 56 47 57 30 58 46 59 31 60 34 61 45 62 61 63 32 64
REMARK SMILES IDX 33 65 44 67 62 68 35 69 22 70 23 71 28 72 24 73 25 74 27 75
REMARK SMILES IDX 29 76 26 77 48 78 49 79 54 80 50 81 51 82 53 83 55 84 52 85
REMARK SMILES IDX 36 86 37 87 42 88 38 89 39 90 41 91 43 92 40 93
REMARK H PARENT 67 10 60 55 34 66
REMARK Flexibility Score: inf
ROOT
ATOM      1  O   UNL A   1      33.936  33.651  29.798  1.00  0.00    -0.462 OA
ENDROOT
BRANCH   1   2
ATOM      2  C   UNL A   1      34.111  33.639  28.457  1.00  0.00     0.306 C 
ATOM      3  O   UNL A   1      34.509  34.587  27.792  1.00  0.00    -0.252 OA
BRANCH   2   4
ATOM      4  C   UNL A   1      33.727  32.311  27.863  1.00  0.00     0.135 C 
BRANCH   4   5
ATOM      5  C   UNL A   1      34.880  31.464  27.336  1.00  0.00     0.139 C 
BRANCH   5   6
ATOM      6  C   UNL A   1      34.740  29.943  27.342  1.00  0.00     0.308 C 
ATOM      7  O   UNL A   1      34.823  29.336  28.408  1.00  0.00    -0.247 OA
ATOM      8  N   UNL A   1      34.578  29.273  26.159  1.00  0.00    -0.204 N 
ATOM      9  C   UNL A   1      33.398  28.983  25.708  1.00  0.00     0.319 C 
ATOM     10  H   UNL A   1      35.371  29.006  25.642  1.00  0.00     0.316 HD
ATOM     11  S   UNL A   1      31.836  29.597  26.328  1.00  0.00    -0.029 SA
ATOM     12  N   UNL A   1      33.156  28.184  24.585  1.00  0.00    -0.217 N 
ATOM     13  C   UNL A   1      30.938  29.064  24.830  1.00  0.00     0.120 C 
ATOM     14  C   UNL A   1      32.021  28.668  23.821  1.00  0.00     0.212 C 
ATOM     15  C   UNL A   1      30.085  30.010  24.002  1.00  0.00     0.156 C 
ATOM     16  C   UNL A   1      31.268  27.904  22.759  1.00  0.00     0.188 C 
ATOM     17  S   UNL A   1      29.954  29.109  22.430  1.00  0.00     0.155 S 
ATOM     18  O   UNL A   1      28.683  28.423  22.380  1.00  0.00    -0.229 OA
ATOM     19  O   UNL A   1      30.408  29.982  21.366  1.00  0.00    -0.229 OA
BRANCH  12  20
ATOM     20  C   UNL A   1      33.474  26.823  24.573  1.00  0.00     0.128 A 
ATOM     21  C   UNL A   1      33.374  26.030  25.724  1.00  0.00     0.056 A 
ATOM     22  C   UNL A   1      33.919  26.216  23.392  1.00  0.00     0.056 A 
ATOM     23  C   UNL A   1      33.772  24.687  25.709  1.00  0.00     0.051 A 
ATOM     24  C   UNL A   1      34.310  24.882  23.371  1.00  0.00     0.051 A 
ATOM     25  C   UNL A   1      34.273  24.119  24.539  1.00  0.00     0.127 A 
BRANCH  25  26
ATOM     26  O   UNL A   1      34.688  22.804  24.621  1.00  0.00    -0.457 OA
BRANCH  26  27
ATOM     27  C   UNL A   1      35.960  22.596  25.103  1.00  0.00     0.127 A 
ATOM     28  C   UNL A   1      36.553  21.355  24.887  1.00  0.00     0.047 A 
ATOM     29  C   UNL A   1      36.657  23.622  25.750  1.00  0.00     0.047 A 
ATOM     30  C   UNL A   1      37.883  21.159  25.258  1.00  0.00     0.004 A 
ATOM     31  C   UNL A   1      37.988  23.423  26.110  1.00  0.00     0.004 A 
ATOM     32  C   UNL A   1      38.603  22.197  25.854  1.00  0.00     0.000 A 
ENDBRANCH  26  27
ENDBRANCH  25  26
ENDBRANCH  12  20
ENDBRANCH   5   6
ENDBRANCH   4   5
ENDBRANCH   2   4
ENDBRANCH   1   2
BRANCH   1  33
ATOM     33  C   UNL A   1      35.124  33.818  30.594  1.00  0.00     0.274 C 
BRANCH  33  34
ATOM     34  C   UNL A   1      35.483  32.501  31.261  1.00  0.00     0.275 C 
BRANCH  34  35
ATOM     35  O   UNL A   1      36.363  31.683  30.471  1.00  0.00    -0.458 OA
BRANCH  35  36
ATOM     36  C   UNL A   1      36.652  30.489  31.020  1.00  0.00     0.338 C 
ATOM     37  O   UNL A   1      36.246  30.051  32.088  1.00  0.00    -0.246 OA
BRANCH  36  38
ATOM     38  C   UNL A   1      37.723  29.812  30.326  1.00  0.00     0.060 A 
ATOM     39  C   UNL A   1      38.088  30.171  29.032  1.00  0.00     0.016 A 
ATOM     40  C   UNL A   1      38.365  28.787  31.029  1.00  0.00     0.016 A 
ATOM     41  C   UNL A   1      39.190  29.547  28.472  1.00  0.00     0.010 A 
ATOM     42  C   UNL A   1      39.497  28.213  30.500  1.00  0.00     0.010 A 
ATOM     43  C   UNL A   1      39.931  28.629  29.240  1.00  0.00    -0.014 A 
BRANCH  43  44
ATOM     44  C   UNL A   1      41.292  28.275  28.826  1.00  0.00     0.031 A 
ATOM     45  C   UNL A   1      41.613  26.891  28.387  1.00  0.00     0.074 A 
ATOM     46  C   UNL A   1      42.216  29.245  28.949  1.00  0.00     0.049 A 
ATOM     47  N   UNL A   1      42.738  26.426  27.924  1.00  0.00    -0.248 NA
ATOM     48  C   UNL A   1      40.542  25.891  28.511  1.00  0.00     0.031 C 
ATOM     49  C   UNL A   1      41.958  30.581  29.503  1.00  0.00     0.029 A 
ATOM     50  N   UNL A   1      43.537  29.277  28.615  1.00  0.00    -0.354 N 
ATOM     51  C   UNL A   1      42.513  25.078  27.692  1.00  0.00     0.074 A 
ATOM     52  C   UNL A   1      41.162  24.787  28.120  1.00  0.00     0.031 C 
ATOM     53  C   UNL A   1      43.069  31.321  29.407  1.00  0.00     0.029 A 
ATOM     54  C   UNL A   1      44.118  30.504  28.818  1.00  0.00     0.049 A 
ATOM     55  H   UNL A   1      44.026  28.498  28.263  1.00  0.00     0.167 HD
ATOM     56  C   UNL A   1      43.368  24.182  27.147  1.00  0.00     0.037 A 
ATOM     57  C   UNL A   1      45.364  30.918  28.536  1.00  0.00     0.037 A 
ATOM     58  C   UNL A   1      44.710  24.534  26.758  1.00  0.00     0.049 A 
ATOM     59  C   UNL A   1      46.273  29.928  27.875  1.00  0.00     0.074 A 
ATOM     60  C   UNL A   1      45.678  23.751  26.160  1.00  0.00     0.029 A 
ATOM     61  N   UNL A   1      45.272  25.794  26.950  1.00  0.00    -0.354 N 
ATOM     62  N   UNL A   1      46.028  28.677  27.560  1.00  0.00    -0.248 NA
ATOM     63  C   UNL A   1      47.616  30.393  27.525  1.00  0.00     0.031 C 
ATOM     64  C   UNL A   1      46.835  24.529  26.023  1.00  0.00     0.029 A 
ATOM     65  C   UNL A   1      46.580  25.808  26.503  1.00  0.00     0.049 A 
ATOM     66  H   UNL A   1      44.804  26.565  27.346  1.00  0.00     0.167 HD
ATOM     67  C   UNL A   1      47.190  28.192  26.987  1.00  0.00     0.074 A 
ATOM     68  C   UNL A   1      48.126  29.305  26.962  1.00  0.00     0.031 C 
ATOM     69  C   UNL A   1      47.472  26.943  26.537  1.00  0.00     0.037 A 
BRANCH  56  70
ATOM     70  C   UNL A   1      42.866  22.778  26.977  1.00  0.00     0.057 A 
ATOM     71  C   UNL A   1      42.550  22.255  25.714  1.00  0.00     0.134 A 
ATOM     72  C   UNL A   1      42.640  21.954  28.086  1.00  0.00     0.134 A 
ATOM     73  F   UNL A   1      42.722  22.995  24.608  1.00  0.00    -0.206 F 
ATOM     74  C   UNL A   1      41.987  20.984  25.564  1.00  0.00     0.040 A 
ATOM     75  C   UNL A   1      42.102  20.672  27.947  1.00  0.00     0.040 A 
ATOM     76  F   UNL A   1      42.916  22.387  29.325  1.00  0.00    -0.206 F 
ATOM     77  C   UNL A   1      41.761  20.188  26.685  1.00  0.00     0.006 A 
ENDBRANCH  56  70
BRANCH  57  78
ATOM     78  C   UNL A   1      45.753  32.317  28.836  1.00  0.00     0.057 A 
ATOM     79  C   UNL A   1      46.421  32.648  30.020  1.00  0.00     0.134 A 
ATOM     80  C   UNL A   1      45.570  33.340  27.896  1.00  0.00     0.134 A 
ATOM     81  F   UNL A   1      46.631  31.715  30.960  1.00  0.00    -0.206 F 
ATOM     82  C   UNL A   1      46.892  33.941  30.258  1.00  0.00     0.040 A 
ATOM     83  C   UNL A   1      46.055  34.631  28.110  1.00  0.00     0.040 A 
ATOM     84  F   UNL A   1      44.960  33.084  26.728  1.00  0.00    -0.206 F 
ATOM     85  C   UNL A   1      46.720  34.935  29.296  1.00  0.00     0.006 A 
ENDBRANCH  57  78
BRANCH  69  86
ATOM     86  C   UNL A   1      48.862  26.735  26.028  1.00  0.00     0.057 A 
ATOM     87  C   UNL A   1      49.863  26.207  26.852  1.00  0.00     0.134 A 
ATOM     88  C   UNL A   1      49.192  27.031  24.701  1.00  0.00     0.134 A 
ATOM     89  F   UNL A   1      49.605  25.921  28.138  1.00  0.00    -0.206 F 
ATOM     90  C   UNL A   1      51.156  25.996  26.376  1.00  0.00     0.040 A 
ATOM     91  C   UNL A   1      50.474  26.803  24.207  1.00  0.00     0.040 A 
ATOM     92  F   UNL A   1      48.271  27.535  23.865  1.00  0.00    -0.206 F 
ATOM     93  C   UNL A   1      51.462  26.288  25.048  1.00  0.00     0.006 A 
ENDBRANCH  69  86
ENDBRANCH  43  44
ENDBRANCH  36  38
ENDBRANCH  35  36
ENDBRANCH  34  35
ENDBRANCH  33  34
ENDBRANCH   1  33
TORSDOF 16
ENDMDL
