MODEL 1
REMARK VINA RESULT:     -11.5      0.000      0.000
REMARK SMILES O=C(CCN1C(=O)/C(=C\c2ccc(-c3cccc(Cl)c3)o2)SC1=S)OCCOC(=O)c1ccc(-c2c3nc(c(-c4c(F)cccc4F)c4ccc([nH]4)c(-c4c(F)cccc4F)c4nc(c(-c5c(F)cccc5F)c5ccc2[nH]5)C=C4)C=C3)cc1
REMARK SMILES IDX 26 1 25 2 2 3 1 4 3 5 4 6 5 7 6 8 23 9 7 10 8 11 22 12 24 13
REMARK SMILES IDX 9 14 10 15 11 16 21 17 12 18 13 19 14 20 15 21 20 22 16 23
REMARK SMILES IDX 18 24 17 25 19 26 27 27 28 28 29 29 30 30 31 31 32 32 84 33
REMARK SMILES IDX 33 34 83 35 34 36 35 37 36 38 77 39 37 40 82 41 76 42 78 43
REMARK SMILES IDX 38 44 81 45 75 46 74 47 39 49 65 50 48 51 64 52 49 53 52 54
REMARK SMILES IDX 63 55 79 56 50 57 51 58 62 60 80 61 53 62 40 63 41 64 46 65
REMARK SMILES IDX 42 66 43 67 45 68 47 69 44 70 66 71 67 72 72 73 68 74 69 75
REMARK SMILES IDX 71 76 73 77 70 78 54 79 55 80 60 81 56 82 57 83 59 84 61 85
REMARK SMILES IDX 58 86
REMARK H PARENT 78 48 52 59
REMARK Flexibility Score: inf
ROOT
ATOM      1  C   UNL A   1      40.108  21.676  26.847  1.00  0.00     0.274 C 
ENDROOT
BRANCH   1   2
ATOM      2  O   UNL A   1      39.177  21.458  25.763  1.00  0.00    -0.462 OA
BRANCH   2   3
ATOM      3  C   UNL A   1      37.962  22.028  25.609  1.00  0.00     0.307 C 
ATOM      4  O   UNL A   1      37.802  23.226  25.835  1.00  0.00    -0.252 OA
BRANCH   3   5
ATOM      5  C   UNL A   1      36.800  21.197  25.136  1.00  0.00     0.144 C 
BRANCH   5   6
ATOM      6  C   UNL A   1      35.528  21.504  25.926  1.00  0.00     0.139 C 
BRANCH   6   7
ATOM      7  N   UNL A   1      34.386  21.783  25.049  1.00  0.00    -0.292 N 
ATOM      8  C   UNL A   1      34.068  23.112  24.805  1.00  0.00     0.266 C 
ATOM      9  C   UNL A   1      33.548  20.834  24.504  1.00  0.00     0.148 C 
ATOM     10  O   UNL A   1      34.693  24.061  25.253  1.00  0.00    -0.268 OA
ATOM     11  C   UNL A   1      32.796  23.213  24.033  1.00  0.00     0.084 C 
ATOM     12  S   UNL A   1      32.158  21.630  23.772  1.00  0.00    -0.054 SA
ATOM     13  S   UNL A   1      33.719  19.179  24.508  1.00  0.00    -0.052 S 
ATOM     14  C   UNL A   1      32.178  24.323  23.604  1.00  0.00     0.068 C 
BRANCH  14  15
ATOM     15  C   UNL A   1      32.774  25.612  23.631  1.00  0.00     0.128 A 
ATOM     16  C   UNL A   1      33.385  26.299  22.587  1.00  0.00     0.051 A 
ATOM     17  O   UNL A   1      32.752  26.450  24.728  1.00  0.00    -0.457 OA
ATOM     18  C   UNL A   1      33.749  27.574  23.058  1.00  0.00     0.051 A 
ATOM     19  C   UNL A   1      33.345  27.625  24.370  1.00  0.00     0.134 A 
BRANCH  19  20
ATOM     20  C   UNL A   1      33.413  28.677  25.367  1.00  0.00     0.019 A 
ATOM     21  C   UNL A   1      34.366  28.590  26.393  1.00  0.00     0.012 A 
ATOM     22  C   UNL A   1      32.483  29.721  25.383  1.00  0.00     0.032 A 
ATOM     23  C   UNL A   1      34.382  29.523  27.432  1.00  0.00     0.002 A 
ATOM     24  C   UNL A   1      32.494  30.642  26.431  1.00  0.00     0.041 A 
ATOM     25  C   UNL A   1      33.437  30.546  27.456  1.00  0.00     0.020 A 
ATOM     26  Cl  UNL A   1      31.313  31.894  26.483  1.00  0.00    -0.084 Cl
ENDBRANCH  19  20
ENDBRANCH  14  15
ENDBRANCH   6   7
ENDBRANCH   5   6
ENDBRANCH   3   5
ENDBRANCH   2   3
ENDBRANCH   1   2
BRANCH   1  27
ATOM     27  C   UNL A   1      41.279  22.563  26.438  1.00  0.00     0.275 C 
BRANCH  27  28
ATOM     28  O   UNL A   1      40.810  23.901  26.214  1.00  0.00    -0.458 OA
BRANCH  28  29
ATOM     29  C   UNL A   1      41.774  24.855  26.277  1.00  0.00     0.338 C 
ATOM     30  O   UNL A   1      42.753  24.953  25.569  1.00  0.00    -0.246 OA
BRANCH  29  31
ATOM     31  C   UNL A   1      41.367  25.886  27.255  1.00  0.00     0.060 A 
ATOM     32  C   UNL A   1      42.068  27.098  27.245  1.00  0.00     0.016 A 
ATOM     33  C   UNL A   1      40.333  25.671  28.172  1.00  0.00     0.016 A 
ATOM     34  C   UNL A   1      41.771  28.080  28.188  1.00  0.00     0.010 A 
ATOM     35  C   UNL A   1      40.039  26.656  29.118  1.00  0.00     0.010 A 
ATOM     36  C   UNL A   1      40.781  27.848  29.151  1.00  0.00    -0.014 A 
BRANCH  36  37
ATOM     37  C   UNL A   1      40.629  28.783  30.288  1.00  0.00     0.031 A 
ATOM     38  C   UNL A   1      39.559  29.835  30.220  1.00  0.00     0.074 A 
ATOM     39  C   UNL A   1      41.423  28.689  31.369  1.00  0.00     0.049 A 
ATOM     40  N   UNL A   1      39.245  30.758  31.092  1.00  0.00    -0.248 NA
ATOM     41  C   UNL A   1      38.732  29.850  29.002  1.00  0.00     0.031 C 
ATOM     42  C   UNL A   1      42.482  27.701  31.558  1.00  0.00     0.029 A 
ATOM     43  N   UNL A   1      41.459  29.448  32.511  1.00  0.00    -0.354 N 
ATOM     44  C   UNL A   1      38.184  31.457  30.533  1.00  0.00     0.074 A 
ATOM     45  C   UNL A   1      37.931  30.879  29.231  1.00  0.00     0.031 C 
ATOM     46  C   UNL A   1      43.074  27.920  32.745  1.00  0.00     0.029 A 
ATOM     47  C   UNL A   1      42.446  29.074  33.388  1.00  0.00     0.049 A 
ATOM     48  H   UNL A   1      40.836  30.190  32.685  1.00  0.00     0.167 HD
ATOM     49  C   UNL A   1      37.474  32.480  31.063  1.00  0.00     0.037 A 
ATOM     50  C   UNL A   1      42.806  29.613  34.568  1.00  0.00     0.037 A 
ATOM     51  C   UNL A   1      37.730  33.062  32.353  1.00  0.00     0.049 A 
ATOM     52  C   UNL A   1      42.043  30.794  35.107  1.00  0.00     0.074 A 
ATOM     53  C   UNL A   1      37.053  34.088  32.987  1.00  0.00     0.029 A 
ATOM     54  N   UNL A   1      38.754  32.671  33.202  1.00  0.00    -0.354 N 
ATOM     55  N   UNL A   1      41.011  31.417  34.592  1.00  0.00    -0.248 NA
ATOM     56  C   UNL A   1      42.494  31.343  36.394  1.00  0.00     0.031 C 
ATOM     57  C   UNL A   1      37.695  34.348  34.203  1.00  0.00     0.029 A 
ATOM     58  C   UNL A   1      38.744  33.453  34.344  1.00  0.00     0.049 A 
ATOM     59  H   UNL A   1      39.394  31.945  33.020  1.00  0.00     0.167 HD
ATOM     60  C   UNL A   1      40.669  32.408  35.505  1.00  0.00     0.074 A 
ATOM     61  C   UNL A   1      41.601  32.299  36.608  1.00  0.00     0.031 C 
ATOM     62  C   UNL A   1      39.672  33.324  35.438  1.00  0.00     0.037 A 
BRANCH  49  63
ATOM     63  C   UNL A   1      36.359  33.043  30.234  1.00  0.00     0.057 A 
ATOM     64  C   UNL A   1      35.017  32.760  30.516  1.00  0.00     0.134 A 
ATOM     65  C   UNL A   1      36.630  33.893  29.155  1.00  0.00     0.134 A 
ATOM     66  F   UNL A   1      34.694  31.938  31.527  1.00  0.00    -0.206 F 
ATOM     67  C   UNL A   1      33.982  33.286  29.740  1.00  0.00     0.040 A 
ATOM     68  C   UNL A   1      35.604  34.443  28.386  1.00  0.00     0.040 A 
ATOM     69  F   UNL A   1      37.894  34.205  28.834  1.00  0.00    -0.206 F 
ATOM     70  C   UNL A   1      34.275  34.135  28.675  1.00  0.00     0.006 A 
ENDBRANCH  49  63
BRANCH  50  71
ATOM     71  C   UNL A   1      43.946  29.044  35.329  1.00  0.00     0.057 A 
ATOM     72  C   UNL A   1      43.745  28.075  36.318  1.00  0.00     0.134 A 
ATOM     73  C   UNL A   1      45.258  29.474  35.103  1.00  0.00     0.134 A 
ATOM     74  F   UNL A   1      42.506  27.641  36.595  1.00  0.00    -0.206 F 
ATOM     75  C   UNL A   1      44.805  27.567  37.069  1.00  0.00     0.040 A 
ATOM     76  C   UNL A   1      46.331  28.961  35.833  1.00  0.00     0.040 A 
ATOM     77  F   UNL A   1      45.517  30.401  34.168  1.00  0.00    -0.206 F 
ATOM     78  C   UNL A   1      46.105  28.009  36.824  1.00  0.00     0.006 A 
ENDBRANCH  50  71
BRANCH  62  79
ATOM     79  C   UNL A   1      39.513  34.257  36.601  1.00  0.00     0.057 A 
ATOM     80  C   UNL A   1      38.843  33.874  37.769  1.00  0.00     0.134 A 
ATOM     81  C   UNL A   1      40.081  35.537  36.569  1.00  0.00     0.134 A 
ATOM     82  F   UNL A   1      38.266  32.666  37.858  1.00  0.00    -0.206 F 
ATOM     83  C   UNL A   1      38.728  34.738  38.860  1.00  0.00     0.040 A 
ATOM     84  C   UNL A   1      39.993  36.401  37.662  1.00  0.00     0.040 A 
ATOM     85  F   UNL A   1      40.744  35.962  35.484  1.00  0.00    -0.206 F 
ATOM     86  C   UNL A   1      39.311  36.003  38.810  1.00  0.00     0.006 A 
ENDBRANCH  62  79
ENDBRANCH  36  37
ENDBRANCH  29  31
ENDBRANCH  28  29
ENDBRANCH  27  28
ENDBRANCH   1  27
TORSDOF 15
ENDMDL
MODEL 2
REMARK VINA RESULT:     -11.5      3.104      8.122
REMARK SMILES O=C(CCN1C(=O)/C(=C\c2ccc(-c3cccc(Cl)c3)o2)SC1=S)OCCOC(=O)c1ccc(-c2c3nc(c(-c4c(F)cccc4F)c4ccc([nH]4)c(-c4c(F)cccc4F)c4nc(c(-c5c(F)cccc5F)c5ccc2[nH]5)C=C4)C=C3)cc1
REMARK SMILES IDX 26 1 25 2 2 3 1 4 3 5 4 6 5 7 6 8 23 9 7 10 8 11 22 12 24 13
REMARK SMILES IDX 9 14 10 15 11 16 21 17 12 18 13 19 14 20 15 21 20 22 16 23
REMARK SMILES IDX 18 24 17 25 19 26 27 27 28 28 29 29 30 30 31 31 32 32 84 33
REMARK SMILES IDX 33 34 83 35 34 36 35 37 36 38 77 39 37 40 82 41 76 42 78 43
REMARK SMILES IDX 38 44 81 45 75 46 74 47 39 49 65 50 48 51 64 52 49 53 52 54
REMARK SMILES IDX 63 55 79 56 50 57 51 58 62 60 80 61 53 62 40 63 41 64 46 65
REMARK SMILES IDX 42 66 43 67 45 68 47 69 44 70 66 71 67 72 72 73 68 74 69 75
REMARK SMILES IDX 71 76 73 77 70 78 54 79 55 80 60 81 56 82 57 83 59 84 61 85
REMARK SMILES IDX 58 86
REMARK H PARENT 78 48 52 59
REMARK Flexibility Score: inf
ROOT
ATOM      1  C   UNL A   1      31.726  31.449  26.464  1.00  0.00     0.274 C 
ENDROOT
BRANCH   1   2
ATOM      2  O   UNL A   1      32.619  30.501  27.091  1.00  0.00    -0.462 OA
BRANCH   2   3
ATOM      3  C   UNL A   1      33.367  29.560  26.475  1.00  0.00     0.307 C 
ATOM      4  O   UNL A   1      34.375  29.112  27.018  1.00  0.00    -0.252 OA
BRANCH   3   5
ATOM      5  C   UNL A   1      32.952  29.038  25.126  1.00  0.00     0.144 C 
BRANCH   5   6
ATOM      6  C   UNL A   1      31.927  27.912  25.249  1.00  0.00     0.139 C 
BRANCH   6   7
ATOM      7  N   UNL A   1      31.941  27.021  24.083  1.00  0.00    -0.292 N 
ATOM      8  C   UNL A   1      32.768  25.908  24.131  1.00  0.00     0.266 C 
ATOM      9  C   UNL A   1      31.257  27.236  22.906  1.00  0.00     0.148 C 
ATOM     10  O   UNL A   1      33.465  25.611  25.090  1.00  0.00    -0.268 OA
ATOM     11  C   UNL A   1      32.782  25.208  22.814  1.00  0.00     0.084 C 
ATOM     12  S   UNL A   1      31.796  26.078  21.695  1.00  0.00    -0.054 SA
ATOM     13  S   UNL A   1      30.108  28.394  22.575  1.00  0.00    -0.052 S 
ATOM     14  C   UNL A   1      33.450  24.096  22.479  1.00  0.00     0.068 C 
BRANCH  14  15
ATOM     15  C   UNL A   1      34.104  23.259  23.422  1.00  0.00     0.128 A 
ATOM     16  C   UNL A   1      33.707  22.006  23.879  1.00  0.00     0.051 A 
ATOM     17  O   UNL A   1      35.333  23.539  23.983  1.00  0.00    -0.457 OA
ATOM     18  C   UNL A   1      34.708  21.518  24.740  1.00  0.00     0.051 A 
ATOM     19  C   UNL A   1      35.683  22.486  24.776  1.00  0.00     0.134 A 
BRANCH  19  20
ATOM     20  C   UNL A   1      36.963  22.548  25.454  1.00  0.00     0.019 A 
ATOM     21  C   UNL A   1      37.399  23.770  25.988  1.00  0.00     0.012 A 
ATOM     22  C   UNL A   1      37.816  21.440  25.496  1.00  0.00     0.032 A 
ATOM     23  C   UNL A   1      38.675  23.892  26.543  1.00  0.00     0.002 A 
ATOM     24  C   UNL A   1      39.096  21.571  26.038  1.00  0.00     0.041 A 
ATOM     25  C   UNL A   1      39.528  22.791  26.559  1.00  0.00     0.020 A 
ATOM     26  Cl  UNL A   1      40.167  20.223  26.037  1.00  0.00    -0.084 Cl
ENDBRANCH  19  20
ENDBRANCH  14  15
ENDBRANCH   6   7
ENDBRANCH   5   6
ENDBRANCH   3   5
ENDBRANCH   2   3
ENDBRANCH   1   2
BRANCH   1  27
ATOM     27  C   UNL A   1      31.618  32.753  27.248  1.00  0.00     0.275 C 
BRANCH  27  28
ATOM     28  O   UNL A   1      32.828  33.508  27.087  1.00  0.00    -0.458 OA
BRANCH  28  29
ATOM     29  C   UNL A   1      33.342  34.004  28.242  1.00  0.00     0.338 C 
ATOM     30  O   UNL A   1      32.838  34.832  28.970  1.00  0.00    -0.246 OA
BRANCH  29  31
ATOM     31  C   UNL A   1      34.565  33.248  28.587  1.00  0.00     0.060 A 
ATOM     32  C   UNL A   1      34.402  32.003  29.205  1.00  0.00     0.016 A 
ATOM     33  C   UNL A   1      35.844  33.750  28.327  1.00  0.00     0.016 A 
ATOM     34  C   UNL A   1      35.519  31.278  29.612  1.00  0.00     0.010 A 
ATOM     35  C   UNL A   1      36.963  33.023  28.738  1.00  0.00     0.010 A 
ATOM     36  C   UNL A   1      36.803  31.802  29.413  1.00  0.00    -0.014 A 
BRANCH  36  37
ATOM     37  C   UNL A   1      37.969  31.150  30.051  1.00  0.00     0.031 A 
ATOM     38  C   UNL A   1      38.265  31.452  31.493  1.00  0.00     0.074 A 
ATOM     39  C   UNL A   1      38.743  30.294  29.362  1.00  0.00     0.049 A 
ATOM     40  N   UNL A   1      39.229  31.001  32.254  1.00  0.00    -0.248 NA
ATOM     41  C   UNL A   1      37.353  32.390  32.167  1.00  0.00     0.031 C 
ATOM     42  C   UNL A   1      38.546  29.910  27.966  1.00  0.00     0.029 A 
ATOM     43  N   UNL A   1      39.860  29.599  29.751  1.00  0.00    -0.354 N 
ATOM     44  C   UNL A   1      39.036  31.594  33.494  1.00  0.00     0.074 A 
ATOM     45  C   UNL A   1      37.888  32.467  33.376  1.00  0.00     0.031 C 
ATOM     46  C   UNL A   1      39.518  29.053  27.610  1.00  0.00     0.029 A 
ATOM     47  C   UNL A   1      40.413  28.844  28.747  1.00  0.00     0.049 A 
ATOM     48  H   UNL A   1      40.229  29.638  30.663  1.00  0.00     0.167 HD
ATOM     49  C   UNL A   1      39.743  31.417  34.634  1.00  0.00     0.037 A 
ATOM     50  C   UNL A   1      41.524  28.084  28.748  1.00  0.00     0.037 A 
ATOM     51  C   UNL A   1      40.889  30.557  34.752  1.00  0.00     0.049 A 
ATOM     52  C   UNL A   1      42.333  27.954  30.011  1.00  0.00     0.074 A 
ATOM     53  C   UNL A   1      41.661  30.294  35.870  1.00  0.00     0.029 A 
ATOM     54  N   UNL A   1      41.434  29.826  33.707  1.00  0.00    -0.354 N 
ATOM     55  N   UNL A   1      42.115  28.481  31.192  1.00  0.00    -0.248 NA
ATOM     56  C   UNL A   1      43.541  27.118  29.943  1.00  0.00     0.031 C 
ATOM     57  C   UNL A   1      42.700  29.437  35.491  1.00  0.00     0.029 A 
ATOM     58  C   UNL A   1      42.548  29.132  34.148  1.00  0.00     0.049 A 
ATOM     59  H   UNL A   1      41.081  29.805  32.788  1.00  0.00     0.167 HD
ATOM     60  C   UNL A   1      43.136  28.018  32.012  1.00  0.00     0.074 A 
ATOM     61  C   UNL A   1      43.971  27.161  31.196  1.00  0.00     0.031 C 
ATOM     62  C   UNL A   1      43.361  28.275  33.324  1.00  0.00     0.037 A 
BRANCH  49  63
ATOM     63  C   UNL A   1      39.299  32.185  35.843  1.00  0.00     0.057 A 
ATOM     64  C   UNL A   1      38.372  31.656  36.751  1.00  0.00     0.134 A 
ATOM     65  C   UNL A   1      39.818  33.456  36.113  1.00  0.00     0.134 A 
ATOM     66  F   UNL A   1      37.826  30.449  36.539  1.00  0.00    -0.206 F 
ATOM     67  C   UNL A   1      37.961  32.375  37.874  1.00  0.00     0.040 A 
ATOM     68  C   UNL A   1      39.432  34.176  37.244  1.00  0.00     0.040 A 
ATOM     69  F   UNL A   1      40.710  34.018  35.283  1.00  0.00    -0.206 F 
ATOM     70  C   UNL A   1      38.496  33.637  38.126  1.00  0.00     0.006 A 
ENDBRANCH  49  63
BRANCH  50  71
ATOM     71  C   UNL A   1      41.944  27.379  27.512  1.00  0.00     0.057 A 
ATOM     72  C   UNL A   1      41.684  26.016  27.331  1.00  0.00     0.134 A 
ATOM     73  C   UNL A   1      42.638  28.044  26.495  1.00  0.00     0.134 A 
ATOM     74  F   UNL A   1      41.043  25.320  28.282  1.00  0.00    -0.206 F 
ATOM     75  C   UNL A   1      42.114  25.335  26.191  1.00  0.00     0.040 A 
ATOM     76  C   UNL A   1      43.056  27.381  25.341  1.00  0.00     0.040 A 
ATOM     77  F   UNL A   1      42.918  29.352  26.609  1.00  0.00    -0.206 F 
ATOM     78  C   UNL A   1      42.801  26.021  25.190  1.00  0.00     0.006 A 
ENDBRANCH  50  71
BRANCH  62  79
ATOM     79  C   UNL A   1      44.534  27.597  33.968  1.00  0.00     0.057 A 
ATOM     80  C   UNL A   1      44.431  26.320  34.530  1.00  0.00     0.134 A 
ATOM     81  C   UNL A   1      45.792  28.213  33.982  1.00  0.00     0.134 A 
ATOM     82  F   UNL A   1      43.251  25.681  34.559  1.00  0.00    -0.206 F 
ATOM     83  C   UNL A   1      45.536  25.683  35.099  1.00  0.00     0.040 A 
ATOM     84  C   UNL A   1      46.909  27.577  34.526  1.00  0.00     0.040 A 
ATOM     85  F   UNL A   1      45.960  29.433  33.452  1.00  0.00    -0.206 F 
ATOM     86  C   UNL A   1      46.781  26.310  35.091  1.00  0.00     0.006 A 
ENDBRANCH  62  79
ENDBRANCH  36  37
ENDBRANCH  29  31
ENDBRANCH  28  29
ENDBRANCH  27  28
ENDBRANCH   1  27
TORSDOF 15
ENDMDL
MODEL 3
REMARK VINA RESULT:     -11.3      5.423     10.462
REMARK SMILES O=C(CCN1C(=O)/C(=C\c2ccc(-c3cccc(Cl)c3)o2)SC1=S)OCCOC(=O)c1ccc(-c2c3nc(c(-c4c(F)cccc4F)c4ccc([nH]4)c(-c4c(F)cccc4F)c4nc(c(-c5c(F)cccc5F)c5ccc2[nH]5)C=C4)C=C3)cc1
REMARK SMILES IDX 26 1 25 2 2 3 1 4 3 5 4 6 5 7 6 8 23 9 7 10 8 11 22 12 24 13
REMARK SMILES IDX 9 14 10 15 11 16 21 17 12 18 13 19 14 20 15 21 20 22 16 23
REMARK SMILES IDX 18 24 17 25 19 26 27 27 28 28 29 29 30 30 31 31 32 32 84 33
REMARK SMILES IDX 33 34 83 35 34 36 35 37 36 38 77 39 37 40 82 41 76 42 78 43
REMARK SMILES IDX 38 44 81 45 75 46 74 47 39 49 65 50 48 51 64 52 49 53 52 54
REMARK SMILES IDX 63 55 79 56 50 57 51 58 62 60 80 61 53 62 40 63 41 64 46 65
REMARK SMILES IDX 42 66 43 67 45 68 47 69 44 70 66 71 67 72 72 73 68 74 69 75
REMARK SMILES IDX 71 76 73 77 70 78 54 79 55 80 60 81 56 82 57 83 59 84 61 85
REMARK SMILES IDX 58 86
REMARK H PARENT 78 48 52 59
REMARK Flexibility Score: inf
ROOT
ATOM      1  C   UNL A   1      34.251  32.587  28.136  1.00  0.00     0.274 C 
ENDROOT
BRANCH   1   2
ATOM      2  O   UNL A   1      33.703  31.442  27.444  1.00  0.00    -0.462 OA
BRANCH   2   3
ATOM      3  C   UNL A   1      32.435  31.293  27.000  1.00  0.00     0.307 C 
ATOM      4  O   UNL A   1      31.676  32.258  26.948  1.00  0.00    -0.252 OA
BRANCH   3   5
ATOM      5  C   UNL A   1      31.957  29.942  26.541  1.00  0.00     0.144 C 
BRANCH   5   6
ATOM      6  C   UNL A   1      32.462  29.612  25.137  1.00  0.00     0.139 C 
BRANCH   6   7
ATOM      7  N   UNL A   1      31.799  28.432  24.573  1.00  0.00    -0.292 N 
ATOM      8  C   UNL A   1      32.345  27.187  24.856  1.00  0.00     0.266 C 
ATOM      9  C   UNL A   1      30.718  28.455  23.719  1.00  0.00     0.148 C 
ATOM     10  O   UNL A   1      33.326  27.012  25.563  1.00  0.00    -0.268 OA
ATOM     11  C   UNL A   1      31.649  26.121  24.079  1.00  0.00     0.084 C 
ATOM     12  S   UNL A   1      30.447  26.840  23.071  1.00  0.00    -0.054 SA
ATOM     13  S   UNL A   1      29.772  29.754  23.283  1.00  0.00    -0.052 S 
ATOM     14  C   UNL A   1      31.886  24.802  24.095  1.00  0.00     0.068 C 
BRANCH  14  15
ATOM     15  C   UNL A   1      32.724  24.167  25.051  1.00  0.00     0.128 A 
ATOM     16  C   UNL A   1      32.372  23.650  26.294  1.00  0.00     0.051 A 
ATOM     17  O   UNL A   1      34.056  23.875  24.837  1.00  0.00    -0.457 OA
ATOM     18  C   UNL A   1      33.512  23.040  26.850  1.00  0.00     0.051 A 
ATOM     19  C   UNL A   1      34.518  23.201  25.929  1.00  0.00     0.134 A 
BRANCH  19  20
ATOM     20  C   UNL A   1      35.901  22.763  25.916  1.00  0.00     0.019 A 
ATOM     21  C   UNL A   1      36.916  23.686  26.211  1.00  0.00     0.012 A 
ATOM     22  C   UNL A   1      36.249  21.469  25.517  1.00  0.00     0.032 A 
ATOM     23  C   UNL A   1      38.261  23.330  26.095  1.00  0.00     0.002 A 
ATOM     24  C   UNL A   1      37.594  21.121  25.388  1.00  0.00     0.041 A 
ATOM     25  C   UNL A   1      38.600  22.046  25.672  1.00  0.00     0.020 A 
ATOM     26  Cl  UNL A   1      38.023  19.547  24.840  1.00  0.00    -0.084 Cl
ENDBRANCH  19  20
ENDBRANCH  14  15
ENDBRANCH   6   7
ENDBRANCH   5   6
ENDBRANCH   3   5
ENDBRANCH   2   3
ENDBRANCH   1   2
BRANCH   1  27
ATOM     27  C   UNL A   1      34.979  32.196  29.418  1.00  0.00     0.275 C 
BRANCH  27  28
ATOM     28  O   UNL A   1      35.559  30.893  29.261  1.00  0.00    -0.458 OA
BRANCH  28  29
ATOM     29  C   UNL A   1      36.274  30.460  30.331  1.00  0.00     0.338 C 
ATOM     30  O   UNL A   1      35.912  30.425  31.487  1.00  0.00    -0.246 OA
BRANCH  29  31
ATOM     31  C   UNL A   1      37.540  29.864  29.854  1.00  0.00     0.060 A 
ATOM     32  C   UNL A   1      38.378  29.278  30.810  1.00  0.00     0.016 A 
ATOM     33  C   UNL A   1      37.910  29.889  28.505  1.00  0.00     0.016 A 
ATOM     34  C   UNL A   1      39.613  28.760  30.427  1.00  0.00     0.010 A 
ATOM     35  C   UNL A   1      39.149  29.371  28.123  1.00  0.00     0.010 A 
ATOM     36  C   UNL A   1      40.019  28.838  29.088  1.00  0.00    -0.014 A 
BRANCH  36  37
ATOM     37  C   UNL A   1      41.415  28.507  28.724  1.00  0.00     0.031 A 
ATOM     38  C   UNL A   1      41.741  27.096  28.323  1.00  0.00     0.074 A 
ATOM     39  C   UNL A   1      42.374  29.449  28.738  1.00  0.00     0.049 A 
ATOM     40  N   UNL A   1      42.889  26.579  27.968  1.00  0.00    -0.248 NA
ATOM     41  C   UNL A   1      40.622  26.139  28.325  1.00  0.00     0.031 C 
ATOM     42  C   UNL A   1      42.176  30.853  29.092  1.00  0.00     0.029 A 
ATOM     43  N   UNL A   1      43.712  29.357  28.451  1.00  0.00    -0.354 N 
ATOM     44  C   UNL A   1      42.630  25.241  27.699  1.00  0.00     0.074 A 
ATOM     45  C   UNL A   1      41.226  25.016  27.968  1.00  0.00     0.031 C 
ATOM     46  C   UNL A   1      43.356  31.492  29.010  1.00  0.00     0.029 A 
ATOM     47  C   UNL A   1      44.392  30.537  28.617  1.00  0.00     0.049 A 
ATOM     48  H   UNL A   1      44.143  28.523  28.153  1.00  0.00     0.167 HD
ATOM     49  C   UNL A   1      43.482  24.289  27.253  1.00  0.00     0.037 A 
ATOM     50  C   UNL A   1      45.703  30.808  28.479  1.00  0.00     0.037 A 
ATOM     51  C   UNL A   1      44.879  24.509  26.992  1.00  0.00     0.049 A 
ATOM     52  C   UNL A   1      46.644  29.716  28.046  1.00  0.00     0.074 A 
ATOM     53  C   UNL A   1      45.821  23.613  26.519  1.00  0.00     0.029 A 
ATOM     54  N   UNL A   1      45.536  25.713  27.195  1.00  0.00    -0.354 N 
ATOM     55  N   UNL A   1      46.381  28.466  27.748  1.00  0.00    -0.248 NA
ATOM     56  C   UNL A   1      48.065  30.073  27.924  1.00  0.00     0.031 C 
ATOM     57  C   UNL A   1      47.059  24.263  26.476  1.00  0.00     0.029 A 
ATOM     58  C   UNL A   1      46.877  25.577  26.881  1.00  0.00     0.049 A 
ATOM     59  H   UNL A   1      45.112  26.542  27.516  1.00  0.00     0.167 HD
ATOM     60  C   UNL A   1      47.593  27.899  27.375  1.00  0.00     0.074 A 
ATOM     61  C   UNL A   1      48.592  28.942  27.478  1.00  0.00     0.031 C 
ATOM     62  C   UNL A   1      47.856  26.629  26.979  1.00  0.00     0.037 A 
BRANCH  49  63
ATOM     63  C   UNL A   1      42.922  22.916  27.033  1.00  0.00     0.057 A 
ATOM     64  C   UNL A   1      42.660  22.049  28.102  1.00  0.00     0.134 A 
ATOM     65  C   UNL A   1      42.622  22.465  25.743  1.00  0.00     0.134 A 
ATOM     66  F   UNL A   1      42.942  22.418  29.361  1.00  0.00    -0.206 F 
ATOM     67  C   UNL A   1      42.139  20.771  27.892  1.00  0.00     0.040 A 
ATOM     68  C   UNL A   1      42.079  21.198  25.522  1.00  0.00     0.040 A 
ATOM     69  F   UNL A   1      42.848  23.247  24.677  1.00  0.00    -0.206 F 
ATOM     70  C   UNL A   1      41.841  20.345  26.599  1.00  0.00     0.006 A 
ENDBRANCH  49  63
BRANCH  50  71
ATOM     71  C   UNL A   1      46.213  32.175  28.751  1.00  0.00     0.057 A 
ATOM     72  C   UNL A   1      46.328  33.122  27.727  1.00  0.00     0.134 A 
ATOM     73  C   UNL A   1      46.622  32.557  30.033  1.00  0.00     0.134 A 
ATOM     74  F   UNL A   1      45.974  32.806  26.473  1.00  0.00    -0.206 F 
ATOM     75  C   UNL A   1      46.848  34.395  27.965  1.00  0.00     0.040 A 
ATOM     76  C   UNL A   1      47.125  33.833  30.290  1.00  0.00     0.040 A 
ATOM     77  F   UNL A   1      46.536  31.694  31.057  1.00  0.00    -0.206 F 
ATOM     78  C   UNL A   1      47.246  34.753  29.252  1.00  0.00     0.006 A 
ENDBRANCH  50  71
BRANCH  62  79
ATOM     79  C   UNL A   1      49.269  26.305  26.594  1.00  0.00     0.057 A 
ATOM     80  C   UNL A   1      50.163  25.714  27.495  1.00  0.00     0.134 A 
ATOM     81  C   UNL A   1      49.723  26.543  25.291  1.00  0.00     0.134 A 
ATOM     82  F   UNL A   1      49.792  25.472  28.762  1.00  0.00    -0.206 F 
ATOM     83  C   UNL A   1      51.467  25.386  27.118  1.00  0.00     0.040 A 
ATOM     84  C   UNL A   1      51.017  26.197  24.896  1.00  0.00     0.040 A 
ATOM     85  F   UNL A   1      48.914  27.097  24.377  1.00  0.00    -0.206 F 
ATOM     86  C   UNL A   1      51.894  25.622  25.813  1.00  0.00     0.006 A 
ENDBRANCH  62  79
ENDBRANCH  36  37
ENDBRANCH  29  31
ENDBRANCH  28  29
ENDBRANCH  27  28
ENDBRANCH   1  27
TORSDOF 15
ENDMDL
