MODEL 1
REMARK VINA RESULT:     -12.7      0.000      0.000
REMARK SMILES Cc1ccc(-c2cc(Cl)cc3c2O[C@H](C(F)(F)F)C(C(=O)OCCOC(=O)c2ccc(-c4c5nc(c(-c6c(F)cccc6F)c6ccc([nH]6)c(-c6c(F)cccc6F)c6nc(c(-c7c(F)cccc7F)c7ccc4[nH]7)C=C6)C=C5)cc2)=C3)cc1F
REMARK SMILES IDX 24 1 23 2 22 3 20 4 21 5 19 6 6 7 7 8 12 9 8 10 11 11 13 12
REMARK SMILES IDX 9 13 10 14 82 15 14 16 5 17 1 18 2 19 3 20 84 21 4 22 83 23
REMARK SMILES IDX 85 24 15 25 16 26 17 27 18 28 25 29 26 30 27 31 28 32 29 33
REMARK SMILES IDX 81 34 30 35 80 36 31 37 32 38 33 39 74 40 34 41 79 42 73 43
REMARK SMILES IDX 75 44 35 45 78 46 72 47 71 48 36 50 62 51 45 52 61 53 46 54
REMARK SMILES IDX 49 55 60 56 76 57 47 58 48 59 59 61 77 62 50 63 37 64 38 65
REMARK SMILES IDX 43 66 39 67 40 68 42 69 44 70 41 71 63 72 64 73 69 74 65 75
REMARK SMILES IDX 66 76 68 77 70 78 67 79 51 80 52 81 57 82 53 83 54 84 56 85
REMARK SMILES IDX 58 86 55 87
REMARK H PARENT 75 49 49 60
REMARK Flexibility Score: inf
ROOT
ATOM      1  C   UNL A   1      33.577  31.679  27.664  1.00  0.00     0.275 C 
ENDROOT
BRANCH   1   2
ATOM      2  C   UNL A   1      33.200  30.246  27.261  1.00  0.00     0.275 C 
BRANCH   2   3
ATOM      3  O   UNL A   1      33.264  30.022  25.832  1.00  0.00    -0.459 OA
BRANCH   3   4
ATOM      4  C   UNL A   1      32.136  29.550  25.242  1.00  0.00     0.338 C 
ATOM      5  O   UNL A   1      31.048  30.102  25.201  1.00  0.00    -0.246 OA
BRANCH   4   6
ATOM      6  C   UNL A   1      32.415  28.255  24.588  1.00  0.00     0.087 C 
ATOM      7  C   UNL A   1      33.421  24.680  22.619  1.00  0.00     0.026 A 
ATOM      8  C   UNL A   1      33.117  24.550  21.254  1.00  0.00     0.033 A 
ATOM      9  C   UNL A   1      33.072  25.878  23.282  1.00  0.00     0.135 A 
ATOM     10  C   UNL A   1      32.427  25.563  20.591  1.00  0.00     0.042 A 
ATOM     11  C   UNL A   1      32.344  26.868  22.624  1.00  0.00     0.019 A 
ATOM     12  O   UNL A   1      33.532  26.037  24.566  1.00  0.00    -0.475 OA
ATOM     13  Cl  UNL A   1      32.088  25.413  18.909  1.00  0.00    -0.084 Cl
ATOM     14  C   UNL A   1      32.009  26.701  21.276  1.00  0.00     0.032 A 
ATOM     15  C   UNL A   1      31.995  28.088  23.331  1.00  0.00     0.027 C 
ATOM     16  C   UNL A   1      33.051  27.145  25.368  1.00  0.00     0.316 C 
BRANCH   7  17
ATOM     17  C   UNL A   1      34.028  23.566  23.361  1.00  0.00    -0.012 A 
ATOM     18  C   UNL A   1      35.931  20.132  25.156  1.00  0.00     0.047 C 
ATOM     19  C   UNL A   1      35.254  21.341  24.590  1.00  0.00    -0.015 A 
ATOM     20  C   UNL A   1      33.864  21.491  24.622  1.00  0.00     0.007 A 
ATOM     21  C   UNL A   1      36.021  22.332  23.976  1.00  0.00     0.126 A 
ATOM     22  C   UNL A   1      33.256  22.597  24.016  1.00  0.00     0.009 A 
ATOM     23  C   UNL A   1      35.425  23.432  23.377  1.00  0.00     0.048 A 
ATOM     24  F   UNL A   1      37.356  22.217  23.935  1.00  0.00    -0.207 F 
ENDBRANCH   7  17
BRANCH  16  25
ATOM     25  C   UNL A   1      32.074  26.608  26.425  1.00  0.00     0.430 C 
ATOM     26  F   UNL A   1      32.167  27.300  27.585  1.00  0.00    -0.167 F 
ATOM     27  F   UNL A   1      30.791  26.720  26.004  1.00  0.00    -0.167 F 
ATOM     28  F   UNL A   1      32.298  25.305  26.711  1.00  0.00    -0.167 F 
ENDBRANCH  16  25
ENDBRANCH   4   6
ENDBRANCH   3   4
ENDBRANCH   2   3
ENDBRANCH   1   2
BRANCH   1  29
ATOM     29  O   UNL A   1      34.996  31.772  27.838  1.00  0.00    -0.458 OA
BRANCH  29  30
ATOM     30  C   UNL A   1      35.463  31.564  29.102  1.00  0.00     0.338 C 
ATOM     31  O   UNL A   1      35.051  32.033  30.132  1.00  0.00    -0.246 OA
BRANCH  30  32
ATOM     32  C   UNL A   1      36.324  30.367  28.997  1.00  0.00     0.060 A 
ATOM     33  C   UNL A   1      36.599  29.555  30.103  1.00  0.00     0.016 A 
ATOM     34  C   UNL A   1      37.080  30.275  27.833  1.00  0.00     0.016 A 
ATOM     35  C   UNL A   1      37.777  28.806  30.121  1.00  0.00     0.010 A 
ATOM     36  C   UNL A   1      38.231  29.503  27.849  1.00  0.00     0.010 A 
ATOM     37  C   UNL A   1      38.648  28.874  29.031  1.00  0.00    -0.014 A 
BRANCH  37  38
ATOM     38  C   UNL A   1      40.077  28.553  29.141  1.00  0.00     0.031 A 
ATOM     39  C   UNL A   1      40.667  27.340  28.528  1.00  0.00     0.074 A 
ATOM     40  C   UNL A   1      40.930  29.402  29.767  1.00  0.00     0.049 A 
ATOM     41  N   UNL A   1      41.683  26.715  29.032  1.00  0.00    -0.248 NA
ATOM     42  C   UNL A   1      40.166  26.730  27.303  1.00  0.00     0.031 C 
ATOM     43  C   UNL A   1      42.392  29.380  29.693  1.00  0.00     0.029 A 
ATOM     44  N   UNL A   1      40.666  30.392  30.707  1.00  0.00    -0.354 N 
ATOM     45  C   UNL A   1      42.124  25.810  28.098  1.00  0.00     0.074 A 
ATOM     46  C   UNL A   1      41.112  25.814  27.063  1.00  0.00     0.031 C 
ATOM     47  C   UNL A   1      42.900  30.122  30.687  1.00  0.00     0.029 A 
ATOM     48  C   UNL A   1      41.801  30.567  31.518  1.00  0.00     0.049 A 
ATOM     49  H   UNL A   1      39.819  30.889  30.793  1.00  0.00     0.167 HD
ATOM     50  C   UNL A   1      43.352  25.234  28.218  1.00  0.00     0.037 A 
ATOM     51  C   UNL A   1      41.749  30.460  32.878  1.00  0.00     0.037 A 
ATOM     52  C   UNL A   1      44.104  25.765  29.348  1.00  0.00     0.049 A 
ATOM     53  C   UNL A   1      42.561  29.320  33.440  1.00  0.00     0.074 A 
ATOM     54  C   UNL A   1      45.065  26.760  29.433  1.00  0.00     0.029 A 
ATOM     55  N   UNL A   1      43.716  25.480  30.650  1.00  0.00    -0.354 N 
ATOM     56  N   UNL A   1      43.159  28.427  32.705  1.00  0.00    -0.248 NA
ATOM     57  C   UNL A   1      42.699  29.041  34.870  1.00  0.00     0.031 C 
ATOM     58  C   UNL A   1      45.230  27.098  30.794  1.00  0.00     0.029 A 
ATOM     59  C   UNL A   1      44.375  26.308  31.540  1.00  0.00     0.049 A 
ATOM     60  H   UNL A   1      43.065  24.787  30.904  1.00  0.00     0.167 HD
ATOM     61  C   UNL A   1      43.615  27.412  33.503  1.00  0.00     0.074 A 
ATOM     62  C   UNL A   1      43.368  27.874  34.853  1.00  0.00     0.031 C 
ATOM     63  C   UNL A   1      44.097  26.252  32.968  1.00  0.00     0.037 A 
BRANCH  50  64
ATOM     64  C   UNL A   1      43.973  24.372  27.148  1.00  0.00     0.057 A 
ATOM     65  C   UNL A   1      43.630  23.014  26.997  1.00  0.00     0.134 A 
ATOM     66  C   UNL A   1      44.917  24.846  26.222  1.00  0.00     0.134 A 
ATOM     67  F   UNL A   1      42.692  22.433  27.756  1.00  0.00    -0.206 F 
ATOM     68  C   UNL A   1      44.242  22.174  26.058  1.00  0.00     0.040 A 
ATOM     69  C   UNL A   1      45.573  24.007  25.309  1.00  0.00     0.040 A 
ATOM     70  F   UNL A   1      45.220  26.150  26.147  1.00  0.00    -0.206 F 
ATOM     71  C   UNL A   1      45.241  22.662  25.230  1.00  0.00     0.006 A 
ENDBRANCH  50  64
BRANCH  51  72
ATOM     72  C   UNL A   1      40.465  30.945  33.437  1.00  0.00     0.057 A 
ATOM     73  C   UNL A   1      40.283  32.334  33.520  1.00  0.00     0.134 A 
ATOM     74  C   UNL A   1      39.323  30.141  33.405  1.00  0.00     0.134 A 
ATOM     75  F   UNL A   1      41.348  33.151  33.585  1.00  0.00    -0.206 F 
ATOM     76  C   UNL A   1      39.019  32.910  33.401  1.00  0.00     0.040 A 
ATOM     77  C   UNL A   1      38.051  30.709  33.290  1.00  0.00     0.040 A 
ATOM     78  F   UNL A   1      39.428  28.807  33.329  1.00  0.00    -0.206 F 
ATOM     79  C   UNL A   1      37.903  32.095  33.233  1.00  0.00     0.006 A 
ENDBRANCH  51  72
BRANCH  63  80
ATOM     80  C   UNL A   1      44.401  24.999  33.743  1.00  0.00     0.057 A 
ATOM     81  C   UNL A   1      43.446  24.275  34.473  1.00  0.00     0.134 A 
ATOM     82  C   UNL A   1      45.676  24.402  33.664  1.00  0.00     0.134 A 
ATOM     83  F   UNL A   1      42.165  24.665  34.530  1.00  0.00    -0.206 F 
ATOM     84  C   UNL A   1      43.755  23.082  35.139  1.00  0.00     0.040 A 
ATOM     85  C   UNL A   1      45.984  23.186  34.281  1.00  0.00     0.040 A 
ATOM     86  F   UNL A   1      46.673  24.968  32.964  1.00  0.00    -0.206 F 
ATOM     87  C   UNL A   1      45.025  22.530  35.039  1.00  0.00     0.006 A 
ENDBRANCH  63  80
ENDBRANCH  37  38
ENDBRANCH  30  32
ENDBRANCH  29  30
ENDBRANCH   1  29
TORSDOF 13
ENDMDL
MODEL 2
REMARK VINA RESULT:     -12.7      2.007      3.060
REMARK SMILES Cc1ccc(-c2cc(Cl)cc3c2O[C@H](C(F)(F)F)C(C(=O)OCCOC(=O)c2ccc(-c4c5nc(c(-c6c(F)cccc6F)c6ccc([nH]6)c(-c6c(F)cccc6F)c6nc(c(-c7c(F)cccc7F)c7ccc4[nH]7)C=C6)C=C5)cc2)=C3)cc1F
REMARK SMILES IDX 24 1 23 2 22 3 20 4 21 5 19 6 6 7 7 8 12 9 8 10 11 11 13 12
REMARK SMILES IDX 9 13 10 14 82 15 14 16 5 17 1 18 2 19 3 20 84 21 4 22 83 23
REMARK SMILES IDX 85 24 15 25 16 26 17 27 18 28 25 29 26 30 27 31 28 32 29 33
REMARK SMILES IDX 81 34 30 35 80 36 31 37 32 38 33 39 74 40 34 41 79 42 73 43
REMARK SMILES IDX 75 44 35 45 78 46 72 47 71 48 36 50 62 51 45 52 61 53 46 54
REMARK SMILES IDX 49 55 60 56 76 57 47 58 48 59 59 61 77 62 50 63 37 64 38 65
REMARK SMILES IDX 43 66 39 67 40 68 42 69 44 70 41 71 63 72 64 73 69 74 65 75
REMARK SMILES IDX 66 76 68 77 70 78 67 79 51 80 52 81 57 82 53 83 54 84 56 85
REMARK SMILES IDX 58 86 55 87
REMARK H PARENT 75 49 49 60
REMARK Flexibility Score: inf
ROOT
ATOM      1  C   UNL A   1      34.772  32.316  29.426  1.00  0.00     0.275 C 
ENDROOT
BRANCH   1   2
ATOM      2  C   UNL A   1      34.706  32.244  27.893  1.00  0.00     0.275 C 
BRANCH   2   3
ATOM      3  O   UNL A   1      33.859  31.175  27.411  1.00  0.00    -0.459 OA
BRANCH   3   4
ATOM      4  C   UNL A   1      32.594  31.517  27.055  1.00  0.00     0.338 C 
ATOM      5  O   UNL A   1      31.959  32.480  27.455  1.00  0.00    -0.246 OA
BRANCH   4   6
ATOM      6  C   UNL A   1      32.079  30.568  26.047  1.00  0.00     0.087 C 
ATOM      7  C   UNL A   1      30.751  28.000  22.996  1.00  0.00     0.026 A 
ATOM      8  C   UNL A   1      29.709  28.427  22.157  1.00  0.00     0.033 A 
ATOM      9  C   UNL A   1      31.188  28.859  24.028  1.00  0.00     0.135 A 
ATOM     10  C   UNL A   1      29.082  29.650  22.387  1.00  0.00     0.042 A 
ATOM     11  C   UNL A   1      30.528  30.062  24.279  1.00  0.00     0.019 A 
ATOM     12  O   UNL A   1      32.314  28.483  24.719  1.00  0.00    -0.475 OA
ATOM     13  Cl  UNL A   1      27.829  30.184  21.334  1.00  0.00    -0.084 Cl
ATOM     14  C   UNL A   1      29.462  30.450  23.461  1.00  0.00     0.032 A 
ATOM     15  C   UNL A   1      30.998  30.925  25.349  1.00  0.00     0.027 C 
ATOM     16  C   UNL A   1      32.703  29.213  25.909  1.00  0.00     0.316 C 
BRANCH   7  17
ATOM     17  C   UNL A   1      31.329  26.657  22.848  1.00  0.00    -0.012 A 
ATOM     18  C   UNL A   1      33.101  22.720  22.841  1.00  0.00     0.047 C 
ATOM     19  C   UNL A   1      32.480  24.081  22.782  1.00  0.00    -0.015 A 
ATOM     20  C   UNL A   1      33.131  25.163  22.180  1.00  0.00     0.007 A 
ATOM     21  C   UNL A   1      31.237  24.293  23.377  1.00  0.00     0.126 A 
ATOM     22  C   UNL A   1      32.558  26.441  22.210  1.00  0.00     0.009 A 
ATOM     23  C   UNL A   1      30.662  25.555  23.406  1.00  0.00     0.048 A 
ATOM     24  F   UNL A   1      30.588  23.273  23.956  1.00  0.00    -0.207 F 
ENDBRANCH   7  17
BRANCH  16  25
ATOM     25  C   UNL A   1      32.389  28.353  27.144  1.00  0.00     0.430 C 
ATOM     26  F   UNL A   1      31.323  28.834  27.825  1.00  0.00    -0.167 F 
ATOM     27  F   UNL A   1      32.086  27.081  26.788  1.00  0.00    -0.167 F 
ATOM     28  F   UNL A   1      33.430  28.300  28.007  1.00  0.00    -0.167 F 
ENDBRANCH  16  25
ENDBRANCH   4   6
ENDBRANCH   3   4
ENDBRANCH   2   3
ENDBRANCH   1   2
BRANCH   1  29
ATOM     29  O   UNL A   1      35.563  31.230  29.925  1.00  0.00    -0.458 OA
BRANCH  29  30
ATOM     30  C   UNL A   1      36.915  31.386  29.850  1.00  0.00     0.338 C 
ATOM     31  O   UNL A   1      37.583  32.292  30.280  1.00  0.00    -0.246 OA
BRANCH  30  32
ATOM     32  C   UNL A   1      37.432  30.054  29.475  1.00  0.00     0.060 A 
ATOM     33  C   UNL A   1      37.606  29.035  30.419  1.00  0.00     0.016 A 
ATOM     34  C   UNL A   1      38.018  29.973  28.215  1.00  0.00     0.016 A 
ATOM     35  C   UNL A   1      38.552  28.038  30.178  1.00  0.00     0.010 A 
ATOM     36  C   UNL A   1      38.932  28.960  27.974  1.00  0.00     0.010 A 
ATOM     37  C   UNL A   1      39.296  28.072  28.995  1.00  0.00    -0.014 A 
BRANCH  37  38
ATOM     38  C   UNL A   1      40.602  27.413  28.865  1.00  0.00     0.031 A 
ATOM     39  C   UNL A   1      40.736  25.987  28.485  1.00  0.00     0.074 A 
ATOM     40  C   UNL A   1      41.751  28.114  29.034  1.00  0.00     0.049 A 
ATOM     41  N   UNL A   1      41.703  25.232  28.898  1.00  0.00    -0.248 NA
ATOM     42  C   UNL A   1      39.797  25.293  27.613  1.00  0.00     0.031 C 
ATOM     43  C   UNL A   1      43.097  27.689  28.644  1.00  0.00     0.029 A 
ATOM     44  N   UNL A   1      41.969  29.310  29.708  1.00  0.00    -0.354 N 
ATOM     45  C   UNL A   1      41.670  24.070  28.167  1.00  0.00     0.074 A 
ATOM     46  C   UNL A   1      40.430  24.129  27.422  1.00  0.00     0.031 C 
ATOM     47  C   UNL A   1      44.004  28.458  29.263  1.00  0.00     0.029 A 
ATOM     48  C   UNL A   1      43.297  29.340  30.167  1.00  0.00     0.049 A 
ATOM     49  H   UNL A   1      41.301  30.021  29.844  1.00  0.00     0.167 HD
ATOM     50  C   UNL A   1      42.739  23.225  28.160  1.00  0.00     0.037 A 
ATOM     51  C   UNL A   1      43.611  29.534  31.482  1.00  0.00     0.037 A 
ATOM     52  C   UNL A   1      43.870  23.758  28.908  1.00  0.00     0.049 A 
ATOM     53  C   UNL A   1      44.298  28.360  32.134  1.00  0.00     0.074 A 
ATOM     54  C   UNL A   1      44.997  24.456  28.506  1.00  0.00     0.029 A 
ATOM     55  N   UNL A   1      43.814  23.861  30.291  1.00  0.00    -0.354 N 
ATOM     56  N   UNL A   1      44.471  27.208  31.551  1.00  0.00    -0.248 NA
ATOM     57  C   UNL A   1      44.775  28.355  33.517  1.00  0.00     0.031 C 
ATOM     58  C   UNL A   1      45.604  25.012  29.654  1.00  0.00     0.029 A 
ATOM     59  C   UNL A   1      44.852  24.649  30.757  1.00  0.00     0.049 A 
ATOM     60  H   UNL A   1      43.135  23.434  30.861  1.00  0.00     0.167 HD
ATOM     61  C   UNL A   1      44.917  26.296  32.469  1.00  0.00     0.074 A 
ATOM     62  C   UNL A   1      45.160  27.075  33.665  1.00  0.00     0.031 C 
ATOM     63  C   UNL A   1      44.982  24.965  32.171  1.00  0.00     0.037 A 
BRANCH  50  64
ATOM     64  C   UNL A   1      42.843  22.027  27.250  1.00  0.00     0.057 A 
ATOM     65  C   UNL A   1      42.040  20.885  27.430  1.00  0.00     0.134 A 
ATOM     66  C   UNL A   1      43.727  21.958  26.159  1.00  0.00     0.134 A 
ATOM     67  F   UNL A   1      41.098  20.826  28.381  1.00  0.00    -0.206 F 
ATOM     68  C   UNL A   1      42.166  19.733  26.644  1.00  0.00     0.040 A 
ATOM     69  C   UNL A   1      43.898  20.795  25.393  1.00  0.00     0.040 A 
ATOM     70  F   UNL A   1      44.438  23.027  25.774  1.00  0.00    -0.206 F 
ATOM     71  C   UNL A   1      43.120  19.673  25.640  1.00  0.00     0.006 A 
ENDBRANCH  50  64
BRANCH  51  72
ATOM     72  C   UNL A   1      42.663  30.447  32.162  1.00  0.00     0.057 A 
ATOM     73  C   UNL A   1      42.836  31.824  31.956  1.00  0.00     0.134 A 
ATOM     74  C   UNL A   1      41.397  30.003  32.551  1.00  0.00     0.134 A 
ATOM     75  F   UNL A   1      44.041  32.308  31.612  1.00  0.00    -0.206 F 
ATOM     76  C   UNL A   1      41.753  32.703  31.966  1.00  0.00     0.040 A 
ATOM     77  C   UNL A   1      40.306  30.876  32.569  1.00  0.00     0.040 A 
ATOM     78  F   UNL A   1      41.166  28.700  32.768  1.00  0.00    -0.206 F 
ATOM     79  C   UNL A   1      40.474  32.217  32.223  1.00  0.00     0.006 A 
ENDBRANCH  51  72
BRANCH  63  80
ATOM     80  C   UNL A   1      45.231  23.864  33.166  1.00  0.00     0.057 A 
ATOM     81  C   UNL A   1      46.449  23.668  33.834  1.00  0.00     0.134 A 
ATOM     82  C   UNL A   1      44.174  23.027  33.582  1.00  0.00     0.134 A 
ATOM     83  F   UNL A   1      47.500  24.472  33.624  1.00  0.00    -0.206 F 
ATOM     84  C   UNL A   1      46.626  22.663  34.794  1.00  0.00     0.040 A 
ATOM     85  C   UNL A   1      44.324  22.055  34.575  1.00  0.00     0.040 A 
ATOM     86  F   UNL A   1      42.945  23.134  33.053  1.00  0.00    -0.206 F 
ATOM     87  C   UNL A   1      45.560  21.856  35.172  1.00  0.00     0.006 A 
ENDBRANCH  63  80
ENDBRANCH  37  38
ENDBRANCH  30  32
ENDBRANCH  29  30
ENDBRANCH   1  29
TORSDOF 13
ENDMDL
MODEL 3
REMARK VINA RESULT:     -12.7      2.164      3.324
REMARK SMILES Cc1ccc(-c2cc(Cl)cc3c2O[C@H](C(F)(F)F)C(C(=O)OCCOC(=O)c2ccc(-c4c5nc(c(-c6c(F)cccc6F)c6ccc([nH]6)c(-c6c(F)cccc6F)c6nc(c(-c7c(F)cccc7F)c7ccc4[nH]7)C=C6)C=C5)cc2)=C3)cc1F
REMARK SMILES IDX 24 1 23 2 22 3 20 4 21 5 19 6 6 7 7 8 12 9 8 10 11 11 13 12
REMARK SMILES IDX 9 13 10 14 82 15 14 16 5 17 1 18 2 19 3 20 84 21 4 22 83 23
REMARK SMILES IDX 85 24 15 25 16 26 17 27 18 28 25 29 26 30 27 31 28 32 29 33
REMARK SMILES IDX 81 34 30 35 80 36 31 37 32 38 33 39 74 40 34 41 79 42 73 43
REMARK SMILES IDX 75 44 35 45 78 46 72 47 71 48 36 50 62 51 45 52 61 53 46 54
REMARK SMILES IDX 49 55 60 56 76 57 47 58 48 59 59 61 77 62 50 63 37 64 38 65
REMARK SMILES IDX 43 66 39 67 40 68 42 69 44 70 41 71 63 72 64 73 69 74 65 75
REMARK SMILES IDX 66 76 68 77 70 78 67 79 51 80 52 81 57 82 53 83 54 84 56 85
REMARK SMILES IDX 58 86 55 87
REMARK H PARENT 75 49 49 60
REMARK Flexibility Score: inf
ROOT
ATOM      1  C   UNL A   1      32.969  34.307  29.031  1.00  0.00     0.275 C 
ENDROOT
BRANCH   1   2
ATOM      2  C   UNL A   1      33.046  33.719  27.614  1.00  0.00     0.275 C 
BRANCH   2   3
ATOM      3  O   UNL A   1      32.325  32.472  27.477  1.00  0.00    -0.459 OA
BRANCH   3   4
ATOM      4  C   UNL A   1      33.072  31.363  27.241  1.00  0.00     0.338 C 
ATOM      5  O   UNL A   1      34.131  31.069  27.773  1.00  0.00    -0.246 OA
BRANCH   4   6
ATOM      6  C   UNL A   1      32.392  30.498  26.256  1.00  0.00     0.087 C 
ATOM      7  C   UNL A   1      30.585  28.165  23.262  1.00  0.00     0.026 A 
ATOM      8  C   UNL A   1      29.513  28.707  22.535  1.00  0.00     0.033 A 
ATOM      9  C   UNL A   1      31.184  28.946  24.275  1.00  0.00     0.135 A 
ATOM     10  C   UNL A   1      29.015  29.968  22.858  1.00  0.00     0.042 A 
ATOM     11  C   UNL A   1      30.653  30.188  24.622  1.00  0.00     0.019 A 
ATOM     12  O   UNL A   1      32.331  28.453  24.848  1.00  0.00    -0.475 OA
ATOM     13  Cl  UNL A   1      27.724  30.643  21.940  1.00  0.00    -0.084 Cl
ATOM     14  C   UNL A   1      29.555  30.693  23.917  1.00  0.00     0.032 A 
ATOM     15  C   UNL A   1      31.287  30.968  25.670  1.00  0.00     0.027 C 
ATOM     16  C   UNL A   1      32.884  29.103  26.020  1.00  0.00     0.316 C 
BRANCH   7  17
ATOM     17  C   UNL A   1      31.033  26.785  23.021  1.00  0.00    -0.012 A 
ATOM     18  C   UNL A   1      32.569  22.765  22.683  1.00  0.00     0.047 C 
ATOM     19  C   UNL A   1      32.008  24.151  22.746  1.00  0.00    -0.015 A 
ATOM     20  C   UNL A   1      32.425  25.156  21.866  1.00  0.00     0.007 A 
ATOM     21  C   UNL A   1      31.073  24.468  23.730  1.00  0.00     0.126 A 
ATOM     22  C   UNL A   1      31.938  26.463  22.001  1.00  0.00     0.009 A 
ATOM     23  C   UNL A   1      30.583  25.759  23.867  1.00  0.00     0.048 A 
ATOM     24  F   UNL A   1      30.651  23.523  24.584  1.00  0.00    -0.207 F 
ENDBRANCH   7  17
BRANCH  16  25
ATOM     25  C   UNL A   1      32.608  28.225  27.252  1.00  0.00     0.430 C 
ATOM     26  F   UNL A   1      32.384  26.937  26.903  1.00  0.00    -0.167 F 
ATOM     27  F   UNL A   1      33.669  28.224  28.096  1.00  0.00    -0.167 F 
ATOM     28  F   UNL A   1      31.531  28.650  27.950  1.00  0.00    -0.167 F 
ENDBRANCH  16  25
ENDBRANCH   4   6
ENDBRANCH   3   4
ENDBRANCH   2   3
ENDBRANCH   1   2
BRANCH   1  29
ATOM     29  O   UNL A   1      34.292  34.510  29.540  1.00  0.00    -0.458 OA
BRANCH  29  30
ATOM     30  C   UNL A   1      34.613  33.823  30.674  1.00  0.00     0.338 C 
ATOM     31  O   UNL A   1      34.100  33.903  31.761  1.00  0.00    -0.246 OA
BRANCH  30  32
ATOM     32  C   UNL A   1      35.457  32.701  30.213  1.00  0.00     0.060 A 
ATOM     33  C   UNL A   1      35.589  31.522  30.956  1.00  0.00     0.016 A 
ATOM     34  C   UNL A   1      36.338  33.001  29.180  1.00  0.00     0.016 A 
ATOM     35  C   UNL A   1      36.742  30.750  30.807  1.00  0.00     0.010 A 
ATOM     36  C   UNL A   1      37.464  32.210  29.018  1.00  0.00     0.010 A 
ATOM     37  C   UNL A   1      37.732  31.164  29.912  1.00  0.00    -0.014 A 
BRANCH  37  38
ATOM     38  C   UNL A   1      39.133  30.739  30.034  1.00  0.00     0.031 A 
ATOM     39  C   UNL A   1      39.677  29.579  29.290  1.00  0.00     0.074 A 
ATOM     40  C   UNL A   1      40.005  31.442  30.799  1.00  0.00     0.049 A 
ATOM     41  N   UNL A   1      40.630  28.830  29.745  1.00  0.00    -0.248 NA
ATOM     42  C   UNL A   1      39.198  29.167  27.976  1.00  0.00     0.031 C 
ATOM     43  C   UNL A   1      41.465  31.334  30.779  1.00  0.00     0.029 A 
ATOM     44  N   UNL A   1      39.756  32.317  31.851  1.00  0.00    -0.354 N 
ATOM     45  C   UNL A   1      41.058  28.026  28.718  1.00  0.00     0.074 A 
ATOM     46  C   UNL A   1      40.098  28.229  27.654  1.00  0.00     0.031 C 
ATOM     47  C   UNL A   1      41.969  31.907  31.881  1.00  0.00     0.029 A 
ATOM     48  C   UNL A   1      40.861  32.312  32.720  1.00  0.00     0.049 A 
ATOM     49  H   UNL A   1      38.938  32.853  31.969  1.00  0.00     0.167 HD
ATOM     50  C   UNL A   1      42.244  27.360  28.808  1.00  0.00     0.037 A 
ATOM     51  C   UNL A   1      40.740  32.034  34.051  1.00  0.00     0.037 A 
ATOM     52  C   UNL A   1      42.972  27.690  30.026  1.00  0.00     0.049 A 
ATOM     53  C   UNL A   1      41.455  30.780  34.489  1.00  0.00     0.074 A 
ATOM     54  C   UNL A   1      43.986  28.601  30.278  1.00  0.00     0.029 A 
ATOM     55  N   UNL A   1      42.507  27.265  31.263  1.00  0.00    -0.354 N 
ATOM     56  N   UNL A   1      42.033  29.952  33.666  1.00  0.00    -0.248 NA
ATOM     57  C   UNL A   1      41.510  30.310  35.874  1.00  0.00     0.031 C 
ATOM     58  C   UNL A   1      44.108  28.749  31.677  1.00  0.00     0.029 A 
ATOM     59  C   UNL A   1      43.173  27.926  32.279  1.00  0.00     0.049 A 
ATOM     60  H   UNL A   1      41.805  26.589  31.398  1.00  0.00     0.167 HD
ATOM     61  C   UNL A   1      42.390  28.815  34.340  1.00  0.00     0.074 A 
ATOM     62  C   UNL A   1      42.108  29.114  35.729  1.00  0.00     0.031 C 
ATOM     63  C   UNL A   1      42.826  27.705  33.676  1.00  0.00     0.037 A 
BRANCH  50  64
ATOM     64  C   UNL A   1      42.861  26.605  27.658  1.00  0.00     0.057 A 
ATOM     65  C   UNL A   1      43.537  27.265  26.614  1.00  0.00     0.134 A 
ATOM     66  C   UNL A   1      42.822  25.205  27.540  1.00  0.00     0.134 A 
ATOM     67  F   UNL A   1      43.722  28.592  26.619  1.00  0.00    -0.206 F 
ATOM     68  C   UNL A   1      44.057  26.595  25.500  1.00  0.00     0.040 A 
ATOM     69  C   UNL A   1      43.296  24.525  26.408  1.00  0.00     0.040 A 
ATOM     70  F   UNL A   1      42.350  24.438  28.534  1.00  0.00    -0.206 F 
ATOM     71  C   UNL A   1      43.910  25.222  25.378  1.00  0.00     0.006 A 
ENDBRANCH  50  64
BRANCH  51  72
ATOM     72  C   UNL A   1      39.463  32.525  34.620  1.00  0.00     0.057 A 
ATOM     73  C   UNL A   1      39.364  33.899  34.888  1.00  0.00     0.134 A 
ATOM     74  C   UNL A   1      38.275  31.814  34.429  1.00  0.00     0.134 A 
ATOM     75  F   UNL A   1      40.473  34.624  35.111  1.00  0.00    -0.206 F 
ATOM     76  C   UNL A   1      38.146  34.571  34.799  1.00  0.00     0.040 A 
ATOM     77  C   UNL A   1      37.049  32.478  34.343  1.00  0.00     0.040 A 
ATOM     78  F   UNL A   1      38.301  30.498  34.172  1.00  0.00    -0.206 F 
ATOM     79  C   UNL A   1      36.991  33.865  34.474  1.00  0.00     0.006 A 
ENDBRANCH  51  72
BRANCH  63  80
ATOM     80  C   UNL A   1      43.018  26.345  34.289  1.00  0.00     0.057 A 
ATOM     81  C   UNL A   1      42.009  25.635  34.957  1.00  0.00     0.134 A 
ATOM     82  C   UNL A   1      44.227  25.642  34.104  1.00  0.00     0.134 A 
ATOM     83  F   UNL A   1      40.774  26.136  35.096  1.00  0.00    -0.206 F 
ATOM     84  C   UNL A   1      42.211  24.347  35.470  1.00  0.00     0.040 A 
ATOM     85  C   UNL A   1      44.424  24.338  34.566  1.00  0.00     0.040 A 
ATOM     86  F   UNL A   1      45.262  26.190  33.447  1.00  0.00    -0.206 F 
ATOM     87  C   UNL A   1      43.419  23.691  35.270  1.00  0.00     0.006 A 
ENDBRANCH  63  80
ENDBRANCH  37  38
ENDBRANCH  30  32
ENDBRANCH  29  30
ENDBRANCH   1  29
TORSDOF 13
ENDMDL
