MODEL 1
REMARK VINA RESULT:     -13.4      0.000      0.000
REMARK SMILES O=C(OCCOC(=O)[C@@H]1CC=CC[C@@H]1C(=O)N1CCN(C(=O)c2sc3cc([N+](=O)[O-])ccc3c2Cl)CC1)c1ccc(-c2c3nc(c(-c4c(F)cccc4F)c4ccc([nH]4)c(-c4c(F)cccc4F)c4nc(c(-c5c(F)cccc5F)c5ccc2[nH]5)C=C4)C=C3)cc1
REMARK SMILES IDX 5 1 4 2 3 3 2 4 1 5 38 6 39 7 91 8 40 9 90 10 41 11 42 12
REMARK SMILES IDX 43 13 84 14 44 15 89 16 83 17 85 18 45 19 88 20 82 21 81 22
REMARK SMILES IDX 46 24 72 25 55 26 71 27 56 28 59 29 70 30 86 31 57 32 58 33
REMARK SMILES IDX 69 35 87 36 60 37 47 38 48 39 53 40 49 41 50 42 52 43 54 44
REMARK SMILES IDX 51 45 73 46 74 47 79 48 75 49 76 50 78 51 80 52 77 53 61 54
REMARK SMILES IDX 62 55 67 56 63 57 64 58 66 59 68 60 65 61 6 62 7 63 8 64
REMARK SMILES IDX 9 65 10 66 14 67 11 68 13 69 12 70 15 71 16 72 17 73 18 74
REMARK SMILES IDX 37 75 19 76 36 77 20 78 21 79 22 80 23 81 24 82 34 83 25 84
REMARK SMILES IDX 33 85 35 86 26 87 32 88 27 89 31 90 28 91 29 92 30 93
REMARK H PARENT 85 23 59 34
REMARK Flexibility Score: inf
ROOT
ATOM      1  C   UNL A   1      41.934  19.567  26.380  1.00  0.00     0.274 C 
ENDROOT
BRANCH   1   2
ATOM      2  C   UNL A   1      42.927  20.631  25.822  1.00  0.00     0.275 C 
BRANCH   2   3
ATOM      3  O   UNL A   1      43.025  21.897  26.489  1.00  0.00    -0.458 OA
BRANCH   3   4
ATOM      4  C   UNL A   1      42.715  22.941  25.711  1.00  0.00     0.338 C 
ATOM      5  O   UNL A   1      43.033  22.971  24.523  1.00  0.00    -0.246 OA
BRANCH   4   6
ATOM      6  C   UNL A   1      42.100  24.018  26.531  1.00  0.00     0.060 A 
ATOM      7  C   UNL A   1      41.392  25.098  25.990  1.00  0.00     0.016 A 
ATOM      8  C   UNL A   1      42.279  23.974  27.902  1.00  0.00     0.016 A 
ATOM      9  C   UNL A   1      41.200  26.251  26.701  1.00  0.00     0.010 A 
ATOM     10  C   UNL A   1      41.855  25.033  28.645  1.00  0.00     0.010 A 
ATOM     11  C   UNL A   1      41.626  26.230  28.001  1.00  0.00    -0.014 A 
BRANCH  11  12
ATOM     12  C   UNL A   1      41.715  27.443  28.766  1.00  0.00     0.031 A 
ATOM     13  C   UNL A   1      42.946  28.180  28.434  1.00  0.00     0.074 A 
ATOM     14  C   UNL A   1      40.659  27.793  29.532  1.00  0.00     0.049 A 
ATOM     15  N   UNL A   1      43.963  28.403  29.193  1.00  0.00    -0.248 NA
ATOM     16  C   UNL A   1      43.215  28.424  27.005  1.00  0.00     0.031 C 
ATOM     17  C   UNL A   1      39.388  27.071  29.713  1.00  0.00     0.029 A 
ATOM     18  N   UNL A   1      40.433  28.955  30.198  1.00  0.00    -0.354 N 
ATOM     19  C   UNL A   1      44.842  29.120  28.392  1.00  0.00     0.074 A 
ATOM     20  C   UNL A   1      44.482  28.833  27.034  1.00  0.00     0.031 C 
ATOM     21  C   UNL A   1      38.447  27.912  30.191  1.00  0.00     0.029 A 
ATOM     22  C   UNL A   1      39.079  29.178  30.489  1.00  0.00     0.049 A 
ATOM     23  H   UNL A   1      41.150  29.580  30.451  1.00  0.00     0.167 HD
ATOM     24  C   UNL A   1      45.488  30.197  28.914  1.00  0.00     0.037 A 
ATOM     25  C   UNL A   1      38.562  30.370  30.882  1.00  0.00     0.037 A 
ATOM     26  C   UNL A   1      45.506  30.119  30.356  1.00  0.00     0.049 A 
ATOM     27  C   UNL A   1      39.716  31.194  31.338  1.00  0.00     0.074 A 
ATOM     28  C   UNL A   1      45.981  29.191  31.261  1.00  0.00     0.029 A 
ATOM     29  N   UNL A   1      44.576  30.878  31.028  1.00  0.00    -0.354 N 
ATOM     30  N   UNL A   1      40.410  30.915  32.408  1.00  0.00    -0.248 NA
ATOM     31  C   UNL A   1      40.414  31.984  30.332  1.00  0.00     0.031 C 
ATOM     32  C   UNL A   1      45.007  29.151  32.301  1.00  0.00     0.029 A 
ATOM     33  C   UNL A   1      44.042  30.126  32.042  1.00  0.00     0.049 A 
ATOM     34  H   UNL A   1      44.332  31.807  30.816  1.00  0.00     0.167 HD
ATOM     35  C   UNL A   1      41.734  31.090  32.024  1.00  0.00     0.074 A 
ATOM     36  C   UNL A   1      41.671  31.825  30.762  1.00  0.00     0.031 C 
ATOM     37  C   UNL A   1      42.728  30.350  32.601  1.00  0.00     0.037 A 
BRANCH  24  38
ATOM     38  C   UNL A   1      45.647  31.499  28.170  1.00  0.00     0.057 A 
ATOM     39  C   UNL A   1      46.857  31.979  27.620  1.00  0.00     0.134 A 
ATOM     40  C   UNL A   1      44.492  32.158  27.722  1.00  0.00     0.134 A 
ATOM     41  F   UNL A   1      48.044  31.417  27.863  1.00  0.00    -0.206 F 
ATOM     42  C   UNL A   1      46.909  33.015  26.688  1.00  0.00     0.040 A 
ATOM     43  C   UNL A   1      44.531  33.156  26.743  1.00  0.00     0.040 A 
ATOM     44  F   UNL A   1      43.280  31.786  28.162  1.00  0.00    -0.206 F 
ATOM     45  C   UNL A   1      45.742  33.582  26.217  1.00  0.00     0.006 A 
ENDBRANCH  24  38
BRANCH  25  46
ATOM     46  C   UNL A   1      37.221  30.944  30.641  1.00  0.00     0.057 A 
ATOM     47  C   UNL A   1      36.857  31.481  29.393  1.00  0.00     0.134 A 
ATOM     48  C   UNL A   1      36.354  31.226  31.706  1.00  0.00     0.134 A 
ATOM     49  F   UNL A   1      37.643  31.326  28.317  1.00  0.00    -0.206 F 
ATOM     50  C   UNL A   1      35.718  32.276  29.221  1.00  0.00     0.040 A 
ATOM     51  C   UNL A   1      35.213  32.025  31.550  1.00  0.00     0.040 A 
ATOM     52  F   UNL A   1      36.629  30.782  32.941  1.00  0.00    -0.206 F 
ATOM     53  C   UNL A   1      34.900  32.565  30.306  1.00  0.00     0.006 A 
ENDBRANCH  25  46
BRANCH  37  54
ATOM     54  C   UNL A   1      42.369  29.543  33.822  1.00  0.00     0.057 A 
ATOM     55  C   UNL A   1      42.581  30.116  35.078  1.00  0.00     0.134 A 
ATOM     56  C   UNL A   1      41.959  28.199  33.800  1.00  0.00     0.134 A 
ATOM     57  F   UNL A   1      43.036  31.375  35.176  1.00  0.00    -0.206 F 
ATOM     58  C   UNL A   1      42.382  29.399  36.260  1.00  0.00     0.040 A 
ATOM     59  C   UNL A   1      41.724  27.479  34.976  1.00  0.00     0.040 A 
ATOM     60  F   UNL A   1      41.828  27.534  32.646  1.00  0.00    -0.206 F 
ATOM     61  C   UNL A   1      41.939  28.080  36.212  1.00  0.00     0.006 A 
ENDBRANCH  37  54
ENDBRANCH  11  12
ENDBRANCH   4   6
ENDBRANCH   3   4
ENDBRANCH   2   3
ENDBRANCH   1   2
BRANCH   1  62
ATOM     62  O   UNL A   1      40.632  20.118  26.757  1.00  0.00    -0.462 OA
BRANCH  62  63
ATOM     63  C   UNL A   1      39.620  19.921  25.870  1.00  0.00     0.310 C 
ATOM     64  O   UNL A   1      39.326  18.786  25.492  1.00  0.00    -0.252 OA
BRANCH  63  65
ATOM     65  C   UNL A   1      38.806  21.184  25.400  1.00  0.00     0.115 C 
ATOM     66  C   UNL A   1      39.008  22.292  26.501  1.00  0.00     0.043 C 
ATOM     67  C   UNL A   1      37.395  21.293  24.575  1.00  0.00     0.097 C 
ATOM     68  C   UNL A   1      38.081  23.460  26.437  1.00  0.00    -0.030 C 
ATOM     69  C   UNL A   1      37.414  22.809  24.146  1.00  0.00     0.041 C 
ATOM     70  C   UNL A   1      37.350  23.712  25.347  1.00  0.00    -0.030 C 
BRANCH  67  71
ATOM     71  C   UNL A   1      35.726  21.041  24.783  1.00  0.00     0.227 C 
ATOM     72  O   UNL A   1      35.309  19.868  24.745  1.00  0.00    -0.275 OA
ATOM     73  N   UNL A   1      34.743  21.990  25.126  1.00  0.00    -0.339 N 
ATOM     74  C   UNL A   1      34.059  21.853  26.438  1.00  0.00     0.141 C 
ATOM     75  C   UNL A   1      33.698  22.262  24.136  1.00  0.00     0.141 C 
ATOM     76  C   UNL A   1      33.297  23.137  26.866  1.00  0.00     0.141 C 
ATOM     77  C   UNL A   1      32.932  23.585  24.397  1.00  0.00     0.141 C 
ATOM     78  N   UNL A   1      32.675  23.956  25.802  1.00  0.00    -0.334 N 
ATOM     79  C   UNL A   1      32.138  25.210  26.222  1.00  0.00     0.265 C 
ATOM     80  O   UNL A   1      32.216  25.517  27.416  1.00  0.00    -0.268 OA
BRANCH  79  81
ATOM     81  C   UNL A   1      31.574  26.163  25.259  1.00  0.00     0.112 A 
ATOM     82  S   UNL A   1      29.859  26.169  25.032  1.00  0.00    -0.128 S 
ATOM     83  C   UNL A   1      32.152  26.978  24.307  1.00  0.00     0.072 A 
ATOM     84  C   UNL A   1      29.891  27.515  23.961  1.00  0.00     0.043 A 
ATOM     85  C   UNL A   1      31.209  27.857  23.651  1.00  0.00     0.012 A 
ATOM     86  Cl  UNL A   1      33.809  26.970  23.855  1.00  0.00    -0.082 Cl
ATOM     87  C   UNL A   1      28.783  28.201  23.409  1.00  0.00     0.105 A 
ATOM     88  C   UNL A   1      31.415  28.940  22.754  1.00  0.00     0.018 A 
ATOM     89  C   UNL A   1      29.035  29.240  22.501  1.00  0.00     0.270 A 
ATOM     90  C   UNL A   1      30.336  29.622  22.183  1.00  0.00     0.086 A 
BRANCH  89  91
ATOM     91  N   UNL A   1      27.912  29.928  21.853  1.00  0.00     0.062 N 
ATOM     92  O   UNL A   1      26.953  30.267  22.561  1.00  0.00    -0.258 OA
ATOM     93  O   UNL A   1      27.996  30.141  20.635  1.00  0.00    -0.258 OA
ENDBRANCH  89  91
ENDBRANCH  79  81
ENDBRANCH  67  71
ENDBRANCH  63  65
ENDBRANCH  62  63
ENDBRANCH   1  62
TORSDOF 14
ENDMDL
MODEL 2
REMARK VINA RESULT:     -12.6     11.664     17.651
REMARK SMILES O=C(OCCOC(=O)[C@@H]1CC=CC[C@@H]1C(=O)N1CCN(C(=O)c2sc3cc([N+](=O)[O-])ccc3c2Cl)CC1)c1ccc(-c2c3nc(c(-c4c(F)cccc4F)c4ccc([nH]4)c(-c4c(F)cccc4F)c4nc(c(-c5c(F)cccc5F)c5ccc2[nH]5)C=C4)C=C3)cc1
REMARK SMILES IDX 5 1 4 2 3 3 2 4 1 5 38 6 39 7 91 8 40 9 90 10 41 11 42 12
REMARK SMILES IDX 43 13 84 14 44 15 89 16 83 17 85 18 45 19 88 20 82 21 81 22
REMARK SMILES IDX 46 24 72 25 55 26 71 27 56 28 59 29 70 30 86 31 57 32 58 33
REMARK SMILES IDX 69 35 87 36 60 37 47 38 48 39 53 40 49 41 50 42 52 43 54 44
REMARK SMILES IDX 51 45 73 46 74 47 79 48 75 49 76 50 78 51 80 52 77 53 61 54
REMARK SMILES IDX 62 55 67 56 63 57 64 58 66 59 68 60 65 61 6 62 7 63 8 64
REMARK SMILES IDX 9 65 10 66 14 67 11 68 13 69 12 70 15 71 16 72 17 73 18 74
REMARK SMILES IDX 37 75 19 76 36 77 20 78 21 79 22 80 23 81 24 82 34 83 25 84
REMARK SMILES IDX 33 85 35 86 26 87 32 88 27 89 31 90 28 91 29 92 30 93
REMARK H PARENT 85 23 59 34
REMARK Flexibility Score: inf
ROOT
ATOM      1  C   UNL A   1      41.810  43.287  20.075  1.00  0.00     0.274 C 
ENDROOT
BRANCH   1   2
ATOM      2  C   UNL A   1      42.569  42.297  21.010  1.00  0.00     0.275 C 
BRANCH   2   3
ATOM      3  O   UNL A   1      42.837  42.695  22.362  1.00  0.00    -0.458 OA
BRANCH   3   4
ATOM      4  C   UNL A   1      41.812  42.487  23.196  1.00  0.00     0.338 C 
ATOM      5  O   UNL A   1      40.660  42.780  22.882  1.00  0.00    -0.246 OA
BRANCH   4   6
ATOM      6  C   UNL A   1      42.320  42.016  24.512  1.00  0.00     0.060 A 
ATOM      7  C   UNL A   1      43.380  42.622  25.198  1.00  0.00     0.016 A 
ATOM      8  C   UNL A   1      41.743  40.887  25.067  1.00  0.00     0.016 A 
ATOM      9  C   UNL A   1      44.077  41.953  26.166  1.00  0.00     0.010 A 
ATOM     10  C   UNL A   1      42.302  40.360  26.191  1.00  0.00     0.010 A 
ATOM     11  C   UNL A   1      43.595  40.719  26.505  1.00  0.00    -0.014 A 
BRANCH  11  12
ATOM     12  C   UNL A   1      44.374  39.820  27.311  1.00  0.00     0.031 A 
ATOM     13  C   UNL A   1      45.548  39.335  26.565  1.00  0.00     0.074 A 
ATOM     14  C   UNL A   1      44.027  39.661  28.606  1.00  0.00     0.049 A 
ATOM     15  N   UNL A   1      45.788  38.134  26.163  1.00  0.00    -0.248 NA
ATOM     16  C   UNL A   1      46.398  40.352  25.919  1.00  0.00     0.031 C 
ATOM     17  C   UNL A   1      42.911  40.291  29.332  1.00  0.00     0.029 A 
ATOM     18  N   UNL A   1      44.695  39.017  29.598  1.00  0.00    -0.354 N 
ATOM     19  C   UNL A   1      47.008  38.228  25.504  1.00  0.00     0.074 A 
ATOM     20  C   UNL A   1      47.162  39.602  25.127  1.00  0.00     0.031 C 
ATOM     21  C   UNL A   1      43.136  40.229  30.662  1.00  0.00     0.029 A 
ATOM     22  C   UNL A   1      44.322  39.432  30.885  1.00  0.00     0.049 A 
ATOM     23  H   UNL A   1      45.376  38.326  29.430  1.00  0.00     0.167 HD
ATOM     24  C   UNL A   1      47.949  37.269  25.712  1.00  0.00     0.037 A 
ATOM     25  C   UNL A   1      45.023  39.162  32.015  1.00  0.00     0.037 A 
ATOM     26  C   UNL A   1      47.334  36.064  26.217  1.00  0.00     0.049 A 
ATOM     27  C   UNL A   1      45.944  38.041  31.676  1.00  0.00     0.074 A 
ATOM     28  C   UNL A   1      46.346  35.221  25.747  1.00  0.00     0.029 A 
ATOM     29  N   UNL A   1      47.417  35.848  27.573  1.00  0.00    -0.354 N 
ATOM     30  N   UNL A   1      45.524  36.834  31.408  1.00  0.00    -0.248 NA
ATOM     31  C   UNL A   1      47.244  38.387  31.116  1.00  0.00     0.031 C 
ATOM     32  C   UNL A   1      45.587  34.859  26.896  1.00  0.00     0.029 A 
ATOM     33  C   UNL A   1      46.201  35.404  28.025  1.00  0.00     0.049 A 
ATOM     34  H   UNL A   1      48.217  35.990  28.128  1.00  0.00     0.167 HD
ATOM     35  C   UNL A   1      46.266  36.442  30.299  1.00  0.00     0.074 A 
ATOM     36  C   UNL A   1      47.362  37.405  30.215  1.00  0.00     0.031 C 
ATOM     37  C   UNL A   1      45.739  35.575  29.384  1.00  0.00     0.037 A 
BRANCH  24  38
ATOM     38  C   UNL A   1      49.409  37.584  25.924  1.00  0.00     0.057 A 
ATOM     39  C   UNL A   1      49.934  38.310  27.017  1.00  0.00     0.134 A 
ATOM     40  C   UNL A   1      50.360  36.877  25.171  1.00  0.00     0.134 A 
ATOM     41  F   UNL A   1      49.170  38.967  27.892  1.00  0.00    -0.206 F 
ATOM     42  C   UNL A   1      51.290  38.316  27.342  1.00  0.00     0.040 A 
ATOM     43  C   UNL A   1      51.712  36.831  25.527  1.00  0.00     0.040 A 
ATOM     44  F   UNL A   1      49.985  36.139  24.116  1.00  0.00    -0.206 F 
ATOM     45  C   UNL A   1      52.180  37.545  26.621  1.00  0.00     0.006 A 
ENDBRANCH  24  38
BRANCH  25  46
ATOM     46  C   UNL A   1      45.161  39.957  33.255  1.00  0.00     0.057 A 
ATOM     47  C   UNL A   1      44.175  39.945  34.257  1.00  0.00     0.134 A 
ATOM     48  C   UNL A   1      46.136  40.959  33.365  1.00  0.00     0.134 A 
ATOM     49  F   UNL A   1      43.159  39.070  34.218  1.00  0.00    -0.206 F 
ATOM     50  C   UNL A   1      44.142  40.890  35.289  1.00  0.00     0.040 A 
ATOM     51  C   UNL A   1      46.113  41.914  34.390  1.00  0.00     0.040 A 
ATOM     52  F   UNL A   1      47.103  41.070  32.443  1.00  0.00    -0.206 F 
ATOM     53  C   UNL A   1      45.104  41.891  35.349  1.00  0.00     0.006 A 
ENDBRANCH  25  46
BRANCH  37  54
ATOM     54  C   UNL A   1      44.456  34.876  29.752  1.00  0.00     0.057 A 
ATOM     55  C   UNL A   1      44.534  33.590  30.291  1.00  0.00     0.134 A 
ATOM     56  C   UNL A   1      43.170  35.366  29.469  1.00  0.00     0.134 A 
ATOM     57  F   UNL A   1      45.732  33.031  30.526  1.00  0.00    -0.206 F 
ATOM     58  C   UNL A   1      43.393  32.829  30.554  1.00  0.00     0.040 A 
ATOM     59  C   UNL A   1      42.017  34.628  29.758  1.00  0.00     0.040 A 
ATOM     60  F   UNL A   1      42.997  36.545  28.858  1.00  0.00    -0.206 F 
ATOM     61  C   UNL A   1      42.129  33.352  30.301  1.00  0.00     0.006 A 
ENDBRANCH  37  54
ENDBRANCH  11  12
ENDBRANCH   4   6
ENDBRANCH   3   4
ENDBRANCH   2   3
ENDBRANCH   1   2
BRANCH   1  62
ATOM     62  O   UNL A   1      42.185  43.168  18.664  1.00  0.00    -0.462 OA
BRANCH  62  63
ATOM     63  C   UNL A   1      42.353  44.338  17.991  1.00  0.00     0.310 C 
ATOM     64  O   UNL A   1      41.479  44.760  17.234  1.00  0.00    -0.252 OA
BRANCH  63  65
ATOM     65  C   UNL A   1      43.672  45.153  18.266  1.00  0.00     0.115 C 
ATOM     66  C   UNL A   1      44.393  45.336  16.879  1.00  0.00     0.043 C 
ATOM     67  C   UNL A   1      44.677  45.143  19.560  1.00  0.00     0.097 C 
ATOM     68  C   UNL A   1      45.812  45.795  16.930  1.00  0.00    -0.030 C 
ATOM     69  C   UNL A   1      45.519  46.448  19.297  1.00  0.00     0.041 C 
ATOM     70  C   UNL A   1      46.336  46.322  18.041  1.00  0.00    -0.030 C 
BRANCH  67  71
ATOM     71  C   UNL A   1      45.842  44.159  20.315  1.00  0.00     0.227 C 
ATOM     72  O   UNL A   1      46.356  43.249  19.638  1.00  0.00    -0.275 OA
ATOM     73  N   UNL A   1      46.410  44.318  21.594  1.00  0.00    -0.339 N 
ATOM     74  C   UNL A   1      47.859  44.632  21.687  1.00  0.00     0.141 C 
ATOM     75  C   UNL A   1      46.146  43.267  22.581  1.00  0.00     0.141 C 
ATOM     76  C   UNL A   1      48.283  45.155  23.087  1.00  0.00     0.141 C 
ATOM     77  C   UNL A   1      46.431  43.708  24.040  1.00  0.00     0.141 C 
ATOM     78  N   UNL A   1      47.580  44.606  24.268  1.00  0.00    -0.334 N 
ATOM     79  C   UNL A   1      47.878  45.238  25.513  1.00  0.00     0.265 C 
ATOM     80  O   UNL A   1      48.691  46.168  25.525  1.00  0.00    -0.268 OA
BRANCH  79  81
ATOM     81  C   UNL A   1      47.186  44.857  26.750  1.00  0.00     0.112 A 
ATOM     82  S   UNL A   1      46.043  45.971  27.418  1.00  0.00    -0.128 S 
ATOM     83  C   UNL A   1      47.385  43.830  27.650  1.00  0.00     0.072 A 
ATOM     84  C   UNL A   1      45.560  44.899  28.673  1.00  0.00     0.043 A 
ATOM     85  C   UNL A   1      46.374  43.765  28.683  1.00  0.00     0.012 A 
ATOM     86  Cl  UNL A   1      48.706  42.731  27.640  1.00  0.00    -0.082 Cl
ATOM     87  C   UNL A   1      44.522  45.091  29.615  1.00  0.00     0.105 A 
ATOM     88  C   UNL A   1      46.124  42.782  29.679  1.00  0.00     0.018 A 
ATOM     89  C   UNL A   1      44.335  44.110  30.601  1.00  0.00     0.270 A 
ATOM     90  C   UNL A   1      45.115  42.957  30.630  1.00  0.00     0.086 A 
BRANCH  89  91
ATOM     91  N   UNL A   1      43.314  44.307  31.638  1.00  0.00     0.062 N 
ATOM     92  O   UNL A   1      42.534  43.372  31.868  1.00  0.00    -0.258 OA
ATOM     93  O   UNL A   1      43.303  45.395  32.231  1.00  0.00    -0.258 OA
ENDBRANCH  89  91
ENDBRANCH  79  81
ENDBRANCH  67  71
ENDBRANCH  63  65
ENDBRANCH  62  63
ENDBRANCH   1  62
TORSDOF 14
ENDMDL
MODEL 3
REMARK VINA RESULT:     -12.1      5.266     11.054
REMARK SMILES O=C(OCCOC(=O)[C@@H]1CC=CC[C@@H]1C(=O)N1CCN(C(=O)c2sc3cc([N+](=O)[O-])ccc3c2Cl)CC1)c1ccc(-c2c3nc(c(-c4c(F)cccc4F)c4ccc([nH]4)c(-c4c(F)cccc4F)c4nc(c(-c5c(F)cccc5F)c5ccc2[nH]5)C=C4)C=C3)cc1
REMARK SMILES IDX 5 1 4 2 3 3 2 4 1 5 38 6 39 7 91 8 40 9 90 10 41 11 42 12
REMARK SMILES IDX 43 13 84 14 44 15 89 16 83 17 85 18 45 19 88 20 82 21 81 22
REMARK SMILES IDX 46 24 72 25 55 26 71 27 56 28 59 29 70 30 86 31 57 32 58 33
REMARK SMILES IDX 69 35 87 36 60 37 47 38 48 39 53 40 49 41 50 42 52 43 54 44
REMARK SMILES IDX 51 45 73 46 74 47 79 48 75 49 76 50 78 51 80 52 77 53 61 54
REMARK SMILES IDX 62 55 67 56 63 57 64 58 66 59 68 60 65 61 6 62 7 63 8 64
REMARK SMILES IDX 9 65 10 66 14 67 11 68 13 69 12 70 15 71 16 72 17 73 18 74
REMARK SMILES IDX 37 75 19 76 36 77 20 78 21 79 22 80 23 81 24 82 34 83 25 84
REMARK SMILES IDX 33 85 35 86 26 87 32 88 27 89 31 90 28 91 29 92 30 93
REMARK H PARENT 85 23 59 34
REMARK Flexibility Score: inf
ROOT
ATOM      1  C   UNL A   1      47.022  34.234  26.626  1.00  0.00     0.274 C 
ENDROOT
BRANCH   1   2
ATOM      2  C   UNL A   1      46.827  35.616  27.320  1.00  0.00     0.275 C 
BRANCH   2   3
ATOM      3  O   UNL A   1      45.552  35.920  27.902  1.00  0.00    -0.458 OA
BRANCH   3   4
ATOM      4  C   UNL A   1      45.546  35.869  29.239  1.00  0.00     0.338 C 
ATOM      5  O   UNL A   1      46.583  35.983  29.889  1.00  0.00    -0.246 OA
BRANCH   4   6
ATOM      6  C   UNL A   1      44.182  35.529  29.725  1.00  0.00     0.060 A 
ATOM      7  C   UNL A   1      43.603  36.091  30.870  1.00  0.00     0.016 A 
ATOM      8  C   UNL A   1      43.464  34.570  29.034  1.00  0.00     0.016 A 
ATOM      9  C   UNL A   1      42.557  35.484  31.510  1.00  0.00     0.010 A 
ATOM     10  C   UNL A   1      42.283  34.141  29.558  1.00  0.00     0.010 A 
ATOM     11  C   UNL A   1      42.039  34.378  30.893  1.00  0.00    -0.014 A 
BRANCH  11  12
ATOM     12  C   UNL A   1      41.122  33.513  31.582  1.00  0.00     0.031 A 
ATOM     13  C   UNL A   1      39.782  33.584  30.975  1.00  0.00     0.074 A 
ATOM     14  C   UNL A   1      41.613  32.697  32.540  1.00  0.00     0.049 A 
ATOM     15  N   UNL A   1      38.702  34.055  31.496  1.00  0.00    -0.248 NA
ATOM     16  C   UNL A   1      39.699  33.404  29.513  1.00  0.00     0.031 C 
ATOM     17  C   UNL A   1      43.004  32.576  33.006  1.00  0.00     0.029 A 
ATOM     18  N   UNL A   1      40.994  31.683  33.198  1.00  0.00    -0.354 N 
ATOM     19  C   UNL A   1      37.742  33.897  30.505  1.00  0.00     0.074 A 
ATOM     20  C   UNL A   1      38.451  33.798  29.263  1.00  0.00     0.031 C 
ATOM     21  C   UNL A   1      43.174  31.398  33.642  1.00  0.00     0.029 A 
ATOM     22  C   UNL A   1      41.884  30.754  33.759  1.00  0.00     0.049 A 
ATOM     23  H   UNL A   1      40.015  31.606  33.275  1.00  0.00     0.167 HD
ATOM     24  C   UNL A   1      36.508  33.438  30.844  1.00  0.00     0.037 A 
ATOM     25  C   UNL A   1      41.530  29.525  34.211  1.00  0.00     0.037 A 
ATOM     26  C   UNL A   1      36.265  33.647  32.252  1.00  0.00     0.049 A 
ATOM     27  C   UNL A   1      40.052  29.554  34.387  1.00  0.00     0.074 A 
ATOM     28  C   UNL A   1      36.253  34.760  33.069  1.00  0.00     0.029 A 
ATOM     29  N   UNL A   1      36.437  32.561  33.078  1.00  0.00    -0.354 N 
ATOM     30  N   UNL A   1      39.460  30.280  35.298  1.00  0.00    -0.248 NA
ATOM     31  C   UNL A   1      39.232  29.215  33.232  1.00  0.00     0.031 C 
ATOM     32  C   UNL A   1      36.851  34.335  34.290  1.00  0.00     0.029 A 
ATOM     33  C   UNL A   1      37.102  32.964  34.207  1.00  0.00     0.049 A 
ATOM     34  H   UNL A   1      36.133  31.644  32.890  1.00  0.00     0.167 HD
ATOM     35  C   UNL A   1      38.380  30.858  34.639  1.00  0.00     0.074 A 
ATOM     36  C   UNL A   1      38.244  30.103  33.394  1.00  0.00     0.031 C 
ATOM     37  C   UNL A   1      37.910  32.083  35.020  1.00  0.00     0.037 A 
BRANCH  24  38
ATOM     38  C   UNL A   1      35.769  32.397  30.041  1.00  0.00     0.057 A 
ATOM     39  C   UNL A   1      34.629  32.643  29.243  1.00  0.00     0.134 A 
ATOM     40  C   UNL A   1      36.396  31.162  29.811  1.00  0.00     0.134 A 
ATOM     41  F   UNL A   1      33.960  33.799  29.262  1.00  0.00    -0.206 F 
ATOM     42  C   UNL A   1      34.164  31.743  28.285  1.00  0.00     0.040 A 
ATOM     43  C   UNL A   1      35.971  30.282  28.811  1.00  0.00     0.040 A 
ATOM     44  F   UNL A   1      37.496  30.816  30.497  1.00  0.00    -0.206 F 
ATOM     45  C   UNL A   1      34.856  30.574  28.038  1.00  0.00     0.006 A 
ENDBRANCH  24  38
BRANCH  25  46
ATOM     46  C   UNL A   1      42.309  28.267  34.236  1.00  0.00     0.057 A 
ATOM     47  C   UNL A   1      42.870  27.766  35.424  1.00  0.00     0.134 A 
ATOM     48  C   UNL A   1      42.752  27.668  33.048  1.00  0.00     0.134 A 
ATOM     49  F   UNL A   1      42.565  28.304  36.614  1.00  0.00    -0.206 F 
ATOM     50  C   UNL A   1      43.836  26.753  35.429  1.00  0.00     0.040 A 
ATOM     51  C   UNL A   1      43.721  26.657  33.037  1.00  0.00     0.040 A 
ATOM     52  F   UNL A   1      42.297  28.096  31.862  1.00  0.00    -0.206 F 
ATOM     53  C   UNL A   1      44.277  26.205  34.231  1.00  0.00     0.006 A 
ENDBRANCH  25  46
BRANCH  37  54
ATOM     54  C   UNL A   1      38.430  32.651  36.316  1.00  0.00     0.057 A 
ATOM     55  C   UNL A   1      39.494  33.554  36.262  1.00  0.00     0.134 A 
ATOM     56  C   UNL A   1      38.013  32.238  37.593  1.00  0.00     0.134 A 
ATOM     57  F   UNL A   1      39.988  33.943  35.076  1.00  0.00    -0.206 F 
ATOM     58  C   UNL A   1      40.107  34.041  37.418  1.00  0.00     0.040 A 
ATOM     59  C   UNL A   1      38.598  32.742  38.759  1.00  0.00     0.040 A 
ATOM     60  F   UNL A   1      37.071  31.299  37.743  1.00  0.00    -0.206 F 
ATOM     61  C   UNL A   1      39.651  33.646  38.673  1.00  0.00     0.006 A 
ENDBRANCH  37  54
ENDBRANCH  11  12
ENDBRANCH   4   6
ENDBRANCH   3   4
ENDBRANCH   2   3
ENDBRANCH   1   2
BRANCH   1  62
ATOM     62  O   UNL A   1      45.928  33.868  25.724  1.00  0.00    -0.462 OA
BRANCH  62  63
ATOM     63  C   UNL A   1      45.186  32.789  26.093  1.00  0.00     0.310 C 
ATOM     64  O   UNL A   1      44.095  32.567  25.568  1.00  0.00    -0.252 OA
BRANCH  63  65
ATOM     65  C   UNL A   1      45.804  31.812  27.161  1.00  0.00     0.115 C 
ATOM     66  C   UNL A   1      46.691  30.776  26.373  1.00  0.00     0.043 C 
ATOM     67  C   UNL A   1      45.183  31.245  28.567  1.00  0.00     0.097 C 
ATOM     68  C   UNL A   1      47.118  29.564  27.131  1.00  0.00    -0.030 C 
ATOM     69  C   UNL A   1      46.476  30.661  29.253  1.00  0.00     0.041 C 
ATOM     70  C   UNL A   1      47.033  29.508  28.464  1.00  0.00    -0.030 C 
BRANCH  67  71
ATOM     71  C   UNL A   1      44.001  30.167  29.146  1.00  0.00     0.227 C 
ATOM     72  O   UNL A   1      43.492  30.410  30.256  1.00  0.00    -0.275 OA
ATOM     73  N   UNL A   1      43.415  29.081  28.468  1.00  0.00    -0.339 N 
ATOM     74  C   UNL A   1      41.966  29.151  28.144  1.00  0.00     0.141 C 
ATOM     75  C   UNL A   1      43.657  27.741  29.009  1.00  0.00     0.141 C 
ATOM     76  C   UNL A   1      41.525  28.105  27.084  1.00  0.00     0.141 C 
ATOM     77  C   UNL A   1      43.353  26.604  27.999  1.00  0.00     0.141 C 
ATOM     78  N   UNL A   1      42.207  26.791  27.088  1.00  0.00    -0.334 N 
ATOM     79  C   UNL A   1      41.895  25.930  25.995  1.00  0.00     0.265 C 
ATOM     80  O   UNL A   1      41.087  26.321  25.145  1.00  0.00    -0.268 OA
BRANCH  79  81
ATOM     81  C   UNL A   1      42.565  24.636  25.822  1.00  0.00     0.112 A 
ATOM     82  S   UNL A   1      41.808  23.232  26.493  1.00  0.00    -0.128 S 
ATOM     83  C   UNL A   1      43.825  24.292  25.377  1.00  0.00     0.072 A 
ATOM     84  C   UNL A   1      42.977  22.151  25.843  1.00  0.00     0.043 A 
ATOM     85  C   UNL A   1      44.025  22.864  25.256  1.00  0.00     0.012 A 
ATOM     86  Cl  UNL A   1      45.100  25.391  25.031  1.00  0.00    -0.082 Cl
ATOM     87  C   UNL A   1      42.961  20.737  25.891  1.00  0.00     0.105 A 
ATOM     88  C   UNL A   1      45.093  22.119  24.689  1.00  0.00     0.018 A 
ATOM     89  C   UNL A   1      44.055  20.045  25.349  1.00  0.00     0.270 A 
ATOM     90  C   UNL A   1      45.107  20.722  24.738  1.00  0.00     0.086 A 
BRANCH  89  91
ATOM     91  N   UNL A   1      44.108  18.581  25.442  1.00  0.00     0.062 N 
ATOM     92  O   UNL A   1      45.223  18.043  25.499  1.00  0.00    -0.258 OA
ATOM     93  O   UNL A   1      43.029  17.969  25.472  1.00  0.00    -0.258 OA
ENDBRANCH  89  91
ENDBRANCH  79  81
ENDBRANCH  67  71
ENDBRANCH  63  65
ENDBRANCH  62  63
ENDBRANCH   1  62
TORSDOF 14
ENDMDL
