MODEL 1
REMARK VINA RESULT:     -10.9      0.000      0.000
REMARK SMILES C[C@H]1C[N@H+]2CCCC[C@@H]2CN1C(=O)[C@H]([NH3+])CC(=O)OCCOC(=O)c1ccc(-c2c3nc(c(-c4c(F)cccc4F)c4ccc([nH]4)c(-c4c(F)cccc4F)c4nc(c(-c5c(F)cccc5F)c5ccc2[nH]5)C=C4)C=C3)cc1
REMARK SMILES IDX 20 1 19 2 17 3 18 4 16 5 14 6 12 7 13 8 11 9 1 10 2 11 3 12
REMARK SMILES IDX 4 13 10 14 5 15 9 16 6 18 8 19 7 20 15 21 21 25 22 26 23 27
REMARK SMILES IDX 24 28 25 29 26 30 78 31 27 32 77 33 28 34 29 35 30 36 71 37
REMARK SMILES IDX 31 38 76 39 70 40 72 41 32 42 75 43 69 44 68 45 33 47 59 48
REMARK SMILES IDX 42 49 58 50 43 51 46 52 57 53 73 54 44 55 45 56 56 58 74 59
REMARK SMILES IDX 47 60 34 61 35 62 40 63 36 64 37 65 39 66 41 67 38 68 60 69
REMARK SMILES IDX 61 70 66 71 62 72 63 73 65 74 67 75 64 76 48 77 49 78 54 79
REMARK SMILES IDX 50 80 51 81 53 82 55 83 52 84
REMARK H PARENT 4 17 15 22 15 23 15 24 72 46 46 57
REMARK Flexibility Score: inf
ROOT
ATOM      1  C   UNL A   1      35.163  34.630  34.132  1.00  0.00     0.274 C 
ENDROOT
BRANCH   1   2
ATOM      2  O   UNL A   1      34.924  35.811  33.348  1.00  0.00    -0.462 OA
BRANCH   2   3
ATOM      3  C   UNL A   1      33.903  35.730  32.467  1.00  0.00     0.312 C 
ATOM      4  O   UNL A   1      32.770  36.159  32.672  1.00  0.00    -0.252 OA
BRANCH   3   5
ATOM      5  C   UNL A   1      34.215  34.956  31.220  1.00  0.00     0.198 C 
BRANCH   5   6
ATOM      6  C   UNL A   1      33.343  35.166  29.979  1.00  0.00     0.282 C 
BRANCH   6   7
ATOM      7  C   UNL A   1      34.143  34.910  28.652  1.00  0.00     0.282 C 
ATOM      8  O   UNL A   1      34.508  35.888  27.996  1.00  0.00    -0.268 OA
BRANCH   7   9
ATOM      9  N   UNL A   1      34.460  33.590  28.279  1.00  0.00    -0.323 N 
ATOM     10  C   UNL A   1      36.934  33.773  28.943  1.00  0.00     0.037 C 
ATOM     11  C   UNL A   1      35.868  33.166  28.019  1.00  0.00     0.137 C 
ATOM     12  C   UNL A   1      36.035  31.609  28.097  1.00  0.00     0.287 C 
ATOM     13  N   UNL A   1      35.039  30.843  27.321  1.00  0.00    -0.329 N 
ATOM     14  C   UNL A   1      33.468  32.735  27.630  1.00  0.00     0.185 C 
ATOM     15  C   UNL A   1      35.230  29.394  27.499  1.00  0.00     0.262 C 
ATOM     16  C   UNL A   1      33.691  31.229  27.762  1.00  0.00     0.203 C 
ATOM     17  H   UNL A   1      35.156  31.055  26.330  1.00  0.00     0.348 HD
ATOM     18  C   UNL A   1      34.194  28.590  26.704  1.00  0.00     0.062 C 
ATOM     19  C   UNL A   1      32.619  30.512  26.926  1.00  0.00     0.067 C 
ATOM     20  C   UNL A   1      32.766  29.005  27.040  1.00  0.00     0.012 C 
ENDBRANCH   7   9
ENDBRANCH   6   7
BRANCH   6  21
ATOM     21  N   UNL A   1      32.651  36.476  29.889  1.00  0.00    -0.347 N 
ATOM     22  H   UNL A   1      31.795  36.446  30.444  1.00  0.00     0.345 HD
ATOM     23  H   UNL A   1      32.417  36.670  28.915  1.00  0.00     0.345 HD
ATOM     24  H   UNL A   1      33.262  37.209  30.246  1.00  0.00     0.345 HD
ENDBRANCH   6  21
ENDBRANCH   5   6
ENDBRANCH   3   5
ENDBRANCH   2   3
ENDBRANCH   1   2
BRANCH   1  25
ATOM     25  C   UNL A   1      36.564  34.059  33.893  1.00  0.00     0.275 C 
BRANCH  25  26
ATOM     26  O   UNL A   1      36.534  32.725  33.352  1.00  0.00    -0.458 OA
BRANCH  26  27
ATOM     27  C   UNL A   1      37.418  31.863  33.910  1.00  0.00     0.338 C 
ATOM     28  O   UNL A   1      37.475  31.513  35.076  1.00  0.00    -0.246 OA
BRANCH  27  29
ATOM     29  C   UNL A   1      38.279  31.279  32.874  1.00  0.00     0.060 A 
ATOM     30  C   UNL A   1      39.450  30.629  33.274  1.00  0.00     0.016 A 
ATOM     31  C   UNL A   1      38.006  31.485  31.523  1.00  0.00     0.016 A 
ATOM     32  C   UNL A   1      40.373  30.196  32.327  1.00  0.00     0.010 A 
ATOM     33  C   UNL A   1      38.931  31.049  30.571  1.00  0.00     0.010 A 
ATOM     34  C   UNL A   1      40.126  30.420  30.969  1.00  0.00    -0.014 A 
BRANCH  34  35
ATOM     35  C   UNL A   1      41.151  30.080  29.961  1.00  0.00     0.031 A 
ATOM     36  C   UNL A   1      41.136  28.715  29.339  1.00  0.00     0.074 A 
ATOM     37  C   UNL A   1      42.090  30.977  29.615  1.00  0.00     0.049 A 
ATOM     38  N   UNL A   1      42.056  28.119  28.628  1.00  0.00    -0.248 NA
ATOM     39  C   UNL A   1      39.922  27.909  29.555  1.00  0.00     0.031 C 
ATOM     40  C   UNL A   1      42.155  32.361  30.086  1.00  0.00     0.029 A 
ATOM     41  N   UNL A   1      43.183  30.849  28.796  1.00  0.00    -0.354 N 
ATOM     42  C   UNL A   1      41.557  26.851  28.356  1.00  0.00     0.074 A 
ATOM     43  C   UNL A   1      40.247  26.769  28.963  1.00  0.00     0.031 C 
ATOM     44  C   UNL A   1      43.242  32.949  29.561  1.00  0.00     0.029 A 
ATOM     45  C   UNL A   1      43.980  31.966  28.774  1.00  0.00     0.049 A 
ATOM     46  H   UNL A   1      43.376  30.036  28.275  1.00  0.00     0.167 HD
ATOM     47  C   UNL A   1      42.153  25.849  27.670  1.00  0.00     0.037 A 
ATOM     48  C   UNL A   1      45.195  32.153  28.226  1.00  0.00     0.037 A 
ATOM     49  C   UNL A   1      43.440  25.962  27.038  1.00  0.00     0.049 A 
ATOM     50  C   UNL A   1      45.857  31.009  27.509  1.00  0.00     0.074 A 
ATOM     51  C   UNL A   1      44.136  25.005  26.319  1.00  0.00     0.029 A 
ATOM     52  N   UNL A   1      44.216  27.111  27.038  1.00  0.00    -0.354 N 
ATOM     53  N   UNL A   1      45.410  29.794  27.305  1.00  0.00    -0.248 NA
ATOM     54  C   UNL A   1      47.201  31.255  26.966  1.00  0.00     0.031 C 
ATOM     55  C   UNL A   1      45.347  25.571  25.904  1.00  0.00     0.029 A 
ATOM     56  C   UNL A   1      45.388  26.887  26.337  1.00  0.00     0.049 A 
ATOM     57  H   UNL A   1      43.970  27.959  27.472  1.00  0.00     0.167 HD
ATOM     58  C   UNL A   1      46.401  29.140  26.586  1.00  0.00     0.074 A 
ATOM     59  C   UNL A   1      47.473  30.093  26.388  1.00  0.00     0.031 C 
ATOM     60  C   UNL A   1      46.424  27.864  26.130  1.00  0.00     0.037 A 
BRANCH  47  61
ATOM     61  C   UNL A   1      41.442  24.533  27.605  1.00  0.00     0.057 A 
ATOM     62  C   UNL A   1      40.382  24.302  26.721  1.00  0.00     0.134 A 
ATOM     63  C   UNL A   1      41.856  23.466  28.413  1.00  0.00     0.134 A 
ATOM     64  F   UNL A   1      39.929  25.289  25.932  1.00  0.00    -0.206 F 
ATOM     65  C   UNL A   1      39.752  23.059  26.649  1.00  0.00     0.040 A 
ATOM     66  C   UNL A   1      41.247  22.213  28.337  1.00  0.00     0.040 A 
ATOM     67  F   UNL A   1      42.866  23.622  29.282  1.00  0.00    -0.206 F 
ATOM     68  C   UNL A   1      40.190  22.007  27.454  1.00  0.00     0.006 A 
ENDBRANCH  47  61
BRANCH  48  69
ATOM     69  C   UNL A   1      45.887  33.457  28.377  1.00  0.00     0.057 A 
ATOM     70  C   UNL A   1      45.655  34.506  27.481  1.00  0.00     0.134 A 
ATOM     71  C   UNL A   1      46.805  33.680  29.409  1.00  0.00     0.134 A 
ATOM     72  F   UNL A   1      44.804  34.343  26.457  1.00  0.00    -0.206 F 
ATOM     73  C   UNL A   1      46.323  35.727  27.598  1.00  0.00     0.040 A 
ATOM     74  C   UNL A   1      47.462  34.903  29.553  1.00  0.00     0.040 A 
ATOM     75  F   UNL A   1      47.072  32.714  30.300  1.00  0.00    -0.206 F 
ATOM     76  C   UNL A   1      47.225  35.929  28.640  1.00  0.00     0.006 A 
ENDBRANCH  48  69
BRANCH  60  77
ATOM     77  C   UNL A   1      47.615  27.446  25.326  1.00  0.00     0.057 A 
ATOM     78  C   UNL A   1      47.682  27.652  23.945  1.00  0.00     0.134 A 
ATOM     79  C   UNL A   1      48.731  26.882  25.958  1.00  0.00     0.134 A 
ATOM     80  F   UNL A   1      46.639  28.178  23.284  1.00  0.00    -0.206 F 
ATOM     81  C   UNL A   1      48.818  27.302  23.213  1.00  0.00     0.040 A 
ATOM     82  C   UNL A   1      49.878  26.545  25.241  1.00  0.00     0.040 A 
ATOM     83  F   UNL A   1      48.727  26.666  27.282  1.00  0.00    -0.206 F 
ATOM     84  C   UNL A   1      49.922  26.753  23.864  1.00  0.00     0.006 A 
ENDBRANCH  60  77
ENDBRANCH  34  35
ENDBRANCH  27  29
ENDBRANCH  26  27
ENDBRANCH  25  26
ENDBRANCH   1  25
TORSDOF 15
ENDMDL
MODEL 2
REMARK VINA RESULT:     -10.8      5.768     11.029
REMARK SMILES C[C@H]1C[N@H+]2CCCC[C@@H]2CN1C(=O)[C@H]([NH3+])CC(=O)OCCOC(=O)c1ccc(-c2c3nc(c(-c4c(F)cccc4F)c4ccc([nH]4)c(-c4c(F)cccc4F)c4nc(c(-c5c(F)cccc5F)c5ccc2[nH]5)C=C4)C=C3)cc1
REMARK SMILES IDX 20 1 19 2 17 3 18 4 16 5 14 6 12 7 13 8 11 9 1 10 2 11 3 12
REMARK SMILES IDX 4 13 10 14 5 15 9 16 6 18 8 19 7 20 15 21 21 25 22 26 23 27
REMARK SMILES IDX 24 28 25 29 26 30 78 31 27 32 77 33 28 34 29 35 30 36 71 37
REMARK SMILES IDX 31 38 76 39 70 40 72 41 32 42 75 43 69 44 68 45 33 47 59 48
REMARK SMILES IDX 42 49 58 50 43 51 46 52 57 53 73 54 44 55 45 56 56 58 74 59
REMARK SMILES IDX 47 60 34 61 35 62 40 63 36 64 37 65 39 66 41 67 38 68 60 69
REMARK SMILES IDX 61 70 66 71 62 72 63 73 65 74 67 75 64 76 48 77 49 78 54 79
REMARK SMILES IDX 50 80 51 81 53 82 55 83 52 84
REMARK H PARENT 4 17 15 22 15 23 15 24 72 46 46 57
REMARK Flexibility Score: inf
ROOT
ATOM      1  C   UNL A   1      40.546  20.615  26.115  1.00  0.00     0.274 C 
ENDROOT
BRANCH   1   2
ATOM      2  O   UNL A   1      39.659  21.470  26.856  1.00  0.00    -0.462 OA
BRANCH   2   3
ATOM      3  C   UNL A   1      38.751  22.149  26.120  1.00  0.00     0.312 C 
ATOM      4  O   UNL A   1      38.486  23.340  26.265  1.00  0.00    -0.252 OA
BRANCH   3   5
ATOM      5  C   UNL A   1      37.977  21.303  25.151  1.00  0.00     0.198 C 
BRANCH   5   6
ATOM      6  C   UNL A   1      36.447  21.365  25.171  1.00  0.00     0.282 C 
BRANCH   6   7
ATOM      7  C   UNL A   1      35.891  22.421  24.151  1.00  0.00     0.282 C 
ATOM      8  O   UNL A   1      36.505  22.587  23.095  1.00  0.00    -0.268 OA
BRANCH   7   9
ATOM      9  N   UNL A   1      34.695  23.103  24.445  1.00  0.00    -0.323 N 
ATOM     10  C   UNL A   1      33.180  21.083  23.975  1.00  0.00     0.037 C 
ATOM     11  C   UNL A   1      33.371  22.606  23.963  1.00  0.00     0.137 C 
ATOM     12  C   UNL A   1      32.184  23.218  24.784  1.00  0.00     0.287 C 
ATOM     13  N   UNL A   1      32.237  24.686  24.944  1.00  0.00    -0.329 N 
ATOM     14  C   UNL A   1      34.702  24.533  24.749  1.00  0.00     0.185 C 
ATOM     15  C   UNL A   1      31.121  25.168  25.775  1.00  0.00     0.262 C 
ATOM     16  C   UNL A   1      33.518  25.052  25.563  1.00  0.00     0.203 C 
ATOM     17  H   UNL A   1      32.155  25.123  24.025  1.00  0.00     0.348 HD
ATOM     18  C   UNL A   1      31.173  26.689  25.955  1.00  0.00     0.062 C 
ATOM     19  C   UNL A   1      33.651  26.579  25.678  1.00  0.00     0.067 C 
ATOM     20  C   UNL A   1      32.516  27.156  26.506  1.00  0.00     0.012 C 
ENDBRANCH   7   9
ENDBRANCH   6   7
BRANCH   6  21
ATOM     21  N   UNL A   1      35.826  21.593  26.501  1.00  0.00    -0.347 N 
ATOM     22  H   UNL A   1      34.860  21.897  26.376  1.00  0.00     0.345 HD
ATOM     23  H   UNL A   1      36.347  22.314  27.000  1.00  0.00     0.345 HD
ATOM     24  H   UNL A   1      35.844  20.727  27.037  1.00  0.00     0.345 HD
ENDBRANCH   6  21
ENDBRANCH   5   6
ENDBRANCH   3   5
ENDBRANCH   2   3
ENDBRANCH   1   2
BRANCH   1  25
ATOM     25  C   UNL A   1      41.974  21.166  26.079  1.00  0.00     0.275 C 
BRANCH  25  26
ATOM     26  O   UNL A   1      42.068  22.418  25.375  1.00  0.00    -0.458 OA
BRANCH  26  27
ATOM     27  C   UNL A   1      43.085  23.220  25.772  1.00  0.00     0.338 C 
ATOM     28  O   UNL A   1      44.258  23.143  25.450  1.00  0.00    -0.246 OA
BRANCH  27  29
ATOM     29  C   UNL A   1      42.569  24.323  26.592  1.00  0.00     0.060 A 
ATOM     30  C   UNL A   1      43.201  25.567  26.505  1.00  0.00     0.016 A 
ATOM     31  C   UNL A   1      41.564  24.102  27.531  1.00  0.00     0.016 A 
ATOM     32  C   UNL A   1      42.850  26.597  27.371  1.00  0.00     0.010 A 
ATOM     33  C   UNL A   1      41.209  25.135  28.401  1.00  0.00     0.010 A 
ATOM     34  C   UNL A   1      41.863  26.380  28.337  1.00  0.00    -0.014 A 
BRANCH  34  35
ATOM     35  C   UNL A   1      41.567  27.421  29.344  1.00  0.00     0.031 A 
ATOM     36  C   UNL A   1      42.364  27.454  30.614  1.00  0.00     0.074 A 
ATOM     37  C   UNL A   1      40.589  28.318  29.129  1.00  0.00     0.049 A 
ATOM     38  N   UNL A   1      42.131  28.106  31.722  1.00  0.00    -0.248 NA
ATOM     39  C   UNL A   1      43.587  26.633  30.642  1.00  0.00     0.031 C 
ATOM     40  C   UNL A   1      39.805  28.439  27.899  1.00  0.00     0.029 A 
ATOM     41  N   UNL A   1      40.077  29.289  29.952  1.00  0.00    -0.354 N 
ATOM     42  C   UNL A   1      43.145  27.736  32.596  1.00  0.00     0.074 A 
ATOM     43  C   UNL A   1      44.006  26.815  31.886  1.00  0.00     0.031 C 
ATOM     44  C   UNL A   1      38.898  29.418  28.055  1.00  0.00     0.029 A 
ATOM     45  C   UNL A   1      38.996  29.942  29.414  1.00  0.00     0.049 A 
ATOM     46  H   UNL A   1      40.448  29.496  30.840  1.00  0.00     0.167 HD
ATOM     47  C   UNL A   1      43.325  28.126  33.879  1.00  0.00     0.037 A 
ATOM     48  C   UNL A   1      38.149  30.824  29.976  1.00  0.00     0.037 A 
ATOM     49  C   UNL A   1      42.483  29.074  34.557  1.00  0.00     0.049 A 
ATOM     50  C   UNL A   1      38.343  31.206  31.417  1.00  0.00     0.074 A 
ATOM     51  C   UNL A   1      42.576  29.537  35.858  1.00  0.00     0.029 A 
ATOM     52  N   UNL A   1      41.399  29.715  33.977  1.00  0.00    -0.354 N 
ATOM     53  N   UNL A   1      39.267  30.810  32.259  1.00  0.00    -0.248 NA
ATOM     54  C   UNL A   1      37.365  32.141  31.994  1.00  0.00     0.031 C 
ATOM     55  C   UNL A   1      41.531  30.443  36.072  1.00  0.00     0.029 A 
ATOM     56  C   UNL A   1      40.809  30.566  34.895  1.00  0.00     0.049 A 
ATOM     57  H   UNL A   1      41.094  29.584  33.050  1.00  0.00     0.167 HD
ATOM     58  C   UNL A   1      39.000  31.466  33.453  1.00  0.00     0.074 A 
ATOM     59  C   UNL A   1      37.829  32.288  33.227  1.00  0.00     0.031 C 
ATOM     60  C   UNL A   1      39.663  31.396  34.632  1.00  0.00     0.037 A 
BRANCH  47  61
ATOM     61  C   UNL A   1      44.448  27.497  34.645  1.00  0.00     0.057 A 
ATOM     62  C   UNL A   1      45.712  28.090  34.734  1.00  0.00     0.134 A 
ATOM     63  C   UNL A   1      44.242  26.298  35.340  1.00  0.00     0.134 A 
ATOM     64  F   UNL A   1      45.975  29.231  34.078  1.00  0.00    -0.206 F 
ATOM     65  C   UNL A   1      46.737  27.507  35.480  1.00  0.00     0.040 A 
ATOM     66  C   UNL A   1      45.254  25.716  36.105  1.00  0.00     0.040 A 
ATOM     67  F   UNL A   1      43.053  25.680  35.295  1.00  0.00    -0.206 F 
ATOM     68  C   UNL A   1      46.507  26.320  36.175  1.00  0.00     0.006 A 
ENDBRANCH  47  61
BRANCH  48  69
ATOM     69  C   UNL A   1      37.012  31.368  29.193  1.00  0.00     0.057 A 
ATOM     70  C   UNL A   1      37.027  32.682  28.714  1.00  0.00     0.134 A 
ATOM     71  C   UNL A   1      35.880  30.593  28.917  1.00  0.00     0.134 A 
ATOM     72  F   UNL A   1      38.075  33.481  28.967  1.00  0.00    -0.206 F 
ATOM     73  C   UNL A   1      35.950  33.211  28.000  1.00  0.00     0.040 A 
ATOM     74  C   UNL A   1      34.806  31.101  28.184  1.00  0.00     0.040 A 
ATOM     75  F   UNL A   1      35.805  29.325  29.349  1.00  0.00    -0.206 F 
ATOM     76  C   UNL A   1      34.838  32.417  27.730  1.00  0.00     0.006 A 
ENDBRANCH  48  69
BRANCH  60  77
ATOM     77  C   UNL A   1      39.176  32.270  35.745  1.00  0.00     0.057 A 
ATOM     78  C   UNL A   1      38.282  31.802  36.713  1.00  0.00     0.134 A 
ATOM     79  C   UNL A   1      39.657  33.579  35.878  1.00  0.00     0.134 A 
ATOM     80  F   UNL A   1      37.778  30.561  36.631  1.00  0.00    -0.206 F 
ATOM     81  C   UNL A   1      37.872  32.611  37.773  1.00  0.00     0.040 A 
ATOM     82  C   UNL A   1      39.269  34.390  36.943  1.00  0.00     0.040 A 
ATOM     83  F   UNL A   1      40.522  34.080  34.983  1.00  0.00    -0.206 F 
ATOM     84  C   UNL A   1      38.373  33.907  37.894  1.00  0.00     0.006 A 
ENDBRANCH  60  77
ENDBRANCH  34  35
ENDBRANCH  27  29
ENDBRANCH  26  27
ENDBRANCH  25  26
ENDBRANCH   1  25
TORSDOF 15
ENDMDL
MODEL 3
REMARK VINA RESULT:     -10.7      4.776      9.208
REMARK SMILES C[C@H]1C[N@H+]2CCCC[C@@H]2CN1C(=O)[C@H]([NH3+])CC(=O)OCCOC(=O)c1ccc(-c2c3nc(c(-c4c(F)cccc4F)c4ccc([nH]4)c(-c4c(F)cccc4F)c4nc(c(-c5c(F)cccc5F)c5ccc2[nH]5)C=C4)C=C3)cc1
REMARK SMILES IDX 20 1 19 2 17 3 18 4 16 5 14 6 12 7 13 8 11 9 1 10 2 11 3 12
REMARK SMILES IDX 4 13 10 14 5 15 9 16 6 18 8 19 7 20 15 21 21 25 22 26 23 27
REMARK SMILES IDX 24 28 25 29 26 30 78 31 27 32 77 33 28 34 29 35 30 36 71 37
REMARK SMILES IDX 31 38 76 39 70 40 72 41 32 42 75 43 69 44 68 45 33 47 59 48
REMARK SMILES IDX 42 49 58 50 43 51 46 52 57 53 73 54 44 55 45 56 56 58 74 59
REMARK SMILES IDX 47 60 34 61 35 62 40 63 36 64 37 65 39 66 41 67 38 68 60 69
REMARK SMILES IDX 61 70 66 71 62 72 63 73 65 74 67 75 64 76 48 77 49 78 54 79
REMARK SMILES IDX 50 80 51 81 53 82 55 83 52 84
REMARK H PARENT 4 17 15 22 15 23 15 24 72 46 46 57
REMARK Flexibility Score: inf
ROOT
ATOM      1  C   UNL A   1      34.868  21.346  25.680  1.00  0.00     0.274 C 
ENDROOT
BRANCH   1   2
ATOM      2  O   UNL A   1      33.728  20.500  25.451  1.00  0.00    -0.462 OA
BRANCH   2   3
ATOM      3  C   UNL A   1      32.674  21.092  24.848  1.00  0.00     0.312 C 
ATOM      4  O   UNL A   1      31.645  21.436  25.424  1.00  0.00    -0.252 OA
BRANCH   3   5
ATOM      5  C   UNL A   1      32.793  21.209  23.356  1.00  0.00     0.198 C 
BRANCH   5   6
ATOM      6  C   UNL A   1      32.428  22.534  22.684  1.00  0.00     0.282 C 
BRANCH   6   7
ATOM      7  C   UNL A   1      33.531  23.628  22.910  1.00  0.00     0.282 C 
ATOM      8  O   UNL A   1      34.710  23.307  22.743  1.00  0.00    -0.268 OA
BRANCH   7   9
ATOM      9  N   UNL A   1      33.146  24.941  23.242  1.00  0.00    -0.323 N 
ATOM     10  C   UNL A   1      32.660  25.637  20.818  1.00  0.00     0.037 C 
ATOM     11  C   UNL A   1      33.131  26.034  22.224  1.00  0.00     0.137 C 
ATOM     12  C   UNL A   1      32.239  27.242  22.676  1.00  0.00     0.287 C 
ATOM     13  N   UNL A   1      32.500  27.721  24.049  1.00  0.00    -0.329 N 
ATOM     14  C   UNL A   1      33.252  25.429  24.616  1.00  0.00     0.185 C 
ATOM     15  C   UNL A   1      31.581  28.812  24.412  1.00  0.00     0.262 C 
ATOM     16  C   UNL A   1      32.342  26.599  24.984  1.00  0.00     0.203 C 
ATOM     17  H   UNL A   1      33.453  28.085  24.097  1.00  0.00     0.348 HD
ATOM     18  C   UNL A   1      31.838  29.311  25.839  1.00  0.00     0.062 C 
ATOM     19  C   UNL A   1      32.680  27.034  26.419  1.00  0.00     0.067 C 
ATOM     20  C   UNL A   1      31.785  28.179  26.859  1.00  0.00     0.012 C 
ENDBRANCH   7   9
ENDBRANCH   6   7
BRANCH   6  21
ATOM     21  N   UNL A   1      31.100  23.096  23.041  1.00  0.00    -0.347 N 
ATOM     22  H   UNL A   1      31.083  24.092  22.820  1.00  0.00     0.345 HD
ATOM     23  H   UNL A   1      30.934  22.967  24.039  1.00  0.00     0.345 HD
ATOM     24  H   UNL A   1      30.374  22.616  22.510  1.00  0.00     0.345 HD
ENDBRANCH   6  21
ENDBRANCH   5   6
ENDBRANCH   3   5
ENDBRANCH   2   3
ENDBRANCH   1   2
BRANCH   1  25
ATOM     25  C   UNL A   1      36.158  20.729  25.129  1.00  0.00     0.275 C 
BRANCH  25  26
ATOM     26  O   UNL A   1      37.241  21.675  25.067  1.00  0.00    -0.458 OA
BRANCH  26  27
ATOM     27  C   UNL A   1      38.390  21.264  25.657  1.00  0.00     0.338 C 
ATOM     28  O   UNL A   1      38.904  20.161  25.589  1.00  0.00    -0.246 OA
BRANCH  27  29
ATOM     29  C   UNL A   1      39.043  22.391  26.335  1.00  0.00     0.060 A 
ATOM     30  C   UNL A   1      38.596  23.685  26.053  1.00  0.00     0.016 A 
ATOM     31  C   UNL A   1      40.165  22.186  27.135  1.00  0.00     0.016 A 
ATOM     32  C   UNL A   1      39.280  24.789  26.549  1.00  0.00     0.010 A 
ATOM     33  C   UNL A   1      40.853  23.294  27.635  1.00  0.00     0.010 A 
ATOM     34  C   UNL A   1      40.425  24.599  27.329  1.00  0.00    -0.014 A 
BRANCH  34  35
ATOM     35  C   UNL A   1      41.233  25.760  27.759  1.00  0.00     0.031 A 
ATOM     36  C   UNL A   1      40.593  26.820  28.606  1.00  0.00     0.074 A 
ATOM     37  C   UNL A   1      42.520  25.868  27.387  1.00  0.00     0.049 A 
ATOM     38  N   UNL A   1      41.023  28.020  28.896  1.00  0.00    -0.248 NA
ATOM     39  C   UNL A   1      39.288  26.484  29.201  1.00  0.00     0.031 C 
ATOM     40  C   UNL A   1      43.273  24.862  26.637  1.00  0.00     0.029 A 
ATOM     41  N   UNL A   1      43.416  26.890  27.574  1.00  0.00    -0.354 N 
ATOM     42  C   UNL A   1      40.020  28.602  29.660  1.00  0.00     0.074 A 
ATOM     43  C   UNL A   1      38.968  27.620  29.806  1.00  0.00     0.031 C 
ATOM     44  C   UNL A   1      44.515  25.325  26.414  1.00  0.00     0.029 A 
ATOM     45  C   UNL A   1      44.618  26.680  26.946  1.00  0.00     0.049 A 
ATOM     46  H   UNL A   1      43.217  27.693  28.107  1.00  0.00     0.167 HD
ATOM     47  C   UNL A   1      39.985  29.851  30.180  1.00  0.00     0.037 A 
ATOM     48  C   UNL A   1      45.663  27.512  26.773  1.00  0.00     0.037 A 
ATOM     49  C   UNL A   1      41.058  30.801  30.061  1.00  0.00     0.049 A 
ATOM     50  C   UNL A   1      45.581  28.910  27.320  1.00  0.00     0.074 A 
ATOM     51  C   UNL A   1      41.124  32.095  30.549  1.00  0.00     0.029 A 
ATOM     52  N   UNL A   1      42.260  30.550  29.418  1.00  0.00    -0.354 N 
ATOM     53  N   UNL A   1      44.608  29.478  27.991  1.00  0.00    -0.248 NA
ATOM     54  C   UNL A   1      46.731  29.790  27.067  1.00  0.00     0.031 C 
ATOM     55  C   UNL A   1      42.361  32.635  30.178  1.00  0.00     0.029 A 
ATOM     56  C   UNL A   1      43.074  31.667  29.489  1.00  0.00     0.049 A 
ATOM     57  H   UNL A   1      42.499  29.704  28.975  1.00  0.00     0.167 HD
ATOM     58  C   UNL A   1      45.040  30.769  28.266  1.00  0.00     0.074 A 
ATOM     59  C   UNL A   1      46.362  30.901  27.690  1.00  0.00     0.031 C 
ATOM     60  C   UNL A   1      44.399  31.758  28.934  1.00  0.00     0.037 A 
BRANCH  47  61
ATOM     61  C   UNL A   1      38.735  30.275  30.886  1.00  0.00     0.057 A 
ATOM     62  C   UNL A   1      38.560  30.098  32.263  1.00  0.00     0.134 A 
ATOM     63  C   UNL A   1      37.707  30.911  30.178  1.00  0.00     0.134 A 
ATOM     64  F   UNL A   1      39.502  29.481  32.993  1.00  0.00    -0.206 F 
ATOM     65  C   UNL A   1      37.402  30.529  32.910  1.00  0.00     0.040 A 
ATOM     66  C   UNL A   1      36.553  31.365  30.817  1.00  0.00     0.040 A 
ATOM     67  F   UNL A   1      37.813  31.111  28.856  1.00  0.00    -0.206 F 
ATOM     68  C   UNL A   1      36.397  31.173  32.188  1.00  0.00     0.006 A 
ENDBRANCH  47  61
BRANCH  48  69
ATOM     69  C   UNL A   1      46.853  27.065  26.008  1.00  0.00     0.057 A 
ATOM     70  C   UNL A   1      47.887  26.357  26.629  1.00  0.00     0.134 A 
ATOM     71  C   UNL A   1      46.989  27.345  24.644  1.00  0.00     0.134 A 
ATOM     72  F   UNL A   1      47.823  26.080  27.940  1.00  0.00    -0.206 F 
ATOM     73  C   UNL A   1      49.024  25.957  25.924  1.00  0.00     0.040 A 
ATOM     74  C   UNL A   1      48.109  26.930  23.920  1.00  0.00     0.040 A 
ATOM     75  F   UNL A   1      46.032  28.019  23.990  1.00  0.00    -0.206 F 
ATOM     76  C   UNL A   1      49.133  26.239  24.563  1.00  0.00     0.006 A 
ENDBRANCH  48  69
BRANCH  60  77
ATOM     77  C   UNL A   1      45.140  33.044  29.128  1.00  0.00     0.057 A 
ATOM     78  C   UNL A   1      45.015  34.110  28.232  1.00  0.00     0.134 A 
ATOM     79  C   UNL A   1      45.942  33.233  30.261  1.00  0.00     0.134 A 
ATOM     80  F   UNL A   1      44.271  33.983  27.123  1.00  0.00    -0.206 F 
ATOM     81  C   UNL A   1      45.674  35.321  28.449  1.00  0.00     0.040 A 
ATOM     82  C   UNL A   1      46.589  34.445  30.499  1.00  0.00     0.040 A 
ATOM     83  F   UNL A   1      46.094  32.248  31.160  1.00  0.00    -0.206 F 
ATOM     84  C   UNL A   1      46.457  35.492  29.590  1.00  0.00     0.006 A 
ENDBRANCH  60  77
ENDBRANCH  34  35
ENDBRANCH  27  29
ENDBRANCH  26  27
ENDBRANCH  25  26
ENDBRANCH   1  25
TORSDOF 15
ENDMDL
