MODEL 1
REMARK VINA RESULT:     -10.2      0.000      0.000
REMARK SMILES O=C(OCCOC(=O)c1ccc(-c2c3nc(c(-c4c(F)cccc4F)c4ccc([nH]4)c(-c4c(F)cccc4F)c4nc(c(-c5c(F)cccc5F)c5ccc2[nH]5)C=C4)C=C3)cc1)C1=Cc2c(ccc(Cl)c2Cl)O[C@H]1C(F)(F)F
REMARK SMILES IDX 5 1 4 2 3 3 2 4 1 5 63 6 64 7 74 8 65 9 73 10 66 11 71 12
REMARK SMILES IDX 67 13 69 14 72 15 68 16 70 17 75 18 76 19 77 20 78 21 6 22
REMARK SMILES IDX 7 23 8 24 9 25 10 26 62 27 11 28 61 29 12 30 13 31 14 32
REMARK SMILES IDX 55 33 15 34 60 35 54 36 56 37 16 38 59 39 53 40 52 41 17 43
REMARK SMILES IDX 43 44 26 45 42 46 27 47 30 48 41 49 57 50 28 51 29 52 40 54
REMARK SMILES IDX 58 55 31 56 18 57 19 58 24 59 20 60 21 61 23 62 25 63 22 64
REMARK SMILES IDX 44 65 45 66 50 67 46 68 47 69 49 70 51 71 48 72 32 73 33 74
REMARK SMILES IDX 38 75 34 76 35 77 37 78 39 79 36 80
REMARK H PARENT 56 42 30 53
REMARK Flexibility Score: inf
ROOT
ATOM      1  C   UNL A   1      33.764  33.318  28.360  1.00  0.00     0.275 C 
ENDROOT
BRANCH   1   2
ATOM      2  C   UNL A   1      34.177  33.809  29.755  1.00  0.00     0.275 C 
BRANCH   2   3
ATOM      3  O   UNL A   1      34.419  32.731  30.689  1.00  0.00    -0.459 OA
BRANCH   3   4
ATOM      4  C   UNL A   1      35.429  32.554  31.571  1.00  0.00     0.338 C 
ATOM      5  O   UNL A   1      35.781  31.409  31.844  1.00  0.00    -0.246 OA
BRANCH   4   6
ATOM      6  C   UNL A   1      36.271  33.682  32.032  1.00  0.00     0.087 C 
ATOM      7  C   UNL A   1      37.230  34.338  31.370  1.00  0.00     0.029 C 
ATOM      8  C   UNL A   1      35.974  34.139  33.451  1.00  0.00     0.316 C 
ATOM      9  C   UNL A   1      38.463  34.524  32.138  1.00  0.00     0.037 A 
ATOM     10  O   UNL A   1      37.104  34.747  34.138  1.00  0.00    -0.475 OA
ATOM     11  C   UNL A   1      38.321  34.684  33.518  1.00  0.00     0.129 A 
ATOM     12  C   UNL A   1      39.759  34.404  31.585  1.00  0.00     0.070 A 
ATOM     13  C   UNL A   1      39.438  34.771  34.342  1.00  0.00     0.049 A 
ATOM     14  C   UNL A   1      40.881  34.437  32.429  1.00  0.00     0.060 A 
ATOM     15  Cl  UNL A   1      39.970  34.151  29.877  1.00  0.00    -0.082 Cl
ATOM     16  C   UNL A   1      40.715  34.627  33.803  1.00  0.00     0.026 A 
ATOM     17  Cl  UNL A   1      42.497  34.216  31.849  1.00  0.00    -0.083 Cl
BRANCH   8  18
ATOM     18  C   UNL A   1      34.804  35.160  33.441  1.00  0.00     0.430 C 
ATOM     19  F   UNL A   1      33.628  34.610  33.072  1.00  0.00    -0.167 F 
ATOM     20  F   UNL A   1      34.616  35.706  34.666  1.00  0.00    -0.167 F 
ATOM     21  F   UNL A   1      35.039  36.183  32.580  1.00  0.00    -0.167 F 
ENDBRANCH   8  18
ENDBRANCH   4   6
ENDBRANCH   3   4
ENDBRANCH   2   3
ENDBRANCH   1   2
BRANCH   1  22
ATOM     22  O   UNL A   1      34.867  32.726  27.660  1.00  0.00    -0.458 OA
BRANCH  22  23
ATOM     23  C   UNL A   1      34.809  31.370  27.613  1.00  0.00     0.338 C 
ATOM     24  O   UNL A   1      34.026  30.702  26.954  1.00  0.00    -0.246 OA
BRANCH  23  25
ATOM     25  C   UNL A   1      35.971  30.808  28.328  1.00  0.00     0.060 A 
ATOM     26  C   UNL A   1      37.148  31.564  28.343  1.00  0.00     0.016 A 
ATOM     27  C   UNL A   1      35.915  29.571  28.980  1.00  0.00     0.016 A 
ATOM     28  C   UNL A   1      38.292  31.062  28.958  1.00  0.00     0.010 A 
ATOM     29  C   UNL A   1      37.061  29.072  29.603  1.00  0.00     0.010 A 
ATOM     30  C   UNL A   1      38.264  29.798  29.561  1.00  0.00    -0.014 A 
BRANCH  30  31
ATOM     31  C   UNL A   1      39.532  29.175  30.005  1.00  0.00     0.031 A 
ATOM     32  C   UNL A   1      40.196  29.704  31.246  1.00  0.00     0.074 A 
ATOM     33  C   UNL A   1      40.071  28.145  29.330  1.00  0.00     0.049 A 
ATOM     34  N   UNL A   1      41.302  29.313  31.825  1.00  0.00    -0.248 NA
ATOM     35  C   UNL A   1      39.525  30.824  31.927  1.00  0.00     0.031 C 
ATOM     36  C   UNL A   1      39.509  27.534  28.127  1.00  0.00     0.029 A 
ATOM     37  N   UNL A   1      41.225  27.436  29.558  1.00  0.00    -0.354 N 
ATOM     38  C   UNL A   1      41.455  30.134  32.935  1.00  0.00     0.074 A 
ATOM     39  C   UNL A   1      40.355  31.071  32.930  1.00  0.00     0.031 C 
ATOM     40  C   UNL A   1      40.335  26.562  27.703  1.00  0.00     0.029 A 
ATOM     41  C   UNL A   1      41.484  26.488  28.599  1.00  0.00     0.049 A 
ATOM     42  H   UNL A   1      41.809  27.593  30.334  1.00  0.00     0.167 HD
ATOM     43  C   UNL A   1      42.419  30.096  33.884  1.00  0.00     0.037 A 
ATOM     44  C   UNL A   1      42.542  25.664  28.459  1.00  0.00     0.037 A 
ATOM     45  C   UNL A   1      43.500  29.151  33.897  1.00  0.00     0.049 A 
ATOM     46  C   UNL A   1      43.634  25.688  29.496  1.00  0.00     0.074 A 
ATOM     47  C   UNL A   1      44.489  28.987  34.850  1.00  0.00     0.029 A 
ATOM     48  N   UNL A   1      43.741  28.218  32.900  1.00  0.00    -0.354 N 
ATOM     49  N   UNL A   1      43.721  26.408  30.590  1.00  0.00    -0.248 NA
ATOM     50  C   UNL A   1      44.771  24.779  29.287  1.00  0.00     0.031 C 
ATOM     51  C   UNL A   1      45.360  27.989  34.404  1.00  0.00     0.029 A 
ATOM     52  C   UNL A   1      44.889  27.503  33.194  1.00  0.00     0.049 A 
ATOM     53  H   UNL A   1      43.180  28.084  32.103  1.00  0.00     0.167 HD
ATOM     54  C   UNL A   1      44.903  26.020  31.208  1.00  0.00     0.074 A 
ATOM     55  C   UNL A   1      45.493  24.992  30.378  1.00  0.00     0.031 C 
ATOM     56  C   UNL A   1      45.453  26.475  32.360  1.00  0.00     0.037 A 
BRANCH  43  57
ATOM     57  C   UNL A   1      42.352  31.112  34.982  1.00  0.00     0.057 A 
ATOM     58  C   UNL A   1      41.481  30.967  36.070  1.00  0.00     0.134 A 
ATOM     59  C   UNL A   1      43.204  32.222  34.977  1.00  0.00     0.134 A 
ATOM     60  F   UNL A   1      40.631  29.930  36.127  1.00  0.00    -0.206 F 
ATOM     61  C   UNL A   1      41.451  31.898  37.108  1.00  0.00     0.040 A 
ATOM     62  C   UNL A   1      43.198  33.150  36.020  1.00  0.00     0.040 A 
ATOM     63  F   UNL A   1      44.061  32.418  33.964  1.00  0.00    -0.206 F 
ATOM     64  C   UNL A   1      42.317  32.990  37.088  1.00  0.00     0.006 A 
ENDBRANCH  43  57
BRANCH  44  65
ATOM     65  C   UNL A   1      42.644  24.763  27.283  1.00  0.00     0.057 A 
ATOM     66  C   UNL A   1      42.117  23.467  27.307  1.00  0.00     0.134 A 
ATOM     67  C   UNL A   1      43.328  25.159  26.126  1.00  0.00     0.134 A 
ATOM     68  F   UNL A   1      41.473  23.021  28.395  1.00  0.00    -0.206 F 
ATOM     69  C   UNL A   1      42.292  22.586  26.238  1.00  0.00     0.040 A 
ATOM     70  C   UNL A   1      43.488  24.297  25.040  1.00  0.00     0.040 A 
ATOM     71  F   UNL A   1      43.859  26.387  26.039  1.00  0.00    -0.206 F 
ATOM     72  C   UNL A   1      42.979  23.001  25.100  1.00  0.00     0.006 A 
ENDBRANCH  44  65
BRANCH  56  73
ATOM     73  C   UNL A   1      46.745  25.856  32.801  1.00  0.00     0.057 A 
ATOM     74  C   UNL A   1      47.981  26.362  32.383  1.00  0.00     0.134 A 
ATOM     75  C   UNL A   1      46.752  24.784  33.702  1.00  0.00     0.134 A 
ATOM     76  F   UNL A   1      48.040  27.378  31.509  1.00  0.00    -0.206 F 
ATOM     77  C   UNL A   1      49.182  25.816  32.838  1.00  0.00     0.040 A 
ATOM     78  C   UNL A   1      47.946  24.247  34.184  1.00  0.00     0.040 A 
ATOM     79  F   UNL A   1      45.601  24.260  34.148  1.00  0.00    -0.206 F 
ATOM     80  C   UNL A   1      49.166  24.760  33.749  1.00  0.00     0.006 A 
ENDBRANCH  56  73
ENDBRANCH  30  31
ENDBRANCH  23  25
ENDBRANCH  22  23
ENDBRANCH   1  22
TORSDOF 12
ENDMDL
MODEL 2
REMARK VINA RESULT:      -9.8      3.912      6.344
REMARK SMILES O=C(OCCOC(=O)c1ccc(-c2c3nc(c(-c4c(F)cccc4F)c4ccc([nH]4)c(-c4c(F)cccc4F)c4nc(c(-c5c(F)cccc5F)c5ccc2[nH]5)C=C4)C=C3)cc1)C1=Cc2c(ccc(Cl)c2Cl)O[C@H]1C(F)(F)F
REMARK SMILES IDX 5 1 4 2 3 3 2 4 1 5 63 6 64 7 74 8 65 9 73 10 66 11 71 12
REMARK SMILES IDX 67 13 69 14 72 15 68 16 70 17 75 18 76 19 77 20 78 21 6 22
REMARK SMILES IDX 7 23 8 24 9 25 10 26 62 27 11 28 61 29 12 30 13 31 14 32
REMARK SMILES IDX 55 33 15 34 60 35 54 36 56 37 16 38 59 39 53 40 52 41 17 43
REMARK SMILES IDX 43 44 26 45 42 46 27 47 30 48 41 49 57 50 28 51 29 52 40 54
REMARK SMILES IDX 58 55 31 56 18 57 19 58 24 59 20 60 21 61 23 62 25 63 22 64
REMARK SMILES IDX 44 65 45 66 50 67 46 68 47 69 49 70 51 71 48 72 32 73 33 74
REMARK SMILES IDX 38 75 34 76 35 77 37 78 39 79 36 80
REMARK H PARENT 56 42 30 53
REMARK Flexibility Score: inf
ROOT
ATOM      1  C   UNL A   1      32.250  33.349  26.821  1.00  0.00     0.275 C 
ENDROOT
BRANCH   1   2
ATOM      2  C   UNL A   1      31.244  32.208  26.611  1.00  0.00     0.275 C 
BRANCH   2   3
ATOM      3  O   UNL A   1      31.866  30.902  26.568  1.00  0.00    -0.459 OA
BRANCH   3   4
ATOM      4  C   UNL A   1      31.844  29.959  25.599  1.00  0.00     0.338 C 
ATOM      5  O   UNL A   1      30.974  30.023  24.734  1.00  0.00    -0.246 OA
BRANCH   4   6
ATOM      6  C   UNL A   1      32.958  29.002  25.412  1.00  0.00     0.087 C 
ATOM      7  C   UNL A   1      33.486  28.541  24.273  1.00  0.00     0.029 C 
ATOM      8  C   UNL A   1      33.572  28.500  26.710  1.00  0.00     0.316 C 
ATOM      9  C   UNL A   1      33.672  27.089  24.248  1.00  0.00     0.037 A 
ATOM     10  O   UNL A   1      34.175  27.179  26.621  1.00  0.00    -0.475 OA
ATOM     11  C   UNL A   1      33.976  26.476  25.465  1.00  0.00     0.129 A 
ATOM     12  C   UNL A   1      33.419  26.284  23.112  1.00  0.00     0.070 A 
ATOM     13  C   UNL A   1      34.076  25.092  25.560  1.00  0.00     0.049 A 
ATOM     14  C   UNL A   1      33.467  24.885  23.227  1.00  0.00     0.060 A 
ATOM     15  Cl  UNL A   1      32.984  27.011  21.593  1.00  0.00    -0.082 Cl
ATOM     16  C   UNL A   1      33.802  24.297  24.449  1.00  0.00     0.026 A 
ATOM     17  Cl  UNL A   1      33.090  23.824  21.913  1.00  0.00    -0.083 Cl
BRANCH   8  18
ATOM     18  C   UNL A   1      34.655  29.499  27.199  1.00  0.00     0.430 C 
ATOM     19  F   UNL A   1      34.254  30.786  27.135  1.00  0.00    -0.167 F 
ATOM     20  F   UNL A   1      35.002  29.258  28.486  1.00  0.00    -0.167 F 
ATOM     21  F   UNL A   1      35.789  29.410  26.458  1.00  0.00    -0.167 F 
ENDBRANCH   8  18
ENDBRANCH   4   6
ENDBRANCH   3   4
ENDBRANCH   2   3
ENDBRANCH   1   2
BRANCH   1  22
ATOM     22  O   UNL A   1      32.265  33.796  28.184  1.00  0.00    -0.458 OA
BRANCH  22  23
ATOM     23  C   UNL A   1      33.338  34.572  28.483  1.00  0.00     0.338 C 
ATOM     24  O   UNL A   1      33.338  35.788  28.612  1.00  0.00    -0.246 OA
BRANCH  23  25
ATOM     25  C   UNL A   1      34.483  33.709  28.830  1.00  0.00     0.060 A 
ATOM     26  C   UNL A   1      34.257  32.674  29.745  1.00  0.00     0.016 A 
ATOM     27  C   UNL A   1      35.751  33.895  28.271  1.00  0.00     0.016 A 
ATOM     28  C   UNL A   1      35.310  31.859  30.150  1.00  0.00     0.010 A 
ATOM     29  C   UNL A   1      36.806  33.072  28.672  1.00  0.00     0.010 A 
ATOM     30  C   UNL A   1      36.597  32.075  29.642  1.00  0.00    -0.014 A 
BRANCH  30  31
ATOM     31  C   UNL A   1      37.748  31.364  30.245  1.00  0.00     0.031 A 
ATOM     32  C   UNL A   1      38.100  31.653  31.677  1.00  0.00     0.074 A 
ATOM     33  C   UNL A   1      38.451  30.462  29.539  1.00  0.00     0.049 A 
ATOM     34  N   UNL A   1      39.056  31.149  32.414  1.00  0.00    -0.248 NA
ATOM     35  C   UNL A   1      37.264  32.644  32.375  1.00  0.00     0.031 C 
ATOM     36  C   UNL A   1      38.192  30.083  28.151  1.00  0.00     0.029 A 
ATOM     37  N   UNL A   1      39.541  29.706  29.894  1.00  0.00    -0.354 N 
ATOM     38  C   UNL A   1      38.933  31.756  33.657  1.00  0.00     0.074 A 
ATOM     39  C   UNL A   1      37.839  32.697  33.567  1.00  0.00     0.031 C 
ATOM     40  C   UNL A   1      39.116  29.189  27.761  1.00  0.00     0.029 A 
ATOM     41  C   UNL A   1      40.035  28.939  28.867  1.00  0.00     0.049 A 
ATOM     42  H   UNL A   1      39.931  29.713  30.798  1.00  0.00     0.167 HD
ATOM     43  C   UNL A   1      39.658  31.536  34.778  1.00  0.00     0.037 A 
ATOM     44  C   UNL A   1      41.118  28.137  28.828  1.00  0.00     0.037 A 
ATOM     45  C   UNL A   1      40.732  30.587  34.869  1.00  0.00     0.049 A 
ATOM     46  C   UNL A   1      41.946  27.959  30.073  1.00  0.00     0.074 A 
ATOM     47  C   UNL A   1      41.484  30.241  35.978  1.00  0.00     0.029 A 
ATOM     48  N   UNL A   1      41.216  29.842  33.804  1.00  0.00    -0.354 N 
ATOM     49  N   UNL A   1      41.765  28.471  31.267  1.00  0.00    -0.248 NA
ATOM     50  C   UNL A   1      43.124  27.085  29.970  1.00  0.00     0.031 C 
ATOM     51  C   UNL A   1      42.459  29.324  35.572  1.00  0.00     0.029 A 
ATOM     52  C   UNL A   1      42.286  29.068  34.220  1.00  0.00     0.049 A 
ATOM     53  H   UNL A   1      40.853  29.860  32.890  1.00  0.00     0.167 HD
ATOM     54  C   UNL A   1      42.786  27.962  32.059  1.00  0.00     0.074 A 
ATOM     55  C   UNL A   1      43.574  27.089  31.216  1.00  0.00     0.031 C 
ATOM     56  C   UNL A   1      43.050  28.197  33.368  1.00  0.00     0.037 A 
BRANCH  43  57
ATOM     57  C   UNL A   1      39.319  32.341  35.994  1.00  0.00     0.057 A 
ATOM     58  C   UNL A   1      39.902  33.590  36.239  1.00  0.00     0.134 A 
ATOM     59  C   UNL A   1      38.360  31.883  36.906  1.00  0.00     0.134 A 
ATOM     60  F   UNL A   1      40.837  34.079  35.408  1.00  0.00    -0.206 F 
ATOM     61  C   UNL A   1      39.553  34.350  37.355  1.00  0.00     0.040 A 
ATOM     62  C   UNL A   1      37.988  32.643  38.015  1.00  0.00     0.040 A 
ATOM     63  F   UNL A   1      37.765  30.694  36.728  1.00  0.00    -0.206 F 
ATOM     64  C   UNL A   1      38.588  33.880  38.243  1.00  0.00     0.006 A 
ENDBRANCH  43  57
BRANCH  44  65
ATOM     65  C   UNL A   1      41.506  27.458  27.565  1.00  0.00     0.057 A 
ATOM     66  C   UNL A   1      41.140  26.132  27.306  1.00  0.00     0.134 A 
ATOM     67  C   UNL A   1      42.307  28.102  26.614  1.00  0.00     0.134 A 
ATOM     68  F   UNL A   1      40.394  25.453  28.190  1.00  0.00    -0.206 F 
ATOM     69  C   UNL A   1      41.581  25.461  26.163  1.00  0.00     0.040 A 
ATOM     70  C   UNL A   1      42.734  27.452  25.455  1.00  0.00     0.040 A 
ATOM     71  F   UNL A   1      42.695  29.372  26.803  1.00  0.00    -0.206 F 
ATOM     72  C   UNL A   1      42.380  26.122  25.234  1.00  0.00     0.006 A 
ENDBRANCH  44  65
BRANCH  56  73
ATOM     73  C   UNL A   1      44.223  27.488  33.974  1.00  0.00     0.057 A 
ATOM     74  C   UNL A   1      45.488  28.086  34.039  1.00  0.00     0.134 A 
ATOM     75  C   UNL A   1      44.073  26.223  34.555  1.00  0.00     0.134 A 
ATOM     76  F   UNL A   1      45.699  29.291  33.486  1.00  0.00    -0.206 F 
ATOM     77  C   UNL A   1      46.565  27.446  34.651  1.00  0.00     0.040 A 
ATOM     78  C   UNL A   1      45.136  25.585  35.194  1.00  0.00     0.040 A 
ATOM     79  F   UNL A   1      42.884  25.601  34.536  1.00  0.00    -0.206 F 
ATOM     80  C   UNL A   1      46.388  26.194  35.240  1.00  0.00     0.006 A 
ENDBRANCH  56  73
ENDBRANCH  30  31
ENDBRANCH  23  25
ENDBRANCH  22  23
ENDBRANCH   1  22
TORSDOF 12
ENDMDL
MODEL 3
REMARK VINA RESULT:      -9.8      4.602     10.954
REMARK SMILES O=C(OCCOC(=O)c1ccc(-c2c3nc(c(-c4c(F)cccc4F)c4ccc([nH]4)c(-c4c(F)cccc4F)c4nc(c(-c5c(F)cccc5F)c5ccc2[nH]5)C=C4)C=C3)cc1)C1=Cc2c(ccc(Cl)c2Cl)O[C@H]1C(F)(F)F
REMARK SMILES IDX 5 1 4 2 3 3 2 4 1 5 63 6 64 7 74 8 65 9 73 10 66 11 71 12
REMARK SMILES IDX 67 13 69 14 72 15 68 16 70 17 75 18 76 19 77 20 78 21 6 22
REMARK SMILES IDX 7 23 8 24 9 25 10 26 62 27 11 28 61 29 12 30 13 31 14 32
REMARK SMILES IDX 55 33 15 34 60 35 54 36 56 37 16 38 59 39 53 40 52 41 17 43
REMARK SMILES IDX 43 44 26 45 42 46 27 47 30 48 41 49 57 50 28 51 29 52 40 54
REMARK SMILES IDX 58 55 31 56 18 57 19 58 24 59 20 60 21 61 23 62 25 63 22 64
REMARK SMILES IDX 44 65 45 66 50 67 46 68 47 69 49 70 51 71 48 72 32 73 33 74
REMARK SMILES IDX 38 75 34 76 35 77 37 78 39 79 36 80
REMARK H PARENT 56 42 30 53
REMARK Flexibility Score: inf
ROOT
ATOM      1  C   UNL A   1      45.438  23.706  24.653  1.00  0.00     0.275 C 
ENDROOT
BRANCH   1   2
ATOM      2  C   UNL A   1      44.771  22.473  24.026  1.00  0.00     0.275 C 
BRANCH   2   3
ATOM      3  O   UNL A   1      43.393  22.301  24.435  1.00  0.00    -0.459 OA
BRANCH   3   4
ATOM      4  C   UNL A   1      42.837  21.378  25.252  1.00  0.00     0.338 C 
ATOM      5  O   UNL A   1      43.420  20.309  25.418  1.00  0.00    -0.246 OA
BRANCH   4   6
ATOM      6  C   UNL A   1      41.685  21.698  26.125  1.00  0.00     0.087 C 
ATOM      7  C   UNL A   1      40.515  21.059  26.238  1.00  0.00     0.029 C 
ATOM      8  C   UNL A   1      41.893  22.918  27.008  1.00  0.00     0.316 C 
ATOM      9  C   UNL A   1      39.348  21.942  26.209  1.00  0.00     0.037 A 
ATOM     10  O   UNL A   1      40.669  23.614  27.374  1.00  0.00    -0.475 OA
ATOM     11  C   UNL A   1      39.514  23.215  26.760  1.00  0.00     0.129 A 
ATOM     12  C   UNL A   1      38.144  21.631  25.536  1.00  0.00     0.070 A 
ATOM     13  C   UNL A   1      38.493  24.157  26.693  1.00  0.00     0.049 A 
ATOM     14  C   UNL A   1      37.139  22.606  25.423  1.00  0.00     0.060 A 
ATOM     15  Cl  UNL A   1      37.925  20.075  24.791  1.00  0.00    -0.082 Cl
ATOM     16  C   UNL A   1      37.316  23.862  26.008  1.00  0.00     0.026 A 
ATOM     17  Cl  UNL A   1      35.670  22.340  24.547  1.00  0.00    -0.083 Cl
BRANCH   8  18
ATOM     18  C   UNL A   1      42.627  22.504  28.311  1.00  0.00     0.430 C 
ATOM     19  F   UNL A   1      42.539  21.182  28.570  1.00  0.00    -0.167 F 
ATOM     20  F   UNL A   1      43.946  22.806  28.251  1.00  0.00    -0.167 F 
ATOM     21  F   UNL A   1      42.121  23.144  29.396  1.00  0.00    -0.167 F 
ENDBRANCH   8  18
ENDBRANCH   4   6
ENDBRANCH   3   4
ENDBRANCH   2   3
ENDBRANCH   1   2
BRANCH   1  22
ATOM     22  O   UNL A   1      44.499  24.773  24.849  1.00  0.00    -0.458 OA
BRANCH  22  23
ATOM     23  C   UNL A   1      45.084  25.945  25.203  1.00  0.00     0.338 C 
ATOM     24  O   UNL A   1      46.028  26.482  24.641  1.00  0.00    -0.246 OA
BRANCH  23  25
ATOM     25  C   UNL A   1      44.282  26.591  26.260  1.00  0.00     0.060 A 
ATOM     26  C   UNL A   1      44.485  27.957  26.481  1.00  0.00     0.016 A 
ATOM     27  C   UNL A   1      43.343  25.883  27.018  1.00  0.00     0.016 A 
ATOM     28  C   UNL A   1      43.795  28.610  27.499  1.00  0.00     0.010 A 
ATOM     29  C   UNL A   1      42.645  26.540  28.034  1.00  0.00     0.010 A 
ATOM     30  C   UNL A   1      42.897  27.897  28.303  1.00  0.00    -0.014 A 
BRANCH  30  31
ATOM     31  C   UNL A   1      42.345  28.534  29.521  1.00  0.00     0.031 A 
ATOM     32  C   UNL A   1      41.023  29.244  29.424  1.00  0.00     0.074 A 
ATOM     33  C   UNL A   1      42.997  28.465  30.695  1.00  0.00     0.049 A 
ATOM     34  N   UNL A   1      40.346  29.866  30.354  1.00  0.00    -0.248 NA
ATOM     35  C   UNL A   1      40.377  29.255  28.101  1.00  0.00     0.031 C 
ATOM     36  C   UNL A   1      44.274  27.788  30.916  1.00  0.00     0.029 A 
ATOM     37  N   UNL A   1      42.675  28.983  31.925  1.00  0.00    -0.354 N 
ATOM     38  C   UNL A   1      39.197  30.336  29.732  1.00  0.00     0.074 A 
ATOM     39  C   UNL A   1      39.284  29.967  28.337  1.00  0.00     0.031 C 
ATOM     40  C   UNL A   1      44.643  27.959  32.197  1.00  0.00     0.029 A 
ATOM     41  C   UNL A   1      43.635  28.762  32.882  1.00  0.00     0.049 A 
ATOM     42  H   UNL A   1      41.836  29.467  32.103  1.00  0.00     0.167 HD
ATOM     43  C   UNL A   1      38.155  31.002  30.280  1.00  0.00     0.037 A 
ATOM     44  C   UNL A   1      43.693  29.176  34.163  1.00  0.00     0.037 A 
ATOM     45  C   UNL A   1      38.063  31.351  31.670  1.00  0.00     0.049 A 
ATOM     46  C   UNL A   1      42.546  29.972  34.730  1.00  0.00     0.074 A 
ATOM     47  C   UNL A   1      37.017  31.965  32.336  1.00  0.00     0.029 A 
ATOM     48  N   UNL A   1      39.061  31.126  32.604  1.00  0.00    -0.354 N 
ATOM     49  N   UNL A   1      41.425  30.333  34.154  1.00  0.00    -0.248 NA
ATOM     50  C   UNL A   1      42.668  30.411  36.129  1.00  0.00     0.031 C 
ATOM     51  C   UNL A   1      37.405  32.161  33.665  1.00  0.00     0.029 A 
ATOM     52  C   UNL A   1      38.674  31.630  33.835  1.00  0.00     0.049 A 
ATOM     53  H   UNL A   1      39.917  30.677  32.422  1.00  0.00     0.167 HD
ATOM     54  C   UNL A   1      40.700  31.015  35.124  1.00  0.00     0.074 A 
ATOM     55  C   UNL A   1      41.501  31.004  36.329  1.00  0.00     0.031 C 
ATOM     56  C   UNL A   1      39.482  31.599  35.026  1.00  0.00     0.037 A 
BRANCH  43  57
ATOM     57  C   UNL A   1      37.033  31.404  29.372  1.00  0.00     0.057 A 
ATOM     58  C   UNL A   1      35.975  30.535  29.076  1.00  0.00     0.134 A 
ATOM     59  C   UNL A   1      36.986  32.693  28.828  1.00  0.00     0.134 A 
ATOM     60  F   UNL A   1      35.969  29.282  29.557  1.00  0.00    -0.206 F 
ATOM     61  C   UNL A   1      34.916  30.931  28.259  1.00  0.00     0.040 A 
ATOM     62  C   UNL A   1      35.921  33.107  28.027  1.00  0.00     0.040 A 
ATOM     63  F   UNL A   1      37.968  33.572  29.074  1.00  0.00    -0.206 F 
ATOM     64  C   UNL A   1      34.883  32.223  27.739  1.00  0.00     0.006 A 
ENDBRANCH  43  57
BRANCH  44  65
ATOM     65  C   UNL A   1      44.883  28.876  34.998  1.00  0.00     0.057 A 
ATOM     66  C   UNL A   1      46.005  29.713  35.001  1.00  0.00     0.134 A 
ATOM     67  C   UNL A   1      44.951  27.707  35.766  1.00  0.00     0.134 A 
ATOM     68  F   UNL A   1      46.011  30.834  34.265  1.00  0.00    -0.206 F 
ATOM     69  C   UNL A   1      47.161  29.385  35.711  1.00  0.00     0.040 A 
ATOM     70  C   UNL A   1      46.091  27.380  36.502  1.00  0.00     0.040 A 
ATOM     71  F   UNL A   1      43.912  26.860  35.806  1.00  0.00    -0.206 F 
ATOM     72  C   UNL A   1      47.206  28.215  36.465  1.00  0.00     0.006 A 
ENDBRANCH  44  65
BRANCH  56  73
ATOM     73  C   UNL A   1      38.931  32.258  36.254  1.00  0.00     0.057 A 
ATOM     74  C   UNL A   1      39.168  33.610  36.531  1.00  0.00     0.134 A 
ATOM     75  C   UNL A   1      38.101  31.551  37.133  1.00  0.00     0.134 A 
ATOM     76  F   UNL A   1      39.967  34.337  35.734  1.00  0.00    -0.206 F 
ATOM     77  C   UNL A   1      38.610  34.233  37.647  1.00  0.00     0.040 A 
ATOM     78  C   UNL A   1      37.516  32.170  38.238  1.00  0.00     0.040 A 
ATOM     79  F   UNL A   1      37.826  30.256  36.918  1.00  0.00    -0.206 F 
ATOM     80  C   UNL A   1      37.772  33.514  38.499  1.00  0.00     0.006 A 
ENDBRANCH  56  73
ENDBRANCH  30  31
ENDBRANCH  23  25
ENDBRANCH  22  23
ENDBRANCH   1  22
TORSDOF 12
ENDMDL
