MODEL 1
REMARK VINA RESULT:     -10.6      0.000      0.000
REMARK SMILES CCc1cc(/C=C/C(=O)OCCOC(=O)c2ccc(-c3c4nc(c(-c5c(F)cccc5F)c5ccc([nH]5)c(-c5c(F)cccc5F)c5nc(c(-c6c(F)cccc6F)c6ccc3[nH]6)C=C5)C=C4)cc2)cc(C(=O)c2ccccc2)c1
REMARK SMILES IDX 11 1 10 2 8 3 9 4 7 5 6 6 5 7 3 8 4 9 80 10 71 11 70 12 2 13
REMARK SMILES IDX 1 14 72 15 73 16 74 17 75 18 79 19 76 20 78 21 77 22 12 23
REMARK SMILES IDX 13 24 14 25 15 26 16 27 17 28 69 29 18 30 68 31 19 32 20 33
REMARK SMILES IDX 21 34 62 35 22 36 67 37 61 38 63 39 23 40 66 41 60 42 59 43
REMARK SMILES IDX 24 45 50 46 33 47 49 48 34 49 37 50 48 51 64 52 35 53 36 54
REMARK SMILES IDX 47 56 65 57 38 58 25 59 26 60 31 61 27 62 28 63 30 64 32 65
REMARK SMILES IDX 29 66 51 67 52 68 57 69 53 70 54 71 56 72 58 73 55 74 39 75
REMARK SMILES IDX 40 76 45 77 41 78 42 79 44 80 46 81 43 82
REMARK H PARENT 63 44 37 55
REMARK Flexibility Score: inf
ROOT
ATOM      1  C   UNL A   1      42.224  19.029  26.903  1.00  0.00     0.275 C 
ENDROOT
BRANCH   1   2
ATOM      2  O   UNL A   1      42.727  18.524  25.652  1.00  0.00    -0.459 OA
BRANCH   2   3
ATOM      3  C   UNL A   1      43.916  19.028  25.246  1.00  0.00     0.330 C 
ATOM      4  O   UNL A   1      44.887  18.381  24.878  1.00  0.00    -0.247 OA
BRANCH   3   5
ATOM      5  C   UNL A   1      43.927  20.504  25.203  1.00  0.00     0.094 C 
ATOM      6  C   UNL A   1      44.920  21.267  24.719  1.00  0.00     0.015 C 
BRANCH   6   7
ATOM      7  C   UNL A   1      44.917  22.735  24.827  1.00  0.00    -0.024 A 
ATOM      8  C   UNL A   1      43.698  24.850  25.045  1.00  0.00    -0.047 A 
ATOM      9  C   UNL A   1      43.713  23.455  24.912  1.00  0.00     0.011 A 
ATOM     10  C   UNL A   1      44.926  25.526  25.102  1.00  0.00     0.016 A 
ATOM     11  C   UNL A   1      46.140  24.826  25.065  1.00  0.00     0.023 A 
ATOM     12  C   UNL A   1      46.128  23.430  24.921  1.00  0.00     0.020 A 
BRANCH   8  13
ATOM     13  C   UNL A   1      42.429  25.667  25.159  1.00  0.00     0.032 C 
ATOM     14  C   UNL A   1      42.570  27.182  25.073  1.00  0.00     0.009 C 
ENDBRANCH   8  13
BRANCH  11  15
ATOM     15  C   UNL A   1      47.456  25.524  25.124  1.00  0.00     0.193 C 
ATOM     16  O   UNL A   1      47.814  26.237  24.189  1.00  0.00    -0.289 OA
BRANCH  15  17
ATOM     17  C   UNL A   1      48.346  25.415  26.305  1.00  0.00     0.022 A 
ATOM     18  C   UNL A   1      49.727  25.347  26.091  1.00  0.00     0.012 A 
ATOM     19  C   UNL A   1      47.835  25.360  27.607  1.00  0.00     0.012 A 
ATOM     20  C   UNL A   1      50.597  25.270  27.179  1.00  0.00     0.001 A 
ATOM     21  C   UNL A   1      48.711  25.284  28.693  1.00  0.00     0.001 A 
ATOM     22  C   UNL A   1      50.090  25.246  28.478  1.00  0.00     0.000 A 
ENDBRANCH  15  17
ENDBRANCH  11  15
ENDBRANCH   6   7
ENDBRANCH   3   5
ENDBRANCH   2   3
ENDBRANCH   1   2
BRANCH   1  23
ATOM     23  C   UNL A   1      40.971  19.887  26.694  1.00  0.00     0.275 C 
BRANCH  23  24
ATOM     24  O   UNL A   1      41.051  21.139  27.402  1.00  0.00    -0.458 OA
BRANCH  24  25
ATOM     25  C   UNL A   1      40.187  22.088  26.969  1.00  0.00     0.338 C 
ATOM     26  O   UNL A   1      39.233  21.928  26.225  1.00  0.00    -0.246 OA
BRANCH  25  27
ATOM     27  C   UNL A   1      40.476  23.386  27.608  1.00  0.00     0.060 A 
ATOM     28  C   UNL A   1      39.606  24.445  27.329  1.00  0.00     0.016 A 
ATOM     29  C   UNL A   1      41.621  23.598  28.381  1.00  0.00     0.016 A 
ATOM     30  C   UNL A   1      39.894  25.726  27.793  1.00  0.00     0.010 A 
ATOM     31  C   UNL A   1      41.911  24.889  28.845  1.00  0.00     0.010 A 
ATOM     32  C   UNL A   1      41.062  25.964  28.530  1.00  0.00    -0.014 A 
BRANCH  32  33
ATOM     33  C   UNL A   1      41.412  27.362  28.880  1.00  0.00     0.031 A 
ATOM     34  C   UNL A   1      42.824  27.847  28.699  1.00  0.00     0.074 A 
ATOM     35  C   UNL A   1      40.457  28.214  29.289  1.00  0.00     0.049 A 
ATOM     36  N   UNL A   1      43.311  29.053  28.859  1.00  0.00    -0.248 NA
ATOM     37  C   UNL A   1      43.817  26.846  28.285  1.00  0.00     0.031 C 
ATOM     38  C   UNL A   1      39.052  27.868  29.497  1.00  0.00     0.029 A 
ATOM     39  N   UNL A   1      40.525  29.551  29.591  1.00  0.00    -0.354 N 
ATOM     40  C   UNL A   1      44.666  28.954  28.567  1.00  0.00     0.074 A 
ATOM     41  C   UNL A   1      44.928  27.566  28.252  1.00  0.00     0.031 C 
ATOM     42  C   UNL A   1      38.386  28.971  29.882  1.00  0.00     0.029 A 
ATOM     43  C   UNL A   1      39.319  30.092  29.960  1.00  0.00     0.049 A 
ATOM     44  H   UNL A   1      41.359  30.072  29.546  1.00  0.00     0.167 HD
ATOM     45  C   UNL A   1      45.603  29.932  28.552  1.00  0.00     0.037 A 
ATOM     46  C   UNL A   1      39.002  31.351  30.318  1.00  0.00     0.037 A 
ATOM     47  C   UNL A   1      45.346  31.315  28.860  1.00  0.00     0.049 A 
ATOM     48  C   UNL A   1      40.062  32.417  30.302  1.00  0.00     0.074 A 
ATOM     49  C   UNL A   1      46.229  32.382  28.848  1.00  0.00     0.029 A 
ATOM     50  N   UNL A   1      44.113  31.822  29.243  1.00  0.00    -0.354 N 
ATOM     51  N   UNL A   1      41.328  32.321  29.980  1.00  0.00    -0.248 NA
ATOM     52  C   UNL A   1      39.641  33.773  30.685  1.00  0.00     0.031 C 
ATOM     53  C   UNL A   1      45.537  33.528  29.258  1.00  0.00     0.029 A 
ATOM     54  C   UNL A   1      44.215  33.182  29.485  1.00  0.00     0.049 A 
ATOM     55  H   UNL A   1      43.288  31.293  29.330  1.00  0.00     0.167 HD
ATOM     56  C   UNL A   1      41.851  33.603  30.101  1.00  0.00     0.074 A 
ATOM     57  C   UNL A   1      40.760  34.463  30.509  1.00  0.00     0.031 C 
ATOM     58  C   UNL A   1      43.121  34.028  29.891  1.00  0.00     0.037 A 
BRANCH  45  59
ATOM     59  C   UNL A   1      47.006  29.528  28.207  1.00  0.00     0.057 A 
ATOM     60  C   UNL A   1      47.430  29.389  26.878  1.00  0.00     0.134 A 
ATOM     61  C   UNL A   1      47.948  29.288  29.215  1.00  0.00     0.134 A 
ATOM     62  F   UNL A   1      46.572  29.593  25.867  1.00  0.00    -0.206 F 
ATOM     63  C   UNL A   1      48.733  29.001  26.566  1.00  0.00     0.040 A 
ATOM     64  C   UNL A   1      49.260  28.920  28.914  1.00  0.00     0.040 A 
ATOM     65  F   UNL A   1      47.608  29.407  30.507  1.00  0.00    -0.206 F 
ATOM     66  C   UNL A   1      49.654  28.769  27.586  1.00  0.00     0.006 A 
ENDBRANCH  45  59
BRANCH  46  67
ATOM     67  C   UNL A   1      37.608  31.675  30.703  1.00  0.00     0.057 A 
ATOM     68  C   UNL A   1      36.659  32.053  29.746  1.00  0.00     0.134 A 
ATOM     69  C   UNL A   1      37.192  31.614  32.038  1.00  0.00     0.134 A 
ATOM     70  F   UNL A   1      37.006  32.150  28.454  1.00  0.00    -0.206 F 
ATOM     71  C   UNL A   1      35.349  32.371  30.105  1.00  0.00     0.040 A 
ATOM     72  C   UNL A   1      35.880  31.908  32.409  1.00  0.00     0.040 A 
ATOM     73  F   UNL A   1      38.056  31.257  33.000  1.00  0.00    -0.206 F 
ATOM     74  C   UNL A   1      34.955  32.292  31.440  1.00  0.00     0.006 A 
ENDBRANCH  46  67
BRANCH  58  75
ATOM     75  C   UNL A   1      43.389  35.493  30.074  1.00  0.00     0.057 A 
ATOM     76  C   UNL A   1      43.869  36.012  31.283  1.00  0.00     0.134 A 
ATOM     77  C   UNL A   1      43.179  36.393  29.021  1.00  0.00     0.134 A 
ATOM     78  F   UNL A   1      44.079  35.204  32.334  1.00  0.00    -0.206 F 
ATOM     79  C   UNL A   1      44.104  37.378  31.449  1.00  0.00     0.040 A 
ATOM     80  C   UNL A   1      43.432  37.758  29.167  1.00  0.00     0.040 A 
ATOM     81  F   UNL A   1      42.728  35.961  27.834  1.00  0.00    -0.206 F 
ATOM     82  C   UNL A   1      43.889  38.254  30.386  1.00  0.00     0.006 A 
ENDBRANCH  58  75
ENDBRANCH  32  33
ENDBRANCH  25  27
ENDBRANCH  24  25
ENDBRANCH  23  24
ENDBRANCH   1  23
TORSDOF 15
ENDMDL
MODEL 2
REMARK VINA RESULT:     -10.5      2.108      3.735
REMARK SMILES CCc1cc(/C=C/C(=O)OCCOC(=O)c2ccc(-c3c4nc(c(-c5c(F)cccc5F)c5ccc([nH]5)c(-c5c(F)cccc5F)c5nc(c(-c6c(F)cccc6F)c6ccc3[nH]6)C=C5)C=C4)cc2)cc(C(=O)c2ccccc2)c1
REMARK SMILES IDX 11 1 10 2 8 3 9 4 7 5 6 6 5 7 3 8 4 9 80 10 71 11 70 12 2 13
REMARK SMILES IDX 1 14 72 15 73 16 74 17 75 18 79 19 76 20 78 21 77 22 12 23
REMARK SMILES IDX 13 24 14 25 15 26 16 27 17 28 69 29 18 30 68 31 19 32 20 33
REMARK SMILES IDX 21 34 62 35 22 36 67 37 61 38 63 39 23 40 66 41 60 42 59 43
REMARK SMILES IDX 24 45 50 46 33 47 49 48 34 49 37 50 48 51 64 52 35 53 36 54
REMARK SMILES IDX 47 56 65 57 38 58 25 59 26 60 31 61 27 62 28 63 30 64 32 65
REMARK SMILES IDX 29 66 51 67 52 68 57 69 53 70 54 71 56 72 58 73 55 74 39 75
REMARK SMILES IDX 40 76 45 77 41 78 42 79 44 80 46 81 43 82
REMARK H PARENT 63 44 37 55
REMARK Flexibility Score: inf
ROOT
ATOM      1  C   UNL A   1      43.780  18.800  25.062  1.00  0.00     0.275 C 
ENDROOT
BRANCH   1   2
ATOM      2  O   UNL A   1      44.875  19.468  25.716  1.00  0.00    -0.459 OA
BRANCH   2   3
ATOM      3  C   UNL A   1      45.802  20.022  24.900  1.00  0.00     0.330 C 
ATOM      4  O   UNL A   1      46.347  19.477  23.949  1.00  0.00    -0.247 OA
BRANCH   3   5
ATOM      5  C   UNL A   1      46.065  21.441  25.214  1.00  0.00     0.094 C 
ATOM      6  C   UNL A   1      45.632  22.494  24.503  1.00  0.00     0.015 C 
BRANCH   6   7
ATOM      7  C   UNL A   1      46.040  23.877  24.803  1.00  0.00    -0.024 A 
ATOM      8  C   UNL A   1      47.793  25.573  25.035  1.00  0.00    -0.047 A 
ATOM      9  C   UNL A   1      47.394  24.254  24.781  1.00  0.00     0.011 A 
ATOM     10  C   UNL A   1      46.801  26.528  25.307  1.00  0.00     0.016 A 
ATOM     11  C   UNL A   1      45.443  26.184  25.290  1.00  0.00     0.023 A 
ATOM     12  C   UNL A   1      45.069  24.854  25.043  1.00  0.00     0.020 A 
BRANCH   8  13
ATOM     13  C   UNL A   1      49.235  26.032  25.005  1.00  0.00     0.032 C 
ATOM     14  C   UNL A   1      49.672  26.866  23.806  1.00  0.00     0.009 C 
ENDBRANCH   8  13
BRANCH  11  15
ATOM     15  C   UNL A   1      44.372  27.183  25.577  1.00  0.00     0.193 C 
ATOM     16  O   UNL A   1      43.192  26.876  25.424  1.00  0.00    -0.289 OA
BRANCH  15  17
ATOM     17  C   UNL A   1      44.685  28.541  26.083  1.00  0.00     0.022 A 
ATOM     18  C   UNL A   1      43.622  29.377  26.440  1.00  0.00     0.012 A 
ATOM     19  C   UNL A   1      46.004  29.000  26.187  1.00  0.00     0.012 A 
ATOM     20  C   UNL A   1      43.879  30.653  26.943  1.00  0.00     0.001 A 
ATOM     21  C   UNL A   1      46.255  30.277  26.693  1.00  0.00     0.001 A 
ATOM     22  C   UNL A   1      45.194  31.099  27.077  1.00  0.00     0.000 A 
ENDBRANCH  15  17
ENDBRANCH  11  15
ENDBRANCH   6   7
ENDBRANCH   3   5
ENDBRANCH   2   3
ENDBRANCH   1   2
BRANCH   1  23
ATOM     23  C   UNL A   1      42.962  17.968  26.054  1.00  0.00     0.275 C 
BRANCH  23  24
ATOM     24  O   UNL A   1      42.090  18.787  26.855  1.00  0.00    -0.458 OA
BRANCH  24  25
ATOM     25  C   UNL A   1      41.483  19.794  26.182  1.00  0.00     0.338 C 
ATOM     26  O   UNL A   1      40.587  19.691  25.360  1.00  0.00    -0.246 OA
BRANCH  25  27
ATOM     27  C   UNL A   1      41.976  21.104  26.646  1.00  0.00     0.060 A 
ATOM     28  C   UNL A   1      42.243  21.241  28.012  1.00  0.00     0.016 A 
ATOM     29  C   UNL A   1      42.082  22.206  25.792  1.00  0.00     0.016 A 
ATOM     30  C   UNL A   1      42.585  22.485  28.535  1.00  0.00     0.010 A 
ATOM     31  C   UNL A   1      42.423  23.458  26.321  1.00  0.00     0.010 A 
ATOM     32  C   UNL A   1      42.650  23.608  27.700  1.00  0.00    -0.014 A 
BRANCH  32  33
ATOM     33  C   UNL A   1      42.870  24.941  28.313  1.00  0.00     0.031 A 
ATOM     34  C   UNL A   1      44.263  25.385  28.662  1.00  0.00     0.074 A 
ATOM     35  C   UNL A   1      41.835  25.780  28.490  1.00  0.00     0.049 A 
ATOM     36  N   UNL A   1      44.674  26.542  29.117  1.00  0.00    -0.248 NA
ATOM     37  C   UNL A   1      45.335  24.396  28.474  1.00  0.00     0.031 C 
ATOM     38  C   UNL A   1      40.438  25.472  28.186  1.00  0.00     0.029 A 
ATOM     39  N   UNL A   1      41.803  27.070  28.958  1.00  0.00    -0.354 N 
ATOM     40  C   UNL A   1      46.049  26.421  29.271  1.00  0.00     0.074 A 
ATOM     41  C   UNL A   1      46.397  25.068  28.893  1.00  0.00     0.031 C 
ATOM     42  C   UNL A   1      39.685  26.550  28.464  1.00  0.00     0.029 A 
ATOM     43  C   UNL A   1      40.544  27.615  28.977  1.00  0.00     0.049 A 
ATOM     44  H   UNL A   1      42.607  27.557  29.250  1.00  0.00     0.167 HD
ATOM     45  C   UNL A   1      46.941  27.354  29.682  1.00  0.00     0.037 A 
ATOM     46  C   UNL A   1      40.130  28.837  29.363  1.00  0.00     0.037 A 
ATOM     47  C   UNL A   1      46.600  28.703  30.055  1.00  0.00     0.049 A 
ATOM     48  C   UNL A   1      41.138  29.853  29.822  1.00  0.00     0.074 A 
ATOM     49  C   UNL A   1      47.441  29.726  30.461  1.00  0.00     0.029 A 
ATOM     50  N   UNL A   1      45.311  29.214  30.075  1.00  0.00    -0.354 N 
ATOM     51  N   UNL A   1      42.440  29.741  29.921  1.00  0.00    -0.248 NA
ATOM     52  C   UNL A   1      40.617  31.173  30.209  1.00  0.00     0.031 C 
ATOM     53  C   UNL A   1      46.655  30.845  30.759  1.00  0.00     0.029 A 
ATOM     54  C   UNL A   1      45.331  30.532  30.500  1.00  0.00     0.049 A 
ATOM     55  H   UNL A   1      44.502  28.713  29.823  1.00  0.00     0.167 HD
ATOM     56  C   UNL A   1      42.897  30.978  30.360  1.00  0.00     0.074 A 
ATOM     57  C   UNL A   1      41.734  31.830  30.493  1.00  0.00     0.031 C 
ATOM     58  C   UNL A   1      44.166  31.371  30.628  1.00  0.00     0.037 A 
BRANCH  45  59
ATOM     59  C   UNL A   1      48.379  26.934  29.765  1.00  0.00     0.057 A 
ATOM     60  C   UNL A   1      49.288  27.197  28.731  1.00  0.00     0.134 A 
ATOM     61  C   UNL A   1      48.863  26.270  30.899  1.00  0.00     0.134 A 
ATOM     62  F   UNL A   1      48.883  27.817  27.613  1.00  0.00    -0.206 F 
ATOM     63  C   UNL A   1      50.621  26.791  28.811  1.00  0.00     0.040 A 
ATOM     64  C   UNL A   1      50.200  25.878  31.000  1.00  0.00     0.040 A 
ATOM     65  F   UNL A   1      48.048  25.991  31.926  1.00  0.00    -0.206 F 
ATOM     66  C   UNL A   1      51.081  26.133  29.951  1.00  0.00     0.006 A 
ENDBRANCH  45  59
BRANCH  46  67
ATOM     67  C   UNL A   1      38.687  29.174  29.309  1.00  0.00     0.057 A 
ATOM     68  C   UNL A   1      37.884  29.117  30.454  1.00  0.00     0.134 A 
ATOM     69  C   UNL A   1      38.078  29.561  28.110  1.00  0.00     0.134 A 
ATOM     70  F   UNL A   1      38.409  28.732  31.627  1.00  0.00    -0.206 F 
ATOM     71  C   UNL A   1      36.524  29.422  30.406  1.00  0.00     0.040 A 
ATOM     72  C   UNL A   1      36.723  29.890  28.052  1.00  0.00     0.040 A 
ATOM     73  F   UNL A   1      38.796  29.636  26.980  1.00  0.00    -0.206 F 
ATOM     74  C   UNL A   1      35.941  29.816  29.203  1.00  0.00     0.006 A 
ENDBRANCH  46  67
BRANCH  58  75
ATOM     75  C   UNL A   1      44.363  32.793  31.064  1.00  0.00     0.057 A 
ATOM     76  C   UNL A   1      44.452  33.145  32.417  1.00  0.00     0.134 A 
ATOM     77  C   UNL A   1      44.479  33.820  30.119  1.00  0.00     0.134 A 
ATOM     78  F   UNL A   1      44.336  32.211  33.373  1.00  0.00    -0.206 F 
ATOM     79  C   UNL A   1      44.622  34.473  32.815  1.00  0.00     0.040 A 
ATOM     80  C   UNL A   1      44.673  35.148  30.504  1.00  0.00     0.040 A 
ATOM     81  F   UNL A   1      44.411  33.549  28.807  1.00  0.00    -0.206 F 
ATOM     82  C   UNL A   1      44.738  35.477  31.856  1.00  0.00     0.006 A 
ENDBRANCH  58  75
ENDBRANCH  32  33
ENDBRANCH  25  27
ENDBRANCH  24  25
ENDBRANCH  23  24
ENDBRANCH   1  23
TORSDOF 15
ENDMDL
MODEL 3
REMARK VINA RESULT:     -10.5      2.284      7.174
REMARK SMILES CCc1cc(/C=C/C(=O)OCCOC(=O)c2ccc(-c3c4nc(c(-c5c(F)cccc5F)c5ccc([nH]5)c(-c5c(F)cccc5F)c5nc(c(-c6c(F)cccc6F)c6ccc3[nH]6)C=C5)C=C4)cc2)cc(C(=O)c2ccccc2)c1
REMARK SMILES IDX 11 1 10 2 8 3 9 4 7 5 6 6 5 7 3 8 4 9 80 10 71 11 70 12 2 13
REMARK SMILES IDX 1 14 72 15 73 16 74 17 75 18 79 19 76 20 78 21 77 22 12 23
REMARK SMILES IDX 13 24 14 25 15 26 16 27 17 28 69 29 18 30 68 31 19 32 20 33
REMARK SMILES IDX 21 34 62 35 22 36 67 37 61 38 63 39 23 40 66 41 60 42 59 43
REMARK SMILES IDX 24 45 50 46 33 47 49 48 34 49 37 50 48 51 64 52 35 53 36 54
REMARK SMILES IDX 47 56 65 57 38 58 25 59 26 60 31 61 27 62 28 63 30 64 32 65
REMARK SMILES IDX 29 66 51 67 52 68 57 69 53 70 54 71 56 72 58 73 55 74 39 75
REMARK SMILES IDX 40 76 45 77 41 78 42 79 44 80 46 81 43 82
REMARK H PARENT 63 44 37 55
REMARK Flexibility Score: inf
ROOT
ATOM      1  C   UNL A   1      43.585  18.953  25.137  1.00  0.00     0.275 C 
ENDROOT
BRANCH   1   2
ATOM      2  O   UNL A   1      44.882  19.191  25.717  1.00  0.00    -0.459 OA
BRANCH   2   3
ATOM      3  C   UNL A   1      45.769  19.847  24.934  1.00  0.00     0.330 C 
ATOM      4  O   UNL A   1      46.385  19.375  23.987  1.00  0.00    -0.247 OA
BRANCH   3   5
ATOM      5  C   UNL A   1      45.886  21.278  25.277  1.00  0.00     0.094 C 
ATOM      6  C   UNL A   1      45.470  22.303  24.516  1.00  0.00     0.015 C 
BRANCH   6   7
ATOM      7  C   UNL A   1      45.736  23.709  24.864  1.00  0.00    -0.024 A 
ATOM      8  C   UNL A   1      47.317  25.512  25.371  1.00  0.00    -0.047 A 
ATOM      9  C   UNL A   1      47.048  24.171  25.068  1.00  0.00     0.011 A 
ATOM     10  C   UNL A   1      46.237  26.404  25.458  1.00  0.00     0.016 A 
ATOM     11  C   UNL A   1      44.925  25.976  25.214  1.00  0.00     0.023 A 
ATOM     12  C   UNL A   1      44.681  24.625  24.923  1.00  0.00     0.020 A 
BRANCH   8  13
ATOM     13  C   UNL A   1      48.712  26.060  25.581  1.00  0.00     0.032 C 
ATOM     14  C   UNL A   1      49.664  25.224  26.427  1.00  0.00     0.009 C 
ENDBRANCH   8  13
BRANCH  11  15
ATOM     15  C   UNL A   1      43.762  26.906  25.301  1.00  0.00     0.193 C 
ATOM     16  O   UNL A   1      42.686  26.591  24.797  1.00  0.00    -0.289 OA
BRANCH  15  17
ATOM     17  C   UNL A   1      43.849  28.202  26.017  1.00  0.00     0.022 A 
ATOM     18  C   UNL A   1      42.681  28.956  26.169  1.00  0.00     0.012 A 
ATOM     19  C   UNL A   1      45.065  28.683  26.518  1.00  0.00     0.012 A 
ATOM     20  C   UNL A   1      42.720  30.168  26.859  1.00  0.00     0.001 A 
ATOM     21  C   UNL A   1      45.097  29.897  27.209  1.00  0.00     0.001 A 
ATOM     22  C   UNL A   1      43.925  30.634  27.385  1.00  0.00     0.000 A 
ENDBRANCH  15  17
ENDBRANCH  11  15
ENDBRANCH   6   7
ENDBRANCH   3   5
ENDBRANCH   2   3
ENDBRANCH   1   2
BRANCH   1  23
ATOM     23  C   UNL A   1      42.721  18.075  26.047  1.00  0.00     0.275 C 
BRANCH  23  24
ATOM     24  O   UNL A   1      41.993  18.855  27.015  1.00  0.00    -0.458 OA
BRANCH  24  25
ATOM     25  C   UNL A   1      41.257  19.865  26.490  1.00  0.00     0.338 C 
ATOM     26  O   UNL A   1      40.211  19.764  25.870  1.00  0.00    -0.246 OA
BRANCH  25  27
ATOM     27  C   UNL A   1      41.831  21.173  26.855  1.00  0.00     0.060 A 
ATOM     28  C   UNL A   1      42.252  21.342  28.178  1.00  0.00     0.016 A 
ATOM     29  C   UNL A   1      41.868  22.247  25.960  1.00  0.00     0.016 A 
ATOM     30  C   UNL A   1      42.681  22.591  28.621  1.00  0.00     0.010 A 
ATOM     31  C   UNL A   1      42.298  23.503  26.408  1.00  0.00     0.010 A 
ATOM     32  C   UNL A   1      42.681  23.687  27.748  1.00  0.00    -0.014 A 
BRANCH  32  33
ATOM     33  C   UNL A   1      43.000  25.030  28.290  1.00  0.00     0.031 A 
ATOM     34  C   UNL A   1      41.900  26.032  28.505  1.00  0.00     0.074 A 
ATOM     35  C   UNL A   1      44.259  25.328  28.655  1.00  0.00     0.049 A 
ATOM     36  N   UNL A   1      41.958  27.221  29.052  1.00  0.00    -0.248 NA
ATOM     37  C   UNL A   1      40.559  25.646  28.045  1.00  0.00     0.031 C 
ATOM     38  C   UNL A   1      45.412  24.441  28.505  1.00  0.00     0.029 A 
ATOM     39  N   UNL A   1      44.774  26.457  29.241  1.00  0.00    -0.354 N 
ATOM     40  C   UNL A   1      40.665  27.725  29.000  1.00  0.00     0.074 A 
ATOM     41  C   UNL A   1      39.851  26.726  28.339  1.00  0.00     0.031 C 
ATOM     42  C   UNL A   1      46.500  25.057  28.998  1.00  0.00     0.029 A 
ATOM     43  C   UNL A   1      46.123  26.382  29.485  1.00  0.00     0.049 A 
ATOM     44  H   UNL A   1      44.228  27.244  29.466  1.00  0.00     0.167 HD
ATOM     45  C   UNL A   1      40.196  28.907  29.467  1.00  0.00     0.037 A 
ATOM     46  C   UNL A   1      46.958  27.279  30.041  1.00  0.00     0.037 A 
ATOM     47  C   UNL A   1      41.001  29.901  30.129  1.00  0.00     0.049 A 
ATOM     48  C   UNL A   1      46.416  28.587  30.546  1.00  0.00     0.074 A 
ATOM     49  C   UNL A   1      40.608  31.119  30.659  1.00  0.00     0.029 A 
ATOM     50  N   UNL A   1      42.367  29.794  30.345  1.00  0.00    -0.354 N 
ATOM     51  N   UNL A   1      45.183  29.033  30.531  1.00  0.00    -0.248 NA
ATOM     52  C   UNL A   1      47.381  29.511  31.158  1.00  0.00     0.031 C 
ATOM     53  C   UNL A   1      41.743  31.763  31.164  1.00  0.00     0.029 A 
ATOM     54  C   UNL A   1      42.834  30.930  30.986  1.00  0.00     0.049 A 
ATOM     55  H   UNL A   1      42.921  29.025  30.082  1.00  0.00     0.167 HD
ATOM     56  C   UNL A   1      45.220  30.277  31.150  1.00  0.00     0.074 A 
ATOM     57  C   UNL A   1      46.595  30.508  31.542  1.00  0.00     0.031 C 
ATOM     58  C   UNL A   1      44.206  31.148  31.373  1.00  0.00     0.037 A 
BRANCH  45  59
ATOM     59  C   UNL A   1      38.738  29.193  29.259  1.00  0.00     0.057 A 
ATOM     60  C   UNL A   1      38.227  29.562  28.008  1.00  0.00     0.134 A 
ATOM     61  C   UNL A   1      37.832  29.084  30.322  1.00  0.00     0.134 A 
ATOM     62  F   UNL A   1      39.046  29.696  26.953  1.00  0.00    -0.206 F 
ATOM     63  C   UNL A   1      36.872  29.839  27.826  1.00  0.00     0.040 A 
ATOM     64  C   UNL A   1      36.470  29.337  30.147  1.00  0.00     0.040 A 
ATOM     65  F   UNL A   1      38.254  28.732  31.544  1.00  0.00    -0.206 F 
ATOM     66  C   UNL A   1      35.988  29.722  28.898  1.00  0.00     0.006 A 
ENDBRANCH  45  59
BRANCH  46  67
ATOM     67  C   UNL A   1      48.400  26.959  30.168  1.00  0.00     0.057 A 
ATOM     68  C   UNL A   1      48.880  26.172  31.221  1.00  0.00     0.134 A 
ATOM     69  C   UNL A   1      49.332  27.433  29.238  1.00  0.00     0.134 A 
ATOM     70  F   UNL A   1      48.035  25.708  32.155  1.00  0.00    -0.206 F 
ATOM     71  C   UNL A   1      50.237  25.878  31.352  1.00  0.00     0.040 A 
ATOM     72  C   UNL A   1      50.689  27.129  29.344  1.00  0.00     0.040 A 
ATOM     73  F   UNL A   1      48.932  28.191  28.206  1.00  0.00    -0.206 F 
ATOM     74  C   UNL A   1      51.145  26.351  30.407  1.00  0.00     0.006 A 
ENDBRANCH  46  67
BRANCH  58  75
ATOM     75  C   UNL A   1      44.543  32.418  32.097  1.00  0.00     0.057 A 
ATOM     76  C   UNL A   1      44.884  33.591  31.414  1.00  0.00     0.134 A 
ATOM     77  C   UNL A   1      44.512  32.470  33.497  1.00  0.00     0.134 A 
ATOM     78  F   UNL A   1      44.945  33.604  30.073  1.00  0.00    -0.206 F 
ATOM     79  C   UNL A   1      45.209  34.765  32.096  1.00  0.00     0.040 A 
ATOM     80  C   UNL A   1      44.811  33.644  34.190  1.00  0.00     0.040 A 
ATOM     81  F   UNL A   1      44.185  31.383  34.212  1.00  0.00    -0.206 F 
ATOM     82  C   UNL A   1      45.168  34.793  33.489  1.00  0.00     0.006 A 
ENDBRANCH  58  75
ENDBRANCH  32  33
ENDBRANCH  25  27
ENDBRANCH  24  25
ENDBRANCH  23  24
ENDBRANCH   1  23
TORSDOF 15
ENDMDL
