MODEL 1
REMARK VINA RESULT:     -11.4      0.000      0.000
REMARK SMILES CCOc1cccc(-c2ccc([C@@H](C)C(=O)OCCOC(=O)c3ccc(-c4c5nc(c(-c6c(F)cccc6F)c6ccc([nH]6)c(-c6c(F)cccc6F)c6nc(c(-c7c(F)cccc7F)c7ccc4[nH]7)C=C6)C=C5)cc3)cc2F)c1
REMARK SMILES IDX 18 1 17 2 15 3 16 4 13 5 14 6 12 7 9 8 10 9 78 10 11 11
REMARK SMILES IDX 77 12 79 13 8 14 4 15 5 16 80 17 6 18 7 19 3 20 2 21 1 22
REMARK SMILES IDX 19 23 20 24 21 25 22 26 23 27 24 28 76 29 25 30 75 31 26 32
REMARK SMILES IDX 27 33 28 34 69 35 29 36 74 37 68 38 70 39 30 40 73 41 67 42
REMARK SMILES IDX 66 43 31 45 57 46 40 47 56 48 41 49 44 50 55 51 71 52 42 53
REMARK SMILES IDX 43 54 54 56 72 57 45 58 32 59 33 60 38 61 34 62 35 63 37 64
REMARK SMILES IDX 39 65 36 66 58 67 59 68 64 69 60 70 61 71 63 72 65 73 62 74
REMARK SMILES IDX 46 75 47 76 52 77 48 78 49 79 51 80 53 81 50 82
REMARK H PARENT 70 44 44 55
REMARK Flexibility Score: inf
ROOT
ATOM      1  C   UNL A   1      43.925  21.195  25.481  1.00  0.00     0.274 C 
ENDROOT
BRANCH   1   2
ATOM      2  O   UNL A   1      42.675  20.542  25.189  1.00  0.00    -0.462 OA
BRANCH   2   3
ATOM      3  C   UNL A   1      41.808  20.380  26.223  1.00  0.00     0.313 C 
ATOM      4  O   UNL A   1      41.625  19.318  26.811  1.00  0.00    -0.252 OA
BRANCH   3   5
ATOM      5  C   UNL A   1      41.028  21.643  26.574  1.00  0.00     0.126 C 
ATOM      6  C   UNL A   1      41.114  21.913  28.073  1.00  0.00     0.025 C 
BRANCH   5   7
ATOM      7  C   UNL A   1      39.601  21.707  26.049  1.00  0.00    -0.031 A 
ATOM      8  C   UNL A   1      36.936  21.894  25.052  1.00  0.00     0.018 A 
ATOM      9  C   UNL A   1      37.671  20.702  24.950  1.00  0.00     0.012 A 
ATOM     10  C   UNL A   1      37.566  22.981  25.673  1.00  0.00     0.131 A 
ATOM     11  C   UNL A   1      38.979  20.608  25.444  1.00  0.00     0.005 A 
ATOM     12  C   UNL A   1      38.869  22.896  26.165  1.00  0.00     0.044 A 
ATOM     13  F   UNL A   1      36.919  24.149  25.821  1.00  0.00    -0.206 F 
BRANCH   8  14
ATOM     14  C   UNL A   1      35.574  21.992  24.498  1.00  0.00    -0.012 A 
ATOM     15  C   UNL A   1      33.259  21.232  24.437  1.00  0.00     0.119 A 
ATOM     16  C   UNL A   1      32.950  22.184  23.470  1.00  0.00     0.046 A 
ATOM     17  C   UNL A   1      34.560  21.119  24.926  1.00  0.00     0.055 A 
ATOM     18  C   UNL A   1      33.942  23.053  23.021  1.00  0.00     0.004 A 
ATOM     19  C   UNL A   1      35.240  22.962  23.536  1.00  0.00     0.009 A 
BRANCH  15  20
ATOM     20  O   UNL A   1      32.286  20.351  24.818  1.00  0.00    -0.494 OA
BRANCH  20  21
ATOM     21  C   UNL A   1      32.397  19.086  24.153  1.00  0.00     0.226 C 
ATOM     22  C   UNL A   1      32.731  17.975  25.136  1.00  0.00     0.049 C 
ENDBRANCH  20  21
ENDBRANCH  15  20
ENDBRANCH   8  14
ENDBRANCH   5   7
ENDBRANCH   3   5
ENDBRANCH   2   3
ENDBRANCH   1   2
BRANCH   1  23
ATOM     23  C   UNL A   1      44.200  22.338  24.500  1.00  0.00     0.275 C 
BRANCH  23  24
ATOM     24  O   UNL A   1      43.495  23.534  24.880  1.00  0.00    -0.458 OA
BRANCH  24  25
ATOM     25  C   UNL A   1      44.280  24.599  25.160  1.00  0.00     0.338 C 
ATOM     26  O   UNL A   1      45.321  24.921  24.616  1.00  0.00    -0.246 OA
BRANCH  25  27
ATOM     27  C   UNL A   1      43.625  25.428  26.181  1.00  0.00     0.060 A 
ATOM     28  C   UNL A   1      44.037  26.756  26.314  1.00  0.00     0.016 A 
ATOM     29  C   UNL A   1      42.678  24.886  27.051  1.00  0.00     0.016 A 
ATOM     30  C   UNL A   1      43.516  27.551  27.328  1.00  0.00     0.010 A 
ATOM     31  C   UNL A   1      42.147  25.687  28.065  1.00  0.00     0.010 A 
ATOM     32  C   UNL A   1      42.573  27.020  28.217  1.00  0.00    -0.014 A 
BRANCH  32  33
ATOM     33  C   UNL A   1      42.071  27.849  29.337  1.00  0.00     0.031 A 
ATOM     34  C   UNL A   1      42.795  27.849  30.651  1.00  0.00     0.074 A 
ATOM     35  C   UNL A   1      40.980  28.617  29.164  1.00  0.00     0.049 A 
ATOM     36  N   UNL A   1      42.473  28.438  31.775  1.00  0.00    -0.248 NA
ATOM     37  C   UNL A   1      44.049  27.082  30.709  1.00  0.00     0.031 C 
ATOM     38  C   UNL A   1      40.221  28.738  27.920  1.00  0.00     0.029 A 
ATOM     39  N   UNL A   1      40.322  29.440  30.042  1.00  0.00    -0.354 N 
ATOM     40  C   UNL A   1      43.471  28.099  32.678  1.00  0.00     0.074 A 
ATOM     41  C   UNL A   1      44.403  27.240  31.977  1.00  0.00     0.031 C 
ATOM     42  C   UNL A   1      39.198  29.588  28.114  1.00  0.00     0.029 A 
ATOM     43  C   UNL A   1      39.207  30.035  29.504  1.00  0.00     0.049 A 
ATOM     44  H   UNL A   1      40.619  29.591  30.969  1.00  0.00     0.167 HD
ATOM     45  C   UNL A   1      43.599  28.474  33.972  1.00  0.00     0.037 A 
ATOM     46  C   UNL A   1      38.283  30.828  30.077  1.00  0.00     0.037 A 
ATOM     47  C   UNL A   1      42.678  29.340  34.662  1.00  0.00     0.049 A 
ATOM     48  C   UNL A   1      38.415  31.181  31.532  1.00  0.00     0.074 A 
ATOM     49  C   UNL A   1      42.726  29.783  35.972  1.00  0.00     0.029 A 
ATOM     50  N   UNL A   1      41.543  29.896  34.092  1.00  0.00    -0.354 N 
ATOM     51  N   UNL A   1      39.354  30.844  32.382  1.00  0.00    -0.248 NA
ATOM     52  C   UNL A   1      37.354  32.018  32.109  1.00  0.00     0.031 C 
ATOM     53  C   UNL A   1      41.600  30.582  36.205  1.00  0.00     0.029 A 
ATOM     54  C   UNL A   1      40.872  30.664  35.029  1.00  0.00     0.049 A 
ATOM     55  H   UNL A   1      41.256  29.763  33.159  1.00  0.00     0.167 HD
ATOM     56  C   UNL A   1      39.009  31.441  33.587  1.00  0.00     0.074 A 
ATOM     57  C   UNL A   1      37.780  32.172  33.355  1.00  0.00     0.031 C 
ATOM     58  C   UNL A   1      39.652  31.387  34.779  1.00  0.00     0.037 A 
BRANCH  45  59
ATOM     59  C   UNL A   1      44.766  27.924  34.735  1.00  0.00     0.057 A 
ATOM     60  C   UNL A   1      44.698  26.697  35.408  1.00  0.00     0.134 A 
ATOM     61  C   UNL A   1      45.981  28.618  34.775  1.00  0.00     0.134 A 
ATOM     62  F   UNL A   1      43.557  25.990  35.419  1.00  0.00    -0.206 F 
ATOM     63  C   UNL A   1      45.792  26.191  36.112  1.00  0.00     0.040 A 
ATOM     64  C   UNL A   1      47.089  28.112  35.458  1.00  0.00     0.040 A 
ATOM     65  F   UNL A   1      46.113  29.797  34.148  1.00  0.00    -0.206 F 
ATOM     66  C   UNL A   1      46.993  26.898  36.133  1.00  0.00     0.006 A 
ENDBRANCH  45  59
BRANCH  46  67
ATOM     67  C   UNL A   1      37.137  31.325  29.277  1.00  0.00     0.057 A 
ATOM     68  C   UNL A   1      37.135  32.616  28.740  1.00  0.00     0.134 A 
ATOM     69  C   UNL A   1      36.017  30.521  29.033  1.00  0.00     0.134 A 
ATOM     70  F   UNL A   1      38.171  33.440  28.960  1.00  0.00    -0.206 F 
ATOM     71  C   UNL A   1      36.056  33.097  27.997  1.00  0.00     0.040 A 
ATOM     72  C   UNL A   1      34.941  30.980  28.273  1.00  0.00     0.040 A 
ATOM     73  F   UNL A   1      35.959  29.274  29.521  1.00  0.00    -0.206 F 
ATOM     74  C   UNL A   1      34.957  32.274  27.756  1.00  0.00     0.006 A 
ENDBRANCH  46  67
BRANCH  58  75
ATOM     75  C   UNL A   1      39.049  32.160  35.913  1.00  0.00     0.057 A 
ATOM     76  C   UNL A   1      38.184  31.560  36.836  1.00  0.00     0.134 A 
ATOM     77  C   UNL A   1      39.368  33.511  36.103  1.00  0.00     0.134 A 
ATOM     78  F   UNL A   1      37.831  30.273  36.697  1.00  0.00    -0.206 F 
ATOM     79  C   UNL A   1      37.641  32.282  37.899  1.00  0.00     0.040 A 
ATOM     80  C   UNL A   1      38.847  34.236  37.174  1.00  0.00     0.040 A 
ATOM     81  F   UNL A   1      40.196  34.142  35.258  1.00  0.00    -0.206 F 
ATOM     82  C   UNL A   1      37.977  33.624  38.074  1.00  0.00     0.006 A 
ENDBRANCH  58  75
ENDBRANCH  32  33
ENDBRANCH  25  27
ENDBRANCH  24  25
ENDBRANCH  23  24
ENDBRANCH   1  23
TORSDOF 15
ENDMDL
MODEL 2
REMARK VINA RESULT:     -11.3      5.472     10.733
REMARK SMILES CCOc1cccc(-c2ccc([C@@H](C)C(=O)OCCOC(=O)c3ccc(-c4c5nc(c(-c6c(F)cccc6F)c6ccc([nH]6)c(-c6c(F)cccc6F)c6nc(c(-c7c(F)cccc7F)c7ccc4[nH]7)C=C6)C=C5)cc3)cc2F)c1
REMARK SMILES IDX 18 1 17 2 15 3 16 4 13 5 14 6 12 7 9 8 10 9 78 10 11 11
REMARK SMILES IDX 77 12 79 13 8 14 4 15 5 16 80 17 6 18 7 19 3 20 2 21 1 22
REMARK SMILES IDX 19 23 20 24 21 25 22 26 23 27 24 28 76 29 25 30 75 31 26 32
REMARK SMILES IDX 27 33 28 34 69 35 29 36 74 37 68 38 70 39 30 40 73 41 67 42
REMARK SMILES IDX 66 43 31 45 57 46 40 47 56 48 41 49 44 50 55 51 71 52 42 53
REMARK SMILES IDX 43 54 54 56 72 57 45 58 32 59 33 60 38 61 34 62 35 63 37 64
REMARK SMILES IDX 39 65 36 66 58 67 59 68 64 69 60 70 61 71 63 72 65 73 62 74
REMARK SMILES IDX 46 75 47 76 52 77 48 78 49 79 51 80 53 81 50 82
REMARK H PARENT 70 44 44 55
REMARK Flexibility Score: inf
ROOT
ATOM      1  C   UNL A   1      34.388  34.504  31.379  1.00  0.00     0.274 C 
ENDROOT
BRANCH   1   2
ATOM      2  O   UNL A   1      33.368  34.438  30.365  1.00  0.00    -0.462 OA
BRANCH   2   3
ATOM      3  C   UNL A   1      33.785  34.406  29.072  1.00  0.00     0.313 C 
ATOM      4  O   UNL A   1      33.519  35.267  28.239  1.00  0.00    -0.252 OA
BRANCH   3   5
ATOM      5  C   UNL A   1      34.592  33.161  28.717  1.00  0.00     0.126 C 
ATOM      6  C   UNL A   1      35.896  33.559  28.031  1.00  0.00     0.025 C 
BRANCH   5   7
ATOM      7  C   UNL A   1      33.839  32.078  27.960  1.00  0.00    -0.031 A 
ATOM      8  C   UNL A   1      32.462  29.998  26.576  1.00  0.00     0.018 A 
ATOM      9  C   UNL A   1      31.854  31.240  26.819  1.00  0.00     0.012 A 
ATOM     10  C   UNL A   1      33.777  29.831  27.033  1.00  0.00     0.131 A 
ATOM     11  C   UNL A   1      32.531  32.264  27.495  1.00  0.00     0.005 A 
ATOM     12  C   UNL A   1      34.457  30.844  27.710  1.00  0.00     0.044 A 
ATOM     13  F   UNL A   1      34.429  28.676  26.823  1.00  0.00    -0.206 F 
BRANCH   8  14
ATOM     14  C   UNL A   1      31.728  28.917  25.894  1.00  0.00    -0.012 A 
ATOM     15  C   UNL A   1      30.574  28.063  23.925  1.00  0.00     0.119 A 
ATOM     16  C   UNL A   1      30.346  26.847  24.561  1.00  0.00     0.046 A 
ATOM     17  C   UNL A   1      31.233  29.094  24.592  1.00  0.00     0.055 A 
ATOM     18  C   UNL A   1      30.817  26.651  25.858  1.00  0.00     0.004 A 
ATOM     19  C   UNL A   1      31.508  27.675  26.515  1.00  0.00     0.009 A 
BRANCH  15  20
ATOM     20  O   UNL A   1      30.051  28.254  22.677  1.00  0.00    -0.494 OA
BRANCH  20  21
ATOM     21  C   UNL A   1      29.148  29.365  22.623  1.00  0.00     0.226 C 
ATOM     22  C   UNL A   1      27.715  28.925  22.879  1.00  0.00     0.049 C 
ENDBRANCH  20  21
ENDBRANCH  15  20
ENDBRANCH   8  14
ENDBRANCH   5   7
ENDBRANCH   3   5
ENDBRANCH   2   3
ENDBRANCH   1   2
BRANCH   1  23
ATOM     23  C   UNL A   1      34.257  33.351  32.378  1.00  0.00     0.275 C 
BRANCH  23  24
ATOM     24  O   UNL A   1      35.112  32.250  32.020  1.00  0.00    -0.458 OA
BRANCH  24  25
ATOM     25  C   UNL A   1      36.176  32.061  32.832  1.00  0.00     0.338 C 
ATOM     26  O   UNL A   1      36.244  32.264  34.032  1.00  0.00    -0.246 OA
BRANCH  25  27
ATOM     27  C   UNL A   1      37.264  31.435  32.069  1.00  0.00     0.060 A 
ATOM     28  C   UNL A   1      38.297  30.820  32.779  1.00  0.00     0.016 A 
ATOM     29  C   UNL A   1      37.311  31.523  30.677  1.00  0.00     0.016 A 
ATOM     30  C   UNL A   1      39.396  30.299  32.103  1.00  0.00     0.010 A 
ATOM     31  C   UNL A   1      38.411  30.993  29.997  1.00  0.00     0.010 A 
ATOM     32  C   UNL A   1      39.464  30.390  30.707  1.00  0.00    -0.014 A 
BRANCH  32  33
ATOM     33  C   UNL A   1      40.667  29.895  29.999  1.00  0.00     0.031 A 
ATOM     34  C   UNL A   1      41.840  30.806  29.790  1.00  0.00     0.074 A 
ATOM     35  C   UNL A   1      40.711  28.622  29.563  1.00  0.00     0.049 A 
ATOM     36  N   UNL A   1      42.947  30.593  29.126  1.00  0.00    -0.248 NA
ATOM     37  C   UNL A   1      41.756  32.137  30.412  1.00  0.00     0.031 C 
ATOM     38  C   UNL A   1      39.653  27.630  29.749  1.00  0.00     0.029 A 
ATOM     39  N   UNL A   1      41.687  27.950  28.872  1.00  0.00    -0.354 N 
ATOM     40  C   UNL A   1      43.683  31.765  29.232  1.00  0.00     0.074 A 
ATOM     41  C   UNL A   1      42.891  32.693  30.012  1.00  0.00     0.031 C 
ATOM     42  C   UNL A   1      40.038  26.472  29.186  1.00  0.00     0.029 A 
ATOM     43  C   UNL A   1      41.347  26.656  28.565  1.00  0.00     0.049 A 
ATOM     44  H   UNL A   1      42.548  28.356  28.622  1.00  0.00     0.167 HD
ATOM     45  C   UNL A   1      44.910  32.039  28.727  1.00  0.00     0.037 A 
ATOM     46  C   UNL A   1      42.006  25.734  27.839  1.00  0.00     0.037 A 
ATOM     47  C   UNL A   1      45.700  31.108  27.965  1.00  0.00     0.049 A 
ATOM     48  C   UNL A   1      43.339  26.083  27.239  1.00  0.00     0.074 A 
ATOM     49  C   UNL A   1      46.958  31.291  27.417  1.00  0.00     0.029 A 
ATOM     50  N   UNL A   1      45.308  29.818  27.646  1.00  0.00    -0.354 N 
ATOM     51  N   UNL A   1      44.020  27.198  27.332  1.00  0.00    -0.248 NA
ATOM     52  C   UNL A   1      43.990  25.047  26.425  1.00  0.00     0.031 C 
ATOM     53  C   UNL A   1      47.312  30.120  26.736  1.00  0.00     0.029 A 
ATOM     54  C   UNL A   1      46.291  29.197  26.892  1.00  0.00     0.049 A 
ATOM     55  H   UNL A   1      44.455  29.404  27.914  1.00  0.00     0.167 HD
ATOM     56  C   UNL A   1      45.187  26.994  26.608  1.00  0.00     0.074 A 
ATOM     57  C   UNL A   1      45.126  25.643  26.089  1.00  0.00     0.031 C 
ATOM     58  C   UNL A   1      46.214  27.850  26.389  1.00  0.00     0.037 A 
BRANCH  45  59
ATOM     59  C   UNL A   1      45.458  33.413  28.963  1.00  0.00     0.057 A 
ATOM     60  C   UNL A   1      46.293  33.701  30.050  1.00  0.00     0.134 A 
ATOM     61  C   UNL A   1      45.166  34.457  28.077  1.00  0.00     0.134 A 
ATOM     62  F   UNL A   1      46.599  32.747  30.943  1.00  0.00    -0.206 F 
ATOM     63  C   UNL A   1      46.802  34.984  30.258  1.00  0.00     0.040 A 
ATOM     64  C   UNL A   1      45.687  35.740  28.262  1.00  0.00     0.040 A 
ATOM     65  F   UNL A   1      44.375  34.247  27.013  1.00  0.00    -0.206 F 
ATOM     66  C   UNL A   1      46.503  36.006  29.359  1.00  0.00     0.006 A 
ENDBRANCH  45  59
BRANCH  46  67
ATOM     67  C   UNL A   1      41.403  24.396  27.621  1.00  0.00     0.057 A 
ATOM     68  C   UNL A   1      41.837  23.281  28.345  1.00  0.00     0.134 A 
ATOM     69  C   UNL A   1      40.381  24.202  26.684  1.00  0.00     0.134 A 
ATOM     70  F   UNL A   1      42.828  23.400  29.240  1.00  0.00    -0.206 F 
ATOM     71  C   UNL A   1      41.284  22.016  28.137  1.00  0.00     0.040 A 
ATOM     72  C   UNL A   1      39.804  22.948  26.482  1.00  0.00     0.040 A 
ATOM     73  F   UNL A   1      39.922  25.233  25.959  1.00  0.00    -0.206 F 
ATOM     74  C   UNL A   1      40.259  21.849  27.207  1.00  0.00     0.006 A 
ENDBRANCH  46  67
BRANCH  58  75
ATOM     75  C   UNL A   1      47.366  27.338  25.577  1.00  0.00     0.057 A 
ATOM     76  C   UNL A   1      47.432  27.529  24.192  1.00  0.00     0.134 A 
ATOM     77  C   UNL A   1      48.436  26.679  26.194  1.00  0.00     0.134 A 
ATOM     78  F   UNL A   1      46.430  28.141  23.542  1.00  0.00    -0.206 F 
ATOM     79  C   UNL A   1      48.515  27.066  23.445  1.00  0.00     0.040 A 
ATOM     80  C   UNL A   1      49.534  26.229  25.460  1.00  0.00     0.040 A 
ATOM     81  F   UNL A   1      48.435  26.471  27.519  1.00  0.00    -0.206 F 
ATOM     82  C   UNL A   1      49.574  26.418  24.080  1.00  0.00     0.006 A 
ENDBRANCH  58  75
ENDBRANCH  32  33
ENDBRANCH  25  27
ENDBRANCH  24  25
ENDBRANCH  23  24
ENDBRANCH   1  23
TORSDOF 15
ENDMDL
MODEL 3
REMARK VINA RESULT:     -11.3      4.525      9.418
REMARK SMILES CCOc1cccc(-c2ccc([C@@H](C)C(=O)OCCOC(=O)c3ccc(-c4c5nc(c(-c6c(F)cccc6F)c6ccc([nH]6)c(-c6c(F)cccc6F)c6nc(c(-c7c(F)cccc7F)c7ccc4[nH]7)C=C6)C=C5)cc3)cc2F)c1
REMARK SMILES IDX 18 1 17 2 15 3 16 4 13 5 14 6 12 7 9 8 10 9 78 10 11 11
REMARK SMILES IDX 77 12 79 13 8 14 4 15 5 16 80 17 6 18 7 19 3 20 2 21 1 22
REMARK SMILES IDX 19 23 20 24 21 25 22 26 23 27 24 28 76 29 25 30 75 31 26 32
REMARK SMILES IDX 27 33 28 34 69 35 29 36 74 37 68 38 70 39 30 40 73 41 67 42
REMARK SMILES IDX 66 43 31 45 57 46 40 47 56 48 41 49 44 50 55 51 71 52 42 53
REMARK SMILES IDX 43 54 54 56 72 57 45 58 32 59 33 60 38 61 34 62 35 63 37 64
REMARK SMILES IDX 39 65 36 66 58 67 59 68 64 69 60 70 61 71 63 72 65 73 62 74
REMARK SMILES IDX 46 75 47 76 52 77 48 78 49 79 51 80 53 81 50 82
REMARK H PARENT 70 44 44 55
REMARK Flexibility Score: inf
ROOT
ATOM      1  C   UNL A   1      32.787  35.533  28.783  1.00  0.00     0.274 C 
ENDROOT
BRANCH   1   2
ATOM      2  O   UNL A   1      33.472  34.284  28.998  1.00  0.00    -0.462 OA
BRANCH   2   3
ATOM      3  C   UNL A   1      34.541  34.022  28.201  1.00  0.00     0.313 C 
ATOM      4  O   UNL A   1      34.858  34.698  27.227  1.00  0.00    -0.252 OA
BRANCH   3   5
ATOM      5  C   UNL A   1      35.308  32.764  28.596  1.00  0.00     0.126 C 
ATOM      6  C   UNL A   1      36.805  32.975  28.384  1.00  0.00     0.025 C 
BRANCH   5   7
ATOM      7  C   UNL A   1      34.808  31.465  27.984  1.00  0.00    -0.031 A 
ATOM      8  C   UNL A   1      33.831  29.064  26.794  1.00  0.00     0.018 A 
ATOM      9  C   UNL A   1      35.140  29.150  27.293  1.00  0.00     0.012 A 
ATOM     10  C   UNL A   1      33.025  30.205  26.915  1.00  0.00     0.131 A 
ATOM     11  C   UNL A   1      35.620  30.328  27.882  1.00  0.00     0.005 A 
ATOM     12  C   UNL A   1      33.496  31.382  27.498  1.00  0.00     0.044 A 
ATOM     13  F   UNL A   1      31.756  30.192  26.475  1.00  0.00    -0.206 F 
BRANCH   8  14
ATOM     14  C   UNL A   1      33.348  27.832  26.145  1.00  0.00    -0.012 A 
ATOM     15  C   UNL A   1      31.919  25.857  26.160  1.00  0.00     0.119 A 
ATOM     16  C   UNL A   1      32.389  25.483  24.905  1.00  0.00     0.046 A 
ATOM     17  C   UNL A   1      32.412  27.003  26.784  1.00  0.00     0.055 A 
ATOM     18  C   UNL A   1      33.327  26.282  24.256  1.00  0.00     0.004 A 
ATOM     19  C   UNL A   1      33.797  27.449  24.868  1.00  0.00     0.009 A 
BRANCH  15  20
ATOM     20  O   UNL A   1      31.045  25.027  26.803  1.00  0.00    -0.494 OA
BRANCH  20  21
ATOM     21  C   UNL A   1      31.479  23.661  26.800  1.00  0.00     0.226 C 
ATOM     22  C   UNL A   1      30.304  22.709  26.645  1.00  0.00     0.049 C 
ENDBRANCH  20  21
ENDBRANCH  15  20
ENDBRANCH   8  14
ENDBRANCH   5   7
ENDBRANCH   3   5
ENDBRANCH   2   3
ENDBRANCH   1   2
BRANCH   1  23
ATOM     23  C   UNL A   1      32.696  36.349  30.075  1.00  0.00     0.275 C 
BRANCH  23  24
ATOM     24  O   UNL A   1      32.305  35.523  31.187  1.00  0.00    -0.458 OA
BRANCH  24  25
ATOM     25  C   UNL A   1      32.696  35.973  32.401  1.00  0.00     0.338 C 
ATOM     26  O   UNL A   1      32.154  36.816  33.094  1.00  0.00    -0.246 OA
BRANCH  25  27
ATOM     27  C   UNL A   1      33.855  35.193  32.858  1.00  0.00     0.060 A 
ATOM     28  C   UNL A   1      35.121  35.773  32.756  1.00  0.00     0.016 A 
ATOM     29  C   UNL A   1      33.707  33.879  33.303  1.00  0.00     0.016 A 
ATOM     30  C   UNL A   1      36.254  35.037  33.084  1.00  0.00     0.010 A 
ATOM     31  C   UNL A   1      34.845  33.142  33.641  1.00  0.00     0.010 A 
ATOM     32  C   UNL A   1      36.125  33.713  33.522  1.00  0.00    -0.014 A 
BRANCH  32  33
ATOM     33  C   UNL A   1      37.339  32.913  33.806  1.00  0.00     0.031 A 
ATOM     34  C   UNL A   1      38.112  33.150  35.069  1.00  0.00     0.074 A 
ATOM     35  C   UNL A   1      37.731  31.962  32.939  1.00  0.00     0.049 A 
ATOM     36  N   UNL A   1      39.241  32.617  35.463  1.00  0.00    -0.248 NA
ATOM     37  C   UNL A   1      37.539  34.117  36.018  1.00  0.00     0.031 C 
ATOM     38  C   UNL A   1      37.036  31.607  31.703  1.00  0.00     0.029 A 
ATOM     39  N   UNL A   1      38.815  31.121  32.969  1.00  0.00    -0.354 N 
ATOM     40  C   UNL A   1      39.523  33.195  36.692  1.00  0.00     0.074 A 
ATOM     41  C   UNL A   1      38.456  34.132  36.975  1.00  0.00     0.031 C 
ATOM     42  C   UNL A   1      37.710  30.619  31.091  1.00  0.00     0.029 A 
ATOM     43  C   UNL A   1      38.904  30.304  31.870  1.00  0.00     0.049 A 
ATOM     44  H   UNL A   1      39.466  31.104  33.708  1.00  0.00     0.167 HD
ATOM     45  C   UNL A   1      40.576  32.961  37.512  1.00  0.00     0.037 A 
ATOM     46  C   UNL A   1      39.858  29.421  31.518  1.00  0.00     0.037 A 
ATOM     47  C   UNL A   1      41.627  32.018  37.234  1.00  0.00     0.049 A 
ATOM     48  C   UNL A   1      41.047  29.224  32.416  1.00  0.00     0.074 A 
ATOM     49  C   UNL A   1      42.733  31.706  38.006  1.00  0.00     0.029 A 
ATOM     50  N   UNL A   1      41.700  31.233  36.094  1.00  0.00    -0.354 N 
ATOM     51  N   UNL A   1      41.313  29.786  33.569  1.00  0.00    -0.248 NA
ATOM     52  C   UNL A   1      42.072  28.276  31.958  1.00  0.00     0.031 C 
ATOM     53  C   UNL A   1      43.493  30.755  37.316  1.00  0.00     0.029 A 
ATOM     54  C   UNL A   1      42.842  30.449  36.132  1.00  0.00     0.049 A 
ATOM     55  H   UNL A   1      41.039  31.233  35.364  1.00  0.00     0.167 HD
ATOM     56  C   UNL A   1      42.524  29.249  33.985  1.00  0.00     0.074 A 
ATOM     57  C   UNL A   1      42.935  28.306  32.964  1.00  0.00     0.031 C 
ATOM     58  C   UNL A   1      43.232  29.514  35.109  1.00  0.00     0.037 A 
BRANCH  45  59
ATOM     59  C   UNL A   1      40.654  33.763  38.775  1.00  0.00     0.057 A 
ATOM     60  C   UNL A   1      41.469  34.898  38.883  1.00  0.00     0.134 A 
ATOM     61  C   UNL A   1      39.884  33.411  39.890  1.00  0.00     0.134 A 
ATOM     62  F   UNL A   1      42.241  35.279  37.854  1.00  0.00    -0.206 F 
ATOM     63  C   UNL A   1      41.531  35.640  40.064  1.00  0.00     0.040 A 
ATOM     64  C   UNL A   1      39.921  34.158  41.069  1.00  0.00     0.040 A 
ATOM     65  F   UNL A   1      39.080  32.338  39.851  1.00  0.00    -0.206 F 
ATOM     66  C   UNL A   1      40.751  35.273  41.159  1.00  0.00     0.006 A 
ENDBRANCH  45  59
BRANCH  46  67
ATOM     67  C   UNL A   1      39.737  28.672  30.243  1.00  0.00     0.057 A 
ATOM     68  C   UNL A   1      40.237  29.195  29.047  1.00  0.00     0.134 A 
ATOM     69  C   UNL A   1      39.117  27.418  30.192  1.00  0.00     0.134 A 
ATOM     70  F   UNL A   1      40.820  30.403  29.029  1.00  0.00    -0.206 F 
ATOM     71  C   UNL A   1      40.116  28.503  27.841  1.00  0.00     0.040 A 
ATOM     72  C   UNL A   1      39.009  26.705  28.998  1.00  0.00     0.040 A 
ATOM     73  F   UNL A   1      38.617  26.863  31.307  1.00  0.00    -0.206 F 
ATOM     74  C   UNL A   1      39.506  27.250  27.816  1.00  0.00     0.006 A 
ENDBRANCH  46  67
BRANCH  58  75
ATOM     75  C   UNL A   1      44.509  28.754  35.304  1.00  0.00     0.057 A 
ATOM     76  C   UNL A   1      44.536  27.510  35.945  1.00  0.00     0.134 A 
ATOM     77  C   UNL A   1      45.720  29.258  34.813  1.00  0.00     0.134 A 
ATOM     78  F   UNL A   1      43.410  26.982  36.449  1.00  0.00    -0.206 F 
ATOM     79  C   UNL A   1      45.726  26.800  36.107  1.00  0.00     0.040 A 
ATOM     80  C   UNL A   1      46.913  28.548  34.952  1.00  0.00     0.040 A 
ATOM     81  F   UNL A   1      45.761  30.442  34.184  1.00  0.00    -0.206 F 
ATOM     82  C   UNL A   1      46.919  27.317  35.604  1.00  0.00     0.006 A 
ENDBRANCH  58  75
ENDBRANCH  32  33
ENDBRANCH  25  27
ENDBRANCH  24  25
ENDBRANCH  23  24
ENDBRANCH   1  23
TORSDOF 15
ENDMDL
