MODEL 1
REMARK VINA RESULT:     -11.3      0.000      0.000
REMARK SMILES O=C(OCCOC(=O)c1cncc(Nc2cccnc2)n1)c1ccc(-c2c3nc(c(-c4c(F)cccc4F)c4ccc([nH]4)c(-c4c(F)cccc4F)c4nc(c(-c5c(F)cccc5F)c5ccc2[nH]5)C=C4)C=C3)cc1
REMARK SMILES IDX 4 1 3 2 2 3 1 4 22 5 23 6 75 7 24 8 74 9 25 10 26 11 27 12
REMARK SMILES IDX 68 13 28 14 73 15 67 16 69 17 29 18 72 19 66 20 65 21 30 23
REMARK SMILES IDX 56 24 39 25 55 26 40 27 43 28 54 29 70 30 41 31 42 32 53 34
REMARK SMILES IDX 71 35 44 36 31 37 32 38 37 39 33 40 34 41 36 42 38 43 35 44
REMARK SMILES IDX 57 45 58 46 63 47 59 48 60 49 62 50 64 51 61 52 45 53 46 54
REMARK SMILES IDX 51 55 47 56 48 57 50 58 52 59 49 60 5 61 6 62 7 63 8 64 9 65
REMARK SMILES IDX 10 66 21 67 11 68 13 69 12 70 14 71 15 73 16 74 20 75 17 76
REMARK SMILES IDX 19 77 18 78
REMARK H PARENT 69 22 43 33 14 72
REMARK Flexibility Score: inf
ROOT
ATOM      1  C   UNL A   1      45.699  22.913  25.142  1.00  0.00     0.275 C 
ENDROOT
BRANCH   1   2
ATOM      2  O   UNL A   1      44.546  23.631  24.677  1.00  0.00    -0.458 OA
BRANCH   2   3
ATOM      3  C   UNL A   1      43.312  23.743  25.220  1.00  0.00     0.338 C 
ATOM      4  O   UNL A   1      42.440  22.946  24.875  1.00  0.00    -0.246 OA
BRANCH   3   5
ATOM      5  C   UNL A   1      42.899  24.854  26.138  1.00  0.00     0.060 A 
ATOM      6  C   UNL A   1      43.525  26.098  26.274  1.00  0.00     0.016 A 
ATOM      7  C   UNL A   1      41.789  24.589  26.961  1.00  0.00     0.016 A 
ATOM      8  C   UNL A   1      43.042  27.063  27.163  1.00  0.00     0.010 A 
ATOM      9  C   UNL A   1      41.305  25.543  27.858  1.00  0.00     0.010 A 
ATOM     10  C   UNL A   1      41.940  26.785  27.969  1.00  0.00    -0.014 A 
BRANCH  10  11
ATOM     11  C   UNL A   1      41.567  27.701  29.065  1.00  0.00     0.031 A 
ATOM     12  C   UNL A   1      42.264  27.538  30.378  1.00  0.00     0.074 A 
ATOM     13  C   UNL A   1      40.623  28.639  28.899  1.00  0.00     0.049 A 
ATOM     14  N   UNL A   1      42.056  28.158  31.507  1.00  0.00    -0.248 NA
ATOM     15  C   UNL A   1      43.360  26.556  30.414  1.00  0.00     0.031 C 
ATOM     16  C   UNL A   1      39.956  28.944  27.639  1.00  0.00     0.029 A 
ATOM     17  N   UNL A   1      40.025  29.479  29.804  1.00  0.00    -0.354 N 
ATOM     18  C   UNL A   1      43.007  27.657  32.382  1.00  0.00     0.074 A 
ATOM     19  C   UNL A   1      43.754  26.642  31.674  1.00  0.00     0.031 C 
ATOM     20  C   UNL A   1      38.965  29.821  27.864  1.00  0.00     0.029 A 
ATOM     21  C   UNL A   1      38.941  30.146  29.286  1.00  0.00     0.049 A 
ATOM     22  H   UNL A   1      40.342  29.592  30.729  1.00  0.00     0.167 HD
ATOM     23  C   UNL A   1      43.246  28.029  33.660  1.00  0.00     0.037 A 
ATOM     24  C   UNL A   1      38.016  30.904  29.903  1.00  0.00     0.037 A 
ATOM     25  C   UNL A   1      42.458  29.008  34.358  1.00  0.00     0.049 A 
ATOM     26  C   UNL A   1      38.197  31.200  31.365  1.00  0.00     0.074 A 
ATOM     27  C   UNL A   1      42.599  29.471  35.651  1.00  0.00     0.029 A 
ATOM     28  N   UNL A   1      41.354  29.653  33.814  1.00  0.00    -0.354 N 
ATOM     29  N   UNL A   1      39.131  30.767  32.179  1.00  0.00    -0.248 NA
ATOM     30  C   UNL A   1      37.230  32.110  31.990  1.00  0.00     0.031 C 
ATOM     31  C   UNL A   1      41.545  30.354  35.909  1.00  0.00     0.029 A 
ATOM     32  C   UNL A   1      40.782  30.486  34.757  1.00  0.00     0.049 A 
ATOM     33  H   UNL A   1      41.027  29.533  32.893  1.00  0.00     0.167 HD
ATOM     34  C   UNL A   1      38.900  31.392  33.396  1.00  0.00     0.074 A 
ATOM     35  C   UNL A   1      37.721  32.218  33.218  1.00  0.00     0.031 C 
ATOM     36  C   UNL A   1      39.614  31.309  34.545  1.00  0.00     0.037 A 
BRANCH  23  37
ATOM     37  C   UNL A   1      44.370  27.329  34.361  1.00  0.00     0.057 A 
ATOM     38  C   UNL A   1      44.169  26.136  35.071  1.00  0.00     0.134 A 
ATOM     39  C   UNL A   1      45.650  27.893  34.394  1.00  0.00     0.134 A 
ATOM     40  F   UNL A   1      42.959  25.557  35.101  1.00  0.00    -0.206 F 
ATOM     41  C   UNL A   1      45.189  25.556  35.827  1.00  0.00     0.040 A 
ATOM     42  C   UNL A   1      46.685  27.308  35.124  1.00  0.00     0.040 A 
ATOM     43  F   UNL A   1      45.909  29.034  33.739  1.00  0.00    -0.206 F 
ATOM     44  C   UNL A   1      46.452  26.144  35.855  1.00  0.00     0.006 A 
ENDBRANCH  23  37
BRANCH  24  45
ATOM     45  C   UNL A   1      36.860  31.423  29.132  1.00  0.00     0.057 A 
ATOM     46  C   UNL A   1      35.752  30.620  28.844  1.00  0.00     0.134 A 
ATOM     47  C   UNL A   1      36.819  32.756  28.701  1.00  0.00     0.134 A 
ATOM     48  F   UNL A   1      35.734  29.334  29.221  1.00  0.00    -0.206 F 
ATOM     49  C   UNL A   1      34.647  31.120  28.151  1.00  0.00     0.040 A 
ATOM     50  C   UNL A   1      35.715  33.274  28.021  1.00  0.00     0.040 A 
ATOM     51  F   UNL A   1      37.846  33.582  28.954  1.00  0.00    -0.206 F 
ATOM     52  C   UNL A   1      34.624  32.453  27.743  1.00  0.00     0.006 A 
ENDBRANCH  24  45
BRANCH  36  53
ATOM     53  C   UNL A   1      39.182  32.174  35.689  1.00  0.00     0.057 A 
ATOM     54  C   UNL A   1      39.615  33.497  35.824  1.00  0.00     0.134 A 
ATOM     55  C   UNL A   1      38.240  31.699  36.611  1.00  0.00     0.134 A 
ATOM     56  F   UNL A   1      40.527  34.004  34.981  1.00  0.00    -0.206 F 
ATOM     57  C   UNL A   1      39.123  34.321  36.837  1.00  0.00     0.040 A 
ATOM     58  C   UNL A   1      37.723  32.520  37.613  1.00  0.00     0.040 A 
ATOM     59  F   UNL A   1      37.781  30.440  36.531  1.00  0.00    -0.206 F 
ATOM     60  C   UNL A   1      38.165  33.837  37.726  1.00  0.00     0.006 A 
ENDBRANCH  36  53
ENDBRANCH  10  11
ENDBRANCH   3   5
ENDBRANCH   2   3
ENDBRANCH   1   2
BRANCH   1  61
ATOM     61  C   UNL A   1      46.065  21.693  24.293  1.00  0.00     0.275 C 
BRANCH  61  62
ATOM     62  O   UNL A   1      44.928  20.958  23.814  1.00  0.00    -0.457 OA
BRANCH  62  63
ATOM     63  C   UNL A   1      44.972  19.608  24.026  1.00  0.00     0.358 C 
ATOM     64  O   UNL A   1      45.652  18.806  23.426  1.00  0.00    -0.244 OA
BRANCH  63  65
ATOM     65  C   UNL A   1      44.070  19.280  25.155  1.00  0.00     0.169 A 
ATOM     66  C   UNL A   1      44.222  18.074  25.816  1.00  0.00     0.147 A 
ATOM     67  N   UNL A   1      43.106  20.188  25.480  1.00  0.00    -0.220 NA
ATOM     68  N   UNL A   1      43.405  17.708  26.826  1.00  0.00    -0.258 NA
ATOM     69  C   UNL A   1      42.254  19.828  26.465  1.00  0.00     0.149 A 
ATOM     70  C   UNL A   1      42.412  18.594  27.108  1.00  0.00     0.158 A 
BRANCH  69  71
ATOM     71  N   UNL A   1      41.194  20.697  26.737  1.00  0.00    -0.338 N 
ATOM     72  H   UNL A   1      41.386  21.376  27.423  1.00  0.00     0.168 HD
BRANCH  71  73
ATOM     73  C   UNL A   1      39.905  20.763  26.197  1.00  0.00     0.058 A 
ATOM     74  C   UNL A   1      39.277  19.653  25.625  1.00  0.00     0.029 A 
ATOM     75  C   UNL A   1      39.208  21.969  26.126  1.00  0.00     0.137 A 
ATOM     76  C   UNL A   1      38.038  19.784  25.000  1.00  0.00     0.022 A 
ATOM     77  N   UNL A   1      38.000  22.131  25.533  1.00  0.00    -0.263 NA
ATOM     78  C   UNL A   1      37.450  21.035  24.970  1.00  0.00     0.111 A 
ENDBRANCH  71  73
ENDBRANCH  69  71
ENDBRANCH  63  65
ENDBRANCH  62  63
ENDBRANCH  61  62
ENDBRANCH   1  61
TORSDOF 13
ENDMDL
MODEL 2
REMARK VINA RESULT:     -11.3      3.826      7.644
REMARK SMILES O=C(OCCOC(=O)c1cncc(Nc2cccnc2)n1)c1ccc(-c2c3nc(c(-c4c(F)cccc4F)c4ccc([nH]4)c(-c4c(F)cccc4F)c4nc(c(-c5c(F)cccc5F)c5ccc2[nH]5)C=C4)C=C3)cc1
REMARK SMILES IDX 4 1 3 2 2 3 1 4 22 5 23 6 75 7 24 8 74 9 25 10 26 11 27 12
REMARK SMILES IDX 68 13 28 14 73 15 67 16 69 17 29 18 72 19 66 20 65 21 30 23
REMARK SMILES IDX 56 24 39 25 55 26 40 27 43 28 54 29 70 30 41 31 42 32 53 34
REMARK SMILES IDX 71 35 44 36 31 37 32 38 37 39 33 40 34 41 36 42 38 43 35 44
REMARK SMILES IDX 57 45 58 46 63 47 59 48 60 49 62 50 64 51 61 52 45 53 46 54
REMARK SMILES IDX 51 55 47 56 48 57 50 58 52 59 49 60 5 61 6 62 7 63 8 64 9 65
REMARK SMILES IDX 10 66 21 67 11 68 13 69 12 70 14 71 15 73 16 74 20 75 17 76
REMARK SMILES IDX 19 77 18 78
REMARK H PARENT 69 22 43 33 14 72
REMARK Flexibility Score: inf
ROOT
ATOM      1  C   UNL A   1      40.865  21.249  27.604  1.00  0.00     0.275 C 
ENDROOT
BRANCH   1   2
ATOM      2  O   UNL A   1      40.068  21.717  26.504  1.00  0.00    -0.458 OA
BRANCH   2   3
ATOM      3  C   UNL A   1      39.254  22.793  26.413  1.00  0.00     0.338 C 
ATOM      4  O   UNL A   1      38.155  22.658  25.876  1.00  0.00    -0.246 OA
BRANCH   3   5
ATOM      5  C   UNL A   1      39.650  24.179  26.825  1.00  0.00     0.060 A 
ATOM      6  C   UNL A   1      40.287  25.134  26.027  1.00  0.00     0.016 A 
ATOM      7  C   UNL A   1      39.375  24.524  28.161  1.00  0.00     0.016 A 
ATOM      8  C   UNL A   1      40.602  26.404  26.522  1.00  0.00     0.010 A 
ATOM      9  C   UNL A   1      39.693  25.786  28.666  1.00  0.00     0.010 A 
ATOM     10  C   UNL A   1      40.321  26.730  27.846  1.00  0.00    -0.014 A 
BRANCH  10  11
ATOM     11  C   UNL A   1      40.852  27.973  28.438  1.00  0.00     0.031 A 
ATOM     12  C   UNL A   1      39.874  29.033  28.832  1.00  0.00     0.074 A 
ATOM     13  C   UNL A   1      42.171  28.158  28.606  1.00  0.00     0.049 A 
ATOM     14  N   UNL A   1      40.096  30.234  29.289  1.00  0.00    -0.248 NA
ATOM     15  C   UNL A   1      38.450  28.679  28.710  1.00  0.00     0.031 C 
ATOM     16  C   UNL A   1      43.197  27.156  28.348  1.00  0.00     0.029 A 
ATOM     17  N   UNL A   1      42.879  29.269  28.987  1.00  0.00    -0.354 N 
ATOM     18  C   UNL A   1      38.841  30.773  29.531  1.00  0.00     0.074 A 
ATOM     19  C   UNL A   1      37.863  29.793  29.115  1.00  0.00     0.031 C 
ATOM     20  C   UNL A   1      44.408  27.722  28.469  1.00  0.00     0.029 A 
ATOM     21  C   UNL A   1      44.236  29.125  28.826  1.00  0.00     0.049 A 
ATOM     22  H   UNL A   1      42.457  30.085  29.341  1.00  0.00     0.167 HD
ATOM     23  C   UNL A   1      38.537  31.974  30.072  1.00  0.00     0.037 A 
ATOM     24  C   UNL A   1      45.220  30.038  28.924  1.00  0.00     0.037 A 
ATOM     25  C   UNL A   1      39.528  32.951  30.434  1.00  0.00     0.049 A 
ATOM     26  C   UNL A   1      44.864  31.424  29.384  1.00  0.00     0.074 A 
ATOM     27  C   UNL A   1      39.347  34.202  30.990  1.00  0.00     0.029 A 
ATOM     28  N   UNL A   1      40.894  32.785  30.241  1.00  0.00    -0.354 N 
ATOM     29  N   UNL A   1      43.680  31.914  29.664  1.00  0.00    -0.248 NA
ATOM     30  C   UNL A   1      45.969  32.370  29.578  1.00  0.00     0.031 C 
ATOM     31  C   UNL A   1      40.601  34.817  31.081  1.00  0.00     0.029 A 
ATOM     32  C   UNL A   1      41.568  33.926  30.636  1.00  0.00     0.049 A 
ATOM     33  H   UNL A   1      41.318  31.976  29.877  1.00  0.00     0.167 HD
ATOM     34  C   UNL A   1      43.898  33.207  30.120  1.00  0.00     0.074 A 
ATOM     35  C   UNL A   1      45.330  33.430  30.057  1.00  0.00     0.031 C 
ATOM     36  C   UNL A   1      42.998  34.113  30.574  1.00  0.00     0.037 A 
BRANCH  23  37
ATOM     37  C   UNL A   1      37.080  32.280  30.245  1.00  0.00     0.057 A 
ATOM     38  C   UNL A   1      36.342  32.945  29.255  1.00  0.00     0.134 A 
ATOM     39  C   UNL A   1      36.427  31.977  31.444  1.00  0.00     0.134 A 
ATOM     40  F   UNL A   1      36.917  33.287  28.091  1.00  0.00    -0.206 F 
ATOM     41  C   UNL A   1      35.021  33.340  29.471  1.00  0.00     0.040 A 
ATOM     42  C   UNL A   1      35.098  32.343  31.662  1.00  0.00     0.040 A 
ATOM     43  F   UNL A   1      37.075  31.345  32.434  1.00  0.00    -0.206 F 
ATOM     44  C   UNL A   1      34.396  33.040  30.680  1.00  0.00     0.006 A 
ENDBRANCH  23  37
BRANCH  24  45
ATOM     45  C   UNL A   1      46.612  29.655  28.582  1.00  0.00     0.057 A 
ATOM     46  C   UNL A   1      47.492  29.153  29.546  1.00  0.00     0.134 A 
ATOM     47  C   UNL A   1      47.082  29.743  27.264  1.00  0.00     0.134 A 
ATOM     48  F   UNL A   1      47.105  29.054  30.825  1.00  0.00    -0.206 F 
ATOM     49  C   UNL A   1      48.790  28.758  29.216  1.00  0.00     0.040 A 
ATOM     50  C   UNL A   1      48.372  29.337  26.917  1.00  0.00     0.040 A 
ATOM     51  F   UNL A   1      46.285  30.207  26.290  1.00  0.00    -0.206 F 
ATOM     52  C   UNL A   1      49.232  28.844  27.896  1.00  0.00     0.006 A 
ENDBRANCH  24  45
BRANCH  36  53
ATOM     53  C   UNL A   1      43.531  35.413  31.094  1.00  0.00     0.057 A 
ATOM     54  C   UNL A   1      43.725  36.522  30.264  1.00  0.00     0.134 A 
ATOM     55  C   UNL A   1      43.757  35.579  32.467  1.00  0.00     0.134 A 
ATOM     56  F   UNL A   1      43.539  36.421  28.939  1.00  0.00    -0.206 F 
ATOM     57  C   UNL A   1      44.124  37.754  30.782  1.00  0.00     0.040 A 
ATOM     58  C   UNL A   1      44.132  36.812  33.000  1.00  0.00     0.040 A 
ATOM     59  F   UNL A   1      43.582  34.554  33.316  1.00  0.00    -0.206 F 
ATOM     60  C   UNL A   1      44.315  37.905  32.155  1.00  0.00     0.006 A 
ENDBRANCH  36  53
ENDBRANCH  10  11
ENDBRANCH   3   5
ENDBRANCH   2   3
ENDBRANCH   1   2
BRANCH   1  61
ATOM     61  C   UNL A   1      41.552  19.905  27.355  1.00  0.00     0.275 C 
BRANCH  61  62
ATOM     62  O   UNL A   1      41.955  19.703  25.993  1.00  0.00    -0.457 OA
BRANCH  62  63
ATOM     63  C   UNL A   1      42.796  18.645  25.781  1.00  0.00     0.358 C 
ATOM     64  O   UNL A   1      42.524  17.472  25.903  1.00  0.00    -0.244 OA
BRANCH  63  65
ATOM     65  C   UNL A   1      44.106  19.171  25.331  1.00  0.00     0.169 A 
ATOM     66  C   UNL A   1      45.256  18.453  25.610  1.00  0.00     0.147 A 
ATOM     67  N   UNL A   1      44.118  20.364  24.672  1.00  0.00    -0.220 NA
ATOM     68  N   UNL A   1      46.479  18.902  25.257  1.00  0.00    -0.258 NA
ATOM     69  C   UNL A   1      45.334  20.851  24.340  1.00  0.00     0.149 A 
ATOM     70  C   UNL A   1      46.487  20.118  24.649  1.00  0.00     0.158 A 
BRANCH  69  71
ATOM     71  N   UNL A   1      45.373  22.122  23.762  1.00  0.00    -0.338 N 
ATOM     72  H   UNL A   1      45.486  22.125  22.784  1.00  0.00     0.168 HD
BRANCH  71  73
ATOM     73  C   UNL A   1      45.277  23.392  24.341  1.00  0.00     0.058 A 
ATOM     74  C   UNL A   1      44.055  23.945  24.733  1.00  0.00     0.029 A 
ATOM     75  C   UNL A   1      46.397  24.212  24.482  1.00  0.00     0.137 A 
ATOM     76  C   UNL A   1      43.989  25.254  25.205  1.00  0.00     0.022 A 
ATOM     77  N   UNL A   1      46.370  25.487  24.943  1.00  0.00    -0.263 NA
ATOM     78  C   UNL A   1      45.162  25.983  25.280  1.00  0.00     0.111 A 
ENDBRANCH  71  73
ENDBRANCH  69  71
ENDBRANCH  63  65
ENDBRANCH  62  63
ENDBRANCH  61  62
ENDBRANCH   1  61
TORSDOF 13
ENDMDL
MODEL 3
REMARK VINA RESULT:     -11.2      5.547     11.145
REMARK SMILES O=C(OCCOC(=O)c1cncc(Nc2cccnc2)n1)c1ccc(-c2c3nc(c(-c4c(F)cccc4F)c4ccc([nH]4)c(-c4c(F)cccc4F)c4nc(c(-c5c(F)cccc5F)c5ccc2[nH]5)C=C4)C=C3)cc1
REMARK SMILES IDX 4 1 3 2 2 3 1 4 22 5 23 6 75 7 24 8 74 9 25 10 26 11 27 12
REMARK SMILES IDX 68 13 28 14 73 15 67 16 69 17 29 18 72 19 66 20 65 21 30 23
REMARK SMILES IDX 56 24 39 25 55 26 40 27 43 28 54 29 70 30 41 31 42 32 53 34
REMARK SMILES IDX 71 35 44 36 31 37 32 38 37 39 33 40 34 41 36 42 38 43 35 44
REMARK SMILES IDX 57 45 58 46 63 47 59 48 60 49 62 50 64 51 61 52 45 53 46 54
REMARK SMILES IDX 51 55 47 56 48 57 50 58 52 59 49 60 5 61 6 62 7 63 8 64 9 65
REMARK SMILES IDX 10 66 21 67 11 68 13 69 12 70 14 71 15 73 16 74 20 75 17 76
REMARK SMILES IDX 19 77 18 78
REMARK H PARENT 69 22 43 33 14 72
REMARK Flexibility Score: inf
ROOT
ATOM      1  C   UNL A   1      33.041  36.135  30.493  1.00  0.00     0.275 C 
ENDROOT
BRANCH   1   2
ATOM      2  O   UNL A   1      32.474  35.192  29.571  1.00  0.00    -0.458 OA
BRANCH   2   3
ATOM      3  C   UNL A   1      33.079  34.310  28.743  1.00  0.00     0.338 C 
ATOM      4  O   UNL A   1      32.506  33.986  27.703  1.00  0.00    -0.246 OA
BRANCH   3   5
ATOM      5  C   UNL A   1      34.364  33.607  29.064  1.00  0.00     0.060 A 
ATOM      6  C   UNL A   1      34.519  32.500  29.904  1.00  0.00     0.016 A 
ATOM      7  C   UNL A   1      35.522  34.150  28.479  1.00  0.00     0.016 A 
ATOM      8  C   UNL A   1      35.774  31.922  30.123  1.00  0.00     0.010 A 
ATOM      9  C   UNL A   1      36.781  33.585  28.698  1.00  0.00     0.010 A 
ATOM     10  C   UNL A   1      36.911  32.471  29.534  1.00  0.00    -0.014 A 
BRANCH  10  11
ATOM     11  C   UNL A   1      38.255  32.015  29.939  1.00  0.00     0.031 A 
ATOM     12  C   UNL A   1      38.708  30.670  29.465  1.00  0.00     0.074 A 
ATOM     13  C   UNL A   1      39.043  32.771  30.719  1.00  0.00     0.049 A 
ATOM     14  N   UNL A   1      39.800  30.018  29.752  1.00  0.00    -0.248 NA
ATOM     15  C   UNL A   1      37.812  29.978  28.523  1.00  0.00     0.031 C 
ATOM     16  C   UNL A   1      38.739  34.128  31.152  1.00  0.00     0.029 A 
ATOM     17  N   UNL A   1      40.240  32.487  31.326  1.00  0.00    -0.354 N 
ATOM     18  C   UNL A   1      39.735  28.848  29.010  1.00  0.00     0.074 A 
ATOM     19  C   UNL A   1      38.471  28.852  28.308  1.00  0.00     0.031 C 
ATOM     20  C   UNL A   1      39.662  34.525  32.042  1.00  0.00     0.029 A 
ATOM     21  C   UNL A   1      40.628  33.449  32.228  1.00  0.00     0.049 A 
ATOM     22  H   UNL A   1      40.767  31.678  31.134  1.00  0.00     0.167 HD
ATOM     23  C   UNL A   1      40.661  27.868  28.912  1.00  0.00     0.037 A 
ATOM     24  C   UNL A   1      41.631  33.438  33.125  1.00  0.00     0.037 A 
ATOM     25  C   UNL A   1      41.889  27.864  29.658  1.00  0.00     0.049 A 
ATOM     26  C   UNL A   1      42.580  32.274  33.120  1.00  0.00     0.074 A 
ATOM     27  C   UNL A   1      42.907  26.930  29.645  1.00  0.00     0.029 A 
ATOM     28  N   UNL A   1      42.247  28.841  30.578  1.00  0.00    -0.354 N 
ATOM     29  N   UNL A   1      42.546  31.192  32.378  1.00  0.00    -0.248 NA
ATOM     30  C   UNL A   1      43.722  32.336  34.040  1.00  0.00     0.031 C 
ATOM     31  C   UNL A   1      43.854  27.314  30.601  1.00  0.00     0.029 A 
ATOM     32  C   UNL A   1      43.455  28.517  31.166  1.00  0.00     0.049 A 
ATOM     33  H   UNL A   1      41.717  29.645  30.782  1.00  0.00     0.167 HD
ATOM     34  C   UNL A   1      43.687  30.470  32.698  1.00  0.00     0.074 A 
ATOM     35  C   UNL A   1      44.381  31.228  33.721  1.00  0.00     0.031 C 
ATOM     36  C   UNL A   1      44.129  29.301  32.174  1.00  0.00     0.037 A 
BRANCH  23  37
ATOM     37  C   UNL A   1      40.329  26.725  28.001  1.00  0.00     0.057 A 
ATOM     38  C   UNL A   1      39.494  25.673  28.408  1.00  0.00     0.134 A 
ATOM     39  C   UNL A   1      40.912  26.632  26.733  1.00  0.00     0.134 A 
ATOM     40  F   UNL A   1      38.924  25.688  29.623  1.00  0.00    -0.206 F 
ATOM     41  C   UNL A   1      39.291  24.550  27.606  1.00  0.00     0.040 A 
ATOM     42  C   UNL A   1      40.695  25.527  25.910  1.00  0.00     0.040 A 
ATOM     43  F   UNL A   1      41.724  27.601  26.283  1.00  0.00    -0.206 F 
ATOM     44  C   UNL A   1      39.894  24.475  26.352  1.00  0.00     0.006 A 
ENDBRANCH  23  37
BRANCH  24  45
ATOM     45  C   UNL A   1      41.772  34.564  34.081  1.00  0.00     0.057 A 
ATOM     46  C   UNL A   1      42.366  35.773  33.706  1.00  0.00     0.134 A 
ATOM     47  C   UNL A   1      41.271  34.470  35.387  1.00  0.00     0.134 A 
ATOM     48  F   UNL A   1      42.873  35.922  32.474  1.00  0.00    -0.206 F 
ATOM     49  C   UNL A   1      42.465  36.846  34.595  1.00  0.00     0.040 A 
ATOM     50  C   UNL A   1      41.348  35.539  36.281  1.00  0.00     0.040 A 
ATOM     51  F   UNL A   1      40.680  33.341  35.807  1.00  0.00    -0.206 F 
ATOM     52  C   UNL A   1      41.949  36.733  35.886  1.00  0.00     0.006 A 
ENDBRANCH  24  45
BRANCH  36  53
ATOM     53  C   UNL A   1      45.455  28.791  32.650  1.00  0.00     0.057 A 
ATOM     54  C   UNL A   1      46.658  29.183  32.054  1.00  0.00     0.134 A 
ATOM     55  C   UNL A   1      45.526  27.973  33.786  1.00  0.00     0.134 A 
ATOM     56  F   UNL A   1      46.655  29.953  30.956  1.00  0.00    -0.206 F 
ATOM     57  C   UNL A   1      47.889  28.780  32.574  1.00  0.00     0.040 A 
ATOM     58  C   UNL A   1      46.750  27.584  34.328  1.00  0.00     0.040 A 
ATOM     59  F   UNL A   1      44.406  27.568  34.405  1.00  0.00    -0.206 F 
ATOM     60  C   UNL A   1      47.937  27.990  33.721  1.00  0.00     0.006 A 
ENDBRANCH  36  53
ENDBRANCH  10  11
ENDBRANCH   3   5
ENDBRANCH   2   3
ENDBRANCH   1   2
BRANCH   1  61
ATOM     61  C   UNL A   1      33.058  35.659  31.948  1.00  0.00     0.275 C 
BRANCH  61  62
ATOM     62  O   UNL A   1      34.261  34.969  32.318  1.00  0.00    -0.457 OA
BRANCH  62  63
ATOM     63  C   UNL A   1      34.083  33.854  33.089  1.00  0.00     0.358 C 
ATOM     64  O   UNL A   1      33.044  33.258  33.266  1.00  0.00    -0.244 OA
BRANCH  63  65
ATOM     65  C   UNL A   1      35.395  33.459  33.653  1.00  0.00     0.169 A 
ATOM     66  C   UNL A   1      36.060  34.330  34.497  1.00  0.00     0.147 A 
ATOM     67  N   UNL A   1      35.900  32.245  33.292  1.00  0.00    -0.220 NA
ATOM     68  N   UNL A   1      37.274  34.038  35.010  1.00  0.00    -0.258 NA
ATOM     69  C   UNL A   1      37.131  31.946  33.765  1.00  0.00     0.149 A 
ATOM     70  C   UNL A   1      37.796  32.851  34.601  1.00  0.00     0.158 A 
BRANCH  69  71
ATOM     71  N   UNL A   1      37.710  30.756  33.317  1.00  0.00    -0.338 N 
ATOM     72  H   UNL A   1      37.243  30.332  32.561  1.00  0.00     0.168 HD
BRANCH  71  73
ATOM     73  C   UNL A   1      38.842  30.066  33.764  1.00  0.00     0.058 A 
ATOM     74  C   UNL A   1      39.544  30.445  34.912  1.00  0.00     0.029 A 
ATOM     75  C   UNL A   1      39.382  29.007  33.035  1.00  0.00     0.137 A 
ATOM     76  C   UNL A   1      40.728  29.802  35.263  1.00  0.00     0.022 A 
ATOM     77  N   UNL A   1      40.528  28.354  33.351  1.00  0.00    -0.263 NA
ATOM     78  C   UNL A   1      41.182  28.778  34.451  1.00  0.00     0.111 A 
ENDBRANCH  71  73
ENDBRANCH  69  71
ENDBRANCH  63  65
ENDBRANCH  62  63
ENDBRANCH  61  62
ENDBRANCH   1  61
TORSDOF 13
ENDMDL
