MODEL 1
REMARK VINA RESULT:     -10.5      0.000      0.000
REMARK SMILES CC[C@H](C)[C@@H](NC(=O)[C@@H]1CCCN1C(=O)C1CC1)C(=O)OCCOC(=O)c1ccc(-c2c3nc(c(-c4c(F)cccc4F)c4ccc([nH]4)c(-c4c(F)cccc4F)c4nc(c(-c5c(F)cccc5F)c5ccc2[nH]5)C=C4)C=C3)cc1
REMARK SMILES IDX 22 1 21 2 19 3 20 4 5 5 3 6 4 7 2 8 1 9 6 10 7 11 8 13 9 14
REMARK SMILES IDX 10 15 13 16 11 17 12 18 14 19 15 20 16 21 17 22 18 23 23 24
REMARK SMILES IDX 24 25 25 26 26 27 27 28 28 29 80 30 29 31 79 32 30 33 31 34
REMARK SMILES IDX 32 35 73 36 33 37 78 38 72 39 74 40 34 41 77 42 71 43 70 44
REMARK SMILES IDX 35 46 61 47 44 48 60 49 45 50 48 51 59 52 75 53 46 54 47 55
REMARK SMILES IDX 58 57 76 58 49 59 36 60 37 61 42 62 38 63 39 64 41 65 43 66
REMARK SMILES IDX 40 67 62 68 63 69 68 70 64 71 65 72 67 73 69 74 66 75 50 76
REMARK SMILES IDX 51 77 56 78 52 79 53 80 55 81 57 82 54 83
REMARK H PARENT 6 12 74 45 48 56
REMARK Flexibility Score: inf
ROOT
ATOM      1  C   UNL A   1      33.002  29.524  24.774  1.00  0.00     0.274 C 
ENDROOT
BRANCH   1   2
ATOM      2  O   UNL A   1      33.209  28.095  24.851  1.00  0.00    -0.461 OA
BRANCH   2   3
ATOM      3  C   UNL A   1      33.369  27.473  23.657  1.00  0.00     0.329 C 
ATOM      4  O   UNL A   1      33.950  27.962  22.694  1.00  0.00    -0.250 OA
BRANCH   3   5
ATOM      5  C   UNL A   1      32.585  26.163  23.519  1.00  0.00     0.195 C 
BRANCH   5   6
ATOM      6  C   UNL A   1      31.043  26.343  23.350  1.00  0.00     0.019 C 
ATOM      7  C   UNL A   1      30.413  26.608  24.731  1.00  0.00     0.010 C 
BRANCH   6   8
ATOM      8  C   UNL A   1      30.657  27.477  22.376  1.00  0.00     0.002 C 
ATOM      9  C   UNL A   1      29.740  28.544  22.960  1.00  0.00     0.004 C 
ENDBRANCH   6   8
ENDBRANCH   5   6
BRANCH   5  10
ATOM     10  N   UNL A   1      33.131  25.234  22.489  1.00  0.00    -0.341 N 
ATOM     11  C   UNL A   1      33.380  23.878  22.543  1.00  0.00     0.243 C 
ATOM     12  H   UNL A   1      33.349  25.659  21.628  1.00  0.00     0.164 HD
ATOM     13  O   UNL A   1      33.279  23.251  21.485  1.00  0.00    -0.273 OA
BRANCH  11  14
ATOM     14  C   UNL A   1      34.023  23.263  23.809  1.00  0.00     0.174 C 
ATOM     15  C   UNL A   1      35.493  23.063  23.368  1.00  0.00     0.037 C 
ATOM     16  N   UNL A   1      33.712  21.977  24.454  1.00  0.00    -0.330 N 
ATOM     17  C   UNL A   1      36.098  22.230  24.471  1.00  0.00     0.024 C 
ATOM     18  C   UNL A   1      34.951  21.331  24.892  1.00  0.00     0.120 C 
BRANCH  16  19
ATOM     19  C   UNL A   1      32.558  21.500  25.074  1.00  0.00     0.226 C 
ATOM     20  O   UNL A   1      32.076  20.419  24.729  1.00  0.00    -0.275 OA
BRANCH  19  21
ATOM     21  C   UNL A   1      31.795  22.212  26.134  1.00  0.00     0.079 C 
ATOM     22  C   UNL A   1      31.878  23.647  26.537  1.00  0.00     0.014 C 
ATOM     23  C   UNL A   1      30.665  23.147  25.800  1.00  0.00     0.014 C 
ENDBRANCH  19  21
ENDBRANCH  16  19
ENDBRANCH  11  14
ENDBRANCH   5  10
ENDBRANCH   3   5
ENDBRANCH   2   3
ENDBRANCH   1   2
BRANCH   1  24
ATOM     24  C   UNL A   1      31.882  30.054  25.676  1.00  0.00     0.275 C 
BRANCH  24  25
ATOM     25  O   UNL A   1      32.335  30.261  27.027  1.00  0.00    -0.458 OA
BRANCH  25  26
ATOM     26  C   UNL A   1      33.008  31.412  27.247  1.00  0.00     0.338 C 
ATOM     27  O   UNL A   1      32.573  32.552  27.163  1.00  0.00    -0.246 OA
BRANCH  26  28
ATOM     28  C   UNL A   1      34.367  31.127  27.728  1.00  0.00     0.060 A 
ATOM     29  C   UNL A   1      34.705  29.802  28.031  1.00  0.00     0.016 A 
ATOM     30  C   UNL A   1      35.256  32.165  28.001  1.00  0.00     0.016 A 
ATOM     31  C   UNL A   1      35.927  29.506  28.622  1.00  0.00     0.010 A 
ATOM     32  C   UNL A   1      36.479  31.871  28.609  1.00  0.00     0.010 A 
ATOM     33  C   UNL A   1      36.806  30.544  28.942  1.00  0.00    -0.014 A 
BRANCH  33  34
ATOM     34  C   UNL A   1      38.015  30.258  29.742  1.00  0.00     0.031 A 
ATOM     35  C   UNL A   1      39.072  29.367  29.161  1.00  0.00     0.074 A 
ATOM     36  C   UNL A   1      38.165  30.796  30.963  1.00  0.00     0.049 A 
ATOM     37  N   UNL A   1      40.140  28.869  29.728  1.00  0.00    -0.248 NA
ATOM     38  C   UNL A   1      38.904  28.984  27.749  1.00  0.00     0.031 C 
ATOM     39  C   UNL A   1      37.236  31.731  31.594  1.00  0.00     0.029 A 
ATOM     40  N   UNL A   1      39.151  30.614  31.897  1.00  0.00    -0.354 N 
ATOM     41  C   UNL A   1      40.756  28.095  28.755  1.00  0.00     0.074 A 
ATOM     42  C   UNL A   1      39.946  28.189  27.559  1.00  0.00     0.031 C 
ATOM     43  C   UNL A   1      37.686  32.026  32.825  1.00  0.00     0.029 A 
ATOM     44  C   UNL A   1      38.907  31.265  33.081  1.00  0.00     0.049 A 
ATOM     45  H   UNL A   1      39.956  30.071  31.735  1.00  0.00     0.167 HD
ATOM     46  C   UNL A   1      41.893  27.368  28.856  1.00  0.00     0.037 A 
ATOM     47  C   UNL A   1      39.575  31.215  34.248  1.00  0.00     0.037 A 
ATOM     48  C   UNL A   1      42.693  27.286  30.047  1.00  0.00     0.049 A 
ATOM     49  C   UNL A   1      40.796  30.342  34.357  1.00  0.00     0.074 A 
ATOM     50  C   UNL A   1      43.864  26.578  30.255  1.00  0.00     0.029 A 
ATOM     51  N   UNL A   1      42.401  27.939  31.235  1.00  0.00    -0.354 N 
ATOM     52  N   UNL A   1      41.360  29.594  33.441  1.00  0.00    -0.248 NA
ATOM     53  C   UNL A   1      41.463  30.300  35.666  1.00  0.00     0.031 C 
ATOM     54  C   UNL A   1      44.262  26.777  31.582  1.00  0.00     0.029 A 
ATOM     55  C   UNL A   1      43.358  27.637  32.188  1.00  0.00     0.049 A 
ATOM     56  H   UNL A   1      41.626  28.529  31.379  1.00  0.00     0.167 HD
ATOM     57  C   UNL A   1      42.459  29.005  34.054  1.00  0.00     0.074 A 
ATOM     58  C   UNL A   1      42.486  29.493  35.418  1.00  0.00     0.031 C 
ATOM     59  C   UNL A   1      43.364  28.140  33.537  1.00  0.00     0.037 A 
BRANCH  46  60
ATOM     60  C   UNL A   1      42.307  26.573  27.656  1.00  0.00     0.057 A 
ATOM     61  C   UNL A   1      41.898  25.247  27.466  1.00  0.00     0.134 A 
ATOM     62  C   UNL A   1      43.118  27.148  26.669  1.00  0.00     0.134 A 
ATOM     63  F   UNL A   1      41.138  24.633  28.385  1.00  0.00    -0.206 F 
ATOM     64  C   UNL A   1      42.293  24.517  26.345  1.00  0.00     0.040 A 
ATOM     65  C   UNL A   1      43.503  26.434  25.534  1.00  0.00     0.040 A 
ATOM     66  F   UNL A   1      43.547  28.414  26.793  1.00  0.00    -0.206 F 
ATOM     67  C   UNL A   1      43.094  25.113  25.372  1.00  0.00     0.006 A 
ENDBRANCH  46  60
BRANCH  47  68
ATOM     68  C   UNL A   1      39.085  31.985  35.415  1.00  0.00     0.057 A 
ATOM     69  C   UNL A   1      38.257  31.394  36.375  1.00  0.00     0.134 A 
ATOM     70  C   UNL A   1      39.429  33.331  35.597  1.00  0.00     0.134 A 
ATOM     71  F   UNL A   1      37.874  30.116  36.241  1.00  0.00    -0.206 F 
ATOM     72  C   UNL A   1      37.780  32.116  37.471  1.00  0.00     0.040 A 
ATOM     73  C   UNL A   1      38.977  34.058  36.697  1.00  0.00     0.040 A 
ATOM     74  F   UNL A   1      40.218  33.953  34.707  1.00  0.00    -0.206 F 
ATOM     75  C   UNL A   1      38.146  33.451  37.637  1.00  0.00     0.006 A 
ENDBRANCH  47  68
BRANCH  59  76
ATOM     76  C   UNL A   1      44.472  27.693  34.440  1.00  0.00     0.057 A 
ATOM     77  C   UNL A   1      44.369  26.526  35.208  1.00  0.00     0.134 A 
ATOM     78  C   UNL A   1      45.667  28.418  34.515  1.00  0.00     0.134 A 
ATOM     79  F   UNL A   1      43.243  25.797  35.189  1.00  0.00    -0.206 F 
ATOM     80  C   UNL A   1      45.413  26.104  36.031  1.00  0.00     0.040 A 
ATOM     81  C   UNL A   1      46.725  27.996  35.320  1.00  0.00     0.040 A 
ATOM     82  F   UNL A   1      45.828  29.541  33.797  1.00  0.00    -0.206 F 
ATOM     83  C   UNL A   1      46.598  26.838  36.084  1.00  0.00     0.006 A 
ENDBRANCH  59  76
ENDBRANCH  33  34
ENDBRANCH  26  28
ENDBRANCH  25  26
ENDBRANCH  24  25
ENDBRANCH   1  24
TORSDOF 17
ENDMDL
MODEL 2
REMARK VINA RESULT:     -10.5      1.000      1.976
REMARK SMILES CC[C@H](C)[C@@H](NC(=O)[C@@H]1CCCN1C(=O)C1CC1)C(=O)OCCOC(=O)c1ccc(-c2c3nc(c(-c4c(F)cccc4F)c4ccc([nH]4)c(-c4c(F)cccc4F)c4nc(c(-c5c(F)cccc5F)c5ccc2[nH]5)C=C4)C=C3)cc1
REMARK SMILES IDX 22 1 21 2 19 3 20 4 5 5 3 6 4 7 2 8 1 9 6 10 7 11 8 13 9 14
REMARK SMILES IDX 10 15 13 16 11 17 12 18 14 19 15 20 16 21 17 22 18 23 23 24
REMARK SMILES IDX 24 25 25 26 26 27 27 28 28 29 80 30 29 31 79 32 30 33 31 34
REMARK SMILES IDX 32 35 73 36 33 37 78 38 72 39 74 40 34 41 77 42 71 43 70 44
REMARK SMILES IDX 35 46 61 47 44 48 60 49 45 50 48 51 59 52 75 53 46 54 47 55
REMARK SMILES IDX 58 57 76 58 49 59 36 60 37 61 42 62 38 63 39 64 41 65 43 66
REMARK SMILES IDX 40 67 62 68 63 69 68 70 64 71 65 72 67 73 69 74 66 75 50 76
REMARK SMILES IDX 51 77 56 78 52 79 53 80 55 81 57 82 54 83
REMARK H PARENT 6 12 74 45 48 56
REMARK Flexibility Score: inf
ROOT
ATOM      1  C   UNL A   1      31.110  29.374  24.619  1.00  0.00     0.274 C 
ENDROOT
BRANCH   1   2
ATOM      2  O   UNL A   1      30.548  28.042  24.613  1.00  0.00    -0.461 OA
BRANCH   2   3
ATOM      3  C   UNL A   1      30.774  27.329  23.482  1.00  0.00     0.329 C 
ATOM      4  O   UNL A   1      30.263  27.575  22.395  1.00  0.00    -0.250 OA
BRANCH   3   5
ATOM      5  C   UNL A   1      31.576  26.040  23.699  1.00  0.00     0.195 C 
BRANCH   5   6
ATOM      6  C   UNL A   1      33.116  26.186  23.476  1.00  0.00     0.019 C 
ATOM      7  C   UNL A   1      33.384  26.466  21.985  1.00  0.00     0.010 C 
BRANCH   6   8
ATOM      8  C   UNL A   1      33.760  27.293  24.338  1.00  0.00     0.002 C 
ATOM      9  C   UNL A   1      34.029  26.907  25.787  1.00  0.00     0.004 C 
ENDBRANCH   6   8
ENDBRANCH   5   6
BRANCH   5  10
ATOM     10  N   UNL A   1      31.286  25.355  24.990  1.00  0.00    -0.341 N 
ATOM     11  C   UNL A   1      31.838  24.221  25.551  1.00  0.00     0.243 C 
ATOM     12  H   UNL A   1      30.584  25.782  25.532  1.00  0.00     0.164 HD
ATOM     13  O   UNL A   1      31.872  24.168  26.782  1.00  0.00    -0.273 OA
BRANCH  11  14
ATOM     14  C   UNL A   1      32.126  22.987  24.663  1.00  0.00     0.174 C 
ATOM     15  C   UNL A   1      31.654  21.818  25.561  1.00  0.00     0.037 C 
ATOM     16  N   UNL A   1      33.427  22.500  24.176  1.00  0.00    -0.330 N 
ATOM     17  C   UNL A   1      32.153  20.583  24.852  1.00  0.00     0.024 C 
ATOM     18  C   UNL A   1      33.470  21.039  24.253  1.00  0.00     0.120 C 
BRANCH  16  19
ATOM     19  C   UNL A   1      34.371  23.064  23.319  1.00  0.00     0.226 C 
ATOM     20  O   UNL A   1      34.137  23.140  22.111  1.00  0.00    -0.275 OA
BRANCH  19  21
ATOM     21  C   UNL A   1      35.707  23.576  23.727  1.00  0.00     0.079 C 
ATOM     22  C   UNL A   1      36.275  23.704  25.102  1.00  0.00     0.014 C 
ATOM     23  C   UNL A   1      36.806  22.649  24.169  1.00  0.00     0.014 C 
ENDBRANCH  19  21
ENDBRANCH  16  19
ENDBRANCH  11  14
ENDBRANCH   5  10
ENDBRANCH   3   5
ENDBRANCH   2   3
ENDBRANCH   1   2
BRANCH   1  24
ATOM     24  C   UNL A   1      31.561  29.868  25.998  1.00  0.00     0.275 C 
BRANCH  24  25
ATOM     25  O   UNL A   1      32.908  30.378  25.970  1.00  0.00    -0.458 OA
BRANCH  25  26
ATOM     26  C   UNL A   1      33.223  31.247  26.955  1.00  0.00     0.338 C 
ATOM     27  O   UNL A   1      32.502  32.104  27.446  1.00  0.00    -0.246 OA
BRANCH  26  28
ATOM     28  C   UNL A   1      34.569  30.965  27.475  1.00  0.00     0.060 A 
ATOM     29  C   UNL A   1      34.901  29.641  27.788  1.00  0.00     0.016 A 
ATOM     30  C   UNL A   1      35.447  32.006  27.773  1.00  0.00     0.016 A 
ATOM     31  C   UNL A   1      36.106  29.348  28.414  1.00  0.00     0.010 A 
ATOM     32  C   UNL A   1      36.652  31.714  28.416  1.00  0.00     0.010 A 
ATOM     33  C   UNL A   1      36.973  30.388  28.759  1.00  0.00    -0.014 A 
BRANCH  33  34
ATOM     34  C   UNL A   1      38.159  30.105  29.593  1.00  0.00     0.031 A 
ATOM     35  C   UNL A   1      39.221  29.191  29.055  1.00  0.00     0.074 A 
ATOM     36  C   UNL A   1      38.286  30.665  30.807  1.00  0.00     0.049 A 
ATOM     37  N   UNL A   1      40.269  28.694  29.658  1.00  0.00    -0.248 NA
ATOM     38  C   UNL A   1      39.082  28.783  27.647  1.00  0.00     0.031 C 
ATOM     39  C   UNL A   1      37.352  31.622  31.397  1.00  0.00     0.029 A 
ATOM     40  N   UNL A   1      39.247  30.492  31.768  1.00  0.00    -0.354 N 
ATOM     41  C   UNL A   1      40.899  27.895  28.714  1.00  0.00     0.074 A 
ATOM     42  C   UNL A   1      40.120  27.973  27.498  1.00  0.00     0.031 C 
ATOM     43  C   UNL A   1      37.776  31.936  32.633  1.00  0.00     0.029 A 
ATOM     44  C   UNL A   1      38.982  31.168  32.932  1.00  0.00     0.049 A 
ATOM     45  H   UNL A   1      40.050  29.936  31.635  1.00  0.00     0.167 HD
ATOM     46  C   UNL A   1      42.025  27.157  28.857  1.00  0.00     0.037 A 
ATOM     47  C   UNL A   1      39.621  31.134  34.116  1.00  0.00     0.037 A 
ATOM     48  C   UNL A   1      42.796  27.091  30.069  1.00  0.00     0.049 A 
ATOM     49  C   UNL A   1      40.829  30.251  34.271  1.00  0.00     0.074 A 
ATOM     50  C   UNL A   1      43.953  26.374  30.319  1.00  0.00     0.029 A 
ATOM     51  N   UNL A   1      42.482  27.769  31.236  1.00  0.00    -0.354 N 
ATOM     52  N   UNL A   1      41.407  29.478  33.384  1.00  0.00    -0.248 NA
ATOM     53  C   UNL A   1      41.464  30.226  35.597  1.00  0.00     0.031 C 
ATOM     54  C   UNL A   1      44.321  26.595  31.651  1.00  0.00     0.029 A 
ATOM     55  C   UNL A   1      43.413  27.476  32.218  1.00  0.00     0.049 A 
ATOM     56  H   UNL A   1      41.711  28.371  31.351  1.00  0.00     0.167 HD
ATOM     57  C   UNL A   1      42.484  28.890  34.035  1.00  0.00     0.074 A 
ATOM     58  C   UNL A   1      42.484  29.404  35.390  1.00  0.00     0.031 C 
ATOM     59  C   UNL A   1      43.392  28.006  33.557  1.00  0.00     0.037 A 
BRANCH  46  60
ATOM     60  C   UNL A   1      42.460  26.335  27.683  1.00  0.00     0.057 A 
ATOM     61  C   UNL A   1      42.010  25.023  27.489  1.00  0.00     0.134 A 
ATOM     62  C   UNL A   1      43.332  26.869  26.726  1.00  0.00     0.134 A 
ATOM     63  F   UNL A   1      41.189  24.448  28.380  1.00  0.00    -0.206 F 
ATOM     64  C   UNL A   1      42.423  24.267  26.392  1.00  0.00     0.040 A 
ATOM     65  C   UNL A   1      43.738  26.129  25.615  1.00  0.00     0.040 A 
ATOM     66  F   UNL A   1      43.802  28.119  26.856  1.00  0.00    -0.206 F 
ATOM     67  C   UNL A   1      43.286  24.822  25.448  1.00  0.00     0.006 A 
ENDBRANCH  46  60
BRANCH  47  68
ATOM     68  C   UNL A   1      39.111  31.932  35.256  1.00  0.00     0.057 A 
ATOM     69  C   UNL A   1      38.274  31.362  36.220  1.00  0.00     0.134 A 
ATOM     70  C   UNL A   1      39.446  33.283  35.407  1.00  0.00     0.134 A 
ATOM     71  F   UNL A   1      37.899  30.079  36.114  1.00  0.00    -0.206 F 
ATOM     72  C   UNL A   1      37.778  32.110  37.290  1.00  0.00     0.040 A 
ATOM     73  C   UNL A   1      38.977  34.036  36.482  1.00  0.00     0.040 A 
ATOM     74  F   UNL A   1      40.245  33.886  34.512  1.00  0.00    -0.206 F 
ATOM     75  C   UNL A   1      38.135  33.451  37.426  1.00  0.00     0.006 A 
ENDBRANCH  47  68
BRANCH  59  76
ATOM     76  C   UNL A   1      44.472  27.564  34.495  1.00  0.00     0.057 A 
ATOM     77  C   UNL A   1      44.337  26.416  35.285  1.00  0.00     0.134 A 
ATOM     78  C   UNL A   1      45.675  28.277  34.583  1.00  0.00     0.134 A 
ATOM     79  F   UNL A   1      43.203  25.700  35.254  1.00  0.00    -0.206 F 
ATOM     80  C   UNL A   1      45.357  25.999  36.141  1.00  0.00     0.040 A 
ATOM     81  C   UNL A   1      46.708  27.860  35.421  1.00  0.00     0.040 A 
ATOM     82  F   UNL A   1      45.867  29.382  33.846  1.00  0.00    -0.206 F 
ATOM     83  C   UNL A   1      46.549  26.719  36.206  1.00  0.00     0.006 A 
ENDBRANCH  59  76
ENDBRANCH  33  34
ENDBRANCH  26  28
ENDBRANCH  25  26
ENDBRANCH  24  25
ENDBRANCH   1  24
TORSDOF 17
ENDMDL
MODEL 3
REMARK VINA RESULT:     -10.5      4.028      7.475
REMARK SMILES CC[C@H](C)[C@@H](NC(=O)[C@@H]1CCCN1C(=O)C1CC1)C(=O)OCCOC(=O)c1ccc(-c2c3nc(c(-c4c(F)cccc4F)c4ccc([nH]4)c(-c4c(F)cccc4F)c4nc(c(-c5c(F)cccc5F)c5ccc2[nH]5)C=C4)C=C3)cc1
REMARK SMILES IDX 22 1 21 2 19 3 20 4 5 5 3 6 4 7 2 8 1 9 6 10 7 11 8 13 9 14
REMARK SMILES IDX 10 15 13 16 11 17 12 18 14 19 15 20 16 21 17 22 18 23 23 24
REMARK SMILES IDX 24 25 25 26 26 27 27 28 28 29 80 30 29 31 79 32 30 33 31 34
REMARK SMILES IDX 32 35 73 36 33 37 78 38 72 39 74 40 34 41 77 42 71 43 70 44
REMARK SMILES IDX 35 46 61 47 44 48 60 49 45 50 48 51 59 52 75 53 46 54 47 55
REMARK SMILES IDX 58 57 76 58 49 59 36 60 37 61 42 62 38 63 39 64 41 65 43 66
REMARK SMILES IDX 40 67 62 68 63 69 68 70 64 71 65 72 67 73 69 74 66 75 50 76
REMARK SMILES IDX 51 77 56 78 52 79 53 80 55 81 57 82 54 83
REMARK H PARENT 6 12 74 45 48 56
REMARK Flexibility Score: inf
ROOT
ATOM      1  C   UNL A   1      33.892  29.234  26.838  1.00  0.00     0.274 C 
ENDROOT
BRANCH   1   2
ATOM      2  O   UNL A   1      32.959  28.184  27.181  1.00  0.00    -0.461 OA
BRANCH   2   3
ATOM      3  C   UNL A   1      32.910  27.151  26.305  1.00  0.00     0.329 C 
ATOM      4  O   UNL A   1      33.891  26.670  25.746  1.00  0.00    -0.250 OA
BRANCH   3   5
ATOM      5  C   UNL A   1      31.492  26.740  25.894  1.00  0.00     0.195 C 
BRANCH   5   6
ATOM      6  C   UNL A   1      31.229  26.758  24.354  1.00  0.00     0.019 C 
ATOM      7  C   UNL A   1      29.762  26.370  24.089  1.00  0.00     0.010 C 
BRANCH   6   8
ATOM      8  C   UNL A   1      31.535  28.120  23.694  1.00  0.00     0.002 C 
ATOM      9  C   UNL A   1      30.905  29.325  24.382  1.00  0.00     0.004 C 
ENDBRANCH   6   8
ENDBRANCH   5   6
BRANCH   5  10
ATOM     10  N   UNL A   1      31.032  25.458  26.499  1.00  0.00    -0.341 N 
ATOM     11  C   UNL A   1      31.657  24.231  26.593  1.00  0.00     0.243 C 
ATOM     12  H   UNL A   1      30.132  25.492  26.898  1.00  0.00     0.164 HD
ATOM     13  O   UNL A   1      31.373  23.534  27.570  1.00  0.00    -0.273 OA
BRANCH  11  14
ATOM     14  C   UNL A   1      32.446  23.676  25.383  1.00  0.00     0.174 C 
ATOM     15  C   UNL A   1      31.325  23.045  24.522  1.00  0.00     0.037 C 
ATOM     16  N   UNL A   1      33.476  22.625  25.374  1.00  0.00    -0.330 N 
ATOM     17  C   UNL A   1      32.068  22.265  23.465  1.00  0.00     0.024 C 
ATOM     18  C   UNL A   1      33.293  21.761  24.206  1.00  0.00     0.120 C 
BRANCH  16  19
ATOM     19  C   UNL A   1      34.743  22.557  25.952  1.00  0.00     0.226 C 
ATOM     20  O   UNL A   1      35.038  21.605  26.678  1.00  0.00    -0.275 OA
BRANCH  19  21
ATOM     21  C   UNL A   1      35.813  23.580  25.802  1.00  0.00     0.079 C 
ATOM     22  C   UNL A   1      37.292  23.400  25.892  1.00  0.00     0.014 C 
ATOM     23  C   UNL A   1      36.652  23.669  24.557  1.00  0.00     0.014 C 
ENDBRANCH  19  21
ENDBRANCH  16  19
ENDBRANCH  11  14
ENDBRANCH   5  10
ENDBRANCH   3   5
ENDBRANCH   2   3
ENDBRANCH   1   2
BRANCH   1  24
ATOM     24  C   UNL A   1      33.702  30.536  27.625  1.00  0.00     0.275 C 
BRANCH  24  25
ATOM     25  O   UNL A   1      34.936  31.268  27.754  1.00  0.00    -0.458 OA
BRANCH  25  26
ATOM     26  C   UNL A   1      35.533  31.195  28.964  1.00  0.00     0.338 C 
ATOM     27  O   UNL A   1      35.112  31.631  30.025  1.00  0.00    -0.246 OA
BRANCH  26  28
ATOM     28  C   UNL A   1      36.765  30.397  28.879  1.00  0.00     0.060 A 
ATOM     29  C   UNL A   1      37.372  29.976  30.069  1.00  0.00     0.016 A 
ATOM     30  C   UNL A   1      37.384  30.176  27.650  1.00  0.00     0.016 A 
ATOM     31  C   UNL A   1      38.609  29.344  30.042  1.00  0.00     0.010 A 
ATOM     32  C   UNL A   1      38.636  29.555  27.623  1.00  0.00     0.010 A 
ATOM     33  C   UNL A   1      39.260  29.160  28.819  1.00  0.00    -0.014 A 
BRANCH  33  34
ATOM     34  C   UNL A   1      40.653  28.668  28.800  1.00  0.00     0.031 A 
ATOM     35  C   UNL A   1      41.767  29.634  29.074  1.00  0.00     0.074 A 
ATOM     36  C   UNL A   1      40.913  27.374  28.548  1.00  0.00     0.049 A 
ATOM     37  N   UNL A   1      43.059  29.460  28.973  1.00  0.00    -0.248 NA
ATOM     38  C   UNL A   1      41.371  30.979  29.525  1.00  0.00     0.031 C 
ATOM     39  C   UNL A   1      39.906  26.335  28.339  1.00  0.00     0.029 A 
ATOM     40  N   UNL A   1      42.109  26.720  28.409  1.00  0.00    -0.354 N 
ATOM     41  C   UNL A   1      43.628  30.677  29.320  1.00  0.00     0.074 A 
ATOM     42  C   UNL A   1      42.545  31.582  29.637  1.00  0.00     0.031 C 
ATOM     43  C   UNL A   1      40.528  25.174  28.074  1.00  0.00     0.029 A 
ATOM     44  C   UNL A   1      41.972  25.402  28.052  1.00  0.00     0.049 A 
ATOM     45  H   UNL A   1      42.982  27.154  28.550  1.00  0.00     0.167 HD
ATOM     46  C   UNL A   1      44.940  31.008  29.363  1.00  0.00     0.037 A 
ATOM     47  C   UNL A   1      42.907  24.498  27.708  1.00  0.00     0.037 A 
ATOM     48  C   UNL A   1      46.010  30.099  29.051  1.00  0.00     0.049 A 
ATOM     49  C   UNL A   1      44.354  24.910  27.693  1.00  0.00     0.074 A 
ATOM     50  C   UNL A   1      47.374  30.333  29.064  1.00  0.00     0.029 A 
ATOM     51  N   UNL A   1      45.831  28.778  28.669  1.00  0.00    -0.354 N 
ATOM     52  N   UNL A   1      44.886  26.068  27.998  1.00  0.00    -0.248 NA
ATOM     53  C   UNL A   1      45.327  23.891  27.274  1.00  0.00     0.031 C 
ATOM     54  C   UNL A   1      48.019  29.159  28.656  1.00  0.00     0.029 A 
ATOM     55  C   UNL A   1      47.059  28.187  28.425  1.00  0.00     0.049 A 
ATOM     56  H   UNL A   1      44.960  28.328  28.584  1.00  0.00     0.167 HD
ATOM     57  C   UNL A   1      46.256  25.915  27.827  1.00  0.00     0.074 A 
ATOM     58  C   UNL A   1      46.472  24.547  27.400  1.00  0.00     0.031 C 
ATOM     59  C   UNL A   1      47.246  26.822  28.006  1.00  0.00     0.037 A 
BRANCH  46  60
ATOM     60  C   UNL A   1      45.280  32.422  29.720  1.00  0.00     0.057 A 
ATOM     61  C   UNL A   1      45.531  32.814  31.041  1.00  0.00     0.134 A 
ATOM     62  C   UNL A   1      45.370  33.403  28.724  1.00  0.00     0.134 A 
ATOM     63  F   UNL A   1      45.441  31.926  32.041  1.00  0.00    -0.206 F 
ATOM     64  C   UNL A   1      45.845  34.136  31.360  1.00  0.00     0.040 A 
ATOM     65  C   UNL A   1      45.701  34.724  29.029  1.00  0.00     0.040 A 
ATOM     66  F   UNL A   1      45.137  33.093  27.440  1.00  0.00    -0.206 F 
ATOM     67  C   UNL A   1      45.936  35.094  30.351  1.00  0.00     0.006 A 
ENDBRANCH  46  60
BRANCH  47  68
ATOM     68  C   UNL A   1      42.503  23.128  27.314  1.00  0.00     0.057 A 
ATOM     69  C   UNL A   1      42.377  22.770  25.968  1.00  0.00     0.134 A 
ATOM     70  C   UNL A   1      42.229  22.145  28.273  1.00  0.00     0.134 A 
ATOM     71  F   UNL A   1      42.602  23.676  25.005  1.00  0.00    -0.206 F 
ATOM     72  C   UNL A   1      41.984  21.485  25.588  1.00  0.00     0.040 A 
ATOM     73  C   UNL A   1      41.857  20.852  27.909  1.00  0.00     0.040 A 
ATOM     74  F   UNL A   1      42.330  22.430  29.581  1.00  0.00    -0.206 F 
ATOM     75  C   UNL A   1      41.728  20.520  26.561  1.00  0.00     0.006 A 
ENDBRANCH  47  68
BRANCH  59  76
ATOM     76  C   UNL A   1      48.649  26.354  27.771  1.00  0.00     0.057 A 
ATOM     77  C   UNL A   1      49.265  26.478  26.520  1.00  0.00     0.134 A 
ATOM     78  C   UNL A   1      49.403  25.807  28.817  1.00  0.00     0.134 A 
ATOM     79  F   UNL A   1      48.590  26.982  25.476  1.00  0.00    -0.206 F 
ATOM     80  C   UNL A   1      50.580  26.059  26.313  1.00  0.00     0.040 A 
ATOM     81  C   UNL A   1      50.723  25.402  28.627  1.00  0.00     0.040 A 
ATOM     82  F   UNL A   1      48.869  25.668  30.040  1.00  0.00    -0.206 F 
ATOM     83  C   UNL A   1      51.315  25.524  27.371  1.00  0.00     0.006 A 
ENDBRANCH  59  76
ENDBRANCH  33  34
ENDBRANCH  26  28
ENDBRANCH  25  26
ENDBRANCH  24  25
ENDBRANCH   1  24
TORSDOF 17
ENDMDL
