MODEL 1
REMARK VINA RESULT:     -10.6      0.000      0.000
REMARK SMILES CC[C@]1(C(=O)OCCOC(=O)c2ccc(-c3c4nc(c(-c5c(F)cccc5F)c5ccc([nH]5)c(-c5c(F)cccc5F)c5nc(c(-c6c(F)cccc6F)c6ccc3[nH]6)C=C5)C=C4)cc2)CCCN(S(=O)(=O)CCOC(C)C)C1
REMARK SMILES IDX 6 1 4 2 5 3 3 4 66 5 79 6 67 7 69 8 68 9 2 10 1 11 70 12
REMARK SMILES IDX 71 13 72 14 73 15 74 16 75 17 76 18 77 19 78 20 7 21 8 22
REMARK SMILES IDX 9 23 10 24 11 25 12 26 13 27 65 28 14 29 64 30 15 31 16 32
REMARK SMILES IDX 17 33 58 34 18 35 63 36 57 37 59 38 19 39 62 40 56 41 55 42
REMARK SMILES IDX 20 44 46 45 29 46 45 47 30 48 33 49 44 50 60 51 31 52 32 53
REMARK SMILES IDX 43 55 61 56 34 57 21 58 22 59 27 60 23 61 24 62 26 63 28 64
REMARK SMILES IDX 25 65 47 66 48 67 53 68 49 69 50 70 52 71 54 72 51 73 35 74
REMARK SMILES IDX 36 75 41 76 37 77 38 78 40 79 42 80 39 81
REMARK H PARENT 59 43 33 54
REMARK Flexibility Score: inf
ROOT
ATOM      1  O   UNL A   1      35.807  22.317  25.077  1.00  0.00    -0.462 OA
ENDROOT
BRANCH   1   2
ATOM      2  C   UNL A   1      35.250  23.042  24.078  1.00  0.00     0.313 C 
ATOM      3  O   UNL A   1      35.661  23.039  22.920  1.00  0.00    -0.252 OA
BRANCH   2   4
ATOM      4  C   UNL A   1      33.999  23.842  24.500  1.00  0.00     0.082 C 
ATOM      5  C   UNL A   1      34.141  24.592  25.832  1.00  0.00     0.021 C 
ATOM      6  C   UNL A   1      33.867  24.847  23.329  1.00  0.00     0.121 C 
ATOM      7  C   UNL A   1      33.096  25.697  26.006  1.00  0.00     0.018 C 
ATOM      8  N   UNL A   1      32.837  25.905  23.554  1.00  0.00    -0.201 NA
ATOM      9  C   UNL A   1      33.069  26.653  24.821  1.00  0.00     0.102 C 
BRANCH   4  10
ATOM     10  C   UNL A   1      32.913  22.734  24.581  1.00  0.00     0.017 C 
ATOM     11  C   UNL A   1      32.313  22.228  25.884  1.00  0.00     0.005 C 
ENDBRANCH   4  10
BRANCH   8  12
ATOM     12  S   UNL A   1      32.588  26.928  22.175  1.00  0.00     0.216 S 
ATOM     13  O   UNL A   1      33.899  27.409  21.772  1.00  0.00    -0.212 OA
ATOM     14  O   UNL A   1      31.756  26.227  21.229  1.00  0.00    -0.212 OA
BRANCH  12  15
ATOM     15  C   UNL A   1      31.665  28.312  22.868  1.00  0.00     0.182 C 
BRANCH  15  16
ATOM     16  C   UNL A   1      30.192  28.359  22.454  1.00  0.00     0.178 C 
BRANCH  16  17
ATOM     17  O   UNL A   1      29.868  29.488  21.629  1.00  0.00    -0.378 OA
BRANCH  17  18
ATOM     18  C   UNL A   1      28.551  30.034  21.730  1.00  0.00     0.112 C 
ATOM     19  C   UNL A   1      27.917  29.914  23.112  1.00  0.00     0.038 C 
ATOM     20  C   UNL A   1      28.499  31.465  21.276  1.00  0.00     0.038 C 
ENDBRANCH  17  18
ENDBRANCH  16  17
ENDBRANCH  15  16
ENDBRANCH  12  15
ENDBRANCH   8  12
ENDBRANCH   2   4
ENDBRANCH   1   2
BRANCH   1  21
ATOM     21  C   UNL A   1      35.666  20.884  24.964  1.00  0.00     0.274 C 
BRANCH  21  22
ATOM     22  C   UNL A   1      37.034  20.207  24.961  1.00  0.00     0.275 C 
BRANCH  22  23
ATOM     23  O   UNL A   1      38.089  21.190  25.003  1.00  0.00    -0.458 OA
BRANCH  23  24
ATOM     24  C   UNL A   1      39.078  20.931  25.888  1.00  0.00     0.338 C 
ATOM     25  O   UNL A   1      39.663  19.873  26.053  1.00  0.00    -0.246 OA
BRANCH  24  26
ATOM     26  C   UNL A   1      39.467  22.144  26.629  1.00  0.00     0.060 A 
ATOM     27  C   UNL A   1      38.925  23.358  26.235  1.00  0.00     0.016 A 
ATOM     28  C   UNL A   1      40.567  22.120  27.484  1.00  0.00     0.016 A 
ATOM     29  C   UNL A   1      39.626  24.533  26.493  1.00  0.00     0.010 A 
ATOM     30  C   UNL A   1      41.140  23.327  27.914  1.00  0.00     0.010 A 
ATOM     31  C   UNL A   1      40.724  24.553  27.369  1.00  0.00    -0.014 A 
BRANCH  31  32
ATOM     32  C   UNL A   1      41.400  25.852  27.694  1.00  0.00     0.031 A 
ATOM     33  C   UNL A   1      40.722  26.923  28.522  1.00  0.00     0.074 A 
ATOM     34  C   UNL A   1      42.658  26.079  27.255  1.00  0.00     0.049 A 
ATOM     35  N   UNL A   1      41.122  28.145  28.784  1.00  0.00    -0.248 NA
ATOM     36  C   UNL A   1      39.417  26.592  29.111  1.00  0.00     0.031 C 
ATOM     37  C   UNL A   1      43.450  25.153  26.441  1.00  0.00     0.029 A 
ATOM     38  N   UNL A   1      43.503  27.147  27.441  1.00  0.00    -0.354 N 
ATOM     39  C   UNL A   1      40.092  28.746  29.500  1.00  0.00     0.074 A 
ATOM     40  C   UNL A   1      39.044  27.756  29.626  1.00  0.00     0.031 C 
ATOM     41  C   UNL A   1      44.680  25.648  26.270  1.00  0.00     0.029 A 
ATOM     42  C   UNL A   1      44.729  26.987  26.841  1.00  0.00     0.049 A 
ATOM     43  H   UNL A   1      43.253  27.949  27.954  1.00  0.00     0.167 HD
ATOM     44  C   UNL A   1      40.023  30.005  30.006  1.00  0.00     0.037 A 
ATOM     45  C   UNL A   1      45.770  27.828  26.704  1.00  0.00     0.037 A 
ATOM     46  C   UNL A   1      41.092  30.973  29.933  1.00  0.00     0.049 A 
ATOM     47  C   UNL A   1      45.675  29.207  27.275  1.00  0.00     0.074 A 
ATOM     48  C   UNL A   1      41.133  32.255  30.459  1.00  0.00     0.029 A 
ATOM     49  N   UNL A   1      42.309  30.769  29.300  1.00  0.00    -0.354 N 
ATOM     50  N   UNL A   1      44.685  29.764  27.926  1.00  0.00    -0.248 NA
ATOM     51  C   UNL A   1      46.840  30.079  27.083  1.00  0.00     0.031 C 
ATOM     52  C   UNL A   1      42.350  32.844  30.094  1.00  0.00     0.029 A 
ATOM     53  C   UNL A   1      43.097  31.907  29.400  1.00  0.00     0.049 A 
ATOM     54  H   UNL A   1      42.576  29.936  28.845  1.00  0.00     0.167 HD
ATOM     55  C   UNL A   1      45.107  31.050  28.230  1.00  0.00     0.074 A 
ATOM     56  C   UNL A   1      46.457  31.178  27.717  1.00  0.00     0.031 C 
ATOM     57  C   UNL A   1      44.433  32.036  28.873  1.00  0.00     0.037 A 
BRANCH  44  58
ATOM     58  C   UNL A   1      38.725  30.432  30.642  1.00  0.00     0.057 A 
ATOM     59  C   UNL A   1      38.457  30.263  32.007  1.00  0.00     0.134 A 
ATOM     60  C   UNL A   1      37.731  31.049  29.868  1.00  0.00     0.134 A 
ATOM     61  F   UNL A   1      39.357  29.676  32.810  1.00  0.00    -0.206 F 
ATOM     62  C   UNL A   1      37.235  30.649  32.568  1.00  0.00     0.040 A 
ATOM     63  C   UNL A   1      36.521  31.471  30.424  1.00  0.00     0.040 A 
ATOM     64  F   UNL A   1      37.920  31.260  28.557  1.00  0.00    -0.206 F 
ATOM     65  C   UNL A   1      36.265  31.260  31.776  1.00  0.00     0.006 A 
ENDBRANCH  44  58
BRANCH  45  66
ATOM     66  C   UNL A   1      46.969  27.383  25.947  1.00  0.00     0.057 A 
ATOM     67  C   UNL A   1      47.061  27.555  24.563  1.00  0.00     0.134 A 
ATOM     68  C   UNL A   1      48.073  26.822  26.603  1.00  0.00     0.134 A 
ATOM     69  F   UNL A   1      46.029  28.066  23.876  1.00  0.00    -0.206 F 
ATOM     70  C   UNL A   1      48.208  27.186  23.856  1.00  0.00     0.040 A 
ATOM     71  C   UNL A   1      49.238  26.483  25.916  1.00  0.00     0.040 A 
ATOM     72  F   UNL A   1      48.052  26.642  27.932  1.00  0.00    -0.206 F 
ATOM     73  C   UNL A   1      49.305  26.661  24.536  1.00  0.00     0.006 A 
ENDBRANCH  45  66
BRANCH  57  74
ATOM     74  C   UNL A   1      45.171  33.328  29.083  1.00  0.00     0.057 A 
ATOM     75  C   UNL A   1      45.151  34.360  28.134  1.00  0.00     0.134 A 
ATOM     76  C   UNL A   1      45.930  33.534  30.242  1.00  0.00     0.134 A 
ATOM     77  F   UNL A   1      44.458  34.223  26.993  1.00  0.00    -0.206 F 
ATOM     78  C   UNL A   1      45.896  35.528  28.309  1.00  0.00     0.040 A 
ATOM     79  C   UNL A   1      46.651  34.711  30.444  1.00  0.00     0.040 A 
ATOM     80  F   UNL A   1      45.986  32.592  31.196  1.00  0.00    -0.206 F 
ATOM     81  C   UNL A   1      46.647  35.706  29.469  1.00  0.00     0.006 A 
ENDBRANCH  57  74
ENDBRANCH  31  32
ENDBRANCH  24  26
ENDBRANCH  23  24
ENDBRANCH  22  23
ENDBRANCH  21  22
ENDBRANCH   1  21
TORSDOF 17
ENDMDL
MODEL 2
REMARK VINA RESULT:     -10.4      3.994      9.158
REMARK SMILES CC[C@]1(C(=O)OCCOC(=O)c2ccc(-c3c4nc(c(-c5c(F)cccc5F)c5ccc([nH]5)c(-c5c(F)cccc5F)c5nc(c(-c6c(F)cccc6F)c6ccc3[nH]6)C=C5)C=C4)cc2)CCCN(S(=O)(=O)CCOC(C)C)C1
REMARK SMILES IDX 6 1 4 2 5 3 3 4 66 5 79 6 67 7 69 8 68 9 2 10 1 11 70 12
REMARK SMILES IDX 71 13 72 14 73 15 74 16 75 17 76 18 77 19 78 20 7 21 8 22
REMARK SMILES IDX 9 23 10 24 11 25 12 26 13 27 65 28 14 29 64 30 15 31 16 32
REMARK SMILES IDX 17 33 58 34 18 35 63 36 57 37 59 38 19 39 62 40 56 41 55 42
REMARK SMILES IDX 20 44 46 45 29 46 45 47 30 48 33 49 44 50 60 51 31 52 32 53
REMARK SMILES IDX 43 55 61 56 34 57 21 58 22 59 27 60 23 61 24 62 26 63 28 64
REMARK SMILES IDX 25 65 47 66 48 67 53 68 49 69 50 70 52 71 54 72 51 73 35 74
REMARK SMILES IDX 36 75 41 76 37 77 38 78 40 79 42 80 39 81
REMARK H PARENT 59 43 33 54
REMARK Flexibility Score: inf
ROOT
ATOM      1  O   UNL A   1      32.480  27.966  25.606  1.00  0.00    -0.462 OA
ENDROOT
BRANCH   1   2
ATOM      2  C   UNL A   1      31.991  26.763  25.988  1.00  0.00     0.313 C 
ATOM      3  O   UNL A   1      31.266  26.600  26.967  1.00  0.00    -0.252 OA
BRANCH   2   4
ATOM      4  C   UNL A   1      32.372  25.599  25.049  1.00  0.00     0.082 C 
ATOM      5  C   UNL A   1      33.480  25.930  24.040  1.00  0.00     0.021 C 
ATOM      6  C   UNL A   1      32.866  24.536  26.061  1.00  0.00     0.121 C 
ATOM      7  C   UNL A   1      34.132  24.680  23.441  1.00  0.00     0.018 C 
ATOM      8  N   UNL A   1      33.498  23.341  25.424  1.00  0.00    -0.201 NA
ATOM      9  C   UNL A   1      34.617  23.716  24.515  1.00  0.00     0.102 C 
BRANCH   4  10
ATOM     10  C   UNL A   1      31.023  25.296  24.338  1.00  0.00     0.017 C 
ATOM     11  C   UNL A   1      30.766  24.053  23.501  1.00  0.00     0.005 C 
ENDBRANCH   4  10
BRANCH   8  12
ATOM     12  S   UNL A   1      33.904  22.091  26.555  1.00  0.00     0.216 S 
ATOM     13  O   UNL A   1      35.333  21.856  26.419  1.00  0.00    -0.212 OA
ATOM     14  O   UNL A   1      33.351  22.438  27.840  1.00  0.00    -0.212 OA
BRANCH  12  15
ATOM     15  C   UNL A   1      33.030  20.659  25.897  1.00  0.00     0.182 C 
BRANCH  15  16
ATOM     16  C   UNL A   1      33.584  20.136  24.570  1.00  0.00     0.178 C 
BRANCH  16  17
ATOM     17  O   UNL A   1      33.994  18.762  24.626  1.00  0.00    -0.378 OA
BRANCH  17  18
ATOM     18  C   UNL A   1      33.213  17.801  23.912  1.00  0.00     0.112 C 
ATOM     19  C   UNL A   1      32.471  18.357  22.701  1.00  0.00     0.038 C 
ATOM     20  C   UNL A   1      34.028  16.609  23.498  1.00  0.00     0.038 C 
ENDBRANCH  17  18
ENDBRANCH  16  17
ENDBRANCH  15  16
ENDBRANCH  12  15
ENDBRANCH   8  12
ENDBRANCH   2   4
ENDBRANCH   1   2
BRANCH   1  21
ATOM     21  C   UNL A   1      31.539  28.846  24.954  1.00  0.00     0.274 C 
BRANCH  21  22
ATOM     22  C   UNL A   1      31.550  30.226  25.608  1.00  0.00     0.275 C 
BRANCH  22  23
ATOM     23  O   UNL A   1      32.277  30.193  26.854  1.00  0.00    -0.458 OA
BRANCH  23  24
ATOM     24  C   UNL A   1      32.945  31.328  27.157  1.00  0.00     0.338 C 
ATOM     25  O   UNL A   1      32.484  32.454  27.252  1.00  0.00    -0.246 OA
BRANCH  24  26
ATOM     26  C   UNL A   1      34.360  31.053  27.462  1.00  0.00     0.060 A 
ATOM     27  C   UNL A   1      34.745  29.736  27.667  1.00  0.00     0.016 A 
ATOM     28  C   UNL A   1      35.211  32.091  27.839  1.00  0.00     0.016 A 
ATOM     29  C   UNL A   1      35.856  29.466  28.461  1.00  0.00     0.010 A 
ATOM     30  C   UNL A   1      36.438  31.796  28.452  1.00  0.00     0.010 A 
ATOM     31  C   UNL A   1      36.750  30.482  28.839  1.00  0.00    -0.014 A 
BRANCH  31  32
ATOM     32  C   UNL A   1      37.985  30.142  29.620  1.00  0.00     0.031 A 
ATOM     33  C   UNL A   1      39.088  29.283  29.040  1.00  0.00     0.074 A 
ATOM     34  C   UNL A   1      38.136  30.625  30.873  1.00  0.00     0.049 A 
ATOM     35  N   UNL A   1      40.156  28.798  29.628  1.00  0.00    -0.248 NA
ATOM     36  C   UNL A   1      38.967  28.897  27.627  1.00  0.00     0.031 C 
ATOM     37  C   UNL A   1      37.165  31.462  31.581  1.00  0.00     0.029 A 
ATOM     38  N   UNL A   1      39.168  30.498  31.772  1.00  0.00    -0.354 N 
ATOM     39  C   UNL A   1      40.789  27.995  28.684  1.00  0.00     0.074 A 
ATOM     40  C   UNL A   1      39.981  28.053  27.485  1.00  0.00     0.031 C 
ATOM     41  C   UNL A   1      37.675  31.840  32.758  1.00  0.00     0.029 A 
ATOM     42  C   UNL A   1      38.950  31.166  32.954  1.00  0.00     0.049 A 
ATOM     43  H   UNL A   1      39.984  29.979  31.588  1.00  0.00     0.167 HD
ATOM     44  C   UNL A   1      41.936  27.276  28.803  1.00  0.00     0.037 A 
ATOM     45  C   UNL A   1      39.654  31.201  34.100  1.00  0.00     0.037 A 
ATOM     46  C   UNL A   1      42.773  27.266  29.979  1.00  0.00     0.049 A 
ATOM     47  C   UNL A   1      40.918  30.407  34.207  1.00  0.00     0.074 A 
ATOM     48  C   UNL A   1      43.978  26.608  30.174  1.00  0.00     0.029 A 
ATOM     49  N   UNL A   1      42.501  27.946  31.157  1.00  0.00    -0.354 N 
ATOM     50  N   UNL A   1      41.485  29.636  33.312  1.00  0.00    -0.248 NA
ATOM     51  C   UNL A   1      41.633  30.480  35.486  1.00  0.00     0.031 C 
ATOM     52  C   UNL A   1      44.402  26.844  31.487  1.00  0.00     0.029 A 
ATOM     53  C   UNL A   1      43.500  27.704  32.090  1.00  0.00     0.049 A 
ATOM     54  H   UNL A   1      41.713  28.518  31.308  1.00  0.00     0.167 HD
ATOM     55  C   UNL A   1      42.630  29.136  33.916  1.00  0.00     0.074 A 
ATOM     56  C   UNL A   1      42.689  29.718  35.243  1.00  0.00     0.031 C 
ATOM     57  C   UNL A   1      43.545  28.271  33.415  1.00  0.00     0.037 A 
BRANCH  44  58
ATOM     58  C   UNL A   1      42.330  26.394  27.646  1.00  0.00     0.057 A 
ATOM     59  C   UNL A   1      43.192  26.819  26.626  1.00  0.00     0.134 A 
ATOM     60  C   UNL A   1      41.849  25.078  27.568  1.00  0.00     0.134 A 
ATOM     61  F   UNL A   1      43.688  28.065  26.630  1.00  0.00    -0.206 F 
ATOM     62  C   UNL A   1      43.525  25.987  25.553  1.00  0.00     0.040 A 
ATOM     63  C   UNL A   1      42.203  24.226  26.519  1.00  0.00     0.040 A 
ATOM     64  F   UNL A   1      41.031  24.594  28.514  1.00  0.00    -0.206 F 
ATOM     65  C   UNL A   1      43.034  24.684  25.501  1.00  0.00     0.006 A 
ENDBRANCH  44  58
BRANCH  45  66
ATOM     66  C   UNL A   1      39.135  31.989  35.248  1.00  0.00     0.057 A 
ATOM     67  C   UNL A   1      39.370  33.363  35.354  1.00  0.00     0.134 A 
ATOM     68  C   UNL A   1      38.345  31.390  36.240  1.00  0.00     0.134 A 
ATOM     69  F   UNL A   1      40.136  33.989  34.448  1.00  0.00    -0.206 F 
ATOM     70  C   UNL A   1      38.839  34.115  36.404  1.00  0.00     0.040 A 
ATOM     71  C   UNL A   1      37.779  32.135  37.273  1.00  0.00     0.040 A 
ATOM     72  F   UNL A   1      38.073  30.078  36.189  1.00  0.00    -0.206 F 
ATOM     73  C   UNL A   1      38.030  33.502  37.359  1.00  0.00     0.006 A 
ENDBRANCH  45  66
BRANCH  57  74
ATOM     74  C   UNL A   1      44.708  27.932  34.305  1.00  0.00     0.057 A 
ATOM     75  C   UNL A   1      45.887  28.690  34.311  1.00  0.00     0.134 A 
ATOM     76  C   UNL A   1      44.656  26.817  35.151  1.00  0.00     0.134 A 
ATOM     77  F   UNL A   1      46.012  29.762  33.512  1.00  0.00    -0.206 F 
ATOM     78  C   UNL A   1      46.987  28.325  35.090  1.00  0.00     0.040 A 
ATOM     79  C   UNL A   1      45.736  26.461  35.959  1.00  0.00     0.040 A 
ATOM     80  F   UNL A   1      43.555  26.052  35.202  1.00  0.00    -0.206 F 
ATOM     81  C   UNL A   1      46.911  27.208  35.920  1.00  0.00     0.006 A 
ENDBRANCH  57  74
ENDBRANCH  31  32
ENDBRANCH  24  26
ENDBRANCH  23  24
ENDBRANCH  22  23
ENDBRANCH  21  22
ENDBRANCH   1  21
TORSDOF 17
ENDMDL
MODEL 3
REMARK VINA RESULT:     -10.3      0.611      6.347
REMARK SMILES CC[C@]1(C(=O)OCCOC(=O)c2ccc(-c3c4nc(c(-c5c(F)cccc5F)c5ccc([nH]5)c(-c5c(F)cccc5F)c5nc(c(-c6c(F)cccc6F)c6ccc3[nH]6)C=C5)C=C4)cc2)CCCN(S(=O)(=O)CCOC(C)C)C1
REMARK SMILES IDX 6 1 4 2 5 3 3 4 66 5 79 6 67 7 69 8 68 9 2 10 1 11 70 12
REMARK SMILES IDX 71 13 72 14 73 15 74 16 75 17 76 18 77 19 78 20 7 21 8 22
REMARK SMILES IDX 9 23 10 24 11 25 12 26 13 27 65 28 14 29 64 30 15 31 16 32
REMARK SMILES IDX 17 33 58 34 18 35 63 36 57 37 59 38 19 39 62 40 56 41 55 42
REMARK SMILES IDX 20 44 46 45 29 46 45 47 30 48 33 49 44 50 60 51 31 52 32 53
REMARK SMILES IDX 43 55 61 56 34 57 21 58 22 59 27 60 23 61 24 62 26 63 28 64
REMARK SMILES IDX 25 65 47 66 48 67 53 68 49 69 50 70 52 71 54 72 51 73 35 74
REMARK SMILES IDX 36 75 41 76 37 77 38 78 40 79 42 80 39 81
REMARK H PARENT 59 43 33 54
REMARK Flexibility Score: inf
ROOT
ATOM      1  O   UNL A   1      36.122  22.238  24.948  1.00  0.00    -0.462 OA
ENDROOT
BRANCH   1   2
ATOM      2  C   UNL A   1      35.509  22.920  23.951  1.00  0.00     0.313 C 
ATOM      3  O   UNL A   1      35.946  22.997  22.806  1.00  0.00    -0.252 OA
BRANCH   2   4
ATOM      4  C   UNL A   1      34.161  23.555  24.357  1.00  0.00     0.082 C 
ATOM      5  C   UNL A   1      34.046  23.909  25.846  1.00  0.00     0.021 C 
ATOM      6  C   UNL A   1      34.157  24.843  23.497  1.00  0.00     0.121 C 
ATOM      7  C   UNL A   1      32.922  24.909  26.134  1.00  0.00     0.018 C 
ATOM      8  N   UNL A   1      33.044  25.785  23.823  1.00  0.00    -0.201 NA
ATOM      9  C   UNL A   1      33.027  26.154  25.266  1.00  0.00     0.102 C 
BRANCH   4  10
ATOM     10  C   UNL A   1      33.144  22.454  23.950  1.00  0.00     0.017 C 
ATOM     11  C   UNL A   1      32.451  22.397  22.597  1.00  0.00     0.005 C 
ENDBRANCH   4  10
BRANCH   8  12
ATOM     12  S   UNL A   1      32.957  27.145  22.751  1.00  0.00     0.216 S 
ATOM     13  O   UNL A   1      33.611  28.253  23.431  1.00  0.00    -0.212 OA
ATOM     14  O   UNL A   1      33.412  26.732  21.448  1.00  0.00    -0.212 OA
BRANCH  12  15
ATOM     15  C   UNL A   1      31.189  27.486  22.684  1.00  0.00     0.182 C 
BRANCH  15  16
ATOM     16  C   UNL A   1      30.838  28.959  22.456  1.00  0.00     0.178 C 
BRANCH  16  17
ATOM     17  O   UNL A   1      29.704  29.398  23.217  1.00  0.00    -0.378 OA
BRANCH  17  18
ATOM     18  C   UNL A   1      29.069  30.619  22.829  1.00  0.00     0.112 C 
ATOM     19  C   UNL A   1      28.878  30.785  21.325  1.00  0.00     0.038 C 
ATOM     20  C   UNL A   1      27.755  30.817  23.529  1.00  0.00     0.038 C 
ENDBRANCH  17  18
ENDBRANCH  16  17
ENDBRANCH  15  16
ENDBRANCH  12  15
ENDBRANCH   8  12
ENDBRANCH   2   4
ENDBRANCH   1   2
BRANCH   1  21
ATOM     21  C   UNL A   1      36.002  20.800  24.888  1.00  0.00     0.274 C 
BRANCH  21  22
ATOM     22  C   UNL A   1      37.373  20.140  25.010  1.00  0.00     0.275 C 
BRANCH  22  23
ATOM     23  O   UNL A   1      38.413  21.137  25.094  1.00  0.00    -0.458 OA
BRANCH  23  24
ATOM     24  C   UNL A   1      39.342  20.916  26.049  1.00  0.00     0.338 C 
ATOM     25  O   UNL A   1      39.898  19.861  26.310  1.00  0.00    -0.246 OA
BRANCH  24  26
ATOM     26  C   UNL A   1      39.707  22.164  26.743  1.00  0.00     0.060 A 
ATOM     27  C   UNL A   1      39.083  23.340  26.354  1.00  0.00     0.016 A 
ATOM     28  C   UNL A   1      40.853  22.217  27.536  1.00  0.00     0.016 A 
ATOM     29  C   UNL A   1      39.734  24.555  26.548  1.00  0.00     0.010 A 
ATOM     30  C   UNL A   1      41.384  23.460  27.908  1.00  0.00     0.010 A 
ATOM     31  C   UNL A   1      40.876  24.651  27.361  1.00  0.00    -0.014 A 
BRANCH  31  32
ATOM     32  C   UNL A   1      41.501  25.990  27.621  1.00  0.00     0.031 A 
ATOM     33  C   UNL A   1      42.858  26.362  27.062  1.00  0.00     0.074 A 
ATOM     34  C   UNL A   1      40.837  26.905  28.362  1.00  0.00     0.049 A 
ATOM     35  N   UNL A   1      43.587  27.427  27.298  1.00  0.00    -0.248 NA
ATOM     36  C   UNL A   1      43.489  25.408  26.139  1.00  0.00     0.031 C 
ATOM     37  C   UNL A   1      39.524  26.702  28.979  1.00  0.00     0.029 A 
ATOM     38  N   UNL A   1      41.161  28.194  28.711  1.00  0.00    -0.354 N 
ATOM     39  C   UNL A   1      44.785  27.237  26.616  1.00  0.00     0.074 A 
ATOM     40  C   UNL A   1      44.687  25.949  25.962  1.00  0.00     0.031 C 
ATOM     41  C   UNL A   1      39.120  27.840  29.554  1.00  0.00     0.029 A 
ATOM     42  C   UNL A   1      40.198  28.816  29.469  1.00  0.00     0.049 A 
ATOM     43  H   UNL A   1      42.003  28.629  28.444  1.00  0.00     0.167 HD
ATOM     44  C   UNL A   1      45.866  28.056  26.542  1.00  0.00     0.037 A 
ATOM     45  C   UNL A   1      40.183  30.012  30.083  1.00  0.00     0.037 A 
ATOM     46  C   UNL A   1      45.940  29.366  27.145  1.00  0.00     0.049 A 
ATOM     47  C   UNL A   1      41.382  30.901  29.982  1.00  0.00     0.074 A 
ATOM     48  C   UNL A   1      46.973  30.288  27.081  1.00  0.00     0.029 A 
ATOM     49  N   UNL A   1      44.943  29.945  27.916  1.00  0.00    -0.354 N 
ATOM     50  N   UNL A   1      42.512  30.693  29.354  1.00  0.00    -0.248 NA
ATOM     51  C   UNL A   1      41.306  32.187  30.683  1.00  0.00     0.031 C 
ATOM     52  C   UNL A   1      46.625  31.396  27.861  1.00  0.00     0.029 A 
ATOM     53  C   UNL A   1      45.346  31.198  28.355  1.00  0.00     0.049 A 
ATOM     54  H   UNL A   1      44.075  29.526  28.123  1.00  0.00     0.167 HD
ATOM     55  C   UNL A   1      43.283  31.824  29.577  1.00  0.00     0.074 A 
ATOM     56  C   UNL A   1      42.476  32.728  30.374  1.00  0.00     0.031 C 
ATOM     57  C   UNL A   1      44.547  32.087  29.162  1.00  0.00     0.037 A 
BRANCH  44  58
ATOM     58  C   UNL A   1      47.085  27.539  25.822  1.00  0.00     0.057 A 
ATOM     59  C   UNL A   1      47.269  27.681  24.440  1.00  0.00     0.134 A 
ATOM     60  C   UNL A   1      48.110  26.903  26.539  1.00  0.00     0.134 A 
ATOM     61  F   UNL A   1      46.330  28.274  23.686  1.00  0.00    -0.206 F 
ATOM     62  C   UNL A   1      48.400  27.174  23.794  1.00  0.00     0.040 A 
ATOM     63  C   UNL A   1      49.261  26.423  25.910  1.00  0.00     0.040 A 
ATOM     64  F   UNL A   1      48.014  26.743  27.868  1.00  0.00    -0.206 F 
ATOM     65  C   UNL A   1      49.403  26.547  24.531  1.00  0.00     0.006 A 
ENDBRANCH  44  58
BRANCH  45  66
ATOM     66  C   UNL A   1      38.996  30.401  30.888  1.00  0.00     0.057 A 
ATOM     67  C   UNL A   1      38.884  30.049  32.237  1.00  0.00     0.134 A 
ATOM     68  C   UNL A   1      37.969  31.179  30.336  1.00  0.00     0.134 A 
ATOM     69  F   UNL A   1      39.823  29.288  32.817  1.00  0.00    -0.206 F 
ATOM     70  C   UNL A   1      37.795  30.458  33.009  1.00  0.00     0.040 A 
ATOM     71  C   UNL A   1      36.894  31.624  31.105  1.00  0.00     0.040 A 
ATOM     72  F   UNL A   1      38.022  31.558  29.051  1.00  0.00    -0.206 F 
ATOM     73  C   UNL A   1      36.803  31.259  32.446  1.00  0.00     0.006 A 
ENDBRANCH  45  66
BRANCH  57  74
ATOM     74  C   UNL A   1      45.114  33.426  29.539  1.00  0.00     0.057 A 
ATOM     75  C   UNL A   1      44.948  34.560  28.732  1.00  0.00     0.134 A 
ATOM     76  C   UNL A   1      45.858  33.578  30.716  1.00  0.00     0.134 A 
ATOM     77  F   UNL A   1      44.260  34.482  27.581  1.00  0.00    -0.206 F 
ATOM     78  C   UNL A   1      45.539  35.783  29.057  1.00  0.00     0.040 A 
ATOM     79  C   UNL A   1      46.425  34.803  31.070  1.00  0.00     0.040 A 
ATOM     80  F   UNL A   1      46.050  32.536  31.540  1.00  0.00    -0.206 F 
ATOM     81  C   UNL A   1      46.278  35.906  30.232  1.00  0.00     0.006 A 
ENDBRANCH  57  74
ENDBRANCH  31  32
ENDBRANCH  24  26
ENDBRANCH  23  24
ENDBRANCH  22  23
ENDBRANCH  21  22
ENDBRANCH   1  21
TORSDOF 17
ENDMDL
