MODEL 1
REMARK VINA RESULT:     -12.7      0.000      0.000
REMARK SMILES O=C1NC(=O)/C(=C/c2ccc(OCc3cn(-c4ccc(C(=O)OCCOC(=O)c5ccc(-c6c7nc(c(-c8c(F)cccc8F)c8ccc([nH]8)c(-c8c(F)cccc8F)c8nc(c(-c9c(F)cccc9F)c9ccc6[nH]9)C=C8)C=C7)cc5)cc4)nn3)cc2)S1
REMARK SMILES IDX 23 1 21 2 22 3 20 4 17 5 18 6 84 7 19 8 83 9 16 10 14 11
REMARK SMILES IDX 15 12 86 13 85 14 13 15 12 16 11 17 8 18 9 19 88 20 10 21
REMARK SMILES IDX 87 22 7 23 1 24 2 25 3 26 89 27 4 28 6 30 5 31 24 32 25 33
REMARK SMILES IDX 26 34 27 35 28 36 29 37 30 38 82 39 31 40 81 41 32 42 33 43
REMARK SMILES IDX 34 44 75 45 35 46 80 47 74 48 76 49 36 50 79 51 73 52 72 53
REMARK SMILES IDX 37 55 63 56 46 57 62 58 47 59 50 60 61 61 77 62 48 63 49 64
REMARK SMILES IDX 60 66 78 67 51 68 38 69 39 70 44 71 40 72 41 73 43 74 45 75
REMARK SMILES IDX 42 76 64 77 65 78 70 79 66 80 67 81 69 82 71 83 68 84 52 85
REMARK SMILES IDX 53 86 58 87 54 88 55 89 57 90 59 91 56 92
REMARK H PARENT 3 29 76 54 50 65
REMARK Flexibility Score: inf
ROOT
ATOM      1  O   UNL A   1      42.156  19.093  25.820  1.00  0.00    -0.458 OA
ENDROOT
BRANCH   1   2
ATOM      2  C   UNL A   1      41.783  20.150  26.581  1.00  0.00     0.338 C 
ATOM      3  O   UNL A   1      42.473  20.736  27.403  1.00  0.00    -0.246 OA
BRANCH   2   4
ATOM      4  C   UNL A   1      40.420  20.590  26.220  1.00  0.00     0.060 A 
ATOM      5  C   UNL A   1      37.919  21.377  25.307  1.00  0.00     0.066 A 
ATOM      6  C   UNL A   1      38.326  20.046  25.146  1.00  0.00     0.029 A 
ATOM      7  C   UNL A   1      38.723  22.296  25.992  1.00  0.00     0.029 A 
ATOM      8  C   UNL A   1      39.592  19.665  25.573  1.00  0.00     0.018 A 
ATOM      9  C   UNL A   1      39.966  21.890  26.478  1.00  0.00     0.018 A 
BRANCH   5  10
ATOM     10  N   UNL A   1      36.713  21.788  24.711  1.00  0.00    -0.220 N 
ATOM     11  C   UNL A   1      34.618  22.103  24.193  1.00  0.00     0.120 A 
ATOM     12  C   UNL A   1      35.457  21.243  24.870  1.00  0.00     0.144 A 
ATOM     13  N   UNL A   1      35.376  23.106  23.651  1.00  0.00    -0.131 NA
ATOM     14  N   UNL A   1      36.636  22.923  23.992  1.00  0.00    -0.062 NA
BRANCH  11  15
ATOM     15  C   UNL A   1      33.127  22.148  24.105  1.00  0.00     0.289 C 
BRANCH  15  16
ATOM     16  O   UNL A   1      32.593  22.591  22.845  1.00  0.00    -0.487 OA
BRANCH  16  17
ATOM     17  C   UNL A   1      31.929  23.787  22.806  1.00  0.00     0.119 A 
ATOM     18  C   UNL A   1      30.937  26.416  22.826  1.00  0.00    -0.024 A 
ATOM     19  C   UNL A   1      32.031  26.085  22.024  1.00  0.00     0.012 A 
ATOM     20  C   UNL A   1      30.287  25.407  23.538  1.00  0.00     0.012 A 
ATOM     21  C   UNL A   1      32.528  24.775  22.022  1.00  0.00     0.047 A 
ATOM     22  C   UNL A   1      30.761  24.094  23.497  1.00  0.00     0.047 A 
BRANCH  18  23
ATOM     23  C   UNL A   1      30.439  27.793  22.893  1.00  0.00     0.029 C 
ATOM     24  O   UNL A   1      32.251  30.742  26.561  1.00  0.00    -0.261 OA
ATOM     25  C   UNL A   1      31.675  30.212  25.613  1.00  0.00     0.290 C 
ATOM     26  N   UNL A   1      30.694  30.778  24.875  1.00  0.00    -0.282 N 
ATOM     27  S   UNL A   1      32.018  28.603  25.021  1.00  0.00    -0.022 SA
ATOM     28  C   UNL A   1      30.165  30.055  23.847  1.00  0.00     0.265 C 
ATOM     29  H   UNL A   1      30.369  31.685  25.077  1.00  0.00     0.174 HD
ATOM     30  C   UNL A   1      30.815  28.719  23.788  1.00  0.00     0.083 C 
ATOM     31  O   UNL A   1      29.281  30.444  23.104  1.00  0.00    -0.268 OA
ENDBRANCH  18  23
ENDBRANCH  16  17
ENDBRANCH  15  16
ENDBRANCH  11  15
ENDBRANCH   5  10
ENDBRANCH   2   4
ENDBRANCH   1   2
BRANCH   1  32
ATOM     32  C   UNL A   1      43.323  18.403  26.288  1.00  0.00     0.275 C 
BRANCH  32  33
ATOM     33  C   UNL A   1      44.493  18.581  25.330  1.00  0.00     0.275 C 
BRANCH  33  34
ATOM     34  O   UNL A   1      45.084  19.883  25.397  1.00  0.00    -0.458 OA
BRANCH  34  35
ATOM     35  C   UNL A   1      44.720  20.731  24.407  1.00  0.00     0.338 C 
ATOM     36  O   UNL A   1      44.652  20.491  23.214  1.00  0.00    -0.246 OA
BRANCH  35  37
ATOM     37  C   UNL A   1      44.673  22.102  24.935  1.00  0.00     0.060 A 
ATOM     38  C   UNL A   1      45.541  22.456  25.970  1.00  0.00     0.016 A 
ATOM     39  C   UNL A   1      43.588  22.917  24.586  1.00  0.00     0.016 A 
ATOM     40  C   UNL A   1      45.223  23.555  26.754  1.00  0.00     0.010 A 
ATOM     41  C   UNL A   1      43.274  24.007  25.369  1.00  0.00     0.010 A 
ATOM     42  C   UNL A   1      44.044  24.279  26.496  1.00  0.00    -0.014 A 
BRANCH  42  43
ATOM     43  C   UNL A   1      43.784  25.523  27.218  1.00  0.00     0.031 A 
ATOM     44  C   UNL A   1      44.841  26.512  26.873  1.00  0.00     0.074 A 
ATOM     45  C   UNL A   1      42.680  25.772  27.966  1.00  0.00     0.049 A 
ATOM     46  N   UNL A   1      45.784  26.921  27.652  1.00  0.00    -0.248 NA
ATOM     47  C   UNL A   1      45.057  26.874  25.455  1.00  0.00     0.031 C 
ATOM     48  C   UNL A   1      41.529  24.891  28.186  1.00  0.00     0.029 A 
ATOM     49  N   UNL A   1      42.305  26.911  28.644  1.00  0.00    -0.354 N 
ATOM     50  C   UNL A   1      46.515  27.833  26.899  1.00  0.00     0.074 A 
ATOM     51  C   UNL A   1      46.192  27.573  25.525  1.00  0.00     0.031 C 
ATOM     52  C   UNL A   1      40.500  25.592  28.723  1.00  0.00     0.029 A 
ATOM     53  C   UNL A   1      40.943  26.941  29.017  1.00  0.00     0.049 A 
ATOM     54  H   UNL A   1      42.932  27.641  28.852  1.00  0.00     0.167 HD
ATOM     55  C   UNL A   1      46.992  28.952  27.508  1.00  0.00     0.037 A 
ATOM     56  C   UNL A   1      40.246  28.007  29.517  1.00  0.00     0.037 A 
ATOM     57  C   UNL A   1      47.053  28.742  28.938  1.00  0.00     0.049 A 
ATOM     58  C   UNL A   1      41.238  28.958  30.066  1.00  0.00     0.074 A 
ATOM     59  C   UNL A   1      47.695  27.864  29.786  1.00  0.00     0.029 A 
ATOM     60  N   UNL A   1      45.989  29.245  29.635  1.00  0.00    -0.354 N 
ATOM     61  N   UNL A   1      41.961  28.707  31.119  1.00  0.00    -0.248 NA
ATOM     62  C   UNL A   1      41.773  29.939  29.143  1.00  0.00     0.031 C 
ATOM     63  C   UNL A   1      46.758  27.591  30.830  1.00  0.00     0.029 A 
ATOM     64  C   UNL A   1      45.637  28.399  30.646  1.00  0.00     0.049 A 
ATOM     65  H   UNL A   1      45.540  30.098  29.436  1.00  0.00     0.167 HD
ATOM     66  C   UNL A   1      43.239  29.078  30.735  1.00  0.00     0.074 A 
ATOM     67  C   UNL A   1      43.048  29.898  29.534  1.00  0.00     0.031 C 
ATOM     68  C   UNL A   1      44.323  28.420  31.245  1.00  0.00     0.037 A 
BRANCH  55  69
ATOM     69  C   UNL A   1      46.827  30.343  26.913  1.00  0.00     0.057 A 
ATOM     70  C   UNL A   1      47.920  31.228  26.964  1.00  0.00     0.134 A 
ATOM     71  C   UNL A   1      45.591  30.953  26.600  1.00  0.00     0.134 A 
ATOM     72  F   UNL A   1      49.146  30.787  27.284  1.00  0.00    -0.206 F 
ATOM     73  C   UNL A   1      47.780  32.613  26.792  1.00  0.00     0.040 A 
ATOM     74  C   UNL A   1      45.449  32.327  26.380  1.00  0.00     0.040 A 
ATOM     75  F   UNL A   1      44.430  30.292  26.591  1.00  0.00    -0.206 F 
ATOM     76  C   UNL A   1      46.540  33.167  26.503  1.00  0.00     0.006 A 
ENDBRANCH  55  69
BRANCH  56  77
ATOM     77  C   UNL A   1      38.847  28.467  29.264  1.00  0.00     0.057 A 
ATOM     78  C   UNL A   1      37.910  28.602  30.311  1.00  0.00     0.134 A 
ATOM     79  C   UNL A   1      38.502  29.106  28.064  1.00  0.00     0.134 A 
ATOM     80  F   UNL A   1      38.155  28.075  31.520  1.00  0.00    -0.206 F 
ATOM     81  C   UNL A   1      36.729  29.352  30.179  1.00  0.00     0.040 A 
ATOM     82  C   UNL A   1      37.327  29.858  27.920  1.00  0.00     0.040 A 
ATOM     83  F   UNL A   1      39.341  29.105  27.020  1.00  0.00    -0.206 F 
ATOM     84  C   UNL A   1      36.443  29.998  28.982  1.00  0.00     0.006 A 
ENDBRANCH  56  77
BRANCH  68  85
ATOM     85  C   UNL A   1      44.105  27.550  32.455  1.00  0.00     0.057 A 
ATOM     86  C   UNL A   1      43.954  26.153  32.441  1.00  0.00     0.134 A 
ATOM     87  C   UNL A   1      44.139  28.167  33.711  1.00  0.00     0.134 A 
ATOM     88  F   UNL A   1      44.004  25.459  31.295  1.00  0.00    -0.206 F 
ATOM     89  C   UNL A   1      43.787  25.420  33.623  1.00  0.00     0.040 A 
ATOM     90  C   UNL A   1      44.012  27.444  34.896  1.00  0.00     0.040 A 
ATOM     91  F   UNL A   1      44.331  29.492  33.806  1.00  0.00    -0.206 F 
ATOM     92  C   UNL A   1      43.818  26.067  34.855  1.00  0.00     0.006 A 
ENDBRANCH  68  85
ENDBRANCH  42  43
ENDBRANCH  35  37
ENDBRANCH  34  35
ENDBRANCH  33  34
ENDBRANCH  32  33
ENDBRANCH   1  32
TORSDOF 16
ENDMDL
MODEL 2
REMARK VINA RESULT:     -12.5      1.072      1.553
REMARK SMILES O=C1NC(=O)/C(=C/c2ccc(OCc3cn(-c4ccc(C(=O)OCCOC(=O)c5ccc(-c6c7nc(c(-c8c(F)cccc8F)c8ccc([nH]8)c(-c8c(F)cccc8F)c8nc(c(-c9c(F)cccc9F)c9ccc6[nH]9)C=C8)C=C7)cc5)cc4)nn3)cc2)S1
REMARK SMILES IDX 23 1 21 2 22 3 20 4 17 5 18 6 84 7 19 8 83 9 16 10 14 11
REMARK SMILES IDX 15 12 86 13 85 14 13 15 12 16 11 17 8 18 9 19 88 20 10 21
REMARK SMILES IDX 87 22 7 23 1 24 2 25 3 26 89 27 4 28 6 30 5 31 24 32 25 33
REMARK SMILES IDX 26 34 27 35 28 36 29 37 30 38 82 39 31 40 81 41 32 42 33 43
REMARK SMILES IDX 34 44 75 45 35 46 80 47 74 48 76 49 36 50 79 51 73 52 72 53
REMARK SMILES IDX 37 55 63 56 46 57 62 58 47 59 50 60 61 61 77 62 48 63 49 64
REMARK SMILES IDX 60 66 78 67 51 68 38 69 39 70 44 71 40 72 41 73 43 74 45 75
REMARK SMILES IDX 42 76 64 77 65 78 70 79 66 80 67 81 69 82 71 83 68 84 52 85
REMARK SMILES IDX 53 86 58 87 54 88 55 89 57 90 59 91 56 92
REMARK H PARENT 3 29 76 54 50 65
REMARK Flexibility Score: inf
ROOT
ATOM      1  O   UNL A   1      41.654  19.755  25.753  1.00  0.00    -0.458 OA
ENDROOT
BRANCH   1   2
ATOM      2  C   UNL A   1      41.105  20.645  26.615  1.00  0.00     0.338 C 
ATOM      3  O   UNL A   1      41.622  21.095  27.626  1.00  0.00    -0.246 OA
BRANCH   2   4
ATOM      4  C   UNL A   1      39.790  21.100  26.117  1.00  0.00     0.060 A 
ATOM      5  C   UNL A   1      37.404  21.917  24.956  1.00  0.00     0.066 A 
ATOM      6  C   UNL A   1      37.819  20.585  24.819  1.00  0.00     0.029 A 
ATOM      7  C   UNL A   1      38.135  22.820  25.736  1.00  0.00     0.029 A 
ATOM      8  C   UNL A   1      39.030  20.190  25.373  1.00  0.00     0.018 A 
ATOM      9  C   UNL A   1      39.318  22.398  26.345  1.00  0.00     0.018 A 
BRANCH   5  10
ATOM     10  N   UNL A   1      36.270  22.344  24.242  1.00  0.00    -0.220 N 
ATOM     11  C   UNL A   1      34.273  22.984  23.645  1.00  0.00     0.120 A 
ATOM     12  C   UNL A   1      34.953  22.321  24.645  1.00  0.00     0.144 A 
ATOM     13  N   UNL A   1      35.177  23.366  22.689  1.00  0.00    -0.131 NA
ATOM     14  N   UNL A   1      36.383  22.999  23.072  1.00  0.00    -0.062 NA
BRANCH  11  15
ATOM     15  C   UNL A   1      32.845  23.415  23.552  1.00  0.00     0.289 C 
BRANCH  15  16
ATOM     16  O   UNL A   1      32.564  24.423  22.564  1.00  0.00    -0.487 OA
BRANCH  16  17
ATOM     17  C   UNL A   1      32.197  25.669  22.996  1.00  0.00     0.119 A 
ATOM     18  C   UNL A   1      31.069  28.144  23.706  1.00  0.00    -0.024 A 
ATOM     19  C   UNL A   1      30.443  26.953  24.081  1.00  0.00     0.012 A 
ATOM     20  C   UNL A   1      32.306  28.086  23.062  1.00  0.00     0.012 A 
ATOM     21  C   UNL A   1      31.004  25.722  23.718  1.00  0.00     0.047 A 
ATOM     22  C   UNL A   1      32.882  26.854  22.743  1.00  0.00     0.047 A 
BRANCH  18  23
ATOM     23  C   UNL A   1      30.469  29.443  24.018  1.00  0.00     0.029 C 
ATOM     24  O   UNL A   1      27.544  31.557  20.495  1.00  0.00    -0.261 OA
ATOM     25  C   UNL A   1      28.214  31.242  21.476  1.00  0.00     0.290 C 
ATOM     26  N   UNL A   1      28.431  32.018  22.561  1.00  0.00    -0.282 N 
ATOM     27  S   UNL A   1      29.027  29.705  21.666  1.00  0.00    -0.022 SA
ATOM     28  C   UNL A   1      29.193  31.511  23.572  1.00  0.00     0.265 C 
ATOM     29  H   UNL A   1      28.051  32.925  22.619  1.00  0.00     0.174 HD
ATOM     30  C   UNL A   1      29.658  30.145  23.212  1.00  0.00     0.083 C 
ATOM     31  O   UNL A   1      29.463  32.100  24.603  1.00  0.00    -0.268 OA
ENDBRANCH  18  23
ENDBRANCH  16  17
ENDBRANCH  15  16
ENDBRANCH  11  15
ENDBRANCH   5  10
ENDBRANCH   2   4
ENDBRANCH   1   2
BRANCH   1  32
ATOM     32  C   UNL A   1      42.596  18.853  26.349  1.00  0.00     0.275 C 
BRANCH  32  33
ATOM     33  C   UNL A   1      43.721  18.509  25.381  1.00  0.00     0.275 C 
BRANCH  33  34
ATOM     34  O   UNL A   1      44.740  19.513  25.322  1.00  0.00    -0.458 OA
BRANCH  34  35
ATOM     35  C   UNL A   1      44.613  20.400  24.307  1.00  0.00     0.338 C 
ATOM     36  O   UNL A   1      44.704  20.177  23.112  1.00  0.00    -0.246 OA
BRANCH  35  37
ATOM     37  C   UNL A   1      44.617  21.765  24.852  1.00  0.00     0.060 A 
ATOM     38  C   UNL A   1      45.522  22.082  25.868  1.00  0.00     0.016 A 
ATOM     39  C   UNL A   1      43.547  22.614  24.542  1.00  0.00     0.016 A 
ATOM     40  C   UNL A   1      45.255  23.179  26.673  1.00  0.00     0.010 A 
ATOM     41  C   UNL A   1      43.284  23.702  25.345  1.00  0.00     0.010 A 
ATOM     42  C   UNL A   1      44.090  23.938  26.455  1.00  0.00    -0.014 A 
BRANCH  42  43
ATOM     43  C   UNL A   1      43.884  25.180  27.198  1.00  0.00     0.031 A 
ATOM     44  C   UNL A   1      44.993  26.121  26.885  1.00  0.00     0.074 A 
ATOM     45  C   UNL A   1      42.784  25.470  27.938  1.00  0.00     0.049 A 
ATOM     46  N   UNL A   1      45.945  26.467  27.684  1.00  0.00    -0.248 NA
ATOM     47  C   UNL A   1      45.245  26.498  25.478  1.00  0.00     0.031 C 
ATOM     48  C   UNL A   1      41.587  24.644  28.127  1.00  0.00     0.029 A 
ATOM     49  N   UNL A   1      42.457  26.613  28.634  1.00  0.00    -0.354 N 
ATOM     50  C   UNL A   1      46.731  27.356  26.957  1.00  0.00     0.074 A 
ATOM     51  C   UNL A   1      46.412  27.138  25.575  1.00  0.00     0.031 C 
ATOM     52  C   UNL A   1      40.588  25.385  28.666  1.00  0.00     0.029 A 
ATOM     53  C   UNL A   1      41.094  26.704  28.992  1.00  0.00     0.049 A 
ATOM     54  H   UNL A   1      43.118  27.307  28.864  1.00  0.00     0.167 HD
ATOM     55  C   UNL A   1      47.255  28.437  27.594  1.00  0.00     0.037 A 
ATOM     56  C   UNL A   1      40.445  27.794  29.505  1.00  0.00     0.037 A 
ATOM     57  C   UNL A   1      47.287  28.197  29.020  1.00  0.00     0.049 A 
ATOM     58  C   UNL A   1      41.476  28.683  30.084  1.00  0.00     0.074 A 
ATOM     59  C   UNL A   1      47.874  27.272  29.858  1.00  0.00     0.029 A 
ATOM     60  N   UNL A   1      46.241  28.739  29.714  1.00  0.00    -0.354 N 
ATOM     61  N   UNL A   1      42.173  28.376  31.140  1.00  0.00    -0.248 NA
ATOM     62  C   UNL A   1      42.071  29.653  29.186  1.00  0.00     0.031 C 
ATOM     63  C   UNL A   1      46.911  27.027  30.886  1.00  0.00     0.029 A 
ATOM     64  C   UNL A   1      45.834  27.893  30.704  1.00  0.00     0.049 A 
ATOM     65  H   UNL A   1      45.837  29.618  29.527  1.00  0.00     0.167 HD
ATOM     66  C   UNL A   1      43.472  28.690  30.778  1.00  0.00     0.074 A 
ATOM     67  C   UNL A   1      43.338  29.541  29.591  1.00  0.00     0.031 C 
ATOM     68  C   UNL A   1      44.516  27.968  31.288  1.00  0.00     0.037 A 
BRANCH  55  69
ATOM     69  C   UNL A   1      47.168  29.845  27.025  1.00  0.00     0.057 A 
ATOM     70  C   UNL A   1      48.285  30.691  27.152  1.00  0.00     0.134 A 
ATOM     71  C   UNL A   1      45.970  30.505  26.665  1.00  0.00     0.134 A 
ATOM     72  F   UNL A   1      49.478  30.201  27.522  1.00  0.00    -0.206 F 
ATOM     73  C   UNL A   1      48.200  32.083  27.006  1.00  0.00     0.040 A 
ATOM     74  C   UNL A   1      45.886  31.887  26.470  1.00  0.00     0.040 A 
ATOM     75  F   UNL A   1      44.790  29.885  26.582  1.00  0.00    -0.206 F 
ATOM     76  C   UNL A   1      46.996  32.686  26.668  1.00  0.00     0.006 A 
ENDBRANCH  55  69
BRANCH  56  77
ATOM     77  C   UNL A   1      39.075  28.329  29.245  1.00  0.00     0.057 A 
ATOM     78  C   UNL A   1      38.138  28.506  30.285  1.00  0.00     0.134 A 
ATOM     79  C   UNL A   1      38.773  28.991  28.046  1.00  0.00     0.134 A 
ATOM     80  F   UNL A   1      38.346  27.960  31.493  1.00  0.00    -0.206 F 
ATOM     81  C   UNL A   1      36.999  29.319  30.149  1.00  0.00     0.040 A 
ATOM     82  C   UNL A   1      37.640  29.805  27.898  1.00  0.00     0.040 A 
ATOM     83  F   UNL A   1      39.618  28.953  27.008  1.00  0.00    -0.206 F 
ATOM     84  C   UNL A   1      36.756  29.986  28.955  1.00  0.00     0.006 A 
ENDBRANCH  56  77
BRANCH  68  85
ATOM     85  C   UNL A   1      44.239  27.088  32.478  1.00  0.00     0.057 A 
ATOM     86  C   UNL A   1      44.065  25.694  32.440  1.00  0.00     0.134 A 
ATOM     87  C   UNL A   1      44.237  27.689  33.742  1.00  0.00     0.134 A 
ATOM     88  F   UNL A   1      44.145  25.013  31.288  1.00  0.00    -0.206 F 
ATOM     89  C   UNL A   1      43.843  24.949  33.606  1.00  0.00     0.040 A 
ATOM     90  C   UNL A   1      44.055  26.953  34.912  1.00  0.00     0.040 A 
ATOM     91  F   UNL A   1      44.448  29.009  33.861  1.00  0.00    -0.206 F 
ATOM     92  C   UNL A   1      43.839  25.581  34.847  1.00  0.00     0.006 A 
ENDBRANCH  68  85
ENDBRANCH  42  43
ENDBRANCH  35  37
ENDBRANCH  34  35
ENDBRANCH  33  34
ENDBRANCH  32  33
ENDBRANCH   1  32
TORSDOF 16
ENDMDL
MODEL 3
REMARK VINA RESULT:     -12.2      4.173     10.813
REMARK SMILES O=C1NC(=O)/C(=C/c2ccc(OCc3cn(-c4ccc(C(=O)OCCOC(=O)c5ccc(-c6c7nc(c(-c8c(F)cccc8F)c8ccc([nH]8)c(-c8c(F)cccc8F)c8nc(c(-c9c(F)cccc9F)c9ccc6[nH]9)C=C8)C=C7)cc5)cc4)nn3)cc2)S1
REMARK SMILES IDX 23 1 21 2 22 3 20 4 17 5 18 6 84 7 19 8 83 9 16 10 14 11
REMARK SMILES IDX 15 12 86 13 85 14 13 15 12 16 11 17 8 18 9 19 88 20 10 21
REMARK SMILES IDX 87 22 7 23 1 24 2 25 3 26 89 27 4 28 6 30 5 31 24 32 25 33
REMARK SMILES IDX 26 34 27 35 28 36 29 37 30 38 82 39 31 40 81 41 32 42 33 43
REMARK SMILES IDX 34 44 75 45 35 46 80 47 74 48 76 49 36 50 79 51 73 52 72 53
REMARK SMILES IDX 37 55 63 56 46 57 62 58 47 59 50 60 61 61 77 62 48 63 49 64
REMARK SMILES IDX 60 66 78 67 51 68 38 69 39 70 44 71 40 72 41 73 43 74 45 75
REMARK SMILES IDX 42 76 64 77 65 78 70 79 66 80 67 81 69 82 71 83 68 84 52 85
REMARK SMILES IDX 53 86 58 87 54 88 55 89 57 90 59 91 56 92
REMARK H PARENT 3 29 76 54 50 65
REMARK Flexibility Score: inf
ROOT
ATOM      1  O   UNL A   1      32.699  34.478  28.729  1.00  0.00    -0.458 OA
ENDROOT
BRANCH   1   2
ATOM      2  C   UNL A   1      33.585  33.530  28.339  1.00  0.00     0.338 C 
ATOM      3  O   UNL A   1      34.769  33.473  28.636  1.00  0.00    -0.246 OA
BRANCH   2   4
ATOM      4  C   UNL A   1      32.904  32.477  27.558  1.00  0.00     0.060 A 
ATOM      5  C   UNL A   1      31.817  30.500  25.939  1.00  0.00     0.066 A 
ATOM      6  C   UNL A   1      32.987  30.234  26.663  1.00  0.00     0.029 A 
ATOM      7  C   UNL A   1      31.145  31.720  26.083  1.00  0.00     0.029 A 
ATOM      8  C   UNL A   1      33.546  31.238  27.444  1.00  0.00     0.018 A 
ATOM      9  C   UNL A   1      31.677  32.700  26.921  1.00  0.00     0.018 A 
BRANCH   5  10
ATOM     10  N   UNL A   1      31.365  29.539  25.017  1.00  0.00    -0.220 N 
ATOM     11  C   UNL A   1      30.869  27.691  23.972  1.00  0.00     0.120 A 
ATOM     12  C   UNL A   1      31.693  28.203  24.952  1.00  0.00     0.144 A 
ATOM     13  N   UNL A   1      30.098  28.710  23.482  1.00  0.00    -0.131 NA
ATOM     14  N   UNL A   1      30.384  29.817  24.138  1.00  0.00    -0.062 NA
BRANCH  11  15
ATOM     15  C   UNL A   1      30.638  26.284  23.524  1.00  0.00     0.289 C 
BRANCH  15  16
ATOM     16  O   UNL A   1      30.216  25.368  24.550  1.00  0.00    -0.487 OA
BRANCH  16  17
ATOM     17  C   UNL A   1      30.882  24.178  24.671  1.00  0.00     0.119 A 
ATOM     18  C   UNL A   1      31.985  21.593  24.620  1.00  0.00    -0.024 A 
ATOM     19  C   UNL A   1      31.896  22.342  23.444  1.00  0.00     0.012 A 
ATOM     20  C   UNL A   1      31.611  22.182  25.829  1.00  0.00     0.012 A 
ATOM     21  C   UNL A   1      31.338  23.626  23.472  1.00  0.00     0.047 A 
ATOM     22  C   UNL A   1      31.097  23.480  25.855  1.00  0.00     0.047 A 
BRANCH  18  23
ATOM     23  C   UNL A   1      32.506  20.223  24.605  1.00  0.00     0.029 C 
ATOM     24  O   UNL A   1      37.500  19.633  24.987  1.00  0.00    -0.261 OA
ATOM     25  C   UNL A   1      36.280  19.539  24.873  1.00  0.00     0.290 C 
ATOM     26  N   UNL A   1      35.596  18.393  24.656  1.00  0.00    -0.282 N 
ATOM     27  S   UNL A   1      35.170  20.888  24.973  1.00  0.00    -0.022 SA
ATOM     28  C   UNL A   1      34.237  18.463  24.565  1.00  0.00     0.265 C 
ATOM     29  H   UNL A   1      36.067  17.533  24.566  1.00  0.00     0.174 HD
ATOM     30  C   UNL A   1      33.797  19.875  24.708  1.00  0.00     0.083 C 
ATOM     31  O   UNL A   1      33.503  17.509  24.375  1.00  0.00    -0.268 OA
ENDBRANCH  18  23
ENDBRANCH  16  17
ENDBRANCH  15  16
ENDBRANCH  11  15
ENDBRANCH   5  10
ENDBRANCH   2   4
ENDBRANCH   1   2
BRANCH   1  32
ATOM     32  C   UNL A   1      33.287  35.741  29.068  1.00  0.00     0.275 C 
BRANCH  32  33
ATOM     33  C   UNL A   1      32.648  36.331  30.318  1.00  0.00     0.275 C 
BRANCH  33  34
ATOM     34  O   UNL A   1      32.307  35.343  31.297  1.00  0.00    -0.458 OA
BRANCH  34  35
ATOM     35  C   UNL A   1      32.814  35.561  32.533  1.00  0.00     0.338 C 
ATOM     36  O   UNL A   1      32.450  36.392  33.347  1.00  0.00    -0.246 OA
BRANCH  35  37
ATOM     37  C   UNL A   1      34.078  34.825  32.675  1.00  0.00     0.060 A 
ATOM     38  C   UNL A   1      35.256  35.543  32.890  1.00  0.00     0.016 A 
ATOM     39  C   UNL A   1      34.108  33.470  32.318  1.00  0.00     0.016 A 
ATOM     40  C   UNL A   1      36.466  34.934  32.593  1.00  0.00     0.010 A 
ATOM     41  C   UNL A   1      35.312  32.869  32.022  1.00  0.00     0.010 A 
ATOM     42  C   UNL A   1      36.481  33.622  32.083  1.00  0.00    -0.014 A 
BRANCH  42  43
ATOM     43  C   UNL A   1      37.754  32.924  31.914  1.00  0.00     0.031 A 
ATOM     44  C   UNL A   1      38.470  32.902  33.218  1.00  0.00     0.074 A 
ATOM     45  C   UNL A   1      38.145  32.282  30.784  1.00  0.00     0.049 A 
ATOM     46  N   UNL A   1      39.529  33.576  33.517  1.00  0.00    -0.248 NA
ATOM     47  C   UNL A   1      37.806  32.306  34.397  1.00  0.00     0.031 C 
ATOM     48  C   UNL A   1      37.392  32.126  29.536  1.00  0.00     0.029 A 
ATOM     49  N   UNL A   1      39.286  31.555  30.525  1.00  0.00    -0.354 N 
ATOM     50  C   UNL A   1      39.828  33.229  34.830  1.00  0.00     0.074 A 
ATOM     51  C   UNL A   1      38.628  32.670  35.383  1.00  0.00     0.031 C 
ATOM     52  C   UNL A   1      37.966  31.175  28.759  1.00  0.00     0.029 A 
ATOM     53  C   UNL A   1      39.203  30.737  29.377  1.00  0.00     0.049 A 
ATOM     54  H   UNL A   1      40.090  31.602  31.091  1.00  0.00     0.167 HD
ATOM     55  C   UNL A   1      41.132  33.074  35.185  1.00  0.00     0.037 A 
ATOM     56  C   UNL A   1      40.088  29.770  28.985  1.00  0.00     0.037 A 
ATOM     57  C   UNL A   1      41.981  33.769  34.242  1.00  0.00     0.049 A 
ATOM     58  C   UNL A   1      41.372  30.053  29.665  1.00  0.00     0.074 A 
ATOM     59  C   UNL A   1      42.131  35.072  33.813  1.00  0.00     0.029 A 
ATOM     60  N   UNL A   1      42.521  32.977  33.266  1.00  0.00    -0.354 N 
ATOM     61  N   UNL A   1      42.110  31.091  29.395  1.00  0.00    -0.248 NA
ATOM     62  C   UNL A   1      41.551  29.466  30.978  1.00  0.00     0.031 C 
ATOM     63  C   UNL A   1      42.411  34.981  32.414  1.00  0.00     0.029 A 
ATOM     64  C   UNL A   1      42.542  33.636  32.072  1.00  0.00     0.049 A 
ATOM     65  H   UNL A   1      42.849  32.059  33.406  1.00  0.00     0.167 HD
ATOM     66  C   UNL A   1      42.436  31.595  30.643  1.00  0.00     0.074 A 
ATOM     67  C   UNL A   1      42.125  30.510  31.580  1.00  0.00     0.031 C 
ATOM     68  C   UNL A   1      42.620  32.939  30.809  1.00  0.00     0.037 A 
BRANCH  55  69
ATOM     69  C   UNL A   1      41.631  31.870  35.968  1.00  0.00     0.057 A 
ATOM     70  C   UNL A   1      42.600  32.074  36.968  1.00  0.00     0.134 A 
ATOM     71  C   UNL A   1      41.461  30.520  35.583  1.00  0.00     0.134 A 
ATOM     72  F   UNL A   1      42.887  33.310  37.403  1.00  0.00    -0.206 F 
ATOM     73  C   UNL A   1      43.384  31.033  37.485  1.00  0.00     0.040 A 
ATOM     74  C   UNL A   1      42.205  29.469  36.126  1.00  0.00     0.040 A 
ATOM     75  F   UNL A   1      40.652  30.140  34.589  1.00  0.00    -0.206 F 
ATOM     76  C   UNL A   1      43.191  29.725  37.061  1.00  0.00     0.006 A 
ENDBRANCH  55  69
BRANCH  56  77
ATOM     77  C   UNL A   1      39.863  28.428  28.368  1.00  0.00     0.057 A 
ATOM     78  C   UNL A   1      40.454  28.068  27.139  1.00  0.00     0.134 A 
ATOM     79  C   UNL A   1      39.352  27.363  29.123  1.00  0.00     0.134 A 
ATOM     80  F   UNL A   1      41.020  28.997  26.354  1.00  0.00    -0.206 F 
ATOM     81  C   UNL A   1      40.560  26.733  26.711  1.00  0.00     0.040 A 
ATOM     82  C   UNL A   1      39.452  26.027  28.708  1.00  0.00     0.040 A 
ATOM     83  F   UNL A   1      38.826  27.571  30.338  1.00  0.00    -0.206 F 
ATOM     84  C   UNL A   1      40.071  25.705  27.507  1.00  0.00     0.006 A 
ENDBRANCH  56  77
BRANCH  68  85
ATOM     85  C   UNL A   1      42.797  33.777  29.571  1.00  0.00     0.057 A 
ATOM     86  C   UNL A   1      41.817  34.609  29.002  1.00  0.00     0.134 A 
ATOM     87  C   UNL A   1      44.064  33.802  28.980  1.00  0.00     0.134 A 
ATOM     88  F   UNL A   1      40.600  34.729  29.550  1.00  0.00    -0.206 F 
ATOM     89  C   UNL A   1      42.081  35.381  27.862  1.00  0.00     0.040 A 
ATOM     90  C   UNL A   1      44.350  34.594  27.869  1.00  0.00     0.040 A 
ATOM     91  F   UNL A   1      45.064  33.073  29.500  1.00  0.00    -0.206 F 
ATOM     92  C   UNL A   1      43.352  35.375  27.295  1.00  0.00     0.006 A 
ENDBRANCH  68  85
ENDBRANCH  42  43
ENDBRANCH  35  37
ENDBRANCH  34  35
ENDBRANCH  33  34
ENDBRANCH  32  33
ENDBRANCH   1  32
TORSDOF 16
ENDMDL
