MODEL 1
REMARK VINA RESULT:     -10.0      0.000      0.000
REMARK SMILES O=C(OCCOC(=O)c1ccc(-c2c3nc(c(-c4c(F)cccc4F)c4ccc([nH]4)c(-c4c(F)cccc4F)c4nc(c(-c5c(F)cccc5F)c5ccc2[nH]5)C=C4)C=C3)cc1)C1=C[C@H]2C(=N1)C=CC(Cl)=C2Cl
REMARK SMILES IDX 5 1 4 2 3 3 2 4 1 5 63 6 64 7 67 8 65 9 66 10 72 11 68 12
REMARK SMILES IDX 70 13 73 14 69 15 71 16 6 17 7 18 8 19 9 20 10 21 62 22
REMARK SMILES IDX 11 23 61 24 12 25 13 26 14 27 55 28 15 29 60 30 54 31 56 32
REMARK SMILES IDX 16 33 59 34 53 35 52 36 17 38 43 39 26 40 42 41 27 42 30 43
REMARK SMILES IDX 41 44 57 45 28 46 29 47 40 49 58 50 31 51 18 52 19 53 24 54
REMARK SMILES IDX 20 55 21 56 23 57 25 58 22 59 44 60 45 61 50 62 46 63 47 64
REMARK SMILES IDX 49 65 51 66 48 67 32 68 33 69 38 70 34 71 35 72 37 73 39 74
REMARK SMILES IDX 36 75
REMARK H PARENT 56 37 30 48
REMARK Flexibility Score: inf
ROOT
ATOM      1  C   UNL A   1      39.997  21.052  26.094  1.00  0.00     0.275 C 
ENDROOT
BRANCH   1   2
ATOM      2  C   UNL A   1      40.786  19.932  26.775  1.00  0.00     0.275 C 
BRANCH   2   3
ATOM      3  O   UNL A   1      42.187  20.249  26.805  1.00  0.00    -0.457 OA
BRANCH   3   4
ATOM      4  C   UNL A   1      42.962  20.359  25.707  1.00  0.00     0.356 C 
ATOM      5  O   UNL A   1      43.089  19.412  24.931  1.00  0.00    -0.244 OA
BRANCH   4   6
ATOM      6  C   UNL A   1      43.634  21.648  25.412  1.00  0.00     0.145 C 
ATOM      7  C   UNL A   1      44.789  21.899  26.035  1.00  0.00     0.024 C 
ATOM      8  N   UNL A   1      43.078  22.754  24.796  1.00  0.00    -0.245 NA
ATOM      9  C   UNL A   1      45.080  23.340  25.933  1.00  0.00     0.107 C 
ATOM     10  C   UNL A   1      43.838  23.735  25.165  1.00  0.00     0.054 C 
ATOM     11  C   UNL A   1      45.056  24.148  27.177  1.00  0.00     0.050 C 
ATOM     12  C   UNL A   1      43.553  25.176  24.979  1.00  0.00     0.026 C 
ATOM     13  C   UNL A   1      44.816  25.463  27.064  1.00  0.00     0.056 C 
ATOM     14  Cl  UNL A   1      45.025  23.347  28.705  1.00  0.00    -0.086 Cl
ATOM     15  C   UNL A   1      44.076  25.984  25.919  1.00  0.00     0.023 C 
ATOM     16  Cl  UNL A   1      46.100  26.481  27.634  1.00  0.00    -0.083 Cl
ENDBRANCH   4   6
ENDBRANCH   3   4
ENDBRANCH   2   3
ENDBRANCH   1   2
BRANCH   1  17
ATOM     17  O   UNL A   1      39.751  22.166  26.970  1.00  0.00    -0.458 OA
BRANCH  17  18
ATOM     18  C   UNL A   1      38.904  23.139  26.528  1.00  0.00     0.338 C 
ATOM     19  O   UNL A   1      37.921  22.988  25.842  1.00  0.00    -0.246 OA
BRANCH  18  20
ATOM     20  C   UNL A   1      39.346  24.451  27.088  1.00  0.00     0.060 A 
ATOM     21  C   UNL A   1      40.124  25.324  26.312  1.00  0.00     0.016 A 
ATOM     22  C   UNL A   1      38.996  24.821  28.386  1.00  0.00     0.016 A 
ATOM     23  C   UNL A   1      40.541  26.570  26.829  1.00  0.00     0.010 A 
ATOM     24  C   UNL A   1      39.393  26.063  28.889  1.00  0.00     0.010 A 
ATOM     25  C   UNL A   1      40.178  26.954  28.126  1.00  0.00    -0.014 A 
BRANCH  25  26
ATOM     26  C   UNL A   1      40.641  28.195  28.819  1.00  0.00     0.031 A 
ATOM     27  C   UNL A   1      41.854  28.124  29.693  1.00  0.00     0.074 A 
ATOM     28  C   UNL A   1      39.908  29.324  28.861  1.00  0.00     0.049 A 
ATOM     29  N   UNL A   1      42.272  28.977  30.591  1.00  0.00    -0.248 NA
ATOM     30  C   UNL A   1      42.711  26.943  29.521  1.00  0.00     0.031 C 
ATOM     31  C   UNL A   1      38.800  29.646  27.982  1.00  0.00     0.029 A 
ATOM     32  N   UNL A   1      39.929  30.373  29.755  1.00  0.00    -0.354 N 
ATOM     33  C   UNL A   1      43.478  28.473  31.043  1.00  0.00     0.074 A 
ATOM     34  C   UNL A   1      43.651  27.173  30.425  1.00  0.00     0.031 C 
ATOM     35  C   UNL A   1      38.122  30.691  28.487  1.00  0.00     0.029 A 
ATOM     36  C   UNL A   1      38.779  31.134  29.710  1.00  0.00     0.049 A 
ATOM     37  H   UNL A   1      40.683  30.559  30.361  1.00  0.00     0.167 HD
ATOM     38  C   UNL A   1      44.392  29.073  31.841  1.00  0.00     0.037 A 
ATOM     39  C   UNL A   1      38.302  32.060  30.565  1.00  0.00     0.037 A 
ATOM     40  C   UNL A   1      44.205  30.352  32.473  1.00  0.00     0.049 A 
ATOM     41  C   UNL A   1      39.202  32.588  31.639  1.00  0.00     0.074 A 
ATOM     42  C   UNL A   1      45.101  31.077  33.237  1.00  0.00     0.029 A 
ATOM     43  N   UNL A   1      43.026  31.082  32.441  1.00  0.00    -0.354 N 
ATOM     44  N   UNL A   1      40.396  32.178  31.980  1.00  0.00    -0.248 NA
ATOM     45  C   UNL A   1      38.737  33.774  32.373  1.00  0.00     0.031 C 
ATOM     46  C   UNL A   1      44.440  32.210  33.727  1.00  0.00     0.029 A 
ATOM     47  C   UNL A   1      43.153  32.222  33.217  1.00  0.00     0.049 A 
ATOM     48  H   UNL A   1      42.217  30.826  31.940  1.00  0.00     0.167 HD
ATOM     49  C   UNL A   1      40.873  33.120  32.879  1.00  0.00     0.074 A 
ATOM     50  C   UNL A   1      39.811  34.082  33.086  1.00  0.00     0.031 C 
ATOM     51  C   UNL A   1      42.110  33.198  33.424  1.00  0.00     0.037 A 
BRANCH  38  52
ATOM     52  C   UNL A   1      45.676  28.331  32.041  1.00  0.00     0.057 A 
ATOM     53  C   UNL A   1      45.869  27.490  33.149  1.00  0.00     0.134 A 
ATOM     54  C   UNL A   1      46.748  28.498  31.160  1.00  0.00     0.134 A 
ATOM     55  F   UNL A   1      44.879  27.296  34.035  1.00  0.00    -0.206 F 
ATOM     56  C   UNL A   1      47.103  26.900  33.409  1.00  0.00     0.040 A 
ATOM     57  C   UNL A   1      47.978  27.883  31.391  1.00  0.00     0.040 A 
ATOM     58  F   UNL A   1      46.625  29.278  30.076  1.00  0.00    -0.206 F 
ATOM     59  C   UNL A   1      48.164  27.097  32.528  1.00  0.00     0.006 A 
ENDBRANCH  38  52
BRANCH  39  60
ATOM     60  C   UNL A   1      36.926  32.599  30.433  1.00  0.00     0.057 A 
ATOM     61  C   UNL A   1      36.619  33.641  29.555  1.00  0.00     0.134 A 
ATOM     62  C   UNL A   1      35.896  32.121  31.252  1.00  0.00     0.134 A 
ATOM     63  F   UNL A   1      37.581  34.185  28.797  1.00  0.00    -0.206 F 
ATOM     64  C   UNL A   1      35.331  34.176  29.480  1.00  0.00     0.040 A 
ATOM     65  C   UNL A   1      34.596  32.628  31.167  1.00  0.00     0.040 A 
ATOM     66  F   UNL A   1      36.136  31.141  32.137  1.00  0.00    -0.206 F 
ATOM     67  C   UNL A   1      34.311  33.660  30.279  1.00  0.00     0.006 A 
ENDBRANCH  39  60
BRANCH  51  68
ATOM     68  C   UNL A   1      42.439  34.412  34.240  1.00  0.00     0.057 A 
ATOM     69  C   UNL A   1      42.872  35.611  33.665  1.00  0.00     0.134 A 
ATOM     70  C   UNL A   1      42.246  34.393  35.629  1.00  0.00     0.134 A 
ATOM     71  F   UNL A   1      43.102  35.688  32.346  1.00  0.00    -0.206 F 
ATOM     72  C   UNL A   1      43.096  36.750  34.441  1.00  0.00     0.040 A 
ATOM     73  C   UNL A   1      42.438  35.532  36.411  1.00  0.00     0.040 A 
ATOM     74  F   UNL A   1      41.838  33.273  36.246  1.00  0.00    -0.206 F 
ATOM     75  C   UNL A   1      42.863  36.717  35.815  1.00  0.00     0.006 A 
ENDBRANCH  51  68
ENDBRANCH  25  26
ENDBRANCH  18  20
ENDBRANCH  17  18
ENDBRANCH   1  17
TORSDOF 11
ENDMDL
MODEL 2
REMARK VINA RESULT:     -10.0      4.959      9.035
REMARK SMILES O=C(OCCOC(=O)c1ccc(-c2c3nc(c(-c4c(F)cccc4F)c4ccc([nH]4)c(-c4c(F)cccc4F)c4nc(c(-c5c(F)cccc5F)c5ccc2[nH]5)C=C4)C=C3)cc1)C1=C[C@H]2C(=N1)C=CC(Cl)=C2Cl
REMARK SMILES IDX 5 1 4 2 3 3 2 4 1 5 63 6 64 7 67 8 65 9 66 10 72 11 68 12
REMARK SMILES IDX 70 13 73 14 69 15 71 16 6 17 7 18 8 19 9 20 10 21 62 22
REMARK SMILES IDX 11 23 61 24 12 25 13 26 14 27 55 28 15 29 60 30 54 31 56 32
REMARK SMILES IDX 16 33 59 34 53 35 52 36 17 38 43 39 26 40 42 41 27 42 30 43
REMARK SMILES IDX 41 44 57 45 28 46 29 47 40 49 58 50 31 51 18 52 19 53 24 54
REMARK SMILES IDX 20 55 21 56 23 57 25 58 22 59 44 60 45 61 50 62 46 63 47 64
REMARK SMILES IDX 49 65 51 66 48 67 32 68 33 69 38 70 34 71 35 72 37 73 39 74
REMARK SMILES IDX 36 75
REMARK H PARENT 56 37 30 48
REMARK Flexibility Score: inf
ROOT
ATOM      1  C   UNL A   1      31.756  32.703  27.060  1.00  0.00     0.275 C 
ENDROOT
BRANCH   1   2
ATOM      2  C   UNL A   1      32.070  31.277  26.601  1.00  0.00     0.275 C 
BRANCH   2   3
ATOM      3  O   UNL A   1      32.906  30.611  27.560  1.00  0.00    -0.457 OA
BRANCH   3   4
ATOM      4  C   UNL A   1      33.773  29.624  27.253  1.00  0.00     0.356 C 
ATOM      5  O   UNL A   1      34.986  29.827  27.264  1.00  0.00    -0.244 OA
BRANCH   4   6
ATOM      6  C   UNL A   1      33.256  28.269  26.939  1.00  0.00     0.145 C 
ATOM      7  C   UNL A   1      33.949  27.530  26.068  1.00  0.00     0.024 C 
ATOM      8  N   UNL A   1      31.992  27.778  27.210  1.00  0.00    -0.245 NA
ATOM      9  C   UNL A   1      33.093  26.429  25.593  1.00  0.00     0.107 C 
ATOM     10  C   UNL A   1      31.854  26.792  26.382  1.00  0.00     0.054 C 
ATOM     11  C   UNL A   1      32.676  26.432  24.169  1.00  0.00     0.050 C 
ATOM     12  C   UNL A   1      30.595  26.070  26.089  1.00  0.00     0.026 C 
ATOM     13  C   UNL A   1      31.549  25.779  23.846  1.00  0.00     0.056 C 
ATOM     14  Cl  UNL A   1      33.456  27.502  23.062  1.00  0.00    -0.086 Cl
ATOM     15  C   UNL A   1      30.505  25.569  24.844  1.00  0.00     0.023 C 
ATOM     16  Cl  UNL A   1      31.769  24.474  22.726  1.00  0.00    -0.083 Cl
ENDBRANCH   4   6
ENDBRANCH   3   4
ENDBRANCH   2   3
ENDBRANCH   1   2
BRANCH   1  17
ATOM     17  O   UNL A   1      32.921  33.548  27.070  1.00  0.00    -0.458 OA
BRANCH  17  18
ATOM     18  C   UNL A   1      33.231  34.177  28.239  1.00  0.00     0.338 C 
ATOM     19  O   UNL A   1      32.605  35.061  28.775  1.00  0.00    -0.246 OA
BRANCH  18  20
ATOM     20  C   UNL A   1      34.459  33.549  28.812  1.00  0.00     0.060 A 
ATOM     21  C   UNL A   1      34.358  32.669  29.900  1.00  0.00     0.016 A 
ATOM     22  C   UNL A   1      35.715  33.834  28.279  1.00  0.00     0.016 A 
ATOM     23  C   UNL A   1      35.511  32.063  30.445  1.00  0.00     0.010 A 
ATOM     24  C   UNL A   1      36.854  33.219  28.808  1.00  0.00     0.010 A 
ATOM     25  C   UNL A   1      36.774  32.332  29.903  1.00  0.00    -0.014 A 
BRANCH  25  26
ATOM     26  C   UNL A   1      38.072  31.836  30.454  1.00  0.00     0.031 A 
ATOM     27  C   UNL A   1      38.717  30.643  29.819  1.00  0.00     0.074 A 
ATOM     28  C   UNL A   1      38.588  32.279  31.617  1.00  0.00     0.049 A 
ATOM     29  N   UNL A   1      39.673  29.882  30.281  1.00  0.00    -0.248 NA
ATOM     30  C   UNL A   1      38.226  30.273  28.485  1.00  0.00     0.031 C 
ATOM     31  C   UNL A   1      38.210  33.501  32.299  1.00  0.00     0.029 A 
ATOM     32  N   UNL A   1      39.482  31.685  32.483  1.00  0.00    -0.354 N 
ATOM     33  C   UNL A   1      39.949  28.983  29.267  1.00  0.00     0.074 A 
ATOM     34  C   UNL A   1      38.965  29.205  28.226  1.00  0.00     0.031 C 
ATOM     35  C   UNL A   1      38.697  33.478  33.552  1.00  0.00     0.029 A 
ATOM     36  C   UNL A   1      39.457  32.250  33.741  1.00  0.00     0.049 A 
ATOM     37  H   UNL A   1      40.073  30.939  32.232  1.00  0.00     0.167 HD
ATOM     38  C   UNL A   1      40.976  28.106  29.180  1.00  0.00     0.037 A 
ATOM     39  C   UNL A   1      39.967  31.816  34.912  1.00  0.00     0.037 A 
ATOM     40  C   UNL A   1      41.936  27.872  30.225  1.00  0.00     0.049 A 
ATOM     41  C   UNL A   1      40.931  30.670  34.903  1.00  0.00     0.074 A 
ATOM     42  C   UNL A   1      43.056  27.059  30.204  1.00  0.00     0.029 A 
ATOM     43  N   UNL A   1      41.870  28.425  31.495  1.00  0.00    -0.354 N 
ATOM     44  N   UNL A   1      41.276  29.899  33.904  1.00  0.00    -0.248 NA
ATOM     45  C   UNL A   1      41.660  30.404  36.152  1.00  0.00     0.031 C 
ATOM     46  C   UNL A   1      43.625  27.066  31.483  1.00  0.00     0.029 A 
ATOM     47  C   UNL A   1      42.897  27.931  32.283  1.00  0.00     0.049 A 
ATOM     48  H   UNL A   1      41.192  29.075  31.793  1.00  0.00     0.167 HD
ATOM     49  C   UNL A   1      42.339  29.139  34.367  1.00  0.00     0.074 A 
ATOM     50  C   UNL A   1      42.535  29.490  35.758  1.00  0.00     0.031 C 
ATOM     51  C   UNL A   1      43.114  28.278  33.666  1.00  0.00     0.037 A 
BRANCH  38  52
ATOM     52  C   UNL A   1      41.096  27.361  27.887  1.00  0.00     0.057 A 
ATOM     53  C   UNL A   1      40.507  26.099  27.714  1.00  0.00     0.134 A 
ATOM     54  C   UNL A   1      41.848  27.876  26.827  1.00  0.00     0.134 A 
ATOM     55  F   UNL A   1      39.778  25.548  28.698  1.00  0.00    -0.206 F 
ATOM     56  C   UNL A   1      40.722  25.347  26.561  1.00  0.00     0.040 A 
ATOM     57  C   UNL A   1      42.041  27.147  25.654  1.00  0.00     0.040 A 
ATOM     58  F   UNL A   1      42.427  29.082  26.924  1.00  0.00    -0.206 F 
ATOM     59  C   UNL A   1      41.493  25.871  25.527  1.00  0.00     0.006 A 
ENDBRANCH  38  52
BRANCH  39  60
ATOM     60  C   UNL A   1      39.629  32.478  36.196  1.00  0.00     0.057 A 
ATOM     61  C   UNL A   1      38.571  32.044  36.997  1.00  0.00     0.134 A 
ATOM     62  C   UNL A   1      40.325  33.620  36.609  1.00  0.00     0.134 A 
ATOM     63  F   UNL A   1      37.825  30.998  36.616  1.00  0.00    -0.206 F 
ATOM     64  C   UNL A   1      38.228  32.710  38.176  1.00  0.00     0.040 A 
ATOM     65  C   UNL A   1      40.012  34.279  37.801  1.00  0.00     0.040 A 
ATOM     66  F   UNL A   1      41.333  34.104  35.865  1.00  0.00    -0.206 F 
ATOM     67  C   UNL A   1      38.959  33.824  38.589  1.00  0.00     0.006 A 
ENDBRANCH  39  60
BRANCH  51  68
ATOM     68  C   UNL A   1      44.316  27.702  34.352  1.00  0.00     0.057 A 
ATOM     69  C   UNL A   1      45.541  28.374  34.416  1.00  0.00     0.134 A 
ATOM     70  C   UNL A   1      44.216  26.476  35.026  1.00  0.00     0.134 A 
ATOM     71  F   UNL A   1      45.712  29.539  33.771  1.00  0.00    -0.206 F 
ATOM     72  C   UNL A   1      46.621  27.851  35.128  1.00  0.00     0.040 A 
ATOM     73  C   UNL A   1      45.278  25.957  35.765  1.00  0.00     0.040 A 
ATOM     74  F   UNL A   1      43.070  25.775  34.999  1.00  0.00    -0.206 F 
ATOM     75  C   UNL A   1      46.486  26.647  35.818  1.00  0.00     0.006 A 
ENDBRANCH  51  68
ENDBRANCH  25  26
ENDBRANCH  18  20
ENDBRANCH  17  18
ENDBRANCH   1  17
TORSDOF 11
ENDMDL
MODEL 3
REMARK VINA RESULT:      -9.8      4.445      8.947
REMARK SMILES O=C(OCCOC(=O)c1ccc(-c2c3nc(c(-c4c(F)cccc4F)c4ccc([nH]4)c(-c4c(F)cccc4F)c4nc(c(-c5c(F)cccc5F)c5ccc2[nH]5)C=C4)C=C3)cc1)C1=C[C@H]2C(=N1)C=CC(Cl)=C2Cl
REMARK SMILES IDX 5 1 4 2 3 3 2 4 1 5 63 6 64 7 67 8 65 9 66 10 72 11 68 12
REMARK SMILES IDX 70 13 73 14 69 15 71 16 6 17 7 18 8 19 9 20 10 21 62 22
REMARK SMILES IDX 11 23 61 24 12 25 13 26 14 27 55 28 15 29 60 30 54 31 56 32
REMARK SMILES IDX 16 33 59 34 53 35 52 36 17 38 43 39 26 40 42 41 27 42 30 43
REMARK SMILES IDX 41 44 57 45 28 46 29 47 40 49 58 50 31 51 18 52 19 53 24 54
REMARK SMILES IDX 20 55 21 56 23 57 25 58 22 59 44 60 45 61 50 62 46 63 47 64
REMARK SMILES IDX 49 65 51 66 48 67 32 68 33 69 38 70 34 71 35 72 37 73 39 74
REMARK SMILES IDX 36 75
REMARK H PARENT 56 37 30 48
REMARK Flexibility Score: inf
ROOT
ATOM      1  C   UNL A   1      39.001  19.628  25.179  1.00  0.00     0.275 C 
ENDROOT
BRANCH   1   2
ATOM      2  C   UNL A   1      37.838  20.595  25.409  1.00  0.00     0.275 C 
BRANCH   2   3
ATOM      3  O   UNL A   1      38.199  21.924  25.001  1.00  0.00    -0.457 OA
BRANCH   3   4
ATOM      4  C   UNL A   1      37.577  23.042  25.428  1.00  0.00     0.356 C 
ATOM      5  O   UNL A   1      38.163  23.850  26.147  1.00  0.00    -0.244 OA
BRANCH   4   6
ATOM      6  C   UNL A   1      36.186  23.318  24.991  1.00  0.00     0.145 C 
ATOM      7  C   UNL A   1      35.346  23.830  25.895  1.00  0.00     0.024 C 
ATOM      8  N   UNL A   1      35.565  22.846  23.850  1.00  0.00    -0.245 NA
ATOM      9  C   UNL A   1      33.965  23.655  25.410  1.00  0.00     0.107 C 
ATOM     10  C   UNL A   1      34.301  22.943  24.117  1.00  0.00     0.054 C 
ATOM     11  C   UNL A   1      33.075  22.731  26.155  1.00  0.00     0.050 C 
ATOM     12  C   UNL A   1      33.195  22.356  23.328  1.00  0.00     0.026 C 
ATOM     13  C   UNL A   1      32.047  22.181  25.490  1.00  0.00     0.056 C 
ATOM     14  Cl  UNL A   1      33.555  22.167  27.713  1.00  0.00    -0.086 Cl
ATOM     15  C   UNL A   1      32.103  22.025  24.040  1.00  0.00     0.023 C 
ATOM     16  Cl  UNL A   1      30.482  22.579  26.126  1.00  0.00    -0.083 Cl
ENDBRANCH   4   6
ENDBRANCH   3   4
ENDBRANCH   2   3
ENDBRANCH   1   2
BRANCH   1  17
ATOM     17  O   UNL A   1      39.825  19.467  26.348  1.00  0.00    -0.458 OA
BRANCH  17  18
ATOM     18  C   UNL A   1      41.175  19.560  26.184  1.00  0.00     0.338 C 
ATOM     19  O   UNL A   1      41.913  18.707  25.751  1.00  0.00    -0.246 OA
BRANCH  18  20
ATOM     20  C   UNL A   1      41.612  20.937  26.565  1.00  0.00     0.060 A 
ATOM     21  C   UNL A   1      41.866  21.896  25.574  1.00  0.00     0.016 A 
ATOM     22  C   UNL A   1      41.778  21.281  27.906  1.00  0.00     0.016 A 
ATOM     23  C   UNL A   1      42.273  23.203  25.922  1.00  0.00     0.010 A 
ATOM     24  C   UNL A   1      42.162  22.580  28.250  1.00  0.00     0.010 A 
ATOM     25  C   UNL A   1      42.425  23.559  27.268  1.00  0.00    -0.014 A 
BRANCH  25  26
ATOM     26  C   UNL A   1      42.946  24.871  27.759  1.00  0.00     0.031 A 
ATOM     27  C   UNL A   1      41.967  25.935  28.151  1.00  0.00     0.074 A 
ATOM     28  C   UNL A   1      44.244  25.219  27.673  1.00  0.00     0.049 A 
ATOM     29  N   UNL A   1      42.172  27.212  28.336  1.00  0.00    -0.248 NA
ATOM     30  C   UNL A   1      40.584  25.495  28.376  1.00  0.00     0.031 C 
ATOM     31  C   UNL A   1      45.352  24.307  27.466  1.00  0.00     0.029 A 
ATOM     32  N   UNL A   1      44.839  26.464  27.652  1.00  0.00    -0.354 N 
ATOM     33  C   UNL A   1      40.960  27.720  28.766  1.00  0.00     0.074 A 
ATOM     34  C   UNL A   1      39.995  26.641  28.678  1.00  0.00     0.031 C 
ATOM     35  C   UNL A   1      46.450  25.010  27.139  1.00  0.00     0.029 A 
ATOM     36  C   UNL A   1      46.124  26.430  27.152  1.00  0.00     0.049 A 
ATOM     37  H   UNL A   1      44.394  27.287  27.958  1.00  0.00     0.167 HD
ATOM     38  C   UNL A   1      40.694  28.951  29.262  1.00  0.00     0.037 A 
ATOM     39  C   UNL A   1      46.933  27.425  26.734  1.00  0.00     0.037 A 
ATOM     40  C   UNL A   1      41.648  30.026  29.324  1.00  0.00     0.049 A 
ATOM     41  C   UNL A   1      46.558  28.842  27.041  1.00  0.00     0.074 A 
ATOM     42  C   UNL A   1      41.496  31.285  29.877  1.00  0.00     0.029 A 
ATOM     43  N   UNL A   1      42.924  29.980  28.784  1.00  0.00    -0.354 N 
ATOM     44  N   UNL A   1      45.449  29.300  27.562  1.00  0.00    -0.248 NA
ATOM     45  C   UNL A   1      47.586  29.867  26.807  1.00  0.00     0.031 C 
ATOM     46  C   UNL A   1      42.654  32.023  29.607  1.00  0.00     0.029 A 
ATOM     47  C   UNL A   1      43.551  31.205  28.941  1.00  0.00     0.049 A 
ATOM     48  H   UNL A   1      43.325  29.191  28.351  1.00  0.00     0.167 HD
ATOM     49  C   UNL A   1      45.686  30.641  27.827  1.00  0.00     0.074 A 
ATOM     50  C   UNL A   1      47.017  30.938  27.343  1.00  0.00     0.031 C 
ATOM     51  C   UNL A   1      44.881  31.515  28.475  1.00  0.00     0.037 A 
BRANCH  38  52
ATOM     52  C   UNL A   1      39.307  29.163  29.785  1.00  0.00     0.057 A 
ATOM     53  C   UNL A   1      38.975  28.866  31.116  1.00  0.00     0.134 A 
ATOM     54  C   UNL A   1      38.283  29.610  28.945  1.00  0.00     0.134 A 
ATOM     55  F   UNL A   1      39.913  28.426  31.969  1.00  0.00    -0.206 F 
ATOM     56  C   UNL A   1      37.661  28.940  31.572  1.00  0.00     0.040 A 
ATOM     57  C   UNL A   1      36.969  29.722  29.401  1.00  0.00     0.040 A 
ATOM     58  F   UNL A   1      38.536  29.923  27.666  1.00  0.00    -0.206 F 
ATOM     59  C   UNL A   1      36.653  29.367  30.712  1.00  0.00     0.006 A 
ENDBRANCH  38  52
BRANCH  39  60
ATOM     60  C   UNL A   1      48.203  27.141  26.023  1.00  0.00     0.057 A 
ATOM     61  C   UNL A   1      49.407  26.952  26.703  1.00  0.00     0.134 A 
ATOM     62  C   UNL A   1      48.244  27.130  24.623  1.00  0.00     0.134 A 
ATOM     63  F   UNL A   1      49.441  27.022  28.041  1.00  0.00    -0.206 F 
ATOM     64  C   UNL A   1      50.607  26.741  26.019  1.00  0.00     0.040 A 
ATOM     65  C   UNL A   1      49.432  26.892  23.926  1.00  0.00     0.040 A 
ATOM     66  F   UNL A   1      47.124  27.337  23.912  1.00  0.00    -0.206 F 
ATOM     67  C   UNL A   1      50.619  26.697  24.625  1.00  0.00     0.006 A 
ENDBRANCH  39  60
BRANCH  51  68
ATOM     68  C   UNL A   1      45.434  32.873  28.790  1.00  0.00     0.057 A 
ATOM     69  C   UNL A   1      46.211  33.124  29.926  1.00  0.00     0.134 A 
ATOM     70  C   UNL A   1      45.239  33.932  27.892  1.00  0.00     0.134 A 
ATOM     71  F   UNL A   1      46.413  32.162  30.839  1.00  0.00    -0.206 F 
ATOM     72  C   UNL A   1      46.779  34.379  30.154  1.00  0.00     0.040 A 
ATOM     73  C   UNL A   1      45.826  35.181  28.094  1.00  0.00     0.040 A 
ATOM     74  F   UNL A   1      44.498  33.760  26.785  1.00  0.00    -0.206 F 
ATOM     75  C   UNL A   1      46.600  35.407  29.229  1.00  0.00     0.006 A 
ENDBRANCH  51  68
ENDBRANCH  25  26
ENDBRANCH  18  20
ENDBRANCH  17  18
ENDBRANCH   1  17
TORSDOF 11
ENDMDL
