MODEL 1
REMARK VINA RESULT:      -9.8      0.000      0.000
REMARK SMILES C[C@@H](Sc1ccccc1[N+](=O)[O-])[C@@H](C)C(=O)OCCOC(=O)c1ccc(-c2c3nc(c(-c4c(F)cccc4F)c4ccc([nH]4)c(-c4c(F)cccc4F)c4nc(c(-c5c(F)cccc5F)c5ccc2[nH]5)C=C4)C=C3)cc1
REMARK SMILES IDX 18 1 17 2 15 3 16 4 13 5 14 6 2 7 1 8 3 9 4 10 5 11 9 12
REMARK SMILES IDX 6 13 8 14 7 15 10 16 11 17 12 18 19 19 20 20 21 21 22 22
REMARK SMILES IDX 23 23 24 24 76 25 25 26 75 27 26 28 27 29 28 30 69 31 29 32
REMARK SMILES IDX 74 33 68 34 70 35 30 36 73 37 67 38 66 39 31 41 57 42 40 43
REMARK SMILES IDX 56 44 41 45 44 46 55 47 71 48 42 49 43 50 54 52 72 53 45 54
REMARK SMILES IDX 32 55 33 56 38 57 34 58 35 59 37 60 39 61 36 62 58 63 59 64
REMARK SMILES IDX 64 65 60 66 61 67 63 68 65 69 62 70 46 71 47 72 52 73 48 74
REMARK SMILES IDX 49 75 51 76 53 77 50 78
REMARK H PARENT 70 40 44 51
REMARK Flexibility Score: inf
ROOT
ATOM      1  C   UNL A   1      37.205  20.478  24.658  1.00  0.00     0.274 C 
ENDROOT
BRANCH   1   2
ATOM      2  O   UNL A   1      37.601  21.866  24.655  1.00  0.00    -0.462 OA
BRANCH   2   3
ATOM      3  C   UNL A   1      36.765  22.703  23.985  1.00  0.00     0.309 C 
ATOM      4  O   UNL A   1      36.692  22.783  22.762  1.00  0.00    -0.252 OA
BRANCH   3   5
ATOM      5  C   UNL A   1      35.989  23.641  24.894  1.00  0.00     0.109 C 
ATOM      6  C   UNL A   1      36.919  23.945  26.072  1.00  0.00     0.021 C 
BRANCH   5   7
ATOM      7  C   UNL A   1      34.573  23.149  25.303  1.00  0.00     0.063 C 
ATOM      8  C   UNL A   1      34.314  23.342  26.799  1.00  0.00     0.020 C 
BRANCH   7   9
ATOM      9  S   UNL A   1      33.320  24.125  24.340  1.00  0.00    -0.115 SA
BRANCH   9  10
ATOM     10  C   UNL A   1      33.103  25.604  25.315  1.00  0.00     0.085 A 
ATOM     11  C   UNL A   1      34.148  26.540  25.324  1.00  0.00     0.022 A 
ATOM     12  C   UNL A   1      31.999  25.866  26.142  1.00  0.00     0.282 A 
ATOM     13  C   UNL A   1      34.067  27.704  26.101  1.00  0.00     0.002 A 
ATOM     14  C   UNL A   1      31.897  27.037  26.907  1.00  0.00     0.087 A 
ATOM     15  C   UNL A   1      32.941  27.958  26.883  1.00  0.00     0.007 A 
BRANCH  12  16
ATOM     16  N   UNL A   1      30.899  24.925  26.241  1.00  0.00     0.063 N 
ATOM     17  O   UNL A   1      30.961  24.091  27.155  1.00  0.00    -0.258 OA
ATOM     18  O   UNL A   1      30.012  24.989  25.381  1.00  0.00    -0.258 OA
ENDBRANCH  12  16
ENDBRANCH   9  10
ENDBRANCH   7   9
ENDBRANCH   5   7
ENDBRANCH   3   5
ENDBRANCH   2   3
ENDBRANCH   1   2
BRANCH   1  19
ATOM     19  C   UNL A   1      38.411  19.567  24.881  1.00  0.00     0.275 C 
BRANCH  19  20
ATOM     20  O   UNL A   1      39.112  19.987  26.063  1.00  0.00    -0.458 OA
BRANCH  20  21
ATOM     21  C   UNL A   1      40.455  19.840  26.028  1.00  0.00     0.338 C 
ATOM     22  O   UNL A   1      41.076  18.877  25.611  1.00  0.00    -0.246 OA
BRANCH  21  23
ATOM     23  C   UNL A   1      41.100  21.041  26.596  1.00  0.00     0.060 A 
ATOM     24  C   UNL A   1      41.259  21.184  27.976  1.00  0.00     0.016 A 
ATOM     25  C   UNL A   1      41.458  22.085  25.743  1.00  0.00     0.016 A 
ATOM     26  C   UNL A   1      41.689  22.396  28.512  1.00  0.00     0.010 A 
ATOM     27  C   UNL A   1      41.971  23.271  26.276  1.00  0.00     0.010 A 
ATOM     28  C   UNL A   1      42.054  23.452  27.667  1.00  0.00    -0.014 A 
BRANCH  28  29
ATOM     29  C   UNL A   1      42.472  24.760  28.238  1.00  0.00     0.031 A 
ATOM     30  C   UNL A   1      41.450  25.836  28.489  1.00  0.00     0.074 A 
ATOM     31  C   UNL A   1      43.765  24.984  28.543  1.00  0.00     0.049 A 
ATOM     32  N   UNL A   1      41.629  27.077  28.865  1.00  0.00    -0.248 NA
ATOM     33  C   UNL A   1      40.042  25.471  28.272  1.00  0.00     0.031 C 
ATOM     34  C   UNL A   1      44.855  24.021  28.376  1.00  0.00     0.029 A 
ATOM     35  N   UNL A   1      44.379  26.095  29.061  1.00  0.00    -0.354 N 
ATOM     36  C   UNL A   1      40.364  27.651  28.892  1.00  0.00     0.074 A 
ATOM     37  C   UNL A   1      39.427  26.628  28.479  1.00  0.00     0.031 C 
ATOM     38  C   UNL A   1      45.998  24.573  28.812  1.00  0.00     0.029 A 
ATOM     39  C   UNL A   1      45.733  25.945  29.235  1.00  0.00     0.049 A 
ATOM     40  H   UNL A   1      43.895  26.922  29.288  1.00  0.00     0.167 HD
ATOM     41  C   UNL A   1      40.014  28.914  29.234  1.00  0.00     0.037 A 
ATOM     42  C   UNL A   1      46.660  26.818  29.669  1.00  0.00     0.037 A 
ATOM     43  C   UNL A   1      40.936  29.919  29.695  1.00  0.00     0.049 A 
ATOM     44  C   UNL A   1      46.246  28.210  30.047  1.00  0.00     0.074 A 
ATOM     45  C   UNL A   1      40.673  31.226  30.072  1.00  0.00     0.029 A 
ATOM     46  N   UNL A   1      42.298  29.723  29.859  1.00  0.00    -0.354 N 
ATOM     47  N   UNL A   1      45.053  28.752  30.029  1.00  0.00    -0.248 NA
ATOM     48  C   UNL A   1      47.311  29.116  30.502  1.00  0.00     0.031 C 
ATOM     49  C   UNL A   1      41.881  31.826  30.447  1.00  0.00     0.029 A 
ATOM     50  C   UNL A   1      42.890  30.883  30.332  1.00  0.00     0.049 A 
ATOM     51  H   UNL A   1      42.775  28.883  29.669  1.00  0.00     0.167 HD
ATOM     52  C   UNL A   1      45.218  30.052  30.484  1.00  0.00     0.074 A 
ATOM     53  C   UNL A   1      46.626  30.215  30.786  1.00  0.00     0.031 C 
ATOM     54  C   UNL A   1      44.290  31.026  30.634  1.00  0.00     0.037 A 
BRANCH  41  55
ATOM     55  C   UNL A   1      38.568  29.287  29.103  1.00  0.00     0.057 A 
ATOM     56  C   UNL A   1      37.697  29.277  30.200  1.00  0.00     0.134 A 
ATOM     57  C   UNL A   1      38.047  29.687  27.866  1.00  0.00     0.134 A 
ATOM     58  F   UNL A   1      38.131  28.890  31.408  1.00  0.00    -0.206 F 
ATOM     59  C   UNL A   1      36.354  29.635  30.066  1.00  0.00     0.040 A 
ATOM     60  C   UNL A   1      36.711  30.067  27.725  1.00  0.00     0.040 A 
ATOM     61  F   UNL A   1      38.829  29.723  26.777  1.00  0.00    -0.206 F 
ATOM     62  C   UNL A   1      35.859  30.035  28.826  1.00  0.00     0.006 A 
ENDBRANCH  41  55
BRANCH  42  63
ATOM     63  C   UNL A   1      48.079  26.399  29.763  1.00  0.00     0.057 A 
ATOM     64  C   UNL A   1      48.585  25.832  30.938  1.00  0.00     0.134 A 
ATOM     65  C   UNL A   1      48.960  26.554  28.687  1.00  0.00     0.134 A 
ATOM     66  F   UNL A   1      47.793  25.680  32.010  1.00  0.00    -0.206 F 
ATOM     67  C   UNL A   1      49.921  25.443  31.044  1.00  0.00     0.040 A 
ATOM     68  C   UNL A   1      50.292  26.149  28.771  1.00  0.00     0.040 A 
ATOM     69  F   UNL A   1      48.532  27.090  27.535  1.00  0.00    -0.206 F 
ATOM     70  C   UNL A   1      50.777  25.595  29.954  1.00  0.00     0.006 A 
ENDBRANCH  42  63
BRANCH  54  71
ATOM     71  C   UNL A   1      44.766  32.339  31.177  1.00  0.00     0.057 A 
ATOM     72  C   UNL A   1      44.786  32.603  32.552  1.00  0.00     0.134 A 
ATOM     73  C   UNL A   1      45.219  33.345  30.315  1.00  0.00     0.134 A 
ATOM     74  F   UNL A   1      44.352  31.685  33.428  1.00  0.00    -0.206 F 
ATOM     75  C   UNL A   1      45.218  33.833  33.050  1.00  0.00     0.040 A 
ATOM     76  C   UNL A   1      45.672  34.572  30.802  1.00  0.00     0.040 A 
ATOM     77  F   UNL A   1      45.229  33.151  28.988  1.00  0.00    -0.206 F 
ATOM     78  C   UNL A   1      45.666  34.821  32.173  1.00  0.00     0.006 A 
ENDBRANCH  54  71
ENDBRANCH  28  29
ENDBRANCH  21  23
ENDBRANCH  20  21
ENDBRANCH  19  20
ENDBRANCH   1  19
TORSDOF 15
ENDMDL
MODEL 2
REMARK VINA RESULT:      -9.8      4.015      8.136
REMARK SMILES C[C@@H](Sc1ccccc1[N+](=O)[O-])[C@@H](C)C(=O)OCCOC(=O)c1ccc(-c2c3nc(c(-c4c(F)cccc4F)c4ccc([nH]4)c(-c4c(F)cccc4F)c4nc(c(-c5c(F)cccc5F)c5ccc2[nH]5)C=C4)C=C3)cc1
REMARK SMILES IDX 18 1 17 2 15 3 16 4 13 5 14 6 2 7 1 8 3 9 4 10 5 11 9 12
REMARK SMILES IDX 6 13 8 14 7 15 10 16 11 17 12 18 19 19 20 20 21 21 22 22
REMARK SMILES IDX 23 23 24 24 76 25 25 26 75 27 26 28 27 29 28 30 69 31 29 32
REMARK SMILES IDX 74 33 68 34 70 35 30 36 73 37 67 38 66 39 31 41 57 42 40 43
REMARK SMILES IDX 56 44 41 45 44 46 55 47 71 48 42 49 43 50 54 52 72 53 45 54
REMARK SMILES IDX 32 55 33 56 38 57 34 58 35 59 37 60 39 61 36 62 58 63 59 64
REMARK SMILES IDX 64 65 60 66 61 67 63 68 65 69 62 70 46 71 47 72 52 73 48 74
REMARK SMILES IDX 49 75 51 76 53 77 50 78
REMARK H PARENT 70 40 44 51
REMARK Flexibility Score: inf
ROOT
ATOM      1  C   UNL A   1      33.691  32.236  27.813  1.00  0.00     0.274 C 
ENDROOT
BRANCH   1   2
ATOM      2  O   UNL A   1      33.191  30.902  27.583  1.00  0.00    -0.462 OA
BRANCH   2   3
ATOM      3  C   UNL A   1      32.166  30.815  26.694  1.00  0.00     0.309 C 
ATOM      4  O   UNL A   1      31.362  31.715  26.467  1.00  0.00    -0.252 OA
BRANCH   3   5
ATOM      5  C   UNL A   1      32.019  29.437  26.070  1.00  0.00     0.109 C 
ATOM      6  C   UNL A   1      31.646  28.496  27.218  1.00  0.00     0.021 C 
BRANCH   5   7
ATOM      7  C   UNL A   1      33.228  28.963  25.216  1.00  0.00     0.063 C 
ATOM      8  C   UNL A   1      33.811  27.647  25.738  1.00  0.00     0.020 C 
BRANCH   7   9
ATOM      9  S   UNL A   1      32.643  28.716  23.471  1.00  0.00    -0.115 SA
BRANCH   9  10
ATOM     10  C   UNL A   1      31.093  27.853  23.667  1.00  0.00     0.085 A 
ATOM     11  C   UNL A   1      31.139  26.517  24.088  1.00  0.00     0.022 A 
ATOM     12  C   UNL A   1      29.832  28.385  23.351  1.00  0.00     0.282 A 
ATOM     13  C   UNL A   1      29.964  25.762  24.222  1.00  0.00     0.002 A 
ATOM     14  C   UNL A   1      28.649  27.647  23.501  1.00  0.00     0.087 A 
ATOM     15  C   UNL A   1      28.722  26.328  23.939  1.00  0.00     0.007 A 
BRANCH  12  16
ATOM     16  N   UNL A   1      29.696  29.740  22.851  1.00  0.00     0.063 N 
ATOM     17  O   UNL A   1      29.809  29.895  21.627  1.00  0.00    -0.258 OA
ATOM     18  O   UNL A   1      29.532  30.643  23.680  1.00  0.00    -0.258 OA
ENDBRANCH  12  16
ENDBRANCH   9  10
ENDBRANCH   7   9
ENDBRANCH   5   7
ENDBRANCH   3   5
ENDBRANCH   2   3
ENDBRANCH   1   2
BRANCH   1  19
ATOM     19  C   UNL A   1      34.641  32.262  29.010  1.00  0.00     0.275 C 
BRANCH  19  20
ATOM     20  O   UNL A   1      35.480  31.097  28.978  1.00  0.00    -0.458 OA
BRANCH  20  21
ATOM     21  C   UNL A   1      36.196  30.862  30.100  1.00  0.00     0.338 C 
ATOM     22  O   UNL A   1      35.889  31.163  31.241  1.00  0.00    -0.246 OA
BRANCH  21  23
ATOM     23  C   UNL A   1      37.457  30.179  29.749  1.00  0.00     0.060 A 
ATOM     24  C   UNL A   1      38.299  29.673  30.741  1.00  0.00     0.016 A 
ATOM     25  C   UNL A   1      37.853  30.134  28.412  1.00  0.00     0.016 A 
ATOM     26  C   UNL A   1      39.570  29.205  30.414  1.00  0.00     0.010 A 
ATOM     27  C   UNL A   1      39.094  29.586  28.074  1.00  0.00     0.010 A 
ATOM     28  C   UNL A   1      39.980  29.152  29.076  1.00  0.00    -0.014 A 
BRANCH  28  29
ATOM     29  C   UNL A   1      41.351  28.694  28.728  1.00  0.00     0.031 A 
ATOM     30  C   UNL A   1      42.504  29.660  28.774  1.00  0.00     0.074 A 
ATOM     31  C   UNL A   1      41.568  27.411  28.382  1.00  0.00     0.049 A 
ATOM     32  N   UNL A   1      43.746  29.486  28.394  1.00  0.00    -0.248 NA
ATOM     33  C   UNL A   1      42.220  31.003  29.302  1.00  0.00     0.031 C 
ATOM     34  C   UNL A   1      40.548  26.363  28.322  1.00  0.00     0.029 A 
ATOM     35  N   UNL A   1      42.726  26.769  28.018  1.00  0.00    -0.354 N 
ATOM     36  C   UNL A   1      44.378  30.705  28.600  1.00  0.00     0.074 A 
ATOM     37  C   UNL A   1      43.382  31.616  29.123  1.00  0.00     0.031 C 
ATOM     38  C   UNL A   1      41.129  25.205  27.972  1.00  0.00     0.029 A 
ATOM     39  C   UNL A   1      42.549  25.439  27.729  1.00  0.00     0.049 A 
ATOM     40  H   UNL A   1      43.599  27.220  27.968  1.00  0.00     0.167 HD
ATOM     41  C   UNL A   1      45.673  31.036  28.377  1.00  0.00     0.037 A 
ATOM     42  C   UNL A   1      43.427  24.514  27.299  1.00  0.00     0.037 A 
ATOM     43  C   UNL A   1      46.679  30.121  27.906  1.00  0.00     0.049 A 
ATOM     44  C   UNL A   1      44.858  24.904  27.066  1.00  0.00     0.074 A 
ATOM     45  C   UNL A   1      48.020  30.363  27.658  1.00  0.00     0.029 A 
ATOM     46  N   UNL A   1      46.458  28.781  27.630  1.00  0.00    -0.354 N 
ATOM     47  N   UNL A   1      45.433  26.070  27.226  1.00  0.00    -0.248 NA
ATOM     48  C   UNL A   1      45.760  23.847  26.587  1.00  0.00     0.031 C 
ATOM     49  C   UNL A   1      48.606  29.172  27.213  1.00  0.00     0.029 A 
ATOM     50  C   UNL A   1      47.636  28.182  27.214  1.00  0.00     0.049 A 
ATOM     51  H   UNL A   1      45.591  28.322  27.717  1.00  0.00     0.167 HD
ATOM     52  C   UNL A   1      46.766  25.887  26.883  1.00  0.00     0.074 A 
ATOM     53  C   UNL A   1      46.917  24.492  26.523  1.00  0.00     0.031 C 
ATOM     54  C   UNL A   1      47.772  26.793  26.865  1.00  0.00     0.037 A 
BRANCH  41  55
ATOM     55  C   UNL A   1      46.072  32.461  28.624  1.00  0.00     0.057 A 
ATOM     56  C   UNL A   1      46.567  32.888  29.862  1.00  0.00     0.134 A 
ATOM     57  C   UNL A   1      45.984  33.411  27.598  1.00  0.00     0.134 A 
ATOM     58  F   UNL A   1      46.662  32.031  30.888  1.00  0.00    -0.206 F 
ATOM     59  C   UNL A   1      46.943  34.216  30.077  1.00  0.00     0.040 A 
ATOM     60  C   UNL A   1      46.376  34.736  27.795  1.00  0.00     0.040 A 
ATOM     61  F   UNL A   1      45.522  33.065  26.387  1.00  0.00    -0.206 F 
ATOM     62  C   UNL A   1      46.852  35.143  29.039  1.00  0.00     0.006 A 
ENDBRANCH  41  55
BRANCH  42  63
ATOM     63  C   UNL A   1      42.973  23.123  27.057  1.00  0.00     0.057 A 
ATOM     64  C   UNL A   1      42.709  22.256  28.123  1.00  0.00     0.134 A 
ATOM     65  C   UNL A   1      42.792  22.630  25.761  1.00  0.00     0.134 A 
ATOM     66  F   UNL A   1      42.887  22.668  29.387  1.00  0.00    -0.206 F 
ATOM     67  C   UNL A   1      42.291  20.942  27.908  1.00  0.00     0.040 A 
ATOM     68  C   UNL A   1      42.354  21.325  25.531  1.00  0.00     0.040 A 
ATOM     69  F   UNL A   1      43.028  23.414  24.698  1.00  0.00    -0.206 F 
ATOM     70  C   UNL A   1      42.106  20.477  26.608  1.00  0.00     0.006 A 
ENDBRANCH  42  63
BRANCH  54  71
ATOM     71  C   UNL A   1      49.128  26.291  26.472  1.00  0.00     0.057 A 
ATOM     72  C   UNL A   1      49.616  26.434  25.167  1.00  0.00     0.134 A 
ATOM     73  C   UNL A   1      49.958  25.671  27.412  1.00  0.00     0.134 A 
ATOM     74  F   UNL A   1      48.862  27.008  24.218  1.00  0.00    -0.206 F 
ATOM     75  C   UNL A   1      50.875  25.953  24.805  1.00  0.00     0.040 A 
ATOM     76  C   UNL A   1      51.228  25.203  27.067  1.00  0.00     0.040 A 
ATOM     77  F   UNL A   1      49.551  25.509  28.680  1.00  0.00    -0.206 F 
ATOM     78  C   UNL A   1      51.686  25.338  25.758  1.00  0.00     0.006 A 
ENDBRANCH  54  71
ENDBRANCH  28  29
ENDBRANCH  21  23
ENDBRANCH  20  21
ENDBRANCH  19  20
ENDBRANCH   1  19
TORSDOF 15
ENDMDL
MODEL 3
REMARK VINA RESULT:      -9.8      4.785      9.936
REMARK SMILES C[C@@H](Sc1ccccc1[N+](=O)[O-])[C@@H](C)C(=O)OCCOC(=O)c1ccc(-c2c3nc(c(-c4c(F)cccc4F)c4ccc([nH]4)c(-c4c(F)cccc4F)c4nc(c(-c5c(F)cccc5F)c5ccc2[nH]5)C=C4)C=C3)cc1
REMARK SMILES IDX 18 1 17 2 15 3 16 4 13 5 14 6 2 7 1 8 3 9 4 10 5 11 9 12
REMARK SMILES IDX 6 13 8 14 7 15 10 16 11 17 12 18 19 19 20 20 21 21 22 22
REMARK SMILES IDX 23 23 24 24 76 25 25 26 75 27 26 28 27 29 28 30 69 31 29 32
REMARK SMILES IDX 74 33 68 34 70 35 30 36 73 37 67 38 66 39 31 41 57 42 40 43
REMARK SMILES IDX 56 44 41 45 44 46 55 47 71 48 42 49 43 50 54 52 72 53 45 54
REMARK SMILES IDX 32 55 33 56 38 57 34 58 35 59 37 60 39 61 36 62 58 63 59 64
REMARK SMILES IDX 64 65 60 66 61 67 63 68 65 69 62 70 46 71 47 72 52 73 48 74
REMARK SMILES IDX 49 75 51 76 53 77 50 78
REMARK H PARENT 70 40 44 51
REMARK Flexibility Score: inf
ROOT
ATOM      1  C   UNL A   1      46.122  23.188  26.210  1.00  0.00     0.274 C 
ENDROOT
BRANCH   1   2
ATOM      2  O   UNL A   1      47.096  24.055  26.829  1.00  0.00    -0.462 OA
BRANCH   2   3
ATOM      3  C   UNL A   1      46.600  24.901  27.769  1.00  0.00     0.309 C 
ATOM      4  O   UNL A   1      45.559  24.717  28.393  1.00  0.00    -0.252 OA
BRANCH   3   5
ATOM      5  C   UNL A   1      47.398  26.187  27.910  1.00  0.00     0.109 C 
ATOM      6  C   UNL A   1      48.871  25.769  27.879  1.00  0.00     0.021 C 
BRANCH   5   7
ATOM      7  C   UNL A   1      47.009  27.081  29.120  1.00  0.00     0.063 C 
ATOM      8  C   UNL A   1      47.725  26.649  30.401  1.00  0.00     0.020 C 
BRANCH   7   9
ATOM      9  S   UNL A   1      47.483  28.832  28.722  1.00  0.00    -0.115 SA
BRANCH   9  10
ATOM     10  C   UNL A   1      45.914  29.678  28.625  1.00  0.00     0.085 A 
ATOM     11  C   UNL A   1      45.249  29.961  29.827  1.00  0.00     0.022 A 
ATOM     12  C   UNL A   1      45.253  30.009  27.431  1.00  0.00     0.282 A 
ATOM     13  C   UNL A   1      43.993  30.584  29.827  1.00  0.00     0.002 A 
ATOM     14  C   UNL A   1      44.005  30.651  27.419  1.00  0.00     0.087 A 
ATOM     15  C   UNL A   1      43.376  30.937  28.627  1.00  0.00     0.007 A 
BRANCH  12  16
ATOM     16  N   UNL A   1      45.839  29.699  26.141  1.00  0.00     0.063 N 
ATOM     17  O   UNL A   1      46.393  30.633  25.544  1.00  0.00    -0.258 OA
ATOM     18  O   UNL A   1      45.699  28.548  25.709  1.00  0.00    -0.258 OA
ENDBRANCH  12  16
ENDBRANCH   9  10
ENDBRANCH   7   9
ENDBRANCH   5   7
ENDBRANCH   3   5
ENDBRANCH   2   3
ENDBRANCH   1   2
BRANCH   1  19
ATOM     19  C   UNL A   1      45.920  23.556  24.741  1.00  0.00     0.275 C 
BRANCH  19  20
ATOM     20  O   UNL A   1      44.875  24.535  24.635  1.00  0.00    -0.458 OA
BRANCH  20  21
ATOM     21  C   UNL A   1      43.631  24.097  24.931  1.00  0.00     0.338 C 
ATOM     22  O   UNL A   1      43.065  23.126  24.459  1.00  0.00    -0.246 OA
BRANCH  21  23
ATOM     23  C   UNL A   1      43.015  24.994  25.930  1.00  0.00     0.060 A 
ATOM     24  C   UNL A   1      43.217  26.374  25.877  1.00  0.00     0.016 A 
ATOM     25  C   UNL A   1      42.307  24.435  26.995  1.00  0.00     0.016 A 
ATOM     26  C   UNL A   1      42.795  27.188  26.927  1.00  0.00     0.010 A 
ATOM     27  C   UNL A   1      41.809  25.261  28.006  1.00  0.00     0.010 A 
ATOM     28  C   UNL A   1      42.082  26.640  28.001  1.00  0.00    -0.014 A 
BRANCH  28  29
ATOM     29  C   UNL A   1      41.668  27.499  29.143  1.00  0.00     0.031 A 
ATOM     30  C   UNL A   1      42.445  27.468  30.431  1.00  0.00     0.074 A 
ATOM     31  C   UNL A   1      40.604  28.316  29.024  1.00  0.00     0.049 A 
ATOM     32  N   UNL A   1      42.176  28.047  31.575  1.00  0.00    -0.248 NA
ATOM     33  C   UNL A   1      43.678  26.666  30.439  1.00  0.00     0.031 C 
ATOM     34  C   UNL A   1      39.778  28.465  27.825  1.00  0.00     0.029 A 
ATOM     35  N   UNL A   1      40.038  29.178  29.929  1.00  0.00    -0.354 N 
ATOM     36  C   UNL A   1      43.182  27.649  32.446  1.00  0.00     0.074 A 
ATOM     37  C   UNL A   1      44.059  26.767  31.705  1.00  0.00     0.031 C 
ATOM     38  C   UNL A   1      38.830  29.386  28.058  1.00  0.00     0.029 A 
ATOM     39  C   UNL A   1      38.945  29.850  29.437  1.00  0.00     0.049 A 
ATOM     40  H   UNL A   1      40.382  29.304  30.842  1.00  0.00     0.167 HD
ATOM     41  C   UNL A   1      43.362  27.991  33.744  1.00  0.00     0.037 A 
ATOM     42  C   UNL A   1      38.118  30.727  30.035  1.00  0.00     0.037 A 
ATOM     43  C   UNL A   1      42.522  28.908  34.470  1.00  0.00     0.049 A 
ATOM     44  C   UNL A   1      38.342  31.094  31.473  1.00  0.00     0.074 A 
ATOM     45  C   UNL A   1      42.632  29.322  35.788  1.00  0.00     0.029 A 
ATOM     46  N   UNL A   1      41.429  29.569  33.934  1.00  0.00    -0.354 N 
ATOM     47  N   UNL A   1      39.273  30.679  32.297  1.00  0.00    -0.248 NA
ATOM     48  C   UNL A   1      37.395  32.049  32.066  1.00  0.00     0.031 C 
ATOM     49  C   UNL A   1      41.590  30.220  36.053  1.00  0.00     0.029 A 
ATOM     50  C   UNL A   1      40.853  30.387  34.892  1.00  0.00     0.049 A 
ATOM     51  H   UNL A   1      41.109  29.471  33.007  1.00  0.00     0.167 HD
ATOM     52  C   UNL A   1      39.036  31.332  33.498  1.00  0.00     0.074 A 
ATOM     53  C   UNL A   1      37.882  32.184  33.292  1.00  0.00     0.031 C 
ATOM     54  C   UNL A   1      39.710  31.233  34.668  1.00  0.00     0.037 A 
BRANCH  41  55
ATOM     55  C   UNL A   1      44.506  27.351  34.472  1.00  0.00     0.057 A 
ATOM     56  C   UNL A   1      44.331  26.222  35.283  1.00  0.00     0.134 A 
ATOM     57  C   UNL A   1      45.805  27.856  34.338  1.00  0.00     0.134 A 
ATOM     58  F   UNL A   1      43.110  25.698  35.463  1.00  0.00    -0.206 F 
ATOM     59  C   UNL A   1      45.406  25.630  35.949  1.00  0.00     0.040 A 
ATOM     60  C   UNL A   1      46.891  27.260  34.982  1.00  0.00     0.040 A 
ATOM     61  F   UNL A   1      46.042  28.933  33.573  1.00  0.00    -0.206 F 
ATOM     62  C   UNL A   1      46.691  26.147  35.795  1.00  0.00     0.006 A 
ENDBRANCH  41  55
BRANCH  42  63
ATOM     63  C   UNL A   1      36.993  31.317  29.270  1.00  0.00     0.057 A 
ATOM     64  C   UNL A   1      37.089  32.602  28.726  1.00  0.00     0.134 A 
ATOM     65  C   UNL A   1      35.801  30.614  29.066  1.00  0.00     0.134 A 
ATOM     66  F   UNL A   1      38.199  33.332  28.910  1.00  0.00    -0.206 F 
ATOM     67  C   UNL A   1      36.033  33.173  28.013  1.00  0.00     0.040 A 
ATOM     68  C   UNL A   1      34.746  31.163  28.336  1.00  0.00     0.040 A 
ATOM     69  F   UNL A   1      35.651  29.377  29.562  1.00  0.00    -0.206 F 
ATOM     70  C   UNL A   1      34.860  32.448  27.811  1.00  0.00     0.006 A 
ENDBRANCH  42  63
BRANCH  54  71
ATOM     71  C   UNL A   1      39.233  32.090  35.801  1.00  0.00     0.057 A 
ATOM     72  C   UNL A   1      39.732  33.382  36.008  1.00  0.00     0.134 A 
ATOM     73  C   UNL A   1      38.255  31.621  36.686  1.00  0.00     0.134 A 
ATOM     74  F   UNL A   1      40.680  33.882  35.201  1.00  0.00    -0.206 F 
ATOM     75  C   UNL A   1      39.292  34.169  37.073  1.00  0.00     0.040 A 
ATOM     76  C   UNL A   1      37.793  32.407  37.744  1.00  0.00     0.040 A 
ATOM     77  F   UNL A   1      37.733  30.395  36.538  1.00  0.00    -0.206 F 
ATOM     78  C   UNL A   1      38.317  33.682  37.942  1.00  0.00     0.006 A 
ENDBRANCH  54  71
ENDBRANCH  28  29
ENDBRANCH  21  23
ENDBRANCH  20  21
ENDBRANCH  19  20
ENDBRANCH   1  19
TORSDOF 15
ENDMDL
