MODEL 1
REMARK VINA RESULT:     -11.5      0.000      0.000
REMARK SMILES CC(=O)Oc1c(Cl)cc(-c2ccccc2)cc1C(=O)OCCOC(=O)c1ccc(-c2c3nc(c(-c4c(F)cccc4F)c4ccc([nH]4)c(-c4c(F)cccc4F)c4nc(c(-c5c(F)cccc5F)c5ccc2[nH]5)C=C4)C=C3)cc1
REMARK SMILES IDX 21 1 20 2 18 3 19 4 17 5 5 6 6 7 7 8 8 9 16 10 9 11 4 12
REMARK SMILES IDX 2 13 1 14 3 15 10 16 11 17 15 18 12 19 14 20 13 21 22 22
REMARK SMILES IDX 23 23 24 24 25 25 26 26 27 27 79 28 28 29 78 30 29 31 30 32
REMARK SMILES IDX 31 33 72 34 32 35 77 36 71 37 73 38 33 39 76 40 70 41 69 42
REMARK SMILES IDX 34 44 60 45 43 46 59 47 44 48 47 49 58 50 74 51 45 52 46 53
REMARK SMILES IDX 57 55 75 56 48 57 35 58 36 59 41 60 37 61 38 62 40 63 42 64
REMARK SMILES IDX 39 65 61 66 62 67 67 68 63 69 64 70 66 71 68 72 65 73 49 74
REMARK SMILES IDX 50 75 55 76 51 77 52 78 54 79 56 80 53 81
REMARK H PARENT 73 43 47 54
REMARK Flexibility Score: inf
ROOT
ATOM      1  C   UNL A   1      36.182  22.616  23.660  1.00  0.00     0.275 C 
ENDROOT
BRANCH   1   2
ATOM      2  O   UNL A   1      35.607  23.757  24.332  1.00  0.00    -0.458 OA
BRANCH   2   3
ATOM      3  C   UNL A   1      34.602  24.385  23.676  1.00  0.00     0.342 C 
ATOM      4  O   UNL A   1      34.456  24.454  22.465  1.00  0.00    -0.246 OA
BRANCH   3   5
ATOM      5  C   UNL A   1      33.591  24.912  24.617  1.00  0.00     0.105 A 
ATOM      6  C   UNL A   1      32.511  24.168  25.088  1.00  0.00     0.164 A 
ATOM      7  C   UNL A   1      31.665  24.715  26.065  1.00  0.00     0.085 A 
ATOM      8  Cl  UNL A   1      30.402  23.782  26.787  1.00  0.00    -0.080 Cl
ATOM      9  C   UNL A   1      31.855  26.029  26.515  1.00  0.00     0.033 A 
ATOM     10  C   UNL A   1      33.794  26.209  25.110  1.00  0.00     0.028 A 
ATOM     11  C   UNL A   1      32.915  26.801  26.027  1.00  0.00    -0.016 A 
BRANCH   6  12
ATOM     12  O   UNL A   1      32.348  22.844  24.671  1.00  0.00    -0.424 OA
BRANCH  12  13
ATOM     13  C   UNL A   1      31.614  22.746  23.494  1.00  0.00     0.308 C 
ATOM     14  C   UNL A   1      32.133  21.599  22.680  1.00  0.00     0.139 C 
ATOM     15  O   UNL A   1      30.715  23.494  23.132  1.00  0.00    -0.252 OA
ENDBRANCH  12  13
ENDBRANCH   6  12
BRANCH  11  16
ATOM     16  C   UNL A   1      33.143  28.186  26.456  1.00  0.00    -0.018 A 
ATOM     17  C   UNL A   1      32.092  29.115  26.487  1.00  0.00     0.009 A 
ATOM     18  C   UNL A   1      34.411  28.595  26.905  1.00  0.00     0.009 A 
ATOM     19  C   UNL A   1      32.302  30.412  26.963  1.00  0.00     0.001 A 
ATOM     20  C   UNL A   1      34.621  29.894  27.377  1.00  0.00     0.001 A 
ATOM     21  C   UNL A   1      33.564  30.801  27.408  1.00  0.00     0.000 A 
ENDBRANCH  11  16
ENDBRANCH   3   5
ENDBRANCH   2   3
ENDBRANCH   1   2
BRANCH   1  22
ATOM     22  C   UNL A   1      36.129  21.375  24.547  1.00  0.00     0.275 C 
BRANCH  22  23
ATOM     23  O   UNL A   1      36.823  21.637  25.779  1.00  0.00    -0.458 OA
BRANCH  23  24
ATOM     24  C   UNL A   1      38.154  21.394  25.772  1.00  0.00     0.338 C 
ATOM     25  O   UNL A   1      38.729  20.409  25.347  1.00  0.00    -0.246 OA
BRANCH  24  26
ATOM     26  C   UNL A   1      38.865  22.537  26.372  1.00  0.00     0.060 A 
ATOM     27  C   UNL A   1      38.402  23.832  26.155  1.00  0.00     0.016 A 
ATOM     28  C   UNL A   1      40.059  22.329  27.056  1.00  0.00     0.016 A 
ATOM     29  C   UNL A   1      39.180  24.927  26.526  1.00  0.00     0.010 A 
ATOM     30  C   UNL A   1      40.778  23.428  27.537  1.00  0.00     0.010 A 
ATOM     31  C   UNL A   1      40.368  24.743  27.247  1.00  0.00    -0.014 A 
BRANCH  31  32
ATOM     32  C   UNL A   1      41.185  25.908  27.698  1.00  0.00     0.031 A 
ATOM     33  C   UNL A   1      40.572  26.975  28.569  1.00  0.00     0.074 A 
ATOM     34  C   UNL A   1      42.472  26.034  27.314  1.00  0.00     0.049 A 
ATOM     35  N   UNL A   1      41.030  28.165  28.869  1.00  0.00    -0.248 NA
ATOM     36  C   UNL A   1      39.262  26.671  29.166  1.00  0.00     0.031 C 
ATOM     37  C   UNL A   1      43.221  25.066  26.510  1.00  0.00     0.029 A 
ATOM     38  N   UNL A   1      43.382  27.038  27.549  1.00  0.00    -0.354 N 
ATOM     39  C   UNL A   1      40.036  28.776  29.625  1.00  0.00     0.074 A 
ATOM     40  C   UNL A   1      38.955  27.822  29.749  1.00  0.00     0.031 C 
ATOM     41  C   UNL A   1      44.479  25.501  26.352  1.00  0.00     0.029 A 
ATOM     42  C   UNL A   1      44.602  26.823  26.954  1.00  0.00     0.049 A 
ATOM     43  H   UNL A   1      43.179  27.834  28.091  1.00  0.00     0.167 HD
ATOM     44  C   UNL A   1      40.026  30.021  30.157  1.00  0.00     0.037 A 
ATOM     45  C   UNL A   1      45.685  27.616  26.852  1.00  0.00     0.037 A 
ATOM     46  C   UNL A   1      41.131  30.942  30.094  1.00  0.00     0.049 A 
ATOM     47  C   UNL A   1      45.639  29.002  27.426  1.00  0.00     0.074 A 
ATOM     48  C   UNL A   1      41.231  32.208  30.649  1.00  0.00     0.029 A 
ATOM     49  N   UNL A   1      42.332  30.693  29.450  1.00  0.00    -0.354 N 
ATOM     50  N   UNL A   1      44.676  29.587  28.093  1.00  0.00    -0.248 NA
ATOM     51  C   UNL A   1      46.819  29.850  27.201  1.00  0.00     0.031 C 
ATOM     52  C   UNL A   1      42.482  32.736  30.313  1.00  0.00     0.029 A 
ATOM     53  C   UNL A   1      43.172  31.786  29.579  1.00  0.00     0.049 A 
ATOM     54  H   UNL A   1      42.555  29.861  28.973  1.00  0.00     0.167 HD
ATOM     55  C   UNL A   1      45.133  30.867  28.374  1.00  0.00     0.074 A 
ATOM     56  C   UNL A   1      46.468  30.967  27.823  1.00  0.00     0.031 C 
ATOM     57  C   UNL A   1      44.498  31.872  29.023  1.00  0.00     0.037 A 
BRANCH  44  58
ATOM     58  C   UNL A   1      38.767  30.483  30.831  1.00  0.00     0.057 A 
ATOM     59  C   UNL A   1      37.700  31.044  30.121  1.00  0.00     0.134 A 
ATOM     60  C   UNL A   1      38.604  30.307  32.212  1.00  0.00     0.134 A 
ATOM     61  F   UNL A   1      37.797  31.251  28.799  1.00  0.00    -0.206 F 
ATOM     62  C   UNL A   1      36.521  31.430  30.762  1.00  0.00     0.040 A 
ATOM     63  C   UNL A   1      37.422  30.668  32.861  1.00  0.00     0.040 A 
ATOM     64  F   UNL A   1      39.586  29.768  32.950  1.00  0.00    -0.206 F 
ATOM     65  C   UNL A   1      36.377  31.234  32.135  1.00  0.00     0.006 A 
ENDBRANCH  44  58
BRANCH  45  66
ATOM     66  C   UNL A   1      46.888  27.137  26.125  1.00  0.00     0.057 A 
ATOM     67  C   UNL A   1      47.034  27.354  24.752  1.00  0.00     0.134 A 
ATOM     68  C   UNL A   1      47.920  26.457  26.786  1.00  0.00     0.134 A 
ATOM     69  F   UNL A   1      46.067  27.975  24.059  1.00  0.00    -0.206 F 
ATOM     70  C   UNL A   1      48.161  26.909  24.058  1.00  0.00     0.040 A 
ATOM     71  C   UNL A   1      49.063  26.031  26.110  1.00  0.00     0.040 A 
ATOM     72  F   UNL A   1      47.838  26.217  28.103  1.00  0.00    -0.206 F 
ATOM     73  C   UNL A   1      49.184  26.253  24.741  1.00  0.00     0.006 A 
ENDBRANCH  45  66
BRANCH  57  74
ATOM     74  C   UNL A   1      45.250  33.156  29.191  1.00  0.00     0.057 A 
ATOM     75  C   UNL A   1      45.134  34.200  28.265  1.00  0.00     0.134 A 
ATOM     76  C   UNL A   1      46.078  33.361  30.301  1.00  0.00     0.134 A 
ATOM     77  F   UNL A   1      44.368  34.057  27.172  1.00  0.00    -0.206 F 
ATOM     78  C   UNL A   1      45.827  35.400  28.430  1.00  0.00     0.040 A 
ATOM     79  C   UNL A   1      46.760  34.563  30.488  1.00  0.00     0.040 A 
ATOM     80  F   UNL A   1      46.229  32.400  31.225  1.00  0.00    -0.206 F 
ATOM     81  C   UNL A   1      46.639  35.585  29.547  1.00  0.00     0.006 A 
ENDBRANCH  57  74
ENDBRANCH  31  32
ENDBRANCH  24  26
ENDBRANCH  23  24
ENDBRANCH  22  23
ENDBRANCH   1  22
TORSDOF 14
ENDMDL
MODEL 2
REMARK VINA RESULT:     -11.4      1.012      1.911
REMARK SMILES CC(=O)Oc1c(Cl)cc(-c2ccccc2)cc1C(=O)OCCOC(=O)c1ccc(-c2c3nc(c(-c4c(F)cccc4F)c4ccc([nH]4)c(-c4c(F)cccc4F)c4nc(c(-c5c(F)cccc5F)c5ccc2[nH]5)C=C4)C=C3)cc1
REMARK SMILES IDX 21 1 20 2 18 3 19 4 17 5 5 6 6 7 7 8 8 9 16 10 9 11 4 12
REMARK SMILES IDX 2 13 1 14 3 15 10 16 11 17 15 18 12 19 14 20 13 21 22 22
REMARK SMILES IDX 23 23 24 24 25 25 26 26 27 27 79 28 28 29 78 30 29 31 30 32
REMARK SMILES IDX 31 33 72 34 32 35 77 36 71 37 73 38 33 39 76 40 70 41 69 42
REMARK SMILES IDX 34 44 60 45 43 46 59 47 44 48 47 49 58 50 74 51 45 52 46 53
REMARK SMILES IDX 57 55 75 56 48 57 35 58 36 59 41 60 37 61 38 62 40 63 42 64
REMARK SMILES IDX 39 65 61 66 62 67 67 68 63 69 64 70 66 71 68 72 65 73 49 74
REMARK SMILES IDX 50 75 55 76 51 77 52 78 54 79 56 80 53 81
REMARK H PARENT 73 43 47 54
REMARK Flexibility Score: inf
ROOT
ATOM      1  C   UNL A   1      35.057  21.862  26.514  1.00  0.00     0.275 C 
ENDROOT
BRANCH   1   2
ATOM      2  O   UNL A   1      34.981  23.234  26.073  1.00  0.00    -0.458 OA
BRANCH   2   3
ATOM      3  C   UNL A   1      33.748  23.795  26.095  1.00  0.00     0.342 C 
ATOM      4  O   UNL A   1      32.785  23.408  26.741  1.00  0.00    -0.246 OA
BRANCH   3   5
ATOM      5  C   UNL A   1      33.710  25.046  25.309  1.00  0.00     0.105 A 
ATOM      6  C   UNL A   1      33.630  25.084  23.918  1.00  0.00     0.164 A 
ATOM      7  C   UNL A   1      33.485  26.318  23.265  1.00  0.00     0.085 A 
ATOM      8  Cl  UNL A   1      33.236  26.408  21.558  1.00  0.00    -0.080 Cl
ATOM      9  C   UNL A   1      33.496  27.515  23.995  1.00  0.00     0.033 A 
ATOM     10  C   UNL A   1      33.673  26.250  26.028  1.00  0.00     0.028 A 
ATOM     11  C   UNL A   1      33.608  27.495  25.390  1.00  0.00    -0.016 A 
BRANCH   6  12
ATOM     12  O   UNL A   1      33.577  23.890  23.195  1.00  0.00    -0.424 OA
BRANCH  12  13
ATOM     13  C   UNL A   1      32.292  23.359  23.143  1.00  0.00     0.308 C 
ATOM     14  C   UNL A   1      32.376  21.865  23.047  1.00  0.00     0.139 C 
ATOM     15  O   UNL A   1      31.244  23.992  23.125  1.00  0.00    -0.252 OA
ENDBRANCH  12  13
ENDBRANCH   6  12
BRANCH  11  16
ATOM     16  C   UNL A   1      33.640  28.723  26.194  1.00  0.00    -0.018 A 
ATOM     17  C   UNL A   1      34.783  29.078  26.925  1.00  0.00     0.009 A 
ATOM     18  C   UNL A   1      32.542  29.601  26.199  1.00  0.00     0.009 A 
ATOM     19  C   UNL A   1      34.830  30.283  27.633  1.00  0.00     0.001 A 
ATOM     20  C   UNL A   1      32.589  30.803  26.910  1.00  0.00     0.001 A 
ATOM     21  C   UNL A   1      33.735  31.145  27.624  1.00  0.00     0.000 A 
ENDBRANCH  11  16
ENDBRANCH   3   5
ENDBRANCH   2   3
ENDBRANCH   1   2
BRANCH   1  22
ATOM     22  C   UNL A   1      35.830  21.008  25.512  1.00  0.00     0.275 C 
BRANCH  22  23
ATOM     23  O   UNL A   1      36.974  21.740  25.041  1.00  0.00    -0.458 OA
BRANCH  23  24
ATOM     24  C   UNL A   1      38.173  21.337  25.523  1.00  0.00     0.338 C 
ATOM     25  O   UNL A   1      38.657  20.221  25.482  1.00  0.00    -0.246 OA
BRANCH  24  26
ATOM     26  C   UNL A   1      38.865  22.485  26.137  1.00  0.00     0.060 A 
ATOM     27  C   UNL A   1      38.423  23.780  25.879  1.00  0.00     0.016 A 
ATOM     28  C   UNL A   1      40.025  22.279  26.878  1.00  0.00     0.016 A 
ATOM     29  C   UNL A   1      39.192  24.875  26.267  1.00  0.00     0.010 A 
ATOM     30  C   UNL A   1      40.731  23.381  27.374  1.00  0.00     0.010 A 
ATOM     31  C   UNL A   1      40.345  24.694  27.045  1.00  0.00    -0.014 A 
BRANCH  31  32
ATOM     32  C   UNL A   1      41.150  25.860  27.514  1.00  0.00     0.031 A 
ATOM     33  C   UNL A   1      40.528  26.902  28.409  1.00  0.00     0.074 A 
ATOM     34  C   UNL A   1      42.432  26.010  27.126  1.00  0.00     0.049 A 
ATOM     35  N   UNL A   1      40.973  28.091  28.730  1.00  0.00    -0.248 NA
ATOM     36  C   UNL A   1      39.226  26.570  29.008  1.00  0.00     0.031 C 
ATOM     37  C   UNL A   1      43.189  25.068  26.298  1.00  0.00     0.029 A 
ATOM     38  N   UNL A   1      43.332  27.021  27.375  1.00  0.00    -0.354 N 
ATOM     39  C   UNL A   1      39.976  28.675  29.503  1.00  0.00     0.074 A 
ATOM     40  C   UNL A   1      38.907  27.705  29.615  1.00  0.00     0.031 C 
ATOM     41  C   UNL A   1      44.440  25.522  26.141  1.00  0.00     0.029 A 
ATOM     42  C   UNL A   1      44.551  26.833  26.769  1.00  0.00     0.049 A 
ATOM     43  H   UNL A   1      43.121  27.803  27.933  1.00  0.00     0.167 HD
ATOM     44  C   UNL A   1      39.953  29.910  30.060  1.00  0.00     0.037 A 
ATOM     45  C   UNL A   1      45.622  27.642  26.676  1.00  0.00     0.037 A 
ATOM     46  C   UNL A   1      41.046  30.846  30.009  1.00  0.00     0.049 A 
ATOM     47  C   UNL A   1      45.563  29.016  27.277  1.00  0.00     0.074 A 
ATOM     48  C   UNL A   1      41.134  32.101  30.588  1.00  0.00     0.029 A 
ATOM     49  N   UNL A   1      42.247  30.624  29.353  1.00  0.00    -0.354 N 
ATOM     50  N   UNL A   1      44.596  29.575  27.962  1.00  0.00    -0.248 NA
ATOM     51  C   UNL A   1      46.731  29.883  27.063  1.00  0.00     0.031 C 
ATOM     52  C   UNL A   1      42.376  32.652  30.255  1.00  0.00     0.029 A 
ATOM     53  C   UNL A   1      43.074  31.725  29.499  1.00  0.00     0.049 A 
ATOM     54  H   UNL A   1      42.477  29.805  28.859  1.00  0.00     0.167 HD
ATOM     55  C   UNL A   1      45.039  30.855  28.266  1.00  0.00     0.074 A 
ATOM     56  C   UNL A   1      46.369  30.983  27.709  1.00  0.00     0.031 C 
ATOM     57  C   UNL A   1      44.395  31.839  28.938  1.00  0.00     0.037 A 
BRANCH  44  58
ATOM     58  C   UNL A   1      38.692  30.342  30.750  1.00  0.00     0.057 A 
ATOM     59  C   UNL A   1      37.671  31.025  30.082  1.00  0.00     0.134 A 
ATOM     60  C   UNL A   1      38.480  30.014  32.096  1.00  0.00     0.134 A 
ATOM     61  F   UNL A   1      37.816  31.379  28.797  1.00  0.00    -0.206 F 
ATOM     62  C   UNL A   1      36.487  31.382  30.733  1.00  0.00     0.040 A 
ATOM     63  C   UNL A   1      37.293  30.346  32.751  1.00  0.00     0.040 A 
ATOM     64  F   UNL A   1      39.418  29.353  32.792  1.00  0.00    -0.206 F 
ATOM     65  C   UNL A   1      36.294  31.035  32.070  1.00  0.00     0.006 A 
ENDBRANCH  44  58
BRANCH  45  66
ATOM     66  C   UNL A   1      46.827  27.193  25.934  1.00  0.00     0.057 A 
ATOM     67  C   UNL A   1      47.854  26.497  26.580  1.00  0.00     0.134 A 
ATOM     68  C   UNL A   1      46.979  27.445  24.564  1.00  0.00     0.134 A 
ATOM     69  F   UNL A   1      47.778  26.249  27.895  1.00  0.00    -0.206 F 
ATOM     70  C   UNL A   1      48.991  26.069  25.891  1.00  0.00     0.040 A 
ATOM     71  C   UNL A   1      48.098  27.000  23.859  1.00  0.00     0.040 A 
ATOM     72  F   UNL A   1      46.031  28.110  23.888  1.00  0.00    -0.206 F 
ATOM     73  C   UNL A   1      49.110  26.313  24.525  1.00  0.00     0.006 A 
ENDBRANCH  45  66
BRANCH  57  74
ATOM     74  C   UNL A   1      45.132  33.129  29.126  1.00  0.00     0.057 A 
ATOM     75  C   UNL A   1      45.985  33.334  30.217  1.00  0.00     0.134 A 
ATOM     76  C   UNL A   1      45.008  34.166  28.194  1.00  0.00     0.134 A 
ATOM     77  F   UNL A   1      46.131  32.383  31.153  1.00  0.00    -0.206 F 
ATOM     78  C   UNL A   1      46.678  34.533  30.383  1.00  0.00     0.040 A 
ATOM     79  C   UNL A   1      45.713  35.361  28.338  1.00  0.00     0.040 A 
ATOM     80  F   UNL A   1      44.210  34.029  27.124  1.00  0.00    -0.206 F 
ATOM     81  C   UNL A   1      46.547  35.549  29.438  1.00  0.00     0.006 A 
ENDBRANCH  57  74
ENDBRANCH  31  32
ENDBRANCH  24  26
ENDBRANCH  23  24
ENDBRANCH  22  23
ENDBRANCH   1  22
TORSDOF 14
ENDMDL
MODEL 3
REMARK VINA RESULT:     -11.4      3.769      8.605
REMARK SMILES CC(=O)Oc1c(Cl)cc(-c2ccccc2)cc1C(=O)OCCOC(=O)c1ccc(-c2c3nc(c(-c4c(F)cccc4F)c4ccc([nH]4)c(-c4c(F)cccc4F)c4nc(c(-c5c(F)cccc5F)c5ccc2[nH]5)C=C4)C=C3)cc1
REMARK SMILES IDX 21 1 20 2 18 3 19 4 17 5 5 6 6 7 7 8 8 9 16 10 9 11 4 12
REMARK SMILES IDX 2 13 1 14 3 15 10 16 11 17 15 18 12 19 14 20 13 21 22 22
REMARK SMILES IDX 23 23 24 24 25 25 26 26 27 27 79 28 28 29 78 30 29 31 30 32
REMARK SMILES IDX 31 33 72 34 32 35 77 36 71 37 73 38 33 39 76 40 70 41 69 42
REMARK SMILES IDX 34 44 60 45 43 46 59 47 44 48 47 49 58 50 74 51 45 52 46 53
REMARK SMILES IDX 57 55 75 56 48 57 35 58 36 59 41 60 37 61 38 62 40 63 42 64
REMARK SMILES IDX 39 65 61 66 62 67 67 68 63 69 64 70 66 71 68 72 65 73 49 74
REMARK SMILES IDX 50 75 55 76 51 77 52 78 54 79 56 80 53 81
REMARK H PARENT 73 43 47 54
REMARK Flexibility Score: inf
ROOT
ATOM      1  C   UNL A   1      32.114  28.444  24.400  1.00  0.00     0.275 C 
ENDROOT
BRANCH   1   2
ATOM      2  O   UNL A   1      33.235  27.696  24.919  1.00  0.00    -0.458 OA
BRANCH   2   3
ATOM      3  C   UNL A   1      32.937  26.505  25.492  1.00  0.00     0.342 C 
ATOM      4  O   UNL A   1      32.202  26.323  26.450  1.00  0.00    -0.246 OA
BRANCH   3   5
ATOM      5  C   UNL A   1      33.532  25.381  24.738  1.00  0.00     0.105 A 
ATOM      6  C   UNL A   1      33.001  24.878  23.551  1.00  0.00     0.164 A 
ATOM      7  C   UNL A   1      33.696  23.884  22.846  1.00  0.00     0.085 A 
ATOM      8  Cl  UNL A   1      33.156  23.333  21.300  1.00  0.00    -0.080 Cl
ATOM      9  C   UNL A   1      34.879  23.340  23.365  1.00  0.00     0.033 A 
ATOM     10  C   UNL A   1      34.740  24.858  25.220  1.00  0.00     0.028 A 
ATOM     11  C   UNL A   1      35.407  23.810  24.572  1.00  0.00    -0.016 A 
BRANCH   6  12
ATOM     12  O   UNL A   1      31.845  25.451  23.013  1.00  0.00    -0.424 OA
BRANCH  12  13
ATOM     13  C   UNL A   1      30.685  24.855  23.497  1.00  0.00     0.308 C 
ATOM     14  C   UNL A   1      29.704  25.922  23.883  1.00  0.00     0.139 C 
ATOM     15  O   UNL A   1      30.488  23.656  23.641  1.00  0.00    -0.252 OA
ENDBRANCH  12  13
ENDBRANCH   6  12
BRANCH  11  16
ATOM     16  C   UNL A   1      36.634  23.260  25.162  1.00  0.00    -0.018 A 
ATOM     17  C   UNL A   1      37.048  21.951  24.876  1.00  0.00     0.009 A 
ATOM     18  C   UNL A   1      37.453  24.057  25.981  1.00  0.00     0.009 A 
ATOM     19  C   UNL A   1      38.253  21.457  25.385  1.00  0.00     0.001 A 
ATOM     20  C   UNL A   1      38.655  23.562  26.493  1.00  0.00     0.001 A 
ATOM     21  C   UNL A   1      39.056  22.262  26.192  1.00  0.00     0.000 A 
ENDBRANCH  11  16
ENDBRANCH   3   5
ENDBRANCH   2   3
ENDBRANCH   1   2
BRANCH   1  22
ATOM     22  C   UNL A   1      31.784  29.629  25.304  1.00  0.00     0.275 C 
BRANCH  22  23
ATOM     23  O   UNL A   1      32.972  30.406  25.529  1.00  0.00    -0.458 OA
BRANCH  23  24
ATOM     24  C   UNL A   1      33.037  31.058  26.713  1.00  0.00     0.338 C 
ATOM     25  O   UNL A   1      32.178  31.746  27.233  1.00  0.00    -0.246 OA
BRANCH  24  26
ATOM     26  C   UNL A   1      34.351  30.816  27.335  1.00  0.00     0.060 A 
ATOM     27  C   UNL A   1      34.739  29.516  27.651  1.00  0.00     0.016 A 
ATOM     28  C   UNL A   1      35.151  31.892  27.709  1.00  0.00     0.016 A 
ATOM     29  C   UNL A   1      35.870  29.292  28.434  1.00  0.00     0.010 A 
ATOM     30  C   UNL A   1      36.351  31.656  28.387  1.00  0.00     0.010 A 
ATOM     31  C   UNL A   1      36.710  30.356  28.791  1.00  0.00    -0.014 A 
BRANCH  31  32
ATOM     32  C   UNL A   1      37.953  30.125  29.583  1.00  0.00     0.031 A 
ATOM     33  C   UNL A   1      39.069  29.282  29.018  1.00  0.00     0.074 A 
ATOM     34  C   UNL A   1      38.086  30.645  30.821  1.00  0.00     0.049 A 
ATOM     35  N   UNL A   1      40.111  28.773  29.625  1.00  0.00    -0.248 NA
ATOM     36  C   UNL A   1      38.991  28.955  27.586  1.00  0.00     0.031 C 
ATOM     37  C   UNL A   1      37.116  31.516  31.489  1.00  0.00     0.029 A 
ATOM     38  N   UNL A   1      39.097  30.512  31.744  1.00  0.00    -0.354 N 
ATOM     39  C   UNL A   1      40.771  28.007  28.670  1.00  0.00     0.074 A 
ATOM     40  C   UNL A   1      40.018  28.128  27.440  1.00  0.00     0.031 C 
ATOM     41  C   UNL A   1      37.593  31.869  32.691  1.00  0.00     0.029 A 
ATOM     42  C   UNL A   1      38.852  31.173  32.924  1.00  0.00     0.049 A 
ATOM     43  H   UNL A   1      39.916  29.994  31.576  1.00  0.00     0.167 HD
ATOM     44  C   UNL A   1      41.895  27.265  28.813  1.00  0.00     0.037 A 
ATOM     45  C   UNL A   1      39.529  31.179  34.087  1.00  0.00     0.037 A 
ATOM     46  C   UNL A   1      42.683  27.204  30.016  1.00  0.00     0.049 A 
ATOM     47  C   UNL A   1      40.757  30.327  34.230  1.00  0.00     0.074 A 
ATOM     48  C   UNL A   1      43.867  26.520  30.238  1.00  0.00     0.029 A 
ATOM     49  N   UNL A   1      42.376  27.862  31.197  1.00  0.00    -0.354 N 
ATOM     50  N   UNL A   1      41.342  29.567  33.336  1.00  0.00    -0.248 NA
ATOM     51  C   UNL A   1      41.399  30.307  35.552  1.00  0.00     0.031 C 
ATOM     52  C   UNL A   1      44.258  26.738  31.563  1.00  0.00     0.029 A 
ATOM     53  C   UNL A   1      43.337  27.586  32.155  1.00  0.00     0.049 A 
ATOM     54  H   UNL A   1      41.591  28.441  31.333  1.00  0.00     0.167 HD
ATOM     55  C   UNL A   1      42.422  28.984  33.984  1.00  0.00     0.074 A 
ATOM     56  C   UNL A   1      42.424  29.494  35.339  1.00  0.00     0.031 C 
ATOM     57  C   UNL A   1      43.325  28.099  33.500  1.00  0.00     0.037 A 
BRANCH  44  58
ATOM     58  C   UNL A   1      42.332  26.428  27.647  1.00  0.00     0.057 A 
ATOM     59  C   UNL A   1      43.204  26.909  26.665  1.00  0.00     0.134 A 
ATOM     60  C   UNL A   1      41.913  25.094  27.543  1.00  0.00     0.134 A 
ATOM     61  F   UNL A   1      43.633  28.180  26.700  1.00  0.00    -0.206 F 
ATOM     62  C   UNL A   1      43.631  26.099  25.610  1.00  0.00     0.040 A 
ATOM     63  C   UNL A   1      42.350  24.268  26.506  1.00  0.00     0.040 A 
ATOM     64  F   UNL A   1      41.082  24.568  28.456  1.00  0.00    -0.206 F 
ATOM     65  C   UNL A   1      43.210  24.772  25.534  1.00  0.00     0.006 A 
ENDBRANCH  44  58
BRANCH  45  66
ATOM     66  C   UNL A   1      39.027  31.978  35.233  1.00  0.00     0.057 A 
ATOM     67  C   UNL A   1      38.256  31.389  36.240  1.00  0.00     0.134 A 
ATOM     68  C   UNL A   1      39.307  33.346  35.350  1.00  0.00     0.134 A 
ATOM     69  F   UNL A   1      37.932  30.090  36.170  1.00  0.00    -0.206 F 
ATOM     70  C   UNL A   1      37.779  32.131  37.323  1.00  0.00     0.040 A 
ATOM     71  C   UNL A   1      38.860  34.093  36.440  1.00  0.00     0.040 A 
ATOM     72  F   UNL A   1      40.040  33.970  34.416  1.00  0.00    -0.206 F 
ATOM     73  C   UNL A   1      38.089  33.486  37.428  1.00  0.00     0.006 A 
ENDBRANCH  45  66
BRANCH  57  74
ATOM     74  C   UNL A   1      44.402  27.644  34.437  1.00  0.00     0.057 A 
ATOM     75  C   UNL A   1      44.256  26.492  35.217  1.00  0.00     0.134 A 
ATOM     76  C   UNL A   1      45.606  28.351  34.539  1.00  0.00     0.134 A 
ATOM     77  F   UNL A   1      43.117  25.782  35.175  1.00  0.00    -0.206 F 
ATOM     78  C   UNL A   1      45.265  26.065  36.081  1.00  0.00     0.040 A 
ATOM     79  C   UNL A   1      46.631  27.923  35.383  1.00  0.00     0.040 A 
ATOM     80  F   UNL A   1      45.809  29.461  33.814  1.00  0.00    -0.206 F 
ATOM     81  C   UNL A   1      46.459  26.779  36.161  1.00  0.00     0.006 A 
ENDBRANCH  57  74
ENDBRANCH  31  32
ENDBRANCH  24  26
ENDBRANCH  23  24
ENDBRANCH  22  23
ENDBRANCH   1  22
TORSDOF 14
ENDMDL
