MODEL 1
REMARK VINA RESULT:     -11.2      0.000      0.000
REMARK SMILES CC[C@H]1CCCC[C@@H]1Sc1csc(C(=O)OCCOC(=O)c2ccc(-c3c4nc(c(-c5c(F)cccc5F)c5ccc([nH]5)c(-c5c(F)cccc5F)c5nc(c(-c6c(F)cccc6F)c6ccc3[nH]6)C=C5)C=C4)cc2)c1
REMARK SMILES IDX 17 1 16 2 14 3 15 4 13 5 10 6 11 7 76 8 12 9 9 10 8 11 3 12
REMARK SMILES IDX 4 13 5 14 7 15 6 16 2 17 1 18 18 19 19 20 20 21 21 22 22 23
REMARK SMILES IDX 23 24 75 25 24 26 74 27 25 28 26 29 27 30 68 31 28 32 73 33
REMARK SMILES IDX 67 34 69 35 29 36 72 37 66 38 65 39 30 41 56 42 39 43 55 44
REMARK SMILES IDX 40 45 43 46 54 47 70 48 41 49 42 50 53 52 71 53 44 54 31 55
REMARK SMILES IDX 32 56 37 57 33 58 34 59 36 60 38 61 35 62 57 63 58 64 63 65
REMARK SMILES IDX 59 66 60 67 62 68 64 69 61 70 45 71 46 72 51 73 47 74 48 75
REMARK SMILES IDX 50 76 52 77 49 78
REMARK H PARENT 69 40 43 51
REMARK Flexibility Score: inf
ROOT
ATOM      1  C   UNL A   1      42.590  20.895  26.023  1.00  0.00     0.275 C 
ENDROOT
BRANCH   1   2
ATOM      2  O   UNL A   1      41.254  21.286  25.647  1.00  0.00    -0.458 OA
BRANCH   2   3
ATOM      3  C   UNL A   1      40.358  21.401  26.675  1.00  0.00     0.348 C 
ATOM      4  O   UNL A   1      40.586  21.041  27.821  1.00  0.00    -0.245 OA
BRANCH   3   5
ATOM      5  C   UNL A   1      39.137  22.049  26.220  1.00  0.00     0.113 A 
ATOM      6  C   UNL A   1      37.092  22.563  25.197  1.00  0.00     0.019 A 
ATOM      7  C   UNL A   1      37.430  23.777  25.742  1.00  0.00     0.080 A 
ATOM      8  C   UNL A   1      38.094  21.572  25.445  1.00  0.00     0.042 A 
ATOM      9  S   UNL A   1      38.846  23.679  26.689  1.00  0.00    -0.136 S 
BRANCH   6  10
ATOM     10  S   UNL A   1      35.622  22.164  24.321  1.00  0.00    -0.122 SA
BRANCH  10  11
ATOM     11  C   UNL A   1      34.766  20.902  25.358  1.00  0.00     0.055 C 
ATOM     12  C   UNL A   1      33.699  20.156  24.502  1.00  0.00     0.002 C 
ATOM     13  C   UNL A   1      32.525  21.088  24.150  1.00  0.00     0.005 C 
ATOM     14  C   UNL A   1      31.890  21.717  25.387  1.00  0.00     0.000 C 
ATOM     15  C   UNL A   1      34.125  21.559  26.594  1.00  0.00     0.015 C 
ATOM     16  C   UNL A   1      32.914  22.433  26.262  1.00  0.00     0.001 C 
BRANCH  12  17
ATOM     17  C   UNL A   1      33.248  18.856  25.221  1.00  0.00     0.001 C 
ATOM     18  C   UNL A   1      32.375  17.937  24.377  1.00  0.00     0.004 C 
ENDBRANCH  12  17
ENDBRANCH  10  11
ENDBRANCH   6  10
ENDBRANCH   3   5
ENDBRANCH   2   3
ENDBRANCH   1   2
BRANCH   1  19
ATOM     19  C   UNL A   1      43.663  21.771  25.366  1.00  0.00     0.275 C 
BRANCH  19  20
ATOM     20  O   UNL A   1      43.127  23.024  24.899  1.00  0.00    -0.458 OA
BRANCH  20  21
ATOM     21  C   UNL A   1      43.890  24.106  25.171  1.00  0.00     0.338 C 
ATOM     22  O   UNL A   1      44.928  24.437  24.622  1.00  0.00    -0.246 OA
BRANCH  21  23
ATOM     23  C   UNL A   1      43.224  24.961  26.166  1.00  0.00     0.060 A 
ATOM     24  C   UNL A   1      43.594  26.303  26.195  1.00  0.00     0.016 A 
ATOM     25  C   UNL A   1      42.372  24.446  27.140  1.00  0.00     0.016 A 
ATOM     26  C   UNL A   1      43.143  27.141  27.208  1.00  0.00     0.010 A 
ATOM     27  C   UNL A   1      41.889  25.298  28.146  1.00  0.00     0.010 A 
ATOM     28  C   UNL A   1      42.285  26.648  28.199  1.00  0.00    -0.014 A 
BRANCH  28  29
ATOM     29  C   UNL A   1      41.861  27.545  29.308  1.00  0.00     0.031 A 
ATOM     30  C   UNL A   1      42.623  27.556  30.606  1.00  0.00     0.074 A 
ATOM     31  C   UNL A   1      40.822  28.387  29.137  1.00  0.00     0.049 A 
ATOM     32  N   UNL A   1      42.352  28.185  31.722  1.00  0.00    -0.248 NA
ATOM     33  C   UNL A   1      43.854  26.752  30.654  1.00  0.00     0.031 C 
ATOM     34  C   UNL A   1      40.037  28.523  27.910  1.00  0.00     0.029 A 
ATOM     35  N   UNL A   1      40.250  29.292  29.998  1.00  0.00    -0.354 N 
ATOM     36  C   UNL A   1      43.359  27.830  32.612  1.00  0.00     0.074 A 
ATOM     37  C   UNL A   1      44.235  26.914  31.913  1.00  0.00     0.031 C 
ATOM     38  C   UNL A   1      39.098  29.465  28.090  1.00  0.00     0.029 A 
ATOM     39  C   UNL A   1      39.166  29.948  29.465  1.00  0.00     0.049 A 
ATOM     40  H   UNL A   1      40.586  29.457  30.909  1.00  0.00     0.167 HD
ATOM     41  C   UNL A   1      43.540  28.236  33.892  1.00  0.00     0.037 A 
ATOM     42  C   UNL A   1      38.298  30.808  30.031  1.00  0.00     0.037 A 
ATOM     43  C   UNL A   1      42.677  29.166  34.577  1.00  0.00     0.049 A 
ATOM     44  C   UNL A   1      38.474  31.181  31.476  1.00  0.00     0.074 A 
ATOM     45  C   UNL A   1      42.772  29.635  35.876  1.00  0.00     0.029 A 
ATOM     46  N   UNL A   1      41.565  29.774  34.014  1.00  0.00    -0.354 N 
ATOM     47  N   UNL A   1      39.411  30.815  32.318  1.00  0.00    -0.248 NA
ATOM     48  C   UNL A   1      37.466  32.080  32.056  1.00  0.00     0.031 C 
ATOM     49  C   UNL A   1      41.690  30.491  36.114  1.00  0.00     0.029 A 
ATOM     50  C   UNL A   1      40.954  30.599  34.945  1.00  0.00     0.049 A 
ATOM     51  H   UNL A   1      41.255  29.639  33.090  1.00  0.00     0.167 HD
ATOM     52  C   UNL A   1      39.121  31.457  33.514  1.00  0.00     0.074 A 
ATOM     53  C   UNL A   1      37.931  32.251  33.285  1.00  0.00     0.031 C 
ATOM     54  C   UNL A   1      39.778  31.393  34.699  1.00  0.00     0.037 A 
BRANCH  41  55
ATOM     55  C   UNL A   1      44.700  27.654  34.650  1.00  0.00     0.057 A 
ATOM     56  C   UNL A   1      45.935  28.307  34.739  1.00  0.00     0.134 A 
ATOM     57  C   UNL A   1      44.566  26.435  35.327  1.00  0.00     0.134 A 
ATOM     58  F   UNL A   1      46.134  29.473  34.104  1.00  0.00    -0.206 F 
ATOM     59  C   UNL A   1      47.003  27.758  35.451  1.00  0.00     0.040 A 
ATOM     60  C   UNL A   1      45.618  25.889  36.067  1.00  0.00     0.040 A 
ATOM     61  F   UNL A   1      43.408  25.758  35.292  1.00  0.00    -0.206 F 
ATOM     62  C   UNL A   1      46.843  26.547  36.124  1.00  0.00     0.006 A 
ENDBRANCH  41  55
BRANCH  42  63
ATOM     63  C   UNL A   1      37.154  31.341  29.245  1.00  0.00     0.057 A 
ATOM     64  C   UNL A   1      37.171  32.640  28.725  1.00  0.00     0.134 A 
ATOM     65  C   UNL A   1      36.004  30.574  29.021  1.00  0.00     0.134 A 
ATOM     66  F   UNL A   1      38.231  33.435  28.926  1.00  0.00    -0.206 F 
ATOM     67  C   UNL A   1      36.079  33.163  28.029  1.00  0.00     0.040 A 
ATOM     68  C   UNL A   1      34.919  31.071  28.300  1.00  0.00     0.040 A 
ATOM     69  F   UNL A   1      35.923  29.320  29.492  1.00  0.00    -0.206 F 
ATOM     70  C   UNL A   1      34.950  32.375  27.810  1.00  0.00     0.006 A 
ENDBRANCH  42  63
BRANCH  54  71
ATOM     71  C   UNL A   1      39.251  32.241  35.820  1.00  0.00     0.057 A 
ATOM     72  C   UNL A   1      39.643  33.574  35.992  1.00  0.00     0.134 A 
ATOM     73  C   UNL A   1      38.314  31.721  36.724  1.00  0.00     0.134 A 
ATOM     74  F   UNL A   1      40.548  34.127  35.170  1.00  0.00    -0.206 F 
ATOM     75  C   UNL A   1      39.144  34.352  37.037  1.00  0.00     0.040 A 
ATOM     76  C   UNL A   1      37.786  32.498  37.755  1.00  0.00     0.040 A 
ATOM     77  F   UNL A   1      37.889  30.453  36.612  1.00  0.00    -0.206 F 
ATOM     78  C   UNL A   1      38.207  33.816  37.918  1.00  0.00     0.006 A 
ENDBRANCH  54  71
ENDBRANCH  28  29
ENDBRANCH  21  23
ENDBRANCH  20  21
ENDBRANCH  19  20
ENDBRANCH   1  19
TORSDOF 14
ENDMDL
MODEL 2
REMARK VINA RESULT:     -11.0      5.548     11.251
REMARK SMILES CC[C@H]1CCCC[C@@H]1Sc1csc(C(=O)OCCOC(=O)c2ccc(-c3c4nc(c(-c5c(F)cccc5F)c5ccc([nH]5)c(-c5c(F)cccc5F)c5nc(c(-c6c(F)cccc6F)c6ccc3[nH]6)C=C5)C=C4)cc2)c1
REMARK SMILES IDX 17 1 16 2 14 3 15 4 13 5 10 6 11 7 76 8 12 9 9 10 8 11 3 12
REMARK SMILES IDX 4 13 5 14 7 15 6 16 2 17 1 18 18 19 19 20 20 21 21 22 22 23
REMARK SMILES IDX 23 24 75 25 24 26 74 27 25 28 26 29 27 30 68 31 28 32 73 33
REMARK SMILES IDX 67 34 69 35 29 36 72 37 66 38 65 39 30 41 56 42 39 43 55 44
REMARK SMILES IDX 40 45 43 46 54 47 70 48 41 49 42 50 53 52 71 53 44 54 31 55
REMARK SMILES IDX 32 56 37 57 33 58 34 59 36 60 38 61 35 62 57 63 58 64 63 65
REMARK SMILES IDX 59 66 60 67 62 68 64 69 61 70 45 71 46 72 51 73 47 74 48 75
REMARK SMILES IDX 50 76 52 77 49 78
REMARK H PARENT 69 40 43 51
REMARK Flexibility Score: inf
ROOT
ATOM      1  C   UNL A   1      33.695  33.963  28.004  1.00  0.00     0.275 C 
ENDROOT
BRANCH   1   2
ATOM      2  O   UNL A   1      32.899  34.242  29.174  1.00  0.00    -0.458 OA
BRANCH   2   3
ATOM      3  C   UNL A   1      32.880  35.549  29.581  1.00  0.00     0.348 C 
ATOM      4  O   UNL A   1      32.359  36.453  28.944  1.00  0.00    -0.245 OA
BRANCH   3   5
ATOM      5  C   UNL A   1      33.517  35.690  30.882  1.00  0.00     0.113 A 
ATOM      6  C   UNL A   1      34.690  35.335  32.879  1.00  0.00     0.019 A 
ATOM      7  C   UNL A   1      34.170  36.587  33.095  1.00  0.00     0.080 A 
ATOM      8  C   UNL A   1      34.286  34.802  31.614  1.00  0.00     0.042 A 
ATOM      9  S   UNL A   1      33.355  37.184  31.720  1.00  0.00    -0.136 S 
BRANCH   6  10
ATOM     10  S   UNL A   1      35.757  34.430  33.942  1.00  0.00    -0.122 SA
BRANCH  10  11
ATOM     11  C   UNL A   1      37.429  34.553  33.173  1.00  0.00     0.055 C 
ATOM     12  C   UNL A   1      37.466  33.716  31.861  1.00  0.00     0.002 C 
ATOM     13  C   UNL A   1      37.398  32.208  32.169  1.00  0.00     0.005 C 
ATOM     14  C   UNL A   1      38.493  31.760  33.132  1.00  0.00     0.000 C 
ATOM     15  C   UNL A   1      38.516  34.089  34.159  1.00  0.00     0.015 C 
ATOM     16  C   UNL A   1      38.501  32.581  34.418  1.00  0.00     0.001 C 
BRANCH  12  17
ATOM     17  C   UNL A   1      38.704  34.107  31.009  1.00  0.00     0.001 C 
ATOM     18  C   UNL A   1      38.418  34.291  29.525  1.00  0.00     0.004 C 
ENDBRANCH  12  17
ENDBRANCH  10  11
ENDBRANCH   6  10
ENDBRANCH   3   5
ENDBRANCH   2   3
ENDBRANCH   1   2
BRANCH   1  19
ATOM     19  C   UNL A   1      34.963  33.167  28.335  1.00  0.00     0.275 C 
BRANCH  19  20
ATOM     20  O   UNL A   1      34.669  31.953  29.052  1.00  0.00    -0.458 OA
BRANCH  20  21
ATOM     21  C   UNL A   1      34.699  30.828  28.302  1.00  0.00     0.338 C 
ATOM     22  O   UNL A   1      33.825  30.410  27.561  1.00  0.00    -0.246 OA
BRANCH  21  23
ATOM     23  C   UNL A   1      36.028  30.202  28.378  1.00  0.00     0.060 A 
ATOM     24  C   UNL A   1      36.425  29.710  29.618  1.00  0.00     0.016 A 
ATOM     25  C   UNL A   1      36.923  30.222  27.311  1.00  0.00     0.016 A 
ATOM     26  C   UNL A   1      37.723  29.258  29.819  1.00  0.00     0.010 A 
ATOM     27  C   UNL A   1      38.226  29.737  27.502  1.00  0.00     0.010 A 
ATOM     28  C   UNL A   1      38.643  29.268  28.763  1.00  0.00    -0.014 A 
BRANCH  28  29
ATOM     29  C   UNL A   1      40.045  28.836  29.013  1.00  0.00     0.031 A 
ATOM     30  C   UNL A   1      41.011  29.762  29.701  1.00  0.00     0.074 A 
ATOM     31  C   UNL A   1      40.442  27.594  28.669  1.00  0.00     0.049 A 
ATOM     32  N   UNL A   1      42.294  29.614  29.915  1.00  0.00    -0.248 NA
ATOM     33  C   UNL A   1      40.459  31.026  30.216  1.00  0.00     0.031 C 
ATOM     34  C   UNL A   1      39.591  26.575  28.053  1.00  0.00     0.029 A 
ATOM     35  N   UNL A   1      41.662  26.976  28.792  1.00  0.00    -0.354 N 
ATOM     36  C   UNL A   1      42.708  30.773  30.560  1.00  0.00     0.074 A 
ATOM     37  C   UNL A   1      41.544  31.625  30.684  1.00  0.00     0.031 C 
ATOM     38  C   UNL A   1      40.308  25.456  27.867  1.00  0.00     0.029 A 
ATOM     39  C   UNL A   1      41.686  25.700  28.281  1.00  0.00     0.049 A 
ATOM     40  H   UNL A   1      42.445  27.406  29.207  1.00  0.00     0.167 HD
ATOM     41  C   UNL A   1      43.944  31.093  31.015  1.00  0.00     0.037 A 
ATOM     42  C   UNL A   1      42.709  24.839  28.124  1.00  0.00     0.037 A 
ATOM     43  C   UNL A   1      45.095  30.232  30.910  1.00  0.00     0.049 A 
ATOM     44  C   UNL A   1      44.086  25.250  28.564  1.00  0.00     0.074 A 
ATOM     45  C   UNL A   1      46.392  30.469  31.333  1.00  0.00     0.029 A 
ATOM     46  N   UNL A   1      45.085  28.965  30.347  1.00  0.00    -0.354 N 
ATOM     47  N   UNL A   1      44.474  26.361  29.144  1.00  0.00    -0.248 NA
ATOM     48  C   UNL A   1      45.174  24.293  28.318  1.00  0.00     0.031 C 
ATOM     49  C   UNL A   1      47.177  29.364  30.985  1.00  0.00     0.029 A 
ATOM     50  C   UNL A   1      46.356  28.415  30.395  1.00  0.00     0.049 A 
ATOM     51  H   UNL A   1      44.292  28.521  29.969  1.00  0.00     0.167 HD
ATOM     52  C   UNL A   1      45.839  26.225  29.355  1.00  0.00     0.074 A 
ATOM     53  C   UNL A   1      46.211  24.917  28.858  1.00  0.00     0.031 C 
ATOM     54  C   UNL A   1      46.709  27.106  29.908  1.00  0.00     0.037 A 
BRANCH  41  55
ATOM     55  C   UNL A   1      44.125  32.447  31.641  1.00  0.00     0.057 A 
ATOM     56  C   UNL A   1      43.983  32.656  33.019  1.00  0.00     0.134 A 
ATOM     57  C   UNL A   1      44.479  33.552  30.856  1.00  0.00     0.134 A 
ATOM     58  F   UNL A   1      43.634  31.643  33.827  1.00  0.00    -0.206 F 
ATOM     59  C   UNL A   1      44.160  33.918  33.589  1.00  0.00     0.040 A 
ATOM     60  C   UNL A   1      44.687  34.814  31.419  1.00  0.00     0.040 A 
ATOM     61  F   UNL A   1      44.640  33.424  29.531  1.00  0.00    -0.206 F 
ATOM     62  C   UNL A   1      44.521  35.001  32.788  1.00  0.00     0.006 A 
ENDBRANCH  41  55
BRANCH  42  63
ATOM     63  C   UNL A   1      42.483  23.519  27.480  1.00  0.00     0.057 A 
ATOM     64  C   UNL A   1      42.202  22.376  28.238  1.00  0.00     0.134 A 
ATOM     65  C   UNL A   1      42.571  23.361  26.091  1.00  0.00     0.134 A 
ATOM     66  F   UNL A   1      42.129  22.455  29.575  1.00  0.00    -0.206 F 
ATOM     67  C   UNL A   1      42.038  21.125  27.642  1.00  0.00     0.040 A 
ATOM     68  C   UNL A   1      42.378  22.123  25.478  1.00  0.00     0.040 A 
ATOM     69  F   UNL A   1      42.838  24.416  25.305  1.00  0.00    -0.206 F 
ATOM     70  C   UNL A   1      42.121  20.997  26.256  1.00  0.00     0.006 A 
ENDBRANCH  42  63
BRANCH  54  71
ATOM     71  C   UNL A   1      48.137  26.662  30.047  1.00  0.00     0.057 A 
ATOM     72  C   UNL A   1      48.587  25.947  31.163  1.00  0.00     0.134 A 
ATOM     73  C   UNL A   1      49.066  26.931  29.033  1.00  0.00     0.134 A 
ATOM     74  F   UNL A   1      47.752  25.670  32.175  1.00  0.00    -0.206 F 
ATOM     75  C   UNL A   1      49.916  25.538  31.279  1.00  0.00     0.040 A 
ATOM     76  C   UNL A   1      50.390  26.502  29.124  1.00  0.00     0.040 A 
ATOM     77  F   UNL A   1      48.699  27.606  27.932  1.00  0.00    -0.206 F 
ATOM     78  C   UNL A   1      50.820  25.809  30.253  1.00  0.00     0.006 A 
ENDBRANCH  54  71
ENDBRANCH  28  29
ENDBRANCH  21  23
ENDBRANCH  20  21
ENDBRANCH  19  20
ENDBRANCH   1  19
TORSDOF 14
ENDMDL
MODEL 3
REMARK VINA RESULT:     -10.7      4.880      7.259
REMARK SMILES CC[C@H]1CCCC[C@@H]1Sc1csc(C(=O)OCCOC(=O)c2ccc(-c3c4nc(c(-c5c(F)cccc5F)c5ccc([nH]5)c(-c5c(F)cccc5F)c5nc(c(-c6c(F)cccc6F)c6ccc3[nH]6)C=C5)C=C4)cc2)c1
REMARK SMILES IDX 17 1 16 2 14 3 15 4 13 5 10 6 11 7 76 8 12 9 9 10 8 11 3 12
REMARK SMILES IDX 4 13 5 14 7 15 6 16 2 17 1 18 18 19 19 20 20 21 21 22 22 23
REMARK SMILES IDX 23 24 75 25 24 26 74 27 25 28 26 29 27 30 68 31 28 32 73 33
REMARK SMILES IDX 67 34 69 35 29 36 72 37 66 38 65 39 30 41 56 42 39 43 55 44
REMARK SMILES IDX 40 45 43 46 54 47 70 48 41 49 42 50 53 52 71 53 44 54 31 55
REMARK SMILES IDX 32 56 37 57 33 58 34 59 36 60 38 61 35 62 57 63 58 64 63 65
REMARK SMILES IDX 59 66 60 67 62 68 64 69 61 70 45 71 46 72 51 73 47 74 48 75
REMARK SMILES IDX 50 76 52 77 49 78
REMARK H PARENT 69 40 43 51
REMARK Flexibility Score: inf
ROOT
ATOM      1  C   UNL A   1      42.364  19.274  26.838  1.00  0.00     0.275 C 
ENDROOT
BRANCH   1   2
ATOM      2  O   UNL A   1      41.643  20.400  26.298  1.00  0.00    -0.458 OA
BRANCH   2   3
ATOM      3  C   UNL A   1      40.331  20.168  25.983  1.00  0.00     0.348 C 
ATOM      4  O   UNL A   1      39.887  19.070  25.681  1.00  0.00    -0.245 OA
BRANCH   3   5
ATOM      5  C   UNL A   1      39.550  21.390  26.107  1.00  0.00     0.113 A 
ATOM      6  C   UNL A   1      37.918  23.063  25.931  1.00  0.00     0.019 A 
ATOM      7  C   UNL A   1      38.899  23.720  26.631  1.00  0.00     0.080 A 
ATOM      8  C   UNL A   1      38.308  21.726  25.599  1.00  0.00     0.042 A 
ATOM      9  S   UNL A   1      40.195  22.687  27.037  1.00  0.00    -0.136 S 
BRANCH   6  10
ATOM     10  S   UNL A   1      36.336  23.681  25.482  1.00  0.00    -0.122 SA
BRANCH  10  11
ATOM     11  C   UNL A   1      35.134  22.406  26.056  1.00  0.00     0.055 C 
ATOM     12  C   UNL A   1      34.463  21.726  24.826  1.00  0.00     0.002 C 
ATOM     13  C   UNL A   1      33.522  22.706  24.101  1.00  0.00     0.005 C 
ATOM     14  C   UNL A   1      32.473  23.304  25.034  1.00  0.00     0.000 C 
ATOM     15  C   UNL A   1      34.081  23.033  26.988  1.00  0.00     0.015 C 
ATOM     16  C   UNL A   1      33.098  23.955  26.264  1.00  0.00     0.001 C 
BRANCH  12  17
ATOM     17  C   UNL A   1      33.756  20.413  25.259  1.00  0.00     0.001 C 
ATOM     18  C   UNL A   1      34.321  19.151  24.622  1.00  0.00     0.004 C 
ENDBRANCH  12  17
ENDBRANCH  10  11
ENDBRANCH   6  10
ENDBRANCH   3   5
ENDBRANCH   2   3
ENDBRANCH   1   2
BRANCH   1  19
ATOM     19  C   UNL A   1      43.113  18.485  25.757  1.00  0.00     0.275 C 
BRANCH  19  20
ATOM     20  O   UNL A   1      43.386  19.289  24.594  1.00  0.00    -0.458 OA
BRANCH  20  21
ATOM     21  C   UNL A   1      44.697  19.527  24.362  1.00  0.00     0.338 C 
ATOM     22  O   UNL A   1      45.515  18.759  23.883  1.00  0.00    -0.246 OA
BRANCH  21  23
ATOM     23  C   UNL A   1      45.014  20.936  24.640  1.00  0.00     0.060 A 
ATOM     24  C   UNL A   1      45.506  21.235  25.908  1.00  0.00     0.016 A 
ATOM     25  C   UNL A   1      44.707  21.960  23.747  1.00  0.00     0.016 A 
ATOM     26  C   UNL A   1      45.671  22.555  26.311  1.00  0.00     0.010 A 
ATOM     27  C   UNL A   1      44.903  23.293  24.140  1.00  0.00     0.010 A 
ATOM     28  C   UNL A   1      45.370  23.602  25.432  1.00  0.00    -0.014 A 
BRANCH  28  29
ATOM     29  C   UNL A   1      45.497  25.008  25.902  1.00  0.00     0.031 A 
ATOM     30  C   UNL A   1      46.820  25.719  25.814  1.00  0.00     0.074 A 
ATOM     31  C   UNL A   1      44.415  25.668  26.361  1.00  0.00     0.049 A 
ATOM     32  N   UNL A   1      47.160  26.901  26.264  1.00  0.00    -0.248 NA
ATOM     33  C   UNL A   1      47.909  25.002  25.130  1.00  0.00     0.031 C 
ATOM     34  C   UNL A   1      43.060  25.120  26.440  1.00  0.00     0.029 A 
ATOM     35  N   UNL A   1      44.282  26.947  26.844  1.00  0.00    -0.354 N 
ATOM     36  C   UNL A   1      48.503  27.058  25.945  1.00  0.00     0.074 A 
ATOM     37  C   UNL A   1      48.923  25.841  25.283  1.00  0.00     0.031 C 
ATOM     38  C   UNL A   1      42.233  26.058  26.927  1.00  0.00     0.029 A 
ATOM     39  C   UNL A   1      43.008  27.248  27.262  1.00  0.00     0.049 A 
ATOM     40  H   UNL A   1      45.029  27.588  26.887  1.00  0.00     0.167 HD
ATOM     41  C   UNL A   1      49.310  28.122  26.176  1.00  0.00     0.037 A 
ATOM     42  C   UNL A   1      42.524  28.341  27.882  1.00  0.00     0.037 A 
ATOM     43  C   UNL A   1      48.880  29.341  26.815  1.00  0.00     0.049 A 
ATOM     44  C   UNL A   1      43.458  29.476  28.199  1.00  0.00     0.074 A 
ATOM     45  C   UNL A   1      49.624  30.473  27.102  1.00  0.00     0.029 A 
ATOM     46  N   UNL A   1      47.591  29.587  27.261  1.00  0.00    -0.354 N 
ATOM     47  N   UNL A   1      44.734  29.601  27.922  1.00  0.00    -0.248 NA
ATOM     48  C   UNL A   1      42.888  30.619  28.926  1.00  0.00     0.031 C 
ATOM     49  C   UNL A   1      48.794  31.388  27.762  1.00  0.00     0.029 A 
ATOM     50  C   UNL A   1      47.521  30.846  27.836  1.00  0.00     0.049 A 
ATOM     51  H   UNL A   1      46.836  28.961  27.180  1.00  0.00     0.167 HD
ATOM     52  C   UNL A   1      45.111  30.842  28.415  1.00  0.00     0.074 A 
ATOM     53  C   UNL A   1      43.925  31.441  28.993  1.00  0.00     0.031 C 
ATOM     54  C   UNL A   1      46.331  31.434  28.396  1.00  0.00     0.037 A 
BRANCH  41  55
ATOM     55  C   UNL A   1      50.750  28.006  25.763  1.00  0.00     0.057 A 
ATOM     56  C   UNL A   1      51.160  28.172  24.434  1.00  0.00     0.134 A 
ATOM     57  C   UNL A   1      51.745  27.756  26.717  1.00  0.00     0.134 A 
ATOM     58  F   UNL A   1      50.257  28.403  23.469  1.00  0.00    -0.206 F 
ATOM     59  C   UNL A   1      52.502  28.068  24.065  1.00  0.00     0.040 A 
ATOM     60  C   UNL A   1      53.094  27.678  26.365  1.00  0.00     0.040 A 
ATOM     61  F   UNL A   1      51.426  27.594  28.010  1.00  0.00    -0.206 F 
ATOM     62  C   UNL A   1      53.475  27.827  25.034  1.00  0.00     0.006 A 
ENDBRANCH  41  55
BRANCH  42  63
ATOM     63  C   UNL A   1      41.096  28.400  28.289  1.00  0.00     0.057 A 
ATOM     64  C   UNL A   1      40.107  28.861  27.412  1.00  0.00     0.134 A 
ATOM     65  C   UNL A   1      40.689  28.022  29.575  1.00  0.00     0.134 A 
ATOM     66  F   UNL A   1      40.434  29.261  26.175  1.00  0.00    -0.206 F 
ATOM     67  C   UNL A   1      38.771  28.965  27.806  1.00  0.00     0.040 A 
ATOM     68  C   UNL A   1      39.353  28.090  29.972  1.00  0.00     0.040 A 
ATOM     69  F   UNL A   1      41.586  27.571  30.465  1.00  0.00    -0.206 F 
ATOM     70  C   UNL A   1      38.391  28.574  29.089  1.00  0.00     0.006 A 
ENDBRANCH  42  63
BRANCH  54  71
ATOM     71  C   UNL A   1      46.431  32.816  28.973  1.00  0.00     0.057 A 
ATOM     72  C   UNL A   1      46.763  33.039  30.315  1.00  0.00     0.134 A 
ATOM     73  C   UNL A   1      46.219  33.941  28.164  1.00  0.00     0.134 A 
ATOM     74  F   UNL A   1      46.964  32.005  31.146  1.00  0.00    -0.206 F 
ATOM     75  C   UNL A   1      46.855  34.329  30.839  1.00  0.00     0.040 A 
ATOM     76  C   UNL A   1      46.337  35.236  28.670  1.00  0.00     0.040 A 
ATOM     77  F   UNL A   1      45.905  33.800  26.868  1.00  0.00    -0.206 F 
ATOM     78  C   UNL A   1      46.649  35.432  30.013  1.00  0.00     0.006 A 
ENDBRANCH  54  71
ENDBRANCH  28  29
ENDBRANCH  21  23
ENDBRANCH  20  21
ENDBRANCH  19  20
ENDBRANCH   1  19
TORSDOF 14
ENDMDL
