MODEL 1
REMARK VINA RESULT:     -11.3      0.000      0.000
REMARK SMILES CC(=O)c1cc2c(cc1NC(=O)/C=C/C(=O)OCCOC(=O)c1ccc(-c3c4nc(c(-c5c(F)cccc5F)c5ccc([nH]5)c(-c5c(F)cccc5F)c5nc(c(-c6c(F)cccc6F)c6ccc3[nH]6)C=C5)C=C4)cc1)OCO2
REMARK SMILES IDX 18 1 17 2 15 3 16 4 14 5 13 6 11 7 10 8 12 10 9 11 4 12 5 13
REMARK SMILES IDX 6 14 8 15 7 16 79 17 77 18 78 19 2 20 1 21 3 22 19 23 20 24
REMARK SMILES IDX 21 25 22 26 23 27 24 28 76 29 25 30 75 31 26 32 27 33 28 34
REMARK SMILES IDX 69 35 29 36 74 37 68 38 70 39 30 40 73 41 67 42 66 43 31 45
REMARK SMILES IDX 57 46 40 47 56 48 41 49 44 50 55 51 71 52 42 53 43 54 54 56
REMARK SMILES IDX 72 57 45 58 32 59 33 60 38 61 34 62 35 63 37 64 39 65 36 66
REMARK SMILES IDX 58 67 59 68 64 69 60 70 61 71 63 72 65 73 62 74 46 75 47 76
REMARK SMILES IDX 52 77 48 78 49 79 51 80 53 81 50 82
REMARK H PARENT 10 9 70 44 44 55
REMARK Flexibility Score: inf
ROOT
ATOM      1  C   UNL A   1      36.478  23.015  26.082  1.00  0.00     0.275 C 
ENDROOT
BRANCH   1   2
ATOM      2  O   UNL A   1      35.872  24.276  25.720  1.00  0.00    -0.459 OA
BRANCH   2   3
ATOM      3  C   UNL A   1      34.634  24.202  25.168  1.00  0.00     0.331 C 
ATOM      4  O   UNL A   1      33.743  23.440  25.514  1.00  0.00    -0.247 OA
BRANCH   3   5
ATOM      5  C   UNL A   1      34.399  25.217  24.110  1.00  0.00     0.099 C 
ATOM      6  C   UNL A   1      33.238  25.382  23.454  1.00  0.00     0.079 C 
BRANCH   6   7
ATOM      7  C   UNL A   1      33.148  26.168  22.191  1.00  0.00     0.248 C 
ATOM      8  N   UNL A   1      32.989  27.538  22.193  1.00  0.00    -0.322 N 
ATOM      9  H   UNL A   1      33.078  27.950  21.303  1.00  0.00     0.170 HD
ATOM     10  O   UNL A   1      33.275  25.563  21.127  1.00  0.00    -0.270 OA
BRANCH   8  11
ATOM     11  C   UNL A   1      32.723  28.469  23.230  1.00  0.00     0.056 A 
ATOM     12  C   UNL A   1      31.409  28.955  23.493  1.00  0.00     0.045 A 
ATOM     13  C   UNL A   1      31.110  29.597  24.716  1.00  0.00     0.064 A 
ATOM     14  C   UNL A   1      32.121  29.702  25.643  1.00  0.00     0.166 A 
ATOM     15  C   UNL A   1      33.727  28.856  24.094  1.00  0.00     0.077 A 
ATOM     16  C   UNL A   1      33.395  29.331  25.326  1.00  0.00     0.167 A 
ATOM     17  O   UNL A   1      32.049  30.177  26.911  1.00  0.00    -0.454 OA
ATOM     18  O   UNL A   1      34.281  29.464  26.338  1.00  0.00    -0.454 OA
ATOM     19  C   UNL A   1      33.420  30.008  27.341  1.00  0.00     0.468 C 
BRANCH  12  20
ATOM     20  C   UNL A   1      30.334  28.807  22.478  1.00  0.00     0.162 C 
ATOM     21  C   UNL A   1      29.649  30.054  21.969  1.00  0.00     0.093 C 
ATOM     22  O   UNL A   1      30.109  27.697  22.001  1.00  0.00    -0.294 OA
ENDBRANCH  12  20
ENDBRANCH   8  11
ENDBRANCH   6   7
ENDBRANCH   3   5
ENDBRANCH   2   3
ENDBRANCH   1   2
BRANCH   1  23
ATOM     23  C   UNL A   1      37.970  22.974  25.731  1.00  0.00     0.275 C 
BRANCH  23  24
ATOM     24  O   UNL A   1      38.605  24.260  25.896  1.00  0.00    -0.458 OA
BRANCH  24  25
ATOM     25  C   UNL A   1      39.781  24.247  26.568  1.00  0.00     0.338 C 
ATOM     26  O   UNL A   1      40.695  23.449  26.406  1.00  0.00    -0.246 OA
BRANCH  25  27
ATOM     27  C   UNL A   1      39.889  25.411  27.485  1.00  0.00     0.060 A 
ATOM     28  C   UNL A   1      39.039  25.426  28.593  1.00  0.00     0.016 A 
ATOM     29  C   UNL A   1      40.791  26.468  27.307  1.00  0.00     0.016 A 
ATOM     30  C   UNL A   1      39.174  26.407  29.577  1.00  0.00     0.010 A 
ATOM     31  C   UNL A   1      40.876  27.498  28.264  1.00  0.00     0.010 A 
ATOM     32  C   UNL A   1      40.094  27.458  29.428  1.00  0.00    -0.014 A 
BRANCH  32  33
ATOM     33  C   UNL A   1      40.119  28.524  30.473  1.00  0.00     0.031 A 
ATOM     34  C   UNL A   1      39.086  29.609  30.418  1.00  0.00     0.074 A 
ATOM     35  C   UNL A   1      40.957  28.478  31.528  1.00  0.00     0.049 A 
ATOM     36  N   UNL A   1      38.829  30.552  31.287  1.00  0.00    -0.248 NA
ATOM     37  C   UNL A   1      38.255  29.651  29.207  1.00  0.00     0.031 C 
ATOM     38  C   UNL A   1      42.041  27.526  31.694  1.00  0.00     0.029 A 
ATOM     39  N   UNL A   1      40.991  29.207  32.694  1.00  0.00    -0.354 N 
ATOM     40  C   UNL A   1      37.822  31.316  30.718  1.00  0.00     0.074 A 
ATOM     41  C   UNL A   1      37.499  30.710  29.442  1.00  0.00     0.031 C 
ATOM     42  C   UNL A   1      42.501  27.581  32.954  1.00  0.00     0.029 A 
ATOM     43  C   UNL A   1      41.869  28.706  33.633  1.00  0.00     0.049 A 
ATOM     44  H   UNL A   1      40.441  30.009  32.845  1.00  0.00     0.167 HD
ATOM     45  C   UNL A   1      37.253  32.450  31.190  1.00  0.00     0.037 A 
ATOM     46  C   UNL A   1      42.169  29.133  34.877  1.00  0.00     0.037 A 
ATOM     47  C   UNL A   1      37.636  33.103  32.413  1.00  0.00     0.049 A 
ATOM     48  C   UNL A   1      41.572  30.431  35.348  1.00  0.00     0.074 A 
ATOM     49  C   UNL A   1      37.165  34.292  32.940  1.00  0.00     0.029 A 
ATOM     50  N   UNL A   1      38.609  32.638  33.288  1.00  0.00    -0.354 N 
ATOM     51  N   UNL A   1      40.638  31.163  34.792  1.00  0.00    -0.248 NA
ATOM     52  C   UNL A   1      42.125  31.000  36.586  1.00  0.00     0.031 C 
ATOM     53  C   UNL A   1      37.893  34.576  34.101  1.00  0.00     0.029 A 
ATOM     54  C   UNL A   1      38.769  33.529  34.338  1.00  0.00     0.049 A 
ATOM     55  H   UNL A   1      39.112  31.799  33.178  1.00  0.00     0.167 HD
ATOM     56  C   UNL A   1      40.494  32.279  35.606  1.00  0.00     0.074 A 
ATOM     57  C   UNL A   1      41.412  32.111  36.714  1.00  0.00     0.031 C 
ATOM     58  C   UNL A   1      39.686  33.355  35.438  1.00  0.00     0.037 A 
BRANCH  45  59
ATOM     59  C   UNL A   1      36.236  33.097  30.298  1.00  0.00     0.057 A 
ATOM     60  C   UNL A   1      34.858  32.947  30.507  1.00  0.00     0.134 A 
ATOM     61  C   UNL A   1      36.645  33.814  29.166  1.00  0.00     0.134 A 
ATOM     62  F   UNL A   1      34.403  32.244  31.555  1.00  0.00    -0.206 F 
ATOM     63  C   UNL A   1      33.926  33.444  29.595  1.00  0.00     0.040 A 
ATOM     64  C   UNL A   1      35.721  34.343  28.265  1.00  0.00     0.040 A 
ATOM     65  F   UNL A   1      37.950  33.990  28.905  1.00  0.00    -0.206 F 
ATOM     66  C   UNL A   1      34.358  34.144  28.470  1.00  0.00     0.006 A 
ENDBRANCH  45  59
BRANCH  46  67
ATOM     67  C   UNL A   1      43.133  28.394  35.742  1.00  0.00     0.057 A 
ATOM     68  C   UNL A   1      42.696  27.374  36.600  1.00  0.00     0.134 A 
ATOM     69  C   UNL A   1      44.498  28.709  35.777  1.00  0.00     0.134 A 
ATOM     70  F   UNL A   1      41.396  27.046  36.651  1.00  0.00    -0.206 F 
ATOM     71  C   UNL A   1      43.574  26.703  37.455  1.00  0.00     0.040 A 
ATOM     72  C   UNL A   1      45.393  28.021  36.599  1.00  0.00     0.040 A 
ATOM     73  F   UNL A   1      44.988  29.688  35.002  1.00  0.00    -0.206 F 
ATOM     74  C   UNL A   1      44.930  27.019  37.448  1.00  0.00     0.006 A 
ENDBRANCH  46  67
BRANCH  58  75
ATOM     75  C   UNL A   1      39.726  34.418  36.497  1.00  0.00     0.057 A 
ATOM     76  C   UNL A   1      38.933  34.354  37.651  1.00  0.00     0.134 A 
ATOM     77  C   UNL A   1      40.603  35.504  36.377  1.00  0.00     0.134 A 
ATOM     78  F   UNL A   1      38.061  33.349  37.821  1.00  0.00    -0.206 F 
ATOM     79  C   UNL A   1      38.996  35.342  38.635  1.00  0.00     0.040 A 
ATOM     80  C   UNL A   1      40.697  36.482  37.369  1.00  0.00     0.040 A 
ATOM     81  F   UNL A   1      41.395  35.624  35.301  1.00  0.00    -0.206 F 
ATOM     82  C   UNL A   1      39.887  36.406  38.499  1.00  0.00     0.006 A 
ENDBRANCH  58  75
ENDBRANCH  32  33
ENDBRANCH  25  27
ENDBRANCH  24  25
ENDBRANCH  23  24
ENDBRANCH   1  23
TORSDOF 14
ENDMDL
MODEL 2
REMARK VINA RESULT:     -11.1      4.225      7.580
REMARK SMILES CC(=O)c1cc2c(cc1NC(=O)/C=C/C(=O)OCCOC(=O)c1ccc(-c3c4nc(c(-c5c(F)cccc5F)c5ccc([nH]5)c(-c5c(F)cccc5F)c5nc(c(-c6c(F)cccc6F)c6ccc3[nH]6)C=C5)C=C4)cc1)OCO2
REMARK SMILES IDX 18 1 17 2 15 3 16 4 14 5 13 6 11 7 10 8 12 10 9 11 4 12 5 13
REMARK SMILES IDX 6 14 8 15 7 16 79 17 77 18 78 19 2 20 1 21 3 22 19 23 20 24
REMARK SMILES IDX 21 25 22 26 23 27 24 28 76 29 25 30 75 31 26 32 27 33 28 34
REMARK SMILES IDX 69 35 29 36 74 37 68 38 70 39 30 40 73 41 67 42 66 43 31 45
REMARK SMILES IDX 57 46 40 47 56 48 41 49 44 50 55 51 71 52 42 53 43 54 54 56
REMARK SMILES IDX 72 57 45 58 32 59 33 60 38 61 34 62 35 63 37 64 39 65 36 66
REMARK SMILES IDX 58 67 59 68 64 69 60 70 61 71 63 72 65 73 62 74 46 75 47 76
REMARK SMILES IDX 52 77 48 78 49 79 51 80 53 81 50 82
REMARK H PARENT 10 9 70 44 44 55
REMARK Flexibility Score: inf
ROOT
ATOM      1  C   UNL A   1      34.518  21.219  24.981  1.00  0.00     0.275 C 
ENDROOT
BRANCH   1   2
ATOM      2  O   UNL A   1      34.267  22.033  23.813  1.00  0.00    -0.459 OA
BRANCH   2   3
ATOM      3  C   UNL A   1      33.310  22.985  23.949  1.00  0.00     0.331 C 
ATOM      4  O   UNL A   1      32.607  23.156  24.936  1.00  0.00    -0.247 OA
BRANCH   3   5
ATOM      5  C   UNL A   1      33.223  23.904  22.785  1.00  0.00     0.099 C 
ATOM      6  C   UNL A   1      33.601  25.193  22.799  1.00  0.00     0.079 C 
BRANCH   6   7
ATOM      7  C   UNL A   1      33.191  26.149  21.733  1.00  0.00     0.248 C 
ATOM      8  N   UNL A   1      32.828  27.449  22.016  1.00  0.00    -0.322 N 
ATOM      9  H   UNL A   1      32.709  28.012  21.218  1.00  0.00     0.170 HD
ATOM     10  O   UNL A   1      33.235  25.762  20.565  1.00  0.00    -0.270 OA
BRANCH   8  11
ATOM     11  C   UNL A   1      32.594  28.132  23.237  1.00  0.00     0.056 A 
ATOM     12  C   UNL A   1      31.291  28.256  23.800  1.00  0.00     0.045 A 
ATOM     13  C   UNL A   1      31.121  28.627  25.153  1.00  0.00     0.064 A 
ATOM     14  C   UNL A   1      32.256  28.829  25.903  1.00  0.00     0.166 A 
ATOM     15  C   UNL A   1      33.653  28.614  23.981  1.00  0.00     0.077 A 
ATOM     16  C   UNL A   1      33.488  28.814  25.318  1.00  0.00     0.167 A 
ATOM     17  O   UNL A   1      32.347  29.085  27.232  1.00  0.00    -0.454 OA
ATOM     18  O   UNL A   1      34.515  29.003  26.176  1.00  0.00    -0.454 OA
ATOM     19  C   UNL A   1      33.782  29.180  27.390  1.00  0.00     0.468 C 
BRANCH  12  20
ATOM     20  C   UNL A   1      30.085  28.010  22.966  1.00  0.00     0.162 C 
ATOM     21  C   UNL A   1      29.017  27.084  23.502  1.00  0.00     0.093 C 
ATOM     22  O   UNL A   1      29.937  28.644  21.924  1.00  0.00    -0.294 OA
ENDBRANCH  12  20
ENDBRANCH   8  11
ENDBRANCH   6   7
ENDBRANCH   3   5
ENDBRANCH   2   3
ENDBRANCH   1   2
BRANCH   1  23
ATOM     23  C   UNL A   1      35.966  20.718  25.032  1.00  0.00     0.275 C 
BRANCH  23  24
ATOM     24  O   UNL A   1      36.831  21.623  25.749  1.00  0.00    -0.458 OA
BRANCH  24  25
ATOM     25  C   UNL A   1      38.139  21.274  25.783  1.00  0.00     0.338 C 
ATOM     26  O   UNL A   1      38.616  20.221  25.379  1.00  0.00    -0.246 OA
BRANCH  25  27
ATOM     27  C   UNL A   1      38.981  22.390  26.287  1.00  0.00     0.060 A 
ATOM     28  C   UNL A   1      38.589  23.686  25.943  1.00  0.00     0.016 A 
ATOM     29  C   UNL A   1      40.118  22.216  27.086  1.00  0.00     0.016 A 
ATOM     30  C   UNL A   1      39.239  24.793  26.491  1.00  0.00     0.010 A 
ATOM     31  C   UNL A   1      40.819  23.334  27.579  1.00  0.00     0.010 A 
ATOM     32  C   UNL A   1      40.364  24.634  27.317  1.00  0.00    -0.014 A 
BRANCH  32  33
ATOM     33  C   UNL A   1      41.066  25.864  27.791  1.00  0.00     0.031 A 
ATOM     34  C   UNL A   1      42.435  26.161  27.257  1.00  0.00     0.074 A 
ATOM     35  C   UNL A   1      40.467  26.773  28.586  1.00  0.00     0.049 A 
ATOM     36  N   UNL A   1      43.172  27.229  27.417  1.00  0.00    -0.248 NA
ATOM     37  C   UNL A   1      43.064  25.098  26.461  1.00  0.00     0.031 C 
ATOM     38  C   UNL A   1      39.174  26.604  29.224  1.00  0.00     0.029 A 
ATOM     39  N   UNL A   1      40.835  28.050  28.943  1.00  0.00    -0.354 N 
ATOM     40  C   UNL A   1      44.364  26.959  26.763  1.00  0.00     0.074 A 
ATOM     41  C   UNL A   1      44.239  25.637  26.183  1.00  0.00     0.031 C 
ATOM     42  C   UNL A   1      38.756  27.781  29.716  1.00  0.00     0.029 A 
ATOM     43  C   UNL A   1      39.840  28.749  29.594  1.00  0.00     0.049 A 
ATOM     44  H   UNL A   1      41.723  28.429  28.752  1.00  0.00     0.167 HD
ATOM     45  C   UNL A   1      45.481  27.720  26.695  1.00  0.00     0.037 A 
ATOM     46  C   UNL A   1      39.819  30.006  30.083  1.00  0.00     0.037 A 
ATOM     47  C   UNL A   1      45.639  28.993  27.346  1.00  0.00     0.049 A 
ATOM     48  C   UNL A   1      41.095  30.803  30.052  1.00  0.00     0.074 A 
ATOM     49  C   UNL A   1      46.757  29.806  27.391  1.00  0.00     0.029 A 
ATOM     50  N   UNL A   1      44.656  29.625  28.097  1.00  0.00    -0.354 N 
ATOM     51  N   UNL A   1      42.228  30.530  29.453  1.00  0.00    -0.248 NA
ATOM     52  C   UNL A   1      41.111  32.052  30.828  1.00  0.00     0.031 C 
ATOM     53  C   UNL A   1      46.470  30.900  28.216  1.00  0.00     0.029 A 
ATOM     54  C   UNL A   1      45.150  30.806  28.627  1.00  0.00     0.049 A 
ATOM     55  H   UNL A   1      43.742  29.284  28.231  1.00  0.00     0.167 HD
ATOM     56  C   UNL A   1      43.092  31.566  29.783  1.00  0.00     0.074 A 
ATOM     57  C   UNL A   1      42.342  32.493  30.605  1.00  0.00     0.031 C 
ATOM     58  C   UNL A   1      44.396  31.724  29.447  1.00  0.00     0.037 A 
BRANCH  45  59
ATOM     59  C   UNL A   1      46.648  27.113  25.973  1.00  0.00     0.057 A 
ATOM     60  C   UNL A   1      47.583  26.296  26.623  1.00  0.00     0.134 A 
ATOM     61  C   UNL A   1      46.881  27.419  24.626  1.00  0.00     0.134 A 
ATOM     62  F   UNL A   1      47.433  25.993  27.922  1.00  0.00    -0.206 F 
ATOM     63  C   UNL A   1      48.733  25.847  25.973  1.00  0.00     0.040 A 
ATOM     64  C   UNL A   1      48.010  26.949  23.956  1.00  0.00     0.040 A 
ATOM     65  F   UNL A   1      46.027  28.201  23.947  1.00  0.00    -0.206 F 
ATOM     66  C   UNL A   1      48.948  26.174  24.635  1.00  0.00     0.006 A 
ENDBRANCH  45  59
BRANCH  46  67
ATOM     67  C   UNL A   1      38.596  30.574  30.718  1.00  0.00     0.057 A 
ATOM     68  C   UNL A   1      38.316  30.347  32.074  1.00  0.00     0.134 A 
ATOM     69  C   UNL A   1      37.652  31.311  29.992  1.00  0.00     0.134 A 
ATOM     70  F   UNL A   1      39.153  29.615  32.823  1.00  0.00    -0.206 F 
ATOM     71  C   UNL A   1      37.150  30.828  32.676  1.00  0.00     0.040 A 
ATOM     72  C   UNL A   1      36.501  31.830  30.590  1.00  0.00     0.040 A 
ATOM     73  F   UNL A   1      37.837  31.550  28.685  1.00  0.00    -0.206 F 
ATOM     74  C   UNL A   1      36.243  31.582  31.935  1.00  0.00     0.006 A 
ENDBRANCH  46  67
BRANCH  58  75
ATOM     75  C   UNL A   1      45.087  32.964  29.935  1.00  0.00     0.057 A 
ATOM     76  C   UNL A   1      45.063  34.166  29.214  1.00  0.00     0.134 A 
ATOM     77  C   UNL A   1      45.755  32.964  31.166  1.00  0.00     0.134 A 
ATOM     78  F   UNL A   1      44.454  34.231  28.020  1.00  0.00    -0.206 F 
ATOM     79  C   UNL A   1      45.695  35.316  29.691  1.00  0.00     0.040 A 
ATOM     80  C   UNL A   1      46.366  34.115  31.668  1.00  0.00     0.040 A 
ATOM     81  F   UNL A   1      45.813  31.850  31.910  1.00  0.00    -0.206 F 
ATOM     82  C   UNL A   1      46.342  35.294  30.926  1.00  0.00     0.006 A 
ENDBRANCH  58  75
ENDBRANCH  32  33
ENDBRANCH  25  27
ENDBRANCH  24  25
ENDBRANCH  23  24
ENDBRANCH   1  23
TORSDOF 14
ENDMDL
MODEL 3
REMARK VINA RESULT:     -11.0      1.303      2.115
REMARK SMILES CC(=O)c1cc2c(cc1NC(=O)/C=C/C(=O)OCCOC(=O)c1ccc(-c3c4nc(c(-c5c(F)cccc5F)c5ccc([nH]5)c(-c5c(F)cccc5F)c5nc(c(-c6c(F)cccc6F)c6ccc3[nH]6)C=C5)C=C4)cc1)OCO2
REMARK SMILES IDX 18 1 17 2 15 3 16 4 14 5 13 6 11 7 10 8 12 10 9 11 4 12 5 13
REMARK SMILES IDX 6 14 8 15 7 16 79 17 77 18 78 19 2 20 1 21 3 22 19 23 20 24
REMARK SMILES IDX 21 25 22 26 23 27 24 28 76 29 25 30 75 31 26 32 27 33 28 34
REMARK SMILES IDX 69 35 29 36 74 37 68 38 70 39 30 40 73 41 67 42 66 43 31 45
REMARK SMILES IDX 57 46 40 47 56 48 41 49 44 50 55 51 71 52 42 53 43 54 54 56
REMARK SMILES IDX 72 57 45 58 32 59 33 60 38 61 34 62 35 63 37 64 39 65 36 66
REMARK SMILES IDX 58 67 59 68 64 69 60 70 61 71 63 72 65 73 62 74 46 75 47 76
REMARK SMILES IDX 52 77 48 78 49 79 51 80 53 81 50 82
REMARK H PARENT 10 9 70 44 44 55
REMARK Flexibility Score: inf
ROOT
ATOM      1  C   UNL A   1      36.982  22.187  25.734  1.00  0.00     0.275 C 
ENDROOT
BRANCH   1   2
ATOM      2  O   UNL A   1      36.209  23.121  26.519  1.00  0.00    -0.459 OA
BRANCH   2   3
ATOM      3  C   UNL A   1      35.218  23.772  25.859  1.00  0.00     0.331 C 
ATOM      4  O   UNL A   1      35.316  24.294  24.758  1.00  0.00    -0.247 OA
BRANCH   3   5
ATOM      5  C   UNL A   1      33.915  23.739  26.572  1.00  0.00     0.099 C 
ATOM      6  C   UNL A   1      32.719  23.614  25.972  1.00  0.00     0.079 C 
BRANCH   6   7
ATOM      7  C   UNL A   1      31.444  23.919  26.680  1.00  0.00     0.248 C 
ATOM      8  N   UNL A   1      30.864  25.170  26.634  1.00  0.00    -0.322 N 
ATOM      9  H   UNL A   1      29.963  25.205  27.028  1.00  0.00     0.170 HD
ATOM     10  O   UNL A   1      30.880  22.999  27.272  1.00  0.00    -0.270 OA
BRANCH   8  11
ATOM     11  C   UNL A   1      31.316  26.416  26.129  1.00  0.00     0.056 A 
ATOM     12  C   UNL A   1      30.734  27.023  24.978  1.00  0.00     0.045 A 
ATOM     13  C   UNL A   1      30.953  28.390  24.696  1.00  0.00     0.064 A 
ATOM     14  C   UNL A   1      31.717  29.109  25.587  1.00  0.00     0.166 A 
ATOM     15  C   UNL A   1      32.278  27.137  26.807  1.00  0.00     0.077 A 
ATOM     16  C   UNL A   1      32.354  28.483  26.618  1.00  0.00     0.167 A 
ATOM     17  O   UNL A   1      31.975  30.440  25.585  1.00  0.00    -0.454 OA
ATOM     18  O   UNL A   1      33.049  29.312  27.428  1.00  0.00    -0.454 OA
ATOM     19  C   UNL A   1      32.809  30.554  26.762  1.00  0.00     0.468 C 
BRANCH  12  20
ATOM     20  C   UNL A   1      29.896  26.223  24.048  1.00  0.00     0.162 C 
ATOM     21  C   UNL A   1      28.456  26.632  23.844  1.00  0.00     0.093 C 
ATOM     22  O   UNL A   1      30.419  25.327  23.389  1.00  0.00    -0.294 OA
ENDBRANCH  12  20
ENDBRANCH   8  11
ENDBRANCH   6   7
ENDBRANCH   3   5
ENDBRANCH   2   3
ENDBRANCH   1   2
BRANCH   1  23
ATOM     23  C   UNL A   1      38.485  22.481  25.807  1.00  0.00     0.275 C 
BRANCH  23  24
ATOM     24  O   UNL A   1      38.756  23.841  26.204  1.00  0.00    -0.458 OA
BRANCH  24  25
ATOM     25  C   UNL A   1      40.047  24.111  26.514  1.00  0.00     0.338 C 
ATOM     26  O   UNL A   1      41.032  23.543  26.060  1.00  0.00    -0.246 OA
BRANCH  25  27
ATOM     27  C   UNL A   1      40.149  25.285  27.420  1.00  0.00     0.060 A 
ATOM     28  C   UNL A   1      39.242  25.348  28.480  1.00  0.00     0.016 A 
ATOM     29  C   UNL A   1      41.098  26.305  27.277  1.00  0.00     0.016 A 
ATOM     30  C   UNL A   1      39.361  26.338  29.457  1.00  0.00     0.010 A 
ATOM     31  C   UNL A   1      41.169  27.347  28.223  1.00  0.00     0.010 A 
ATOM     32  C   UNL A   1      40.326  27.353  29.343  1.00  0.00    -0.014 A 
BRANCH  32  33
ATOM     33  C   UNL A   1      40.334  28.433  30.374  1.00  0.00     0.031 A 
ATOM     34  C   UNL A   1      39.279  29.497  30.309  1.00  0.00     0.074 A 
ATOM     35  C   UNL A   1      41.177  28.418  31.425  1.00  0.00     0.049 A 
ATOM     36  N   UNL A   1      39.007  30.446  31.166  1.00  0.00    -0.248 NA
ATOM     37  C   UNL A   1      38.442  29.505  29.102  1.00  0.00     0.031 C 
ATOM     38  C   UNL A   1      42.281  27.491  31.599  1.00  0.00     0.029 A 
ATOM     39  N   UNL A   1      41.202  29.164  32.581  1.00  0.00    -0.354 N 
ATOM     40  C   UNL A   1      37.983  31.182  30.592  1.00  0.00     0.074 A 
ATOM     41  C   UNL A   1      37.666  30.553  29.326  1.00  0.00     0.031 C 
ATOM     42  C   UNL A   1      42.745  27.572  32.856  1.00  0.00     0.029 A 
ATOM     43  C   UNL A   1      42.094  28.694  33.522  1.00  0.00     0.049 A 
ATOM     44  H   UNL A   1      40.637  29.957  32.723  1.00  0.00     0.167 HD
ATOM     45  C   UNL A   1      37.393  32.311  31.051  1.00  0.00     0.037 A 
ATOM     46  C   UNL A   1      42.392  29.143  34.759  1.00  0.00     0.037 A 
ATOM     47  C   UNL A   1      37.769  32.988  32.264  1.00  0.00     0.049 A 
ATOM     48  C   UNL A   1      41.770  30.435  35.215  1.00  0.00     0.074 A 
ATOM     49  C   UNL A   1      37.276  34.175  32.777  1.00  0.00     0.029 A 
ATOM     50  N   UNL A   1      38.755  32.555  33.139  1.00  0.00    -0.354 N 
ATOM     51  N   UNL A   1      40.820  31.141  34.654  1.00  0.00    -0.248 NA
ATOM     52  C   UNL A   1      42.317  31.033  36.442  1.00  0.00     0.031 C 
ATOM     53  C   UNL A   1      38.004  34.489  33.930  1.00  0.00     0.029 A 
ATOM     54  C   UNL A   1      38.901  33.463  34.177  1.00  0.00     0.049 A 
ATOM     55  H   UNL A   1      39.274  31.724  33.039  1.00  0.00     0.167 HD
ATOM     56  C   UNL A   1      40.657  32.265  35.453  1.00  0.00     0.074 A 
ATOM     57  C   UNL A   1      41.583  32.130  36.559  1.00  0.00     0.031 C 
ATOM     58  C   UNL A   1      39.827  33.322  35.274  1.00  0.00     0.037 A 
BRANCH  45  59
ATOM     59  C   UNL A   1      36.359  32.925  30.155  1.00  0.00     0.057 A 
ATOM     60  C   UNL A   1      34.986  32.759  30.379  1.00  0.00     0.134 A 
ATOM     61  C   UNL A   1      36.748  33.626  29.006  1.00  0.00     0.134 A 
ATOM     62  F   UNL A   1      34.550  32.069  31.444  1.00  0.00    -0.206 F 
ATOM     63  C   UNL A   1      34.038  33.224  29.465  1.00  0.00     0.040 A 
ATOM     64  C   UNL A   1      35.810  34.124  28.103  1.00  0.00     0.040 A 
ATOM     65  F   UNL A   1      38.048  33.816  28.731  1.00  0.00    -0.206 F 
ATOM     66  C   UNL A   1      34.451  33.909  28.323  1.00  0.00     0.006 A 
ENDBRANCH  45  59
BRANCH  46  67
ATOM     67  C   UNL A   1      43.374  28.435  35.629  1.00  0.00     0.057 A 
ATOM     68  C   UNL A   1      44.747  28.700  35.529  1.00  0.00     0.134 A 
ATOM     69  C   UNL A   1      42.985  27.447  36.543  1.00  0.00     0.134 A 
ATOM     70  F   UNL A   1      45.198  29.604  34.647  1.00  0.00    -0.206 F 
ATOM     71  C   UNL A   1      45.689  28.013  36.300  1.00  0.00     0.040 A 
ATOM     72  C   UNL A   1      43.911  26.779  37.346  1.00  0.00     0.040 A 
ATOM     73  F   UNL A   1      41.691  27.121  36.679  1.00  0.00    -0.206 F 
ATOM     74  C   UNL A   1      45.270  27.055  37.220  1.00  0.00     0.006 A 
ENDBRANCH  46  67
BRANCH  58  75
ATOM     75  C   UNL A   1      39.851  34.400  36.319  1.00  0.00     0.057 A 
ATOM     76  C   UNL A   1      40.619  35.564  36.175  1.00  0.00     0.134 A 
ATOM     77  C   UNL A   1      39.060  34.288  37.470  1.00  0.00     0.134 A 
ATOM     78  F   UNL A   1      41.411  35.727  35.105  1.00  0.00    -0.206 F 
ATOM     79  C   UNL A   1      40.615  36.565  37.148  1.00  0.00     0.040 A 
ATOM     80  C   UNL A   1      39.025  35.296  38.435  1.00  0.00     0.040 A 
ATOM     81  F   UNL A   1      38.296  33.203  37.668  1.00  0.00    -0.206 F 
ATOM     82  C   UNL A   1      39.809  36.436  38.278  1.00  0.00     0.006 A 
ENDBRANCH  58  75
ENDBRANCH  32  33
ENDBRANCH  25  27
ENDBRANCH  24  25
ENDBRANCH  23  24
ENDBRANCH   1  23
TORSDOF 14
ENDMDL
