MODEL 1
REMARK VINA RESULT:     -11.9      0.000      0.000
REMARK SMILES CCC(CC)COc1cc2c(cc1Cl)C=C(C(=O)OCCOC(=O)c1ccc(-c3c4nc(c(-c5c(F)cccc5F)c5ccc([nH]5)c(-c5c(F)cccc5F)c5nc(c(-c6c(F)cccc6F)c6ccc3[nH]6)C=C5)C=C4)cc1)[C@@H](C(F)(F)F)O2
REMARK SMILES IDX 20 1 19 2 17 3 18 4 16 5 8 6 9 7 13 8 10 9 12 10 14 11 11 12
REMARK SMILES IDX 84 13 15 14 79 15 7 16 6 17 3 18 2 19 1 20 4 21 5 22 80 23
REMARK SMILES IDX 81 24 82 25 83 26 21 27 22 28 23 29 24 30 25 31 26 32 78 33
REMARK SMILES IDX 27 34 77 35 28 36 29 37 30 38 71 39 31 40 76 41 70 42 72 43
REMARK SMILES IDX 32 44 75 45 69 46 68 47 33 49 59 50 42 51 58 52 43 53 46 54
REMARK SMILES IDX 57 55 73 56 44 57 45 58 56 60 74 61 47 62 34 63 35 64 40 65
REMARK SMILES IDX 36 66 37 67 39 68 41 69 38 70 60 71 61 72 66 73 62 74 63 75
REMARK SMILES IDX 65 76 67 77 64 78 48 79 49 80 54 81 50 82 51 83 53 84 55 85
REMARK SMILES IDX 52 86
REMARK H PARENT 72 48 46 59
REMARK Flexibility Score: inf
ROOT
ATOM      1  C   UNL A   1      31.761  29.083  25.112  1.00  0.00     0.275 C 
ENDROOT
BRANCH   1   2
ATOM      2  O   UNL A   1      32.583  28.214  25.922  1.00  0.00    -0.459 OA
BRANCH   2   3
ATOM      3  C   UNL A   1      31.905  27.292  26.646  1.00  0.00     0.338 C 
ATOM      4  O   UNL A   1      31.167  27.525  27.593  1.00  0.00    -0.246 OA
BRANCH   3   5
ATOM      5  C   UNL A   1      32.098  25.930  26.109  1.00  0.00     0.087 C 
ATOM      6  C   UNL A   1      34.075  21.537  24.737  1.00  0.00     0.141 A 
ATOM      7  C   UNL A   1      32.766  21.952  25.011  1.00  0.00     0.095 A 
ATOM      8  C   UNL A   1      35.105  22.482  24.649  1.00  0.00     0.083 A 
ATOM      9  C   UNL A   1      32.517  23.292  25.319  1.00  0.00     0.131 A 
ATOM     10  C   UNL A   1      34.870  23.795  25.045  1.00  0.00     0.036 A 
ATOM     11  Cl  UNL A   1      36.692  22.075  24.110  1.00  0.00    -0.080 Cl
ATOM     12  C   UNL A   1      33.584  24.190  25.409  1.00  0.00     0.019 A 
ATOM     13  O   UNL A   1      31.222  23.665  25.575  1.00  0.00    -0.475 OA
ATOM     14  C   UNL A   1      33.362  25.520  25.943  1.00  0.00     0.027 C 
ATOM     15  C   UNL A   1      30.941  25.100  25.623  1.00  0.00     0.316 C 
BRANCH   6  16
ATOM     16  O   UNL A   1      34.346  20.210  24.530  1.00  0.00    -0.492 OA
BRANCH  16  17
ATOM     17  C   UNL A   1      33.306  19.336  25.029  1.00  0.00     0.233 C 
BRANCH  17  18
ATOM     18  C   UNL A   1      33.630  17.833  24.812  1.00  0.00     0.026 C 
BRANCH  18  19
ATOM     19  C   UNL A   1      32.663  16.925  25.609  1.00  0.00     0.003 C 
ATOM     20  C   UNL A   1      32.900  15.439  25.374  1.00  0.00     0.004 C 
ENDBRANCH  18  19
BRANCH  18  21
ATOM     21  C   UNL A   1      33.666  17.461  23.311  1.00  0.00     0.003 C 
ATOM     22  C   UNL A   1      32.539  18.041  22.467  1.00  0.00     0.004 C 
ENDBRANCH  18  21
ENDBRANCH  17  18
ENDBRANCH  16  17
ENDBRANCH   6  16
BRANCH  15  23
ATOM     23  C   UNL A   1      30.494  25.631  24.248  1.00  0.00     0.430 C 
ATOM     24  F   UNL A   1      31.526  26.142  23.542  1.00  0.00    -0.167 F 
ATOM     25  F   UNL A   1      29.959  24.634  23.497  1.00  0.00    -0.167 F 
ATOM     26  F   UNL A   1      29.551  26.597  24.350  1.00  0.00    -0.167 F 
ENDBRANCH  15  23
ENDBRANCH   3   5
ENDBRANCH   2   3
ENDBRANCH   1   2
BRANCH   1  27
ATOM     27  C   UNL A   1      31.698  30.506  25.671  1.00  0.00     0.275 C 
BRANCH  27  28
ATOM     28  O   UNL A   1      32.295  30.568  26.980  1.00  0.00    -0.458 OA
BRANCH  28  29
ATOM     29  C   UNL A   1      32.958  31.713  27.262  1.00  0.00     0.338 C 
ATOM     30  O   UNL A   1      32.523  32.850  27.248  1.00  0.00    -0.246 OA
BRANCH  29  31
ATOM     31  C   UNL A   1      34.320  31.394  27.714  1.00  0.00     0.060 A 
ATOM     32  C   UNL A   1      35.240  32.393  28.014  1.00  0.00     0.016 A 
ATOM     33  C   UNL A   1      34.614  30.064  28.003  1.00  0.00     0.016 A 
ATOM     34  C   UNL A   1      36.467  32.038  28.590  1.00  0.00     0.010 A 
ATOM     35  C   UNL A   1      35.796  29.720  28.653  1.00  0.00     0.010 A 
ATOM     36  C   UNL A   1      36.749  30.701  28.948  1.00  0.00    -0.014 A 
BRANCH  36  37
ATOM     37  C   UNL A   1      37.998  30.353  29.686  1.00  0.00     0.031 A 
ATOM     38  C   UNL A   1      38.229  30.784  31.114  1.00  0.00     0.074 A 
ATOM     39  C   UNL A   1      38.967  29.669  29.044  1.00  0.00     0.049 A 
ATOM     40  N   UNL A   1      39.214  30.471  31.921  1.00  0.00    -0.248 NA
ATOM     41  C   UNL A   1      37.256  31.719  31.701  1.00  0.00     0.031 C 
ATOM     42  C   UNL A   1      38.948  29.307  27.625  1.00  0.00     0.029 A 
ATOM     43  N   UNL A   1      40.144  29.133  29.505  1.00  0.00    -0.354 N 
ATOM     44  C   UNL A   1      38.985  31.176  33.097  1.00  0.00     0.074 A 
ATOM     45  C   UNL A   1      37.812  31.991  32.873  1.00  0.00     0.031 C 
ATOM     46  C   UNL A   1      40.012  28.535  27.352  1.00  0.00     0.029 A 
ATOM     47  C   UNL A   1      40.800  28.368  28.569  1.00  0.00     0.049 A 
ATOM     48  H   UNL A   1      40.486  29.282  30.416  1.00  0.00     0.167 HD
ATOM     49  C   UNL A   1      39.662  31.124  34.272  1.00  0.00     0.037 A 
ATOM     50  C   UNL A   1      41.890  27.588  28.687  1.00  0.00     0.037 A 
ATOM     51  C   UNL A   1      40.809  30.286  34.510  1.00  0.00     0.049 A 
ATOM     52  C   UNL A   1      42.574  27.474  30.020  1.00  0.00     0.074 A 
ATOM     53  C   UNL A   1      41.511  30.092  35.689  1.00  0.00     0.029 A 
ATOM     54  N   UNL A   1      41.423  29.500  33.548  1.00  0.00    -0.354 N 
ATOM     55  N   UNL A   1      42.273  28.051  31.157  1.00  0.00    -0.248 NA
ATOM     56  C   UNL A   1      43.742  26.586  30.084  1.00  0.00     0.031 C 
ATOM     57  C   UNL A   1      42.567  29.209  35.431  1.00  0.00     0.029 A 
ATOM     58  C   UNL A   1      42.500  28.825  34.102  1.00  0.00     0.049 A 
ATOM     59  H   UNL A   1      41.136  29.431  32.609  1.00  0.00     0.167 HD
ATOM     60  C   UNL A   1      43.204  27.587  32.075  1.00  0.00     0.074 A 
ATOM     61  C   UNL A   1      44.059  26.654  31.369  1.00  0.00     0.031 C 
ATOM     62  C   UNL A   1      43.348  27.910  33.384  1.00  0.00     0.037 A 
BRANCH  49  63
ATOM     63  C   UNL A   1      39.151  31.975  35.402  1.00  0.00     0.057 A 
ATOM     64  C   UNL A   1      38.257  31.461  36.349  1.00  0.00     0.134 A 
ATOM     65  C   UNL A   1      39.533  33.318  35.540  1.00  0.00     0.134 A 
ATOM     66  F   UNL A   1      37.838  30.190  36.271  1.00  0.00    -0.206 F 
ATOM     67  C   UNL A   1      37.770  32.247  37.396  1.00  0.00     0.040 A 
ATOM     68  C   UNL A   1      39.076  34.106  36.599  1.00  0.00     0.040 A 
ATOM     69  F   UNL A   1      40.393  33.873  34.672  1.00  0.00    -0.206 F 
ATOM     70  C   UNL A   1      38.187  33.571  37.528  1.00  0.00     0.006 A 
ENDBRANCH  49  63
BRANCH  50  71
ATOM     71  C   UNL A   1      42.360  26.786  27.529  1.00  0.00     0.057 A 
ATOM     72  C   UNL A   1      43.259  27.302  26.591  1.00  0.00     0.134 A 
ATOM     73  C   UNL A   1      41.922  25.468  27.348  1.00  0.00     0.134 A 
ATOM     74  F   UNL A   1      43.706  28.560  26.703  1.00  0.00    -0.206 F 
ATOM     75  C   UNL A   1      43.706  26.536  25.512  1.00  0.00     0.040 A 
ATOM     76  C   UNL A   1      42.380  24.683  26.290  1.00  0.00     0.040 A 
ATOM     77  F   UNL A   1      41.071  24.912  28.225  1.00  0.00    -0.206 F 
ATOM     78  C   UNL A   1      43.273  25.220  25.365  1.00  0.00     0.006 A 
ENDBRANCH  50  71
BRANCH  62  79
ATOM     79  C   UNL A   1      44.465  27.237  34.125  1.00  0.00     0.057 A 
ATOM     80  C   UNL A   1      44.268  26.002  34.753  1.00  0.00     0.134 A 
ATOM     81  C   UNL A   1      45.743  27.807  34.205  1.00  0.00     0.134 A 
ATOM     82  F   UNL A   1      43.067  25.405  34.721  1.00  0.00    -0.206 F 
ATOM     83  C   UNL A   1      45.304  25.352  35.424  1.00  0.00     0.040 A 
ATOM     84  C   UNL A   1      46.795  27.154  34.850  1.00  0.00     0.040 A 
ATOM     85  F   UNL A   1      46.001  28.983  33.609  1.00  0.00    -0.206 F 
ATOM     86  C   UNL A   1      46.575  25.924  35.464  1.00  0.00     0.006 A 
ENDBRANCH  62  79
ENDBRANCH  36  37
ENDBRANCH  29  31
ENDBRANCH  28  29
ENDBRANCH  27  28
ENDBRANCH   1  27
TORSDOF 17
ENDMDL
MODEL 2
REMARK VINA RESULT:     -11.8      3.962      9.328
REMARK SMILES CCC(CC)COc1cc2c(cc1Cl)C=C(C(=O)OCCOC(=O)c1ccc(-c3c4nc(c(-c5c(F)cccc5F)c5ccc([nH]5)c(-c5c(F)cccc5F)c5nc(c(-c6c(F)cccc6F)c6ccc3[nH]6)C=C5)C=C4)cc1)[C@@H](C(F)(F)F)O2
REMARK SMILES IDX 20 1 19 2 17 3 18 4 16 5 8 6 9 7 13 8 10 9 12 10 14 11 11 12
REMARK SMILES IDX 84 13 15 14 79 15 7 16 6 17 3 18 2 19 1 20 4 21 5 22 80 23
REMARK SMILES IDX 81 24 82 25 83 26 21 27 22 28 23 29 24 30 25 31 26 32 78 33
REMARK SMILES IDX 27 34 77 35 28 36 29 37 30 38 71 39 31 40 76 41 70 42 72 43
REMARK SMILES IDX 32 44 75 45 69 46 68 47 33 49 59 50 42 51 58 52 43 53 46 54
REMARK SMILES IDX 57 55 73 56 44 57 45 58 56 60 74 61 47 62 34 63 35 64 40 65
REMARK SMILES IDX 36 66 37 67 39 68 41 69 38 70 60 71 61 72 66 73 62 74 63 75
REMARK SMILES IDX 65 76 67 77 64 78 48 79 49 80 54 81 50 82 51 83 53 84 55 85
REMARK SMILES IDX 52 86
REMARK H PARENT 72 48 46 59
REMARK Flexibility Score: inf
ROOT
ATOM      1  C   UNL A   1      34.884  21.320  24.633  1.00  0.00     0.275 C 
ENDROOT
BRANCH   1   2
ATOM      2  O   UNL A   1      34.881  22.765  24.674  1.00  0.00    -0.459 OA
BRANCH   2   3
ATOM      3  C   UNL A   1      34.885  23.374  23.464  1.00  0.00     0.338 C 
ATOM      4  O   UNL A   1      35.637  23.115  22.535  1.00  0.00    -0.246 OA
BRANCH   3   5
ATOM      5  C   UNL A   1      33.802  24.370  23.353  1.00  0.00     0.087 C 
ATOM      6  C   UNL A   1      31.075  28.562  23.645  1.00  0.00     0.141 A 
ATOM      7  C   UNL A   1      31.025  27.446  22.799  1.00  0.00     0.095 A 
ATOM      8  C   UNL A   1      31.911  28.553  24.767  1.00  0.00     0.083 A 
ATOM      9  C   UNL A   1      31.905  26.382  23.010  1.00  0.00     0.131 A 
ATOM     10  C   UNL A   1      32.847  27.535  24.920  1.00  0.00     0.036 A 
ATOM     11  Cl  UNL A   1      31.869  29.794  25.964  1.00  0.00    -0.080 Cl
ATOM     12  C   UNL A   1      32.863  26.468  24.023  1.00  0.00     0.019 A 
ATOM     13  O   UNL A   1      31.826  25.303  22.167  1.00  0.00    -0.475 OA
ATOM     14  C   UNL A   1      33.916  25.474  24.104  1.00  0.00     0.027 C 
ATOM     15  C   UNL A   1      32.552  24.096  22.561  1.00  0.00     0.316 C 
BRANCH   6  16
ATOM     16  O   UNL A   1      30.286  29.653  23.390  1.00  0.00    -0.492 OA
BRANCH  16  17
ATOM     17  C   UNL A   1      29.888  29.751  22.001  1.00  0.00     0.233 C 
BRANCH  17  18
ATOM     18  C   UNL A   1      28.438  30.278  21.829  1.00  0.00     0.026 C 
BRANCH  18  19
ATOM     19  C   UNL A   1      27.580  29.994  23.085  1.00  0.00     0.003 C 
ATOM     20  C   UNL A   1      27.024  28.578  23.127  1.00  0.00     0.004 C 
ENDBRANCH  18  19
BRANCH  18  21
ATOM     21  C   UNL A   1      28.410  31.774  21.437  1.00  0.00     0.003 C 
ATOM     22  C   UNL A   1      28.777  32.748  22.548  1.00  0.00     0.004 C 
ENDBRANCH  18  21
ENDBRANCH  17  18
ENDBRANCH  16  17
ENDBRANCH   6  16
BRANCH  15  23
ATOM     23  C   UNL A   1      31.655  23.139  23.367  1.00  0.00     0.430 C 
ATOM     24  F   UNL A   1      31.924  21.843  23.096  1.00  0.00    -0.167 F 
ATOM     25  F   UNL A   1      31.842  23.308  24.701  1.00  0.00    -0.167 F 
ATOM     26  F   UNL A   1      30.338  23.341  23.125  1.00  0.00    -0.167 F 
ENDBRANCH  15  23
ENDBRANCH   3   5
ENDBRANCH   2   3
ENDBRANCH   1   2
BRANCH   1  27
ATOM     27  C   UNL A   1      36.230  20.733  25.061  1.00  0.00     0.275 C 
BRANCH  27  28
ATOM     28  O   UNL A   1      37.221  21.769  25.198  1.00  0.00    -0.458 OA
BRANCH  28  29
ATOM     29  C   UNL A   1      38.393  21.384  25.751  1.00  0.00     0.338 C 
ATOM     30  O   UNL A   1      38.939  20.299  25.661  1.00  0.00    -0.246 OA
BRANCH  29  31
ATOM     31  C   UNL A   1      39.017  22.529  26.429  1.00  0.00     0.060 A 
ATOM     32  C   UNL A   1      40.157  22.378  27.212  1.00  0.00     0.016 A 
ATOM     33  C   UNL A   1      38.540  23.802  26.127  1.00  0.00     0.016 A 
ATOM     34  C   UNL A   1      40.801  23.521  27.704  1.00  0.00     0.010 A 
ATOM     35  C   UNL A   1      39.228  24.938  26.545  1.00  0.00     0.010 A 
ATOM     36  C   UNL A   1      40.365  24.817  27.350  1.00  0.00    -0.014 A 
BRANCH  36  37
ATOM     37  C   UNL A   1      41.137  26.025  27.764  1.00  0.00     0.031 A 
ATOM     38  C   UNL A   1      42.548  26.273  27.288  1.00  0.00     0.074 A 
ATOM     39  C   UNL A   1      40.573  26.898  28.623  1.00  0.00     0.049 A 
ATOM     40  N   UNL A   1      43.309  27.325  27.477  1.00  0.00    -0.248 NA
ATOM     41  C   UNL A   1      43.208  25.190  26.543  1.00  0.00     0.031 C 
ATOM     42  C   UNL A   1      39.275  26.722  29.278  1.00  0.00     0.029 A 
ATOM     43  N   UNL A   1      41.005  28.121  29.074  1.00  0.00    -0.354 N 
ATOM     44  C   UNL A   1      44.531  27.023  26.887  1.00  0.00     0.074 A 
ATOM     45  C   UNL A   1      44.437  25.664  26.401  1.00  0.00     0.031 C 
ATOM     46  C   UNL A   1      38.977  27.831  29.973  1.00  0.00     0.029 A 
ATOM     47  C   UNL A   1      40.071  28.786  29.832  1.00  0.00     0.049 A 
ATOM     48  H   UNL A   1      41.898  28.486  28.874  1.00  0.00     0.167 HD
ATOM     49  C   UNL A   1      45.622  27.815  26.725  1.00  0.00     0.037 A 
ATOM     50  C   UNL A   1      40.076  30.038  30.326  1.00  0.00     0.037 A 
ATOM     51  C   UNL A   1      45.706  29.181  27.174  1.00  0.00     0.049 A 
ATOM     52  C   UNL A   1      41.256  30.929  30.060  1.00  0.00     0.074 A 
ATOM     53  C   UNL A   1      46.728  30.095  26.981  1.00  0.00     0.029 A 
ATOM     54  N   UNL A   1      44.725  29.829  27.909  1.00  0.00    -0.354 N 
ATOM     55  N   UNL A   1      42.355  30.673  29.393  1.00  0.00    -0.248 NA
ATOM     56  C   UNL A   1      41.185  32.292  30.605  1.00  0.00     0.031 C 
ATOM     57  C   UNL A   1      46.377  31.289  27.623  1.00  0.00     0.029 A 
ATOM     58  C   UNL A   1      45.121  31.129  28.184  1.00  0.00     0.049 A 
ATOM     59  H   UNL A   1      43.874  29.426  28.192  1.00  0.00     0.167 HD
ATOM     60  C   UNL A   1      43.100  31.843  29.427  1.00  0.00     0.074 A 
ATOM     61  C   UNL A   1      42.312  32.820  30.151  1.00  0.00     0.031 C 
ATOM     62  C   UNL A   1      44.331  32.086  28.915  1.00  0.00     0.037 A 
BRANCH  49  63
ATOM     63  C   UNL A   1      46.800  27.227  25.997  1.00  0.00     0.057 A 
ATOM     64  C   UNL A   1      46.942  27.374  24.612  1.00  0.00     0.134 A 
ATOM     65  C   UNL A   1      47.788  26.495  26.671  1.00  0.00     0.134 A 
ATOM     66  F   UNL A   1      46.028  28.051  23.900  1.00  0.00    -0.206 F 
ATOM     67  C   UNL A   1      48.028  26.824  23.927  1.00  0.00     0.040 A 
ATOM     68  C   UNL A   1      48.893  25.965  26.002  1.00  0.00     0.040 A 
ATOM     69  F   UNL A   1      47.718  26.322  27.999  1.00  0.00    -0.206 F 
ATOM     70  C   UNL A   1      49.012  26.125  24.623  1.00  0.00     0.006 A 
ENDBRANCH  49  63
BRANCH  50  71
ATOM     71  C   UNL A   1      38.891  30.556  31.054  1.00  0.00     0.057 A 
ATOM     72  C   UNL A   1      38.747  30.396  32.436  1.00  0.00     0.134 A 
ATOM     73  C   UNL A   1      37.876  31.240  30.373  1.00  0.00     0.134 A 
ATOM     74  F   UNL A   1      39.679  29.741  33.143  1.00  0.00    -0.206 F 
ATOM     75  C   UNL A   1      37.636  30.898  33.116  1.00  0.00     0.040 A 
ATOM     76  C   UNL A   1      36.772  31.769  31.043  1.00  0.00     0.040 A 
ATOM     77  F   UNL A   1      37.966  31.438  29.049  1.00  0.00    -0.206 F 
ATOM     78  C   UNL A   1      36.649  31.595  32.420  1.00  0.00     0.006 A 
ENDBRANCH  50  71
BRANCH  62  79
ATOM     79  C   UNL A   1      44.884  33.466  29.117  1.00  0.00     0.057 A 
ATOM     80  C   UNL A   1      45.682  33.762  30.229  1.00  0.00     0.134 A 
ATOM     81  C   UNL A   1      44.637  34.498  28.202  1.00  0.00     0.134 A 
ATOM     82  F   UNL A   1      45.951  32.822  31.146  1.00  0.00    -0.206 F 
ATOM     83  C   UNL A   1      46.225  35.034  30.416  1.00  0.00     0.040 A 
ATOM     84  C   UNL A   1      45.197  35.767  28.366  1.00  0.00     0.040 A 
ATOM     85  F   UNL A   1      43.894  34.273  27.108  1.00  0.00    -0.206 F 
ATOM     86  C   UNL A   1      45.991  36.037  29.478  1.00  0.00     0.006 A 
ENDBRANCH  62  79
ENDBRANCH  36  37
ENDBRANCH  29  31
ENDBRANCH  28  29
ENDBRANCH  27  28
ENDBRANCH   1  27
TORSDOF 17
ENDMDL
MODEL 3
REMARK VINA RESULT:     -11.3      6.040     11.826
REMARK SMILES CCC(CC)COc1cc2c(cc1Cl)C=C(C(=O)OCCOC(=O)c1ccc(-c3c4nc(c(-c5c(F)cccc5F)c5ccc([nH]5)c(-c5c(F)cccc5F)c5nc(c(-c6c(F)cccc6F)c6ccc3[nH]6)C=C5)C=C4)cc1)[C@@H](C(F)(F)F)O2
REMARK SMILES IDX 20 1 19 2 17 3 18 4 16 5 8 6 9 7 13 8 10 9 12 10 14 11 11 12
REMARK SMILES IDX 84 13 15 14 79 15 7 16 6 17 3 18 2 19 1 20 4 21 5 22 80 23
REMARK SMILES IDX 81 24 82 25 83 26 21 27 22 28 23 29 24 30 25 31 26 32 78 33
REMARK SMILES IDX 27 34 77 35 28 36 29 37 30 38 71 39 31 40 76 41 70 42 72 43
REMARK SMILES IDX 32 44 75 45 69 46 68 47 33 49 59 50 42 51 58 52 43 53 46 54
REMARK SMILES IDX 57 55 73 56 44 57 45 58 56 60 74 61 47 62 34 63 35 64 40 65
REMARK SMILES IDX 36 66 37 67 39 68 41 69 38 70 60 71 61 72 66 73 62 74 63 75
REMARK SMILES IDX 65 76 67 77 64 78 48 79 49 80 54 81 50 82 51 83 53 84 55 85
REMARK SMILES IDX 52 86
REMARK H PARENT 72 48 46 59
REMARK Flexibility Score: inf
ROOT
ATOM      1  C   UNL A   1      45.969  20.752  24.956  1.00  0.00     0.275 C 
ENDROOT
BRANCH   1   2
ATOM      2  O   UNL A   1      46.011  22.077  25.533  1.00  0.00    -0.459 OA
BRANCH   2   3
ATOM      3  C   UNL A   1      45.712  23.085  24.680  1.00  0.00     0.338 C 
ATOM      4  O   UNL A   1      45.297  22.957  23.536  1.00  0.00    -0.246 OA
BRANCH   3   5
ATOM      5  C   UNL A   1      45.877  24.405  25.319  1.00  0.00     0.087 C 
ATOM      6  C   UNL A   1      45.023  28.818  27.530  1.00  0.00     0.141 A 
ATOM      7  C   UNL A   1      46.135  27.967  27.492  1.00  0.00     0.095 A 
ATOM      8  C   UNL A   1      43.922  28.568  26.702  1.00  0.00     0.083 A 
ATOM      9  C   UNL A   1      46.087  26.804  26.721  1.00  0.00     0.131 A 
ATOM     10  C   UNL A   1      43.842  27.365  26.008  1.00  0.00     0.036 A 
ATOM     11  Cl  UNL A   1      42.615  29.681  26.539  1.00  0.00    -0.080 Cl
ATOM     12  C   UNL A   1      44.911  26.471  26.044  1.00  0.00     0.019 A 
ATOM     13  O   UNL A   1      47.196  25.996  26.701  1.00  0.00    -0.475 OA
ATOM     14  C   UNL A   1      44.779  25.165  25.428  1.00  0.00     0.027 C 
ATOM     15  C   UNL A   1      47.233  24.942  25.687  1.00  0.00     0.316 C 
BRANCH   6  16
ATOM     16  O   UNL A   1      45.021  29.909  28.359  1.00  0.00    -0.492 OA
BRANCH  16  17
ATOM     17  C   UNL A   1      45.798  31.015  27.840  1.00  0.00     0.233 C 
BRANCH  17  18
ATOM     18  C   UNL A   1      46.935  31.452  28.801  1.00  0.00     0.026 C 
BRANCH  18  19
ATOM     19  C   UNL A   1      48.301  30.872  28.363  1.00  0.00     0.003 C 
ATOM     20  C   UNL A   1      49.194  30.480  29.533  1.00  0.00     0.004 C 
ENDBRANCH  18  19
BRANCH  18  21
ATOM     21  C   UNL A   1      46.989  32.988  28.972  1.00  0.00     0.003 C 
ATOM     22  C   UNL A   1      47.465  33.479  30.331  1.00  0.00     0.004 C 
ENDBRANCH  18  21
ENDBRANCH  17  18
ENDBRANCH  16  17
ENDBRANCH   6  16
BRANCH  15  23
ATOM     23  C   UNL A   1      47.942  25.421  24.406  1.00  0.00     0.430 C 
ATOM     24  F   UNL A   1      47.396  26.557  23.919  1.00  0.00    -0.167 F 
ATOM     25  F   UNL A   1      49.251  25.687  24.649  1.00  0.00    -0.167 F 
ATOM     26  F   UNL A   1      47.904  24.494  23.420  1.00  0.00    -0.167 F 
ENDBRANCH  15  23
ENDBRANCH   3   5
ENDBRANCH   2   3
ENDBRANCH   1   2
BRANCH   1  27
ATOM     27  C   UNL A   1      44.809  19.919  25.503  1.00  0.00     0.275 C 
BRANCH  27  28
ATOM     28  O   UNL A   1      43.576  20.264  24.844  1.00  0.00    -0.458 OA
BRANCH  28  29
ATOM     29  C   UNL A   1      42.461  20.154  25.602  1.00  0.00     0.338 C 
ATOM     30  O   UNL A   1      41.717  19.194  25.699  1.00  0.00    -0.246 OA
BRANCH  29  31
ATOM     31  C   UNL A   1      42.302  21.363  26.421  1.00  0.00     0.060 A 
ATOM     32  C   UNL A   1      42.314  21.307  27.811  1.00  0.00     0.016 A 
ATOM     33  C   UNL A   1      42.311  22.594  25.771  1.00  0.00     0.016 A 
ATOM     34  C   UNL A   1      42.318  22.504  28.540  1.00  0.00     0.010 A 
ATOM     35  C   UNL A   1      42.400  23.781  26.494  1.00  0.00     0.010 A 
ATOM     36  C   UNL A   1      42.394  23.757  27.892  1.00  0.00    -0.014 A 
BRANCH  36  37
ATOM     37  C   UNL A   1      42.537  25.018  28.677  1.00  0.00     0.031 A 
ATOM     38  C   UNL A   1      43.828  25.389  29.365  1.00  0.00     0.074 A 
ATOM     39  C   UNL A   1      41.467  25.829  28.810  1.00  0.00     0.049 A 
ATOM     40  N   UNL A   1      44.138  26.497  29.995  1.00  0.00    -0.248 NA
ATOM     41  C   UNL A   1      44.894  24.375  29.389  1.00  0.00     0.031 C 
ATOM     42  C   UNL A   1      40.117  25.536  28.324  1.00  0.00     0.029 A 
ATOM     43  N   UNL A   1      41.351  27.076  29.372  1.00  0.00    -0.354 N 
ATOM     44  C   UNL A   1      45.421  26.306  30.495  1.00  0.00     0.074 A 
ATOM     45  C   UNL A   1      45.803  24.952  30.163  1.00  0.00     0.031 C 
ATOM     46  C   UNL A   1      39.333  26.606  28.526  1.00  0.00     0.029 A 
ATOM     47  C   UNL A   1      40.116  27.650  29.178  1.00  0.00     0.049 A 
ATOM     48  H   UNL A   1      42.080  27.516  29.867  1.00  0.00     0.167 HD
ATOM     49  C   UNL A   1      46.228  27.188  31.138  1.00  0.00     0.037 A 
ATOM     50  C   UNL A   1      39.676  28.890  29.457  1.00  0.00     0.037 A 
ATOM     51  C   UNL A   1      45.866  28.549  31.438  1.00  0.00     0.049 A 
ATOM     52  C   UNL A   1      40.613  29.880  30.089  1.00  0.00     0.074 A 
ATOM     53  C   UNL A   1      46.642  29.548  32.004  1.00  0.00     0.029 A 
ATOM     54  N   UNL A   1      44.619  29.103  31.195  1.00  0.00    -0.354 N 
ATOM     55  N   UNL A   1      41.864  29.725  30.445  1.00  0.00    -0.248 NA
ATOM     56  C   UNL A   1      40.075  31.224  30.343  1.00  0.00     0.031 C 
ATOM     57  C   UNL A   1      45.853  30.699  32.128  1.00  0.00     0.029 A 
ATOM     58  C   UNL A   1      44.599  30.427  31.606  1.00  0.00     0.049 A 
ATOM     59  H   UNL A   1      43.859  28.627  30.790  1.00  0.00     0.167 HD
ATOM     60  C   UNL A   1      42.269  30.953  30.952  1.00  0.00     0.074 A 
ATOM     61  C   UNL A   1      41.138  31.851  30.825  1.00  0.00     0.031 C 
ATOM     62  C   UNL A   1      43.464  31.304  31.484  1.00  0.00     0.037 A 
BRANCH  49  63
ATOM     63  C   UNL A   1      47.601  26.711  31.526  1.00  0.00     0.057 A 
ATOM     64  C   UNL A   1      47.845  26.156  32.789  1.00  0.00     0.134 A 
ATOM     65  C   UNL A   1      48.691  26.821  30.651  1.00  0.00     0.134 A 
ATOM     66  F   UNL A   1      46.853  26.033  33.682  1.00  0.00    -0.206 F 
ATOM     67  C   UNL A   1      49.118  25.719  33.161  1.00  0.00     0.040 A 
ATOM     68  C   UNL A   1      49.963  26.360  31.000  1.00  0.00     0.040 A 
ATOM     69  F   UNL A   1      48.528  27.335  29.423  1.00  0.00    -0.206 F 
ATOM     70  C   UNL A   1      50.179  25.812  32.262  1.00  0.00     0.006 A 
ENDBRANCH  49  63
BRANCH  50  71
ATOM     71  C   UNL A   1      38.302  29.298  29.068  1.00  0.00     0.057 A 
ATOM     72  C   UNL A   1      37.987  29.665  27.756  1.00  0.00     0.134 A 
ATOM     73  C   UNL A   1      37.267  29.314  30.011  1.00  0.00     0.134 A 
ATOM     74  F   UNL A   1      38.936  29.681  26.810  1.00  0.00    -0.206 F 
ATOM     75  C   UNL A   1      36.690  30.034  27.395  1.00  0.00     0.040 A 
ATOM     76  C   UNL A   1      35.961  29.656  29.658  1.00  0.00     0.040 A 
ATOM     77  F   UNL A   1      37.505  28.956  31.282  1.00  0.00    -0.206 F 
ATOM     78  C   UNL A   1      35.671  30.021  28.346  1.00  0.00     0.006 A 
ENDBRANCH  50  71
BRANCH  62  79
ATOM     79  C   UNL A   1      43.600  32.722  31.956  1.00  0.00     0.057 A 
ATOM     80  C   UNL A   1      43.830  33.761  31.047  1.00  0.00     0.134 A 
ATOM     81  C   UNL A   1      43.489  33.060  33.312  1.00  0.00     0.134 A 
ATOM     82  F   UNL A   1      43.953  33.506  29.736  1.00  0.00    -0.206 F 
ATOM     83  C   UNL A   1      43.933  35.087  31.468  1.00  0.00     0.040 A 
ATOM     84  C   UNL A   1      43.564  34.385  33.742  1.00  0.00     0.040 A 
ATOM     85  F   UNL A   1      43.252  32.111  34.232  1.00  0.00    -0.206 F 
ATOM     86  C   UNL A   1      43.789  35.403  32.818  1.00  0.00     0.006 A 
ENDBRANCH  62  79
ENDBRANCH  36  37
ENDBRANCH  29  31
ENDBRANCH  28  29
ENDBRANCH  27  28
ENDBRANCH   1  27
TORSDOF 17
ENDMDL
