MODEL 1
REMARK VINA RESULT:     -12.1      0.000      0.000
REMARK SMILES Cc1cc2c(c(C)c1Br)C=C(C(=O)OCCOC(=O)c1ccc(-c3c4nc(c(-c5c(F)cccc5F)c5ccc([nH]5)c(-c5c(F)cccc5F)c5nc(c(-c6c(F)cccc6F)c6ccc3[nH]6)C=C5)C=C4)cc1)[C@@H](C(F)(F)F)O2
REMARK SMILES IDX 16 1 15 2 14 3 12 4 13 5 11 6 1 7 2 8 3 9 8 10 4 11 6 12
REMARK SMILES IDX 9 13 5 14 79 15 7 16 10 17 74 18 75 19 76 20 77 21 78 22
REMARK SMILES IDX 17 23 18 24 19 25 20 26 21 27 73 28 22 29 72 30 23 31 24 32
REMARK SMILES IDX 25 33 66 34 26 35 71 36 65 37 67 38 27 39 70 40 64 41 63 42
REMARK SMILES IDX 28 44 54 45 37 46 53 47 38 48 41 49 52 50 68 51 39 52 40 53
REMARK SMILES IDX 51 55 69 56 42 57 29 58 30 59 35 60 31 61 32 62 34 63 36 64
REMARK SMILES IDX 33 65 55 66 56 67 61 68 57 69 58 70 60 71 62 72 59 73 43 74
REMARK SMILES IDX 44 75 49 76 45 77 46 78 48 79 50 80 47 81
REMARK H PARENT 67 43 41 54
REMARK Flexibility Score: inf
ROOT
ATOM      1  C   UNL A   1      31.788  30.065  25.512  1.00  0.00     0.275 C 
ENDROOT
BRANCH   1   2
ATOM      2  C   UNL A   1      31.437  28.594  25.291  1.00  0.00     0.275 C 
BRANCH   2   3
ATOM      3  O   UNL A   1      32.533  27.734  25.671  1.00  0.00    -0.459 OA
BRANCH   3   4
ATOM      4  C   UNL A   1      33.198  27.150  24.649  1.00  0.00     0.338 C 
ATOM      5  O   UNL A   1      33.736  27.715  23.709  1.00  0.00    -0.246 OA
BRANCH   4   6
ATOM      6  C   UNL A   1      33.218  25.685  24.815  1.00  0.00     0.087 C 
ATOM      7  C   UNL A   1      34.402  19.312  24.712  1.00  0.00     0.046 C 
ATOM      8  C   UNL A   1      34.486  20.809  24.849  1.00  0.00    -0.033 A 
ATOM      9  C   UNL A   1      33.283  21.530  24.839  1.00  0.00     0.051 A 
ATOM     10  C   UNL A   1      35.704  21.514  24.915  1.00  0.00     0.024 A 
ATOM     11  C   UNL A   1      33.277  22.922  24.888  1.00  0.00     0.128 A 
ATOM     12  C   UNL A   1      35.719  22.928  24.999  1.00  0.00    -0.026 A 
ATOM     13  Br  UNL A   1      37.344  20.526  24.848  1.00  0.00    -0.050 Br
ATOM     14  C   UNL A   1      34.480  23.627  24.959  1.00  0.00     0.021 A 
ATOM     15  O   UNL A   1      32.037  23.501  24.874  1.00  0.00    -0.475 OA
ATOM     16  C   UNL A   1      37.006  23.710  25.128  1.00  0.00     0.046 C 
ATOM     17  C   UNL A   1      34.406  25.086  24.949  1.00  0.00     0.027 C 
ATOM     18  C   UNL A   1      31.928  24.936  24.682  1.00  0.00     0.316 C 
BRANCH  18  19
ATOM     19  C   UNL A   1      31.255  25.213  23.327  1.00  0.00     0.430 C 
ATOM     20  F   UNL A   1      32.168  25.313  22.333  1.00  0.00    -0.167 F 
ATOM     21  F   UNL A   1      30.413  24.210  22.978  1.00  0.00    -0.167 F 
ATOM     22  F   UNL A   1      30.537  26.359  23.339  1.00  0.00    -0.167 F 
ENDBRANCH  18  19
ENDBRANCH   4   6
ENDBRANCH   3   4
ENDBRANCH   2   3
ENDBRANCH   1   2
BRANCH   1  23
ATOM     23  O   UNL A   1      32.170  30.280  26.882  1.00  0.00    -0.458 OA
BRANCH  23  24
ATOM     24  C   UNL A   1      32.797  31.451  27.137  1.00  0.00     0.338 C 
ATOM     25  O   UNL A   1      32.317  32.571  27.114  1.00  0.00    -0.246 OA
BRANCH  24  26
ATOM     26  C   UNL A   1      34.192  31.201  27.540  1.00  0.00     0.060 A 
ATOM     27  C   UNL A   1      34.622  29.890  27.692  1.00  0.00     0.016 A 
ATOM     28  C   UNL A   1      35.008  32.252  27.953  1.00  0.00     0.016 A 
ATOM     29  C   UNL A   1      35.786  29.620  28.406  1.00  0.00     0.010 A 
ATOM     30  C   UNL A   1      36.249  31.975  28.544  1.00  0.00     0.010 A 
ATOM     31  C   UNL A   1      36.630  30.653  28.839  1.00  0.00    -0.014 A 
BRANCH  31  32
ATOM     32  C   UNL A   1      37.860  30.348  29.640  1.00  0.00     0.031 A 
ATOM     33  C   UNL A   1      38.983  29.531  29.039  1.00  0.00     0.074 A 
ATOM     34  C   UNL A   1      38.011  30.832  30.892  1.00  0.00     0.049 A 
ATOM     35  N   UNL A   1      40.018  28.988  29.631  1.00  0.00    -0.248 NA
ATOM     36  C   UNL A   1      38.931  29.281  27.589  1.00  0.00     0.031 C 
ATOM     37  C   UNL A   1      37.056  31.688  31.598  1.00  0.00     0.029 A 
ATOM     38  N   UNL A   1      39.043  30.691  31.792  1.00  0.00    -0.354 N 
ATOM     39  C   UNL A   1      40.694  28.277  28.645  1.00  0.00     0.074 A 
ATOM     40  C   UNL A   1      39.956  28.457  27.414  1.00  0.00     0.031 C 
ATOM     41  C   UNL A   1      37.575  32.057  32.777  1.00  0.00     0.029 A 
ATOM     42  C   UNL A   1      38.837  31.359  32.976  1.00  0.00     0.049 A 
ATOM     43  H   UNL A   1      39.852  30.162  31.606  1.00  0.00     0.167 HD
ATOM     44  C   UNL A   1      41.827  27.542  28.756  1.00  0.00     0.037 A 
ATOM     45  C   UNL A   1      39.544  31.371  34.124  1.00  0.00     0.037 A 
ATOM     46  C   UNL A   1      42.610  27.433  29.960  1.00  0.00     0.049 A 
ATOM     47  C   UNL A   1      40.770  30.513  34.237  1.00  0.00     0.074 A 
ATOM     48  C   UNL A   1      43.777  26.715  30.165  1.00  0.00     0.029 A 
ATOM     49  N   UNL A   1      42.326  28.081  31.151  1.00  0.00    -0.354 N 
ATOM     50  N   UNL A   1      41.339  29.763  33.326  1.00  0.00    -0.248 NA
ATOM     51  C   UNL A   1      41.432  30.471  35.550  1.00  0.00     0.031 C 
ATOM     52  C   UNL A   1      44.179  26.901  31.490  1.00  0.00     0.029 A 
ATOM     53  C   UNL A   1      43.289  27.771  32.098  1.00  0.00     0.049 A 
ATOM     54  H   UNL A   1      41.555  28.675  31.302  1.00  0.00     0.167 HD
ATOM     55  C   UNL A   1      42.426  29.166  33.951  1.00  0.00     0.074 A 
ATOM     56  C   UNL A   1      42.453  29.661  35.311  1.00  0.00     0.031 C 
ATOM     57  C   UNL A   1      43.312  28.276  33.445  1.00  0.00     0.037 A 
BRANCH  44  58
ATOM     58  C   UNL A   1      42.299  26.773  27.554  1.00  0.00     0.057 A 
ATOM     59  C   UNL A   1      41.907  25.452  27.313  1.00  0.00     0.134 A 
ATOM     60  C   UNL A   1      43.074  27.406  26.572  1.00  0.00     0.134 A 
ATOM     61  F   UNL A   1      41.174  24.785  28.216  1.00  0.00    -0.206 F 
ATOM     62  C   UNL A   1      42.273  24.786  26.140  1.00  0.00     0.040 A 
ATOM     63  C   UNL A   1      43.425  26.760  25.386  1.00  0.00     0.040 A 
ATOM     64  F   UNL A   1      43.476  28.677  26.735  1.00  0.00    -0.206 F 
ATOM     65  C   UNL A   1      43.023  25.446  25.167  1.00  0.00     0.006 A 
ENDBRANCH  44  58
BRANCH  45  66
ATOM     66  C   UNL A   1      39.069  32.174  35.282  1.00  0.00     0.057 A 
ATOM     67  C   UNL A   1      38.275  31.603  36.282  1.00  0.00     0.134 A 
ATOM     68  C   UNL A   1      39.403  33.528  35.422  1.00  0.00     0.134 A 
ATOM     69  F   UNL A   1      37.895  30.320  36.193  1.00  0.00    -0.206 F 
ATOM     70  C   UNL A   1      37.829  32.347  37.377  1.00  0.00     0.040 A 
ATOM     71  C   UNL A   1      38.994  34.274  36.527  1.00  0.00     0.040 A 
ATOM     72  F   UNL A   1      40.159  34.138  34.497  1.00  0.00    -0.206 F 
ATOM     73  C   UNL A   1      38.199  33.685  37.506  1.00  0.00     0.006 A 
ENDBRANCH  45  66
BRANCH  57  74
ATOM     74  C   UNL A   1      44.403  27.794  34.352  1.00  0.00     0.057 A 
ATOM     75  C   UNL A   1      44.269  26.618  35.099  1.00  0.00     0.134 A 
ATOM     76  C   UNL A   1      45.620  28.482  34.434  1.00  0.00     0.134 A 
ATOM     77  F   UNL A   1      43.122  25.922  35.072  1.00  0.00    -0.206 F 
ATOM     78  C   UNL A   1      45.306  26.146  35.905  1.00  0.00     0.040 A 
ATOM     79  C   UNL A   1      46.673  28.007  35.218  1.00  0.00     0.040 A 
ATOM     80  F   UNL A   1      45.814  29.611  33.737  1.00  0.00    -0.206 F 
ATOM     81  C   UNL A   1      46.515  26.837  35.959  1.00  0.00     0.006 A 
ENDBRANCH  57  74
ENDBRANCH  31  32
ENDBRANCH  24  26
ENDBRANCH  23  24
ENDBRANCH   1  23
TORSDOF 12
ENDMDL
MODEL 2
REMARK VINA RESULT:     -12.1      3.882      8.712
REMARK SMILES Cc1cc2c(c(C)c1Br)C=C(C(=O)OCCOC(=O)c1ccc(-c3c4nc(c(-c5c(F)cccc5F)c5ccc([nH]5)c(-c5c(F)cccc5F)c5nc(c(-c6c(F)cccc6F)c6ccc3[nH]6)C=C5)C=C4)cc1)[C@@H](C(F)(F)F)O2
REMARK SMILES IDX 16 1 15 2 14 3 12 4 13 5 11 6 1 7 2 8 3 9 8 10 4 11 6 12
REMARK SMILES IDX 9 13 5 14 79 15 7 16 10 17 74 18 75 19 76 20 77 21 78 22
REMARK SMILES IDX 17 23 18 24 19 25 20 26 21 27 73 28 22 29 72 30 23 31 24 32
REMARK SMILES IDX 25 33 66 34 26 35 71 36 65 37 67 38 27 39 70 40 64 41 63 42
REMARK SMILES IDX 28 44 54 45 37 46 53 47 38 48 41 49 52 50 68 51 39 52 40 53
REMARK SMILES IDX 51 55 69 56 42 57 29 58 30 59 35 60 31 61 32 62 34 63 36 64
REMARK SMILES IDX 33 65 55 66 56 67 61 68 57 69 58 70 60 71 62 72 59 73 43 74
REMARK SMILES IDX 44 75 49 76 45 77 46 78 48 79 50 80 47 81
REMARK H PARENT 67 43 41 54
REMARK Flexibility Score: inf
ROOT
ATOM      1  C   UNL A   1      35.998  20.730  25.101  1.00  0.00     0.275 C 
ENDROOT
BRANCH   1   2
ATOM      2  C   UNL A   1      34.754  21.465  24.601  1.00  0.00     0.275 C 
BRANCH   2   3
ATOM      3  O   UNL A   1      34.891  22.893  24.768  1.00  0.00    -0.459 OA
BRANCH   3   4
ATOM      4  C   UNL A   1      34.055  23.458  25.668  1.00  0.00     0.338 C 
ATOM      5  O   UNL A   1      33.871  23.099  26.821  1.00  0.00    -0.246 OA
BRANCH   4   6
ATOM      6  C   UNL A   1      33.370  24.623  25.077  1.00  0.00     0.087 C 
ATOM      7  C   UNL A   1      30.061  30.048  23.793  1.00  0.00     0.046 C 
ATOM      8  C   UNL A   1      31.029  29.018  24.312  1.00  0.00    -0.033 A 
ATOM      9  C   UNL A   1      31.083  27.784  23.648  1.00  0.00     0.051 A 
ATOM     10  C   UNL A   1      31.819  29.209  25.464  1.00  0.00     0.024 A 
ATOM     11  C   UNL A   1      31.898  26.753  24.108  1.00  0.00     0.128 A 
ATOM     12  C   UNL A   1      32.680  28.184  25.929  1.00  0.00    -0.026 A 
ATOM     13  Br  UNL A   1      31.679  30.868  26.411  1.00  0.00    -0.050 Br
ATOM     14  C   UNL A   1      32.689  26.937  25.245  1.00  0.00     0.021 A 
ATOM     15  O   UNL A   1      31.860  25.603  23.367  1.00  0.00    -0.475 OA
ATOM     16  C   UNL A   1      33.583  28.378  27.126  1.00  0.00     0.046 C 
ATOM     17  C   UNL A   1      33.476  25.797  25.708  1.00  0.00     0.027 C 
ATOM     18  C   UNL A   1      32.482  24.401  23.892  1.00  0.00     0.316 C 
BRANCH  18  19
ATOM     19  C   UNL A   1      31.391  23.361  24.195  1.00  0.00     0.430 C 
ATOM     20  F   UNL A   1      30.989  23.427  25.485  1.00  0.00    -0.167 F 
ATOM     21  F   UNL A   1      30.287  23.565  23.436  1.00  0.00    -0.167 F 
ATOM     22  F   UNL A   1      31.812  22.096  23.963  1.00  0.00    -0.167 F 
ENDBRANCH  18  19
ENDBRANCH   4   6
ENDBRANCH   3   4
ENDBRANCH   2   3
ENDBRANCH   1   2
BRANCH   1  23
ATOM     23  O   UNL A   1      37.172  21.523  24.851  1.00  0.00    -0.458 OA
BRANCH  23  24
ATOM     24  C   UNL A   1      38.298  21.113  25.478  1.00  0.00     0.338 C 
ATOM     25  O   UNL A   1      38.832  20.019  25.407  1.00  0.00    -0.246 OA
BRANCH  24  26
ATOM     26  C   UNL A   1      38.884  22.225  26.247  1.00  0.00     0.060 A 
ATOM     27  C   UNL A   1      38.328  23.491  26.125  1.00  0.00     0.016 A 
ATOM     28  C   UNL A   1      40.089  22.058  26.926  1.00  0.00     0.016 A 
ATOM     29  C   UNL A   1      39.051  24.608  26.531  1.00  0.00     0.010 A 
ATOM     30  C   UNL A   1      40.744  23.177  27.461  1.00  0.00     0.010 A 
ATOM     31  C   UNL A   1      40.269  24.477  27.216  1.00  0.00    -0.014 A 
BRANCH  31  32
ATOM     32  C   UNL A   1      41.054  25.691  27.613  1.00  0.00     0.031 A 
ATOM     33  C   UNL A   1      40.440  26.742  28.511  1.00  0.00     0.074 A 
ATOM     34  C   UNL A   1      42.336  25.848  27.217  1.00  0.00     0.049 A 
ATOM     35  N   UNL A   1      40.873  27.947  28.790  1.00  0.00    -0.248 NA
ATOM     36  C   UNL A   1      39.169  26.403  29.172  1.00  0.00     0.031 C 
ATOM     37  C   UNL A   1      43.102  24.901  26.404  1.00  0.00     0.029 A 
ATOM     38  N   UNL A   1      43.237  26.858  27.466  1.00  0.00    -0.354 N 
ATOM     39  C   UNL A   1      39.898  28.529  29.593  1.00  0.00     0.074 A 
ATOM     40  C   UNL A   1      38.849  27.547  29.761  1.00  0.00     0.031 C 
ATOM     41  C   UNL A   1      44.365  25.331  26.289  1.00  0.00     0.029 A 
ATOM     42  C   UNL A   1      44.472  26.649  26.900  1.00  0.00     0.049 A 
ATOM     43  H   UNL A   1      43.018  27.656  28.000  1.00  0.00     0.167 HD
ATOM     44  C   UNL A   1      39.880  29.768  30.141  1.00  0.00     0.037 A 
ATOM     45  C   UNL A   1      45.559  27.443  26.819  1.00  0.00     0.037 A 
ATOM     46  C   UNL A   1      40.961  30.715  30.045  1.00  0.00     0.049 A 
ATOM     47  C   UNL A   1      45.497  28.828  27.394  1.00  0.00     0.074 A 
ATOM     48  C   UNL A   1      41.035  31.993  30.574  1.00  0.00     0.029 A 
ATOM     49  N   UNL A   1      42.169  30.477  29.408  1.00  0.00    -0.354 N 
ATOM     50  N   UNL A   1      44.527  29.402  28.061  1.00  0.00    -0.248 NA
ATOM     51  C   UNL A   1      46.667  29.691  27.171  1.00  0.00     0.031 C 
ATOM     52  C   UNL A   1      42.272  32.541  30.226  1.00  0.00     0.029 A 
ATOM     53  C   UNL A   1      42.988  31.588  29.521  1.00  0.00     0.049 A 
ATOM     54  H   UNL A   1      42.409  29.642  28.946  1.00  0.00     0.167 HD
ATOM     55  C   UNL A   1      44.970  30.687  28.343  1.00  0.00     0.074 A 
ATOM     56  C   UNL A   1      46.306  30.801  27.798  1.00  0.00     0.031 C 
ATOM     57  C   UNL A   1      44.319  31.687  28.983  1.00  0.00     0.037 A 
BRANCH  44  58
ATOM     58  C   UNL A   1      38.649  30.201  30.885  1.00  0.00     0.057 A 
ATOM     59  C   UNL A   1      38.503  30.006  32.263  1.00  0.00     0.134 A 
ATOM     60  C   UNL A   1      37.642  30.919  30.225  1.00  0.00     0.134 A 
ATOM     61  F   UNL A   1      39.425  29.318  32.953  1.00  0.00    -0.206 F 
ATOM     62  C   UNL A   1      37.398  30.505  32.957  1.00  0.00     0.040 A 
ATOM     63  C   UNL A   1      36.545  31.445  30.912  1.00  0.00     0.040 A 
ATOM     64  F   UNL A   1      37.724  31.152  28.906  1.00  0.00    -0.206 F 
ATOM     65  C   UNL A   1      36.422  31.238  32.282  1.00  0.00     0.006 A 
ENDBRANCH  44  58
BRANCH  45  66
ATOM     66  C   UNL A   1      46.776  26.967  26.109  1.00  0.00     0.057 A 
ATOM     67  C   UNL A   1      47.780  26.266  26.785  1.00  0.00     0.134 A 
ATOM     68  C   UNL A   1      46.961  27.194  24.739  1.00  0.00     0.134 A 
ATOM     69  F   UNL A   1      47.678  26.042  28.103  1.00  0.00    -0.206 F 
ATOM     70  C   UNL A   1      48.924  25.809  26.125  1.00  0.00     0.040 A 
ATOM     71  C   UNL A   1      48.081  26.714  24.060  1.00  0.00     0.040 A 
ATOM     72  F   UNL A   1      46.037  27.862  24.031  1.00  0.00    -0.206 F 
ATOM     73  C   UNL A   1      49.071  26.024  24.756  1.00  0.00     0.006 A 
ENDBRANCH  45  66
BRANCH  57  74
ATOM     74  C   UNL A   1      45.046  32.987  29.154  1.00  0.00     0.057 A 
ATOM     75  C   UNL A   1      45.891  33.216  30.246  1.00  0.00     0.134 A 
ATOM     76  C   UNL A   1      44.945  33.995  28.186  1.00  0.00     0.134 A 
ATOM     77  F   UNL A   1      46.018  32.294  31.212  1.00  0.00    -0.206 F 
ATOM     78  C   UNL A   1      46.603  34.409  30.376  1.00  0.00     0.040 A 
ATOM     79  C   UNL A   1      45.671  35.182  28.294  1.00  0.00     0.040 A 
ATOM     80  F   UNL A   1      44.159  33.832  27.112  1.00  0.00    -0.206 F 
ATOM     81  C   UNL A   1      46.500  35.392  29.393  1.00  0.00     0.006 A 
ENDBRANCH  57  74
ENDBRANCH  31  32
ENDBRANCH  24  26
ENDBRANCH  23  24
ENDBRANCH   1  23
TORSDOF 12
ENDMDL
MODEL 3
REMARK VINA RESULT:     -12.0      4.107      8.871
REMARK SMILES Cc1cc2c(c(C)c1Br)C=C(C(=O)OCCOC(=O)c1ccc(-c3c4nc(c(-c5c(F)cccc5F)c5ccc([nH]5)c(-c5c(F)cccc5F)c5nc(c(-c6c(F)cccc6F)c6ccc3[nH]6)C=C5)C=C4)cc1)[C@@H](C(F)(F)F)O2
REMARK SMILES IDX 16 1 15 2 14 3 12 4 13 5 11 6 1 7 2 8 3 9 8 10 4 11 6 12
REMARK SMILES IDX 9 13 5 14 79 15 7 16 10 17 74 18 75 19 76 20 77 21 78 22
REMARK SMILES IDX 17 23 18 24 19 25 20 26 21 27 73 28 22 29 72 30 23 31 24 32
REMARK SMILES IDX 25 33 66 34 26 35 71 36 65 37 67 38 27 39 70 40 64 41 63 42
REMARK SMILES IDX 28 44 54 45 37 46 53 47 38 48 41 49 52 50 68 51 39 52 40 53
REMARK SMILES IDX 51 55 69 56 42 57 29 58 30 59 35 60 31 61 32 62 34 63 36 64
REMARK SMILES IDX 33 65 55 66 56 67 61 68 57 69 58 70 60 71 62 72 59 73 43 74
REMARK SMILES IDX 44 75 49 76 45 77 46 78 48 79 50 80 47 81
REMARK H PARENT 67 43 41 54
REMARK Flexibility Score: inf
ROOT
ATOM      1  C   UNL A   1      37.028  20.075  24.639  1.00  0.00     0.275 C 
ENDROOT
BRANCH   1   2
ATOM      2  C   UNL A   1      35.542  20.064  24.999  1.00  0.00     0.275 C 
BRANCH   2   3
ATOM      3  O   UNL A   1      34.880  21.252  24.513  1.00  0.00    -0.459 OA
BRANCH   3   4
ATOM      4  C   UNL A   1      33.529  21.220  24.541  1.00  0.00     0.338 C 
ATOM      5  O   UNL A   1      32.815  20.270  24.261  1.00  0.00    -0.246 OA
BRANCH   4   6
ATOM      6  C   UNL A   1      32.990  22.519  24.986  1.00  0.00     0.087 C 
ATOM      7  C   UNL A   1      31.802  28.726  26.431  1.00  0.00     0.046 C 
ATOM      8  C   UNL A   1      32.124  27.423  25.748  1.00  0.00    -0.033 A 
ATOM      9  C   UNL A   1      31.859  26.238  26.452  1.00  0.00     0.051 A 
ATOM     10  C   UNL A   1      32.736  27.342  24.482  1.00  0.00     0.024 A 
ATOM     11  C   UNL A   1      32.194  24.995  25.921  1.00  0.00     0.128 A 
ATOM     12  C   UNL A   1      33.054  26.086  23.910  1.00  0.00    -0.026 A 
ATOM     13  Br  UNL A   1      33.167  28.967  23.563  1.00  0.00    -0.050 Br
ATOM     14  C   UNL A   1      32.796  24.908  24.664  1.00  0.00     0.021 A 
ATOM     15  O   UNL A   1      31.879  23.921  26.708  1.00  0.00    -0.475 OA
ATOM     16  C   UNL A   1      33.659  25.963  22.530  1.00  0.00     0.046 C 
ATOM     17  C   UNL A   1      33.174  23.579  24.192  1.00  0.00     0.027 C 
ATOM     18  C   UNL A   1      32.397  22.611  26.358  1.00  0.00     0.316 C 
BRANCH  18  19
ATOM     19  C   UNL A   1      33.400  22.162  27.434  1.00  0.00     0.430 C 
ATOM     20  F   UNL A   1      34.614  22.728  27.246  1.00  0.00    -0.167 F 
ATOM     21  F   UNL A   1      32.992  22.527  28.674  1.00  0.00    -0.167 F 
ATOM     22  F   UNL A   1      33.572  20.820  27.444  1.00  0.00    -0.167 F 
ENDBRANCH  18  19
ENDBRANCH   4   6
ENDBRANCH   3   4
ENDBRANCH   2   3
ENDBRANCH   1   2
BRANCH   1  23
ATOM     23  O   UNL A   1      37.673  21.208  25.247  1.00  0.00    -0.458 OA
BRANCH  23  24
ATOM     24  C   UNL A   1      38.861  20.954  25.844  1.00  0.00     0.338 C 
ATOM     25  O   UNL A   1      39.506  19.921  25.803  1.00  0.00    -0.246 OA
BRANCH  24  26
ATOM     26  C   UNL A   1      39.351  22.161  26.529  1.00  0.00     0.060 A 
ATOM     27  C   UNL A   1      38.820  23.395  26.180  1.00  0.00     0.016 A 
ATOM     28  C   UNL A   1      40.464  22.097  27.366  1.00  0.00     0.016 A 
ATOM     29  C   UNL A   1      39.492  24.563  26.526  1.00  0.00     0.010 A 
ATOM     30  C   UNL A   1      41.052  23.282  27.830  1.00  0.00     0.010 A 
ATOM     31  C   UNL A   1      40.616  24.535  27.365  1.00  0.00    -0.014 A 
BRANCH  31  32
ATOM     32  C   UNL A   1      41.352  25.798  27.696  1.00  0.00     0.031 A 
ATOM     33  C   UNL A   1      40.708  26.856  28.566  1.00  0.00     0.074 A 
ATOM     34  C   UNL A   1      42.617  25.999  27.266  1.00  0.00     0.049 A 
ATOM     35  N   UNL A   1      41.090  28.089  28.788  1.00  0.00    -0.248 NA
ATOM     36  C   UNL A   1      39.468  26.484  29.269  1.00  0.00     0.031 C 
ATOM     37  C   UNL A   1      43.409  25.056  26.473  1.00  0.00     0.029 A 
ATOM     38  N   UNL A   1      43.474  27.059  27.455  1.00  0.00    -0.354 N 
ATOM     39  C   UNL A   1      40.105  28.657  29.590  1.00  0.00     0.074 A 
ATOM     40  C   UNL A   1      39.108  27.636  29.820  1.00  0.00     0.031 C 
ATOM     41  C   UNL A   1      44.648  25.540  26.312  1.00  0.00     0.029 A 
ATOM     42  C   UNL A   1      44.706  26.884  26.869  1.00  0.00     0.049 A 
ATOM     43  H   UNL A   1      43.229  27.866  27.962  1.00  0.00     0.167 HD
ATOM     44  C   UNL A   1      40.040  29.915  30.090  1.00  0.00     0.037 A 
ATOM     45  C   UNL A   1      45.752  27.723  26.733  1.00  0.00     0.037 A 
ATOM     46  C   UNL A   1      41.074  30.906  29.933  1.00  0.00     0.049 A 
ATOM     47  C   UNL A   1      45.637  29.126  27.255  1.00  0.00     0.074 A 
ATOM     48  C   UNL A   1      41.099  32.207  30.410  1.00  0.00     0.029 A 
ATOM     49  N   UNL A   1      42.278  30.698  29.279  1.00  0.00    -0.354 N 
ATOM     50  N   UNL A   1      44.655  29.681  27.921  1.00  0.00    -0.248 NA
ATOM     51  C   UNL A   1      46.761  30.032  26.972  1.00  0.00     0.031 C 
ATOM     52  C   UNL A   1      42.301  32.796  30.013  1.00  0.00     0.029 A 
ATOM     53  C   UNL A   1      43.046  31.850  29.329  1.00  0.00     0.049 A 
ATOM     54  H   UNL A   1      42.547  29.858  28.844  1.00  0.00     0.167 HD
ATOM     55  C   UNL A   1      45.043  30.995  28.143  1.00  0.00     0.074 A 
ATOM     56  C   UNL A   1      46.360  31.149  27.563  1.00  0.00     0.031 C 
ATOM     57  C   UNL A   1      44.360  31.989  28.758  1.00  0.00     0.037 A 
BRANCH  44  58
ATOM     58  C   UNL A   1      38.806  30.320  30.844  1.00  0.00     0.057 A 
ATOM     59  C   UNL A   1      37.690  30.873  30.207  1.00  0.00     0.134 A 
ATOM     60  C   UNL A   1      38.699  30.052  32.216  1.00  0.00     0.134 A 
ATOM     61  F   UNL A   1      37.729  31.164  28.898  1.00  0.00    -0.206 F 
ATOM     62  C   UNL A   1      36.513  31.149  30.908  1.00  0.00     0.040 A 
ATOM     63  C   UNL A   1      37.520  30.300  32.922  1.00  0.00     0.040 A 
ATOM     64  F   UNL A   1      39.728  29.512  32.887  1.00  0.00    -0.206 F 
ATOM     65  C   UNL A   1      36.422  30.850  32.266  1.00  0.00     0.006 A 
ENDBRANCH  44  58
BRANCH  45  66
ATOM     66  C   UNL A   1      46.975  27.277  26.014  1.00  0.00     0.057 A 
ATOM     67  C   UNL A   1      48.034  26.668  26.697  1.00  0.00     0.134 A 
ATOM     68  C   UNL A   1      47.112  27.438  24.629  1.00  0.00     0.134 A 
ATOM     69  F   UNL A   1      47.978  26.511  28.028  1.00  0.00    -0.206 F 
ATOM     70  C   UNL A   1      49.184  26.239  26.031  1.00  0.00     0.040 A 
ATOM     71  C   UNL A   1      48.239  26.983  23.945  1.00  0.00     0.040 A 
ATOM     72  F   UNL A   1      46.135  28.016  23.914  1.00  0.00    -0.206 F 
ATOM     73  C   UNL A   1      49.283  26.387  24.648  1.00  0.00     0.006 A 
ENDBRANCH  45  66
BRANCH  57  74
ATOM     74  C   UNL A   1      45.028  33.326  28.862  1.00  0.00     0.057 A 
ATOM     75  C   UNL A   1      45.900  33.630  29.913  1.00  0.00     0.134 A 
ATOM     76  C   UNL A   1      44.842  34.297  27.869  1.00  0.00     0.134 A 
ATOM     77  F   UNL A   1      46.108  32.747  30.901  1.00  0.00    -0.206 F 
ATOM     78  C   UNL A   1      46.558  34.859  29.980  1.00  0.00     0.040 A 
ATOM     79  C   UNL A   1      45.513  35.520  27.912  1.00  0.00     0.040 A 
ATOM     80  F   UNL A   1      44.026  34.063  26.831  1.00  0.00    -0.206 F 
ATOM     81  C   UNL A   1      46.371  35.804  28.973  1.00  0.00     0.006 A 
ENDBRANCH  57  74
ENDBRANCH  31  32
ENDBRANCH  24  26
ENDBRANCH  23  24
ENDBRANCH   1  23
TORSDOF 12
ENDMDL
