MODEL 1
REMARK VINA RESULT:     -13.6      0.000      0.000
REMARK SMILES CC1(C)O[C@@H]2C[C@H]3[C@H]4CCC5=CC(=O)C=C[C@@]5(C)[C@]4(F)[C@H](O)C[C@]3(C)[C@]2(C(=O)OCCOC(=O)c2ccc(-c3c4nc(c(-c5c(F)cccc5F)c5ccc([nH]5)c(-c5c(F)cccc5F)c5nc(c(-c6c(F)cccc6F)c6ccc3[nH]6)C=C5)C=C4)cc2)O1
REMARK SMILES IDX 31 1 30 2 29 3 27 4 28 5 26 6 1 7 2 8 4 9 89 10 3 11 5 12
REMARK SMILES IDX 6 13 24 14 7 15 23 16 25 17 8 18 21 19 9 20 19 21 10 22
REMARK SMILES IDX 17 23 20 24 11 25 16 26 18 27 12 28 15 29 13 30 14 31 22 32
REMARK SMILES IDX 32 34 33 35 34 36 35 37 36 38 88 39 37 40 87 41 38 42 39 43
REMARK SMILES IDX 40 44 81 45 41 46 86 47 80 48 82 49 42 50 85 51 79 52 78 53
REMARK SMILES IDX 43 55 69 56 52 57 68 58 53 59 56 60 67 61 83 62 54 63 55 64
REMARK SMILES IDX 66 66 84 67 57 68 44 69 45 70 50 71 46 72 47 73 49 74 51 75
REMARK SMILES IDX 48 76 70 77 71 78 76 79 72 80 73 81 75 82 77 83 74 84 58 85
REMARK SMILES IDX 59 86 64 87 60 88 61 89 63 90 65 91 62 92
REMARK H PARENT 22 33 82 54 56 65
REMARK Flexibility Score: inf
ROOT
ATOM      1  C   UNL A   1      32.047  29.549  25.038  1.00  0.00     0.275 C 
ENDROOT
BRANCH   1   2
ATOM      2  C   UNL A   1      31.145  28.346  24.789  1.00  0.00     0.274 C 
BRANCH   2   3
ATOM      3  O   UNL A   1      31.581  27.220  25.574  1.00  0.00    -0.460 OA
BRANCH   3   4
ATOM      4  C   UNL A   1      31.101  25.997  25.198  1.00  0.00     0.342 C 
ATOM      5  O   UNL A   1      29.913  25.694  25.187  1.00  0.00    -0.249 OA
BRANCH   4   6
ATOM      6  C   UNL A   1      32.233  25.000  25.015  1.00  0.00     0.200 C 
ATOM      7  C   UNL A   1      32.366  26.438  21.991  1.00  0.00     0.075 C 
ATOM      8  C   UNL A   1      33.059  25.391  22.862  1.00  0.00     0.165 C 
ATOM      9  O   UNL A   1      33.956  26.060  23.754  1.00  0.00    -0.344 OA
ATOM     10  O   UNL A   1      32.058  24.663  23.604  1.00  0.00    -0.329 OA
ATOM     11  C   UNL A   1      33.860  24.403  22.002  1.00  0.00     0.075 C 
ATOM     12  C   UNL A   1      33.661  25.601  25.072  1.00  0.00     0.166 C 
ATOM     13  C   UNL A   1      34.631  24.422  25.438  1.00  0.00     0.040 C 
ATOM     14  C   UNL A   1      32.364  23.713  25.931  1.00  0.00     0.016 C 
ATOM     15  C   UNL A   1      33.695  23.226  25.297  1.00  0.00     0.008 C 
ATOM     16  C   UNL A   1      31.261  22.635  25.927  1.00  0.00     0.046 C 
ATOM     17  C   UNL A   1      32.529  24.120  27.421  1.00  0.00     0.015 C 
ATOM     18  C   UNL A   1      34.071  21.769  25.072  1.00  0.00     0.035 C 
ATOM     19  C   UNL A   1      31.570  21.366  25.133  1.00  0.00     0.154 C 
ATOM     20  C   UNL A   1      35.474  21.321  25.439  1.00  0.00     0.012 C 
ATOM     21  C   UNL A   1      32.978  20.767  25.473  1.00  0.00     0.152 C 
ATOM     22  C   UNL A   1      35.791  20.100  24.566  1.00  0.00     0.032 C 
ATOM     23  C   UNL A   1      33.264  19.349  24.807  1.00  0.00     0.044 C 
ATOM     24  F   UNL A   1      33.050  20.631  26.838  1.00  0.00    -0.239 F 
ATOM     25  C   UNL A   1      34.773  18.996  24.728  1.00  0.00    -0.053 C 
ATOM     26  C   UNL A   1      32.528  18.235  25.557  1.00  0.00    -0.009 C 
ATOM     27  C   UNL A   1      32.724  19.283  23.351  1.00  0.00     0.024 C 
ATOM     28  C   UNL A   1      35.191  17.716  24.715  1.00  0.00     0.052 C 
ATOM     29  C   UNL A   1      32.955  16.963  25.574  1.00  0.00     0.048 C 
ATOM     30  C   UNL A   1      34.235  16.607  24.922  1.00  0.00     0.178 C 
ATOM     31  O   UNL A   1      34.512  15.453  24.626  1.00  0.00    -0.290 OA
BRANCH  19  32
ATOM     32  O   UNL A   1      31.435  21.697  23.751  1.00  0.00    -0.390 OA
ATOM     33  H   UNL A   1      31.526  20.892  23.217  1.00  0.00     0.211 HD
ENDBRANCH  19  32
ENDBRANCH   4   6
ENDBRANCH   3   4
ENDBRANCH   2   3
ENDBRANCH   1   2
BRANCH   1  34
ATOM     34  O   UNL A   1      32.201  29.730  26.456  1.00  0.00    -0.458 OA
BRANCH  34  35
ATOM     35  C   UNL A   1      32.704  30.916  26.854  1.00  0.00     0.338 C 
ATOM     36  O   UNL A   1      32.114  31.996  26.878  1.00  0.00    -0.246 OA
BRANCH  35  37
ATOM     37  C   UNL A   1      34.076  30.756  27.371  1.00  0.00     0.060 A 
ATOM     38  C   UNL A   1      34.590  29.486  27.626  1.00  0.00     0.016 A 
ATOM     39  C   UNL A   1      34.805  31.875  27.768  1.00  0.00     0.016 A 
ATOM     40  C   UNL A   1      35.743  29.328  28.389  1.00  0.00     0.010 A 
ATOM     41  C   UNL A   1      36.042  31.712  28.405  1.00  0.00     0.010 A 
ATOM     42  C   UNL A   1      36.513  30.435  28.760  1.00  0.00    -0.014 A 
BRANCH  42  43
ATOM     43  C   UNL A   1      37.792  30.260  29.514  1.00  0.00     0.031 A 
ATOM     44  C   UNL A   1      38.937  29.483  28.913  1.00  0.00     0.074 A 
ATOM     45  C   UNL A   1      37.941  30.784  30.750  1.00  0.00     0.049 A 
ATOM     46  N   UNL A   1      39.995  28.983  29.499  1.00  0.00    -0.248 NA
ATOM     47  C   UNL A   1      38.873  29.213  27.467  1.00  0.00     0.031 C 
ATOM     48  C   UNL A   1      36.955  31.603  31.459  1.00  0.00     0.029 A 
ATOM     49  N   UNL A   1      38.989  30.703  31.635  1.00  0.00    -0.354 N 
ATOM     50  C   UNL A   1      40.676  28.272  28.518  1.00  0.00     0.074 A 
ATOM     51  C   UNL A   1      39.921  28.419  27.292  1.00  0.00     0.031 C 
ATOM     52  C   UNL A   1      37.462  31.992  32.635  1.00  0.00     0.029 A 
ATOM     53  C   UNL A   1      38.750  31.341  32.828  1.00  0.00     0.049 A 
ATOM     54  H   UNL A   1      39.832  30.233  31.434  1.00  0.00     0.167 HD
ATOM     55  C   UNL A   1      41.820  27.554  28.636  1.00  0.00     0.037 A 
ATOM     56  C   UNL A   1      39.440  31.351  33.984  1.00  0.00     0.037 A 
ATOM     57  C   UNL A   1      42.613  27.479  29.838  1.00  0.00     0.049 A 
ATOM     58  C   UNL A   1      40.689  30.534  34.099  1.00  0.00     0.074 A 
ATOM     59  C   UNL A   1      43.803  26.802  30.044  1.00  0.00     0.029 A 
ATOM     60  N   UNL A   1      42.309  28.122  31.028  1.00  0.00    -0.354 N 
ATOM     61  N   UNL A   1      41.273  29.788  33.194  1.00  0.00    -0.248 NA
ATOM     62  C   UNL A   1      41.359  30.532  35.407  1.00  0.00     0.031 C 
ATOM     63  C   UNL A   1      44.202  27.008  31.370  1.00  0.00     0.029 A 
ATOM     64  C   UNL A   1      43.284  27.848  31.975  1.00  0.00     0.049 A 
ATOM     65  H   UNL A   1      41.518  28.688  31.179  1.00  0.00     0.167 HD
ATOM     66  C   UNL A   1      42.378  29.231  33.820  1.00  0.00     0.074 A 
ATOM     67  C   UNL A   1      42.399  29.744  35.175  1.00  0.00     0.031 C 
ATOM     68  C   UNL A   1      43.291  28.363  33.319  1.00  0.00     0.037 A 
BRANCH  55  69
ATOM     69  C   UNL A   1      42.278  26.759  27.447  1.00  0.00     0.057 A 
ATOM     70  C   UNL A   1      43.126  27.290  26.470  1.00  0.00     0.134 A 
ATOM     71  C   UNL A   1      41.916  25.409  27.325  1.00  0.00     0.134 A 
ATOM     72  F   UNL A   1      43.502  28.577  26.521  1.00  0.00    -0.206 F 
ATOM     73  C   UNL A   1      43.589  26.511  25.406  1.00  0.00     0.040 A 
ATOM     74  C   UNL A   1      42.392  24.616  26.281  1.00  0.00     0.040 A 
ATOM     75  F   UNL A   1      41.112  24.836  28.233  1.00  0.00    -0.206 F 
ATOM     76  C   UNL A   1      43.229  25.167  25.315  1.00  0.00     0.006 A 
ENDBRANCH  55  69
BRANCH  56  77
ATOM     77  C   UNL A   1      38.911  32.107  35.147  1.00  0.00     0.057 A 
ATOM     78  C   UNL A   1      38.250  31.456  36.194  1.00  0.00     0.134 A 
ATOM     79  C   UNL A   1      39.078  33.495  35.252  1.00  0.00     0.134 A 
ATOM     80  F   UNL A   1      38.036  30.133  36.138  1.00  0.00    -0.206 F 
ATOM     81  C   UNL A   1      37.776  32.156  37.304  1.00  0.00     0.040 A 
ATOM     82  C   UNL A   1      38.638  34.202  36.370  1.00  0.00     0.040 A 
ATOM     83  F   UNL A   1      39.706  34.176  34.282  1.00  0.00    -0.206 F 
ATOM     84  C   UNL A   1      37.981  33.532  37.399  1.00  0.00     0.006 A 
ENDBRANCH  56  77
BRANCH  68  85
ATOM     85  C   UNL A   1      44.399  27.945  34.235  1.00  0.00     0.057 A 
ATOM     86  C   UNL A   1      45.584  28.684  34.345  1.00  0.00     0.134 A 
ATOM     87  C   UNL A   1      44.278  26.792  35.020  1.00  0.00     0.134 A 
ATOM     88  F   UNL A   1      45.766  29.789  33.606  1.00  0.00    -0.206 F 
ATOM     89  C   UNL A   1      46.619  28.277  35.186  1.00  0.00     0.040 A 
ATOM     90  C   UNL A   1      45.298  26.386  35.882  1.00  0.00     0.040 A 
ATOM     91  F   UNL A   1      43.167  26.043  34.964  1.00  0.00    -0.206 F 
ATOM     92  C   UNL A   1      46.476  27.126  35.960  1.00  0.00     0.006 A 
ENDBRANCH  68  85
ENDBRANCH  42  43
ENDBRANCH  35  37
ENDBRANCH  34  35
ENDBRANCH   1  34
TORSDOF 12
ENDMDL
MODEL 2
REMARK VINA RESULT:     -13.5      3.701      9.192
REMARK SMILES CC1(C)O[C@@H]2C[C@H]3[C@H]4CCC5=CC(=O)C=C[C@@]5(C)[C@]4(F)[C@H](O)C[C@]3(C)[C@]2(C(=O)OCCOC(=O)c2ccc(-c3c4nc(c(-c5c(F)cccc5F)c5ccc([nH]5)c(-c5c(F)cccc5F)c5nc(c(-c6c(F)cccc6F)c6ccc3[nH]6)C=C5)C=C4)cc2)O1
REMARK SMILES IDX 31 1 30 2 29 3 27 4 28 5 26 6 1 7 2 8 4 9 89 10 3 11 5 12
REMARK SMILES IDX 6 13 24 14 7 15 23 16 25 17 8 18 21 19 9 20 19 21 10 22
REMARK SMILES IDX 17 23 20 24 11 25 16 26 18 27 12 28 15 29 13 30 14 31 22 32
REMARK SMILES IDX 32 34 33 35 34 36 35 37 36 38 88 39 37 40 87 41 38 42 39 43
REMARK SMILES IDX 40 44 81 45 41 46 86 47 80 48 82 49 42 50 85 51 79 52 78 53
REMARK SMILES IDX 43 55 69 56 52 57 68 58 53 59 56 60 67 61 83 62 54 63 55 64
REMARK SMILES IDX 66 66 84 67 57 68 44 69 45 70 50 71 46 72 47 73 49 74 51 75
REMARK SMILES IDX 48 76 70 77 71 78 76 79 72 80 73 81 75 82 77 83 74 84 58 85
REMARK SMILES IDX 59 86 64 87 60 88 61 89 63 90 65 91 62 92
REMARK H PARENT 22 33 82 54 56 65
REMARK Flexibility Score: inf
ROOT
ATOM      1  C   UNL A   1      35.737  21.371  25.565  1.00  0.00     0.275 C 
ENDROOT
BRANCH   1   2
ATOM      2  C   UNL A   1      34.609  21.486  24.547  1.00  0.00     0.274 C 
BRANCH   2   3
ATOM      3  O   UNL A   1      34.616  22.790  23.934  1.00  0.00    -0.460 OA
BRANCH   3   4
ATOM      4  C   UNL A   1      33.420  23.237  23.448  1.00  0.00     0.342 C 
ATOM      5  O   UNL A   1      32.817  22.722  22.514  1.00  0.00    -0.249 OA
BRANCH   4   6
ATOM      6  C   UNL A   1      33.051  24.578  24.060  1.00  0.00     0.200 C 
ATOM      7  C   UNL A   1      31.672  22.595  26.382  1.00  0.00     0.075 C 
ATOM      8  C   UNL A   1      31.925  24.063  26.045  1.00  0.00     0.165 C 
ATOM      9  O   UNL A   1      33.263  24.395  26.428  1.00  0.00    -0.344 OA
ATOM     10  O   UNL A   1      31.742  24.255  24.626  1.00  0.00    -0.329 OA
ATOM     11  C   UNL A   1      30.952  24.977  26.802  1.00  0.00     0.075 C 
ATOM     12  C   UNL A   1      33.890  24.997  25.296  1.00  0.00     0.166 C 
ATOM     13  C   UNL A   1      33.773  26.558  25.410  1.00  0.00     0.040 C 
ATOM     14  C   UNL A   1      33.022  25.908  23.197  1.00  0.00     0.016 C 
ATOM     15  C   UNL A   1      32.676  26.841  24.389  1.00  0.00     0.008 C 
ATOM     16  C   UNL A   1      32.044  26.050  22.012  1.00  0.00     0.046 C 
ATOM     17  C   UNL A   1      34.427  26.200  22.602  1.00  0.00     0.015 C 
ATOM     18  C   UNL A   1      31.770  28.060  24.306  1.00  0.00     0.035 C 
ATOM     19  C   UNL A   1      30.803  26.902  22.270  1.00  0.00     0.154 C 
ATOM     20  C   UNL A   1      32.219  29.339  24.990  1.00  0.00     0.012 C 
ATOM     21  C   UNL A   1      31.144  28.287  22.923  1.00  0.00     0.152 C 
ATOM     22  C   UNL A   1      30.948  30.135  25.315  1.00  0.00     0.032 C 
ATOM     23  C   UNL A   1      29.903  29.278  23.039  1.00  0.00     0.044 C 
ATOM     24  F   UNL A   1      32.107  28.883  22.145  1.00  0.00    -0.239 F 
ATOM     25  C   UNL A   1      30.105  30.402  24.090  1.00  0.00    -0.053 C 
ATOM     26  C   UNL A   1      29.583  29.914  21.683  1.00  0.00    -0.009 C 
ATOM     27  C   UNL A   1      28.607  28.525  23.451  1.00  0.00     0.024 C 
ATOM     28  C   UNL A   1      29.475  31.586  23.977  1.00  0.00     0.052 C 
ATOM     29  C   UNL A   1      28.982  31.108  21.562  1.00  0.00     0.048 C 
ATOM     30  C   UNL A   1      28.683  31.908  22.770  1.00  0.00     0.178 C 
ATOM     31  O   UNL A   1      27.872  32.823  22.757  1.00  0.00    -0.290 OA
BRANCH  19  32
ATOM     32  O   UNL A   1      29.920  26.121  23.075  1.00  0.00    -0.390 OA
ATOM     33  H   UNL A   1      29.241  26.696  23.462  1.00  0.00     0.211 HD
ENDBRANCH  19  32
ENDBRANCH   4   6
ENDBRANCH   3   4
ENDBRANCH   2   3
ENDBRANCH   1   2
BRANCH   1  34
ATOM     34  O   UNL A   1      36.971  21.762  24.939  1.00  0.00    -0.458 OA
BRANCH  34  35
ATOM     35  C   UNL A   1      38.102  21.319  25.523  1.00  0.00     0.338 C 
ATOM     36  O   UNL A   1      38.574  20.184  25.449  1.00  0.00    -0.246 OA
BRANCH  35  37
ATOM     37  C   UNL A   1      38.798  22.418  26.218  1.00  0.00     0.060 A 
ATOM     38  C   UNL A   1      38.359  23.732  26.076  1.00  0.00     0.016 A 
ATOM     39  C   UNL A   1      39.997  22.171  26.884  1.00  0.00     0.016 A 
ATOM     40  C   UNL A   1      39.168  24.795  26.464  1.00  0.00     0.010 A 
ATOM     41  C   UNL A   1      40.737  23.239  27.408  1.00  0.00     0.010 A 
ATOM     42  C   UNL A   1      40.354  24.572  27.173  1.00  0.00    -0.014 A 
BRANCH  42  43
ATOM     43  C   UNL A   1      41.184  25.716  27.657  1.00  0.00     0.031 A 
ATOM     44  C   UNL A   1      40.593  26.759  28.574  1.00  0.00     0.074 A 
ATOM     45  C   UNL A   1      42.473  25.844  27.274  1.00  0.00     0.049 A 
ATOM     46  N   UNL A   1      41.044  27.952  28.869  1.00  0.00    -0.248 NA
ATOM     47  C   UNL A   1      39.317  26.426  29.228  1.00  0.00     0.031 C 
ATOM     48  C   UNL A   1      43.215  24.902  26.433  1.00  0.00     0.029 A 
ATOM     49  N   UNL A   1      43.393  26.828  27.546  1.00  0.00    -0.354 N 
ATOM     50  C   UNL A   1      40.073  28.541  29.669  1.00  0.00     0.074 A 
ATOM     51  C   UNL A   1      39.014  27.568  29.830  1.00  0.00     0.031 C 
ATOM     52  C   UNL A   1      44.480  25.320  26.304  1.00  0.00     0.029 A 
ATOM     53  C   UNL A   1      44.607  26.627  26.935  1.00  0.00     0.049 A 
ATOM     54  H   UNL A   1      43.202  27.603  28.123  1.00  0.00     0.167 HD
ATOM     55  C   UNL A   1      40.064  29.784  30.210  1.00  0.00     0.037 A 
ATOM     56  C   UNL A   1      45.686  27.423  26.820  1.00  0.00     0.037 A 
ATOM     57  C   UNL A   1      41.157  30.720  30.116  1.00  0.00     0.049 A 
ATOM     58  C   UNL A   1      45.647  28.801  27.405  1.00  0.00     0.074 A 
ATOM     59  C   UNL A   1      41.252  31.991  30.656  1.00  0.00     0.029 A 
ATOM     60  N   UNL A   1      42.354  30.476  29.459  1.00  0.00    -0.354 N 
ATOM     61  N   UNL A   1      44.686  29.383  28.078  1.00  0.00    -0.248 NA
ATOM     62  C   UNL A   1      46.829  29.645  27.187  1.00  0.00     0.031 C 
ATOM     63  C   UNL A   1      42.494  32.530  30.299  1.00  0.00     0.029 A 
ATOM     64  C   UNL A   1      43.188  31.577  29.573  1.00  0.00     0.049 A 
ATOM     65  H   UNL A   1      42.578  29.645  28.983  1.00  0.00     0.167 HD
ATOM     66  C   UNL A   1      45.146  30.659  28.366  1.00  0.00     0.074 A 
ATOM     67  C   UNL A   1      46.483  30.758  27.817  1.00  0.00     0.031 C 
ATOM     68  C   UNL A   1      44.514  31.663  29.020  1.00  0.00     0.037 A 
BRANCH  55  69
ATOM     69  C   UNL A   1      38.823  30.232  30.927  1.00  0.00     0.057 A 
ATOM     70  C   UNL A   1      37.770  30.880  30.273  1.00  0.00     0.134 A 
ATOM     71  C   UNL A   1      38.655  29.940  32.289  1.00  0.00     0.134 A 
ATOM     72  F   UNL A   1      37.869  31.199  28.974  1.00  0.00    -0.206 F 
ATOM     73  C   UNL A   1      36.598  31.232  30.949  1.00  0.00     0.040 A 
ATOM     74  C   UNL A   1      37.481  30.264  32.968  1.00  0.00     0.040 A 
ATOM     75  F   UNL A   1      39.624  29.313  32.974  1.00  0.00    -0.206 F 
ATOM     76  C   UNL A   1      36.448  30.915  32.298  1.00  0.00     0.006 A 
ENDBRANCH  55  69
BRANCH  56  77
ATOM     77  C   UNL A   1      46.866  26.954  26.049  1.00  0.00     0.057 A 
ATOM     78  C   UNL A   1      46.991  27.224  24.683  1.00  0.00     0.134 A 
ATOM     79  C   UNL A   1      47.906  26.247  26.667  1.00  0.00     0.134 A 
ATOM     80  F   UNL A   1      46.016  27.873  24.031  1.00  0.00    -0.206 F 
ATOM     81  C   UNL A   1      48.111  26.811  23.958  1.00  0.00     0.040 A 
ATOM     82  C   UNL A   1      49.044  25.856  25.962  1.00  0.00     0.040 A 
ATOM     83  F   UNL A   1      47.845  25.958  27.976  1.00  0.00    -0.206 F 
ATOM     84  C   UNL A   1      49.146  26.135  24.602  1.00  0.00     0.006 A 
ENDBRANCH  56  77
BRANCH  68  85
ATOM     85  C   UNL A   1      45.277  32.939  29.199  1.00  0.00     0.057 A 
ATOM     86  C   UNL A   1      46.127  33.142  30.295  1.00  0.00     0.134 A 
ATOM     87  C   UNL A   1      45.166  33.974  28.263  1.00  0.00     0.134 A 
ATOM     88  F   UNL A   1      46.261  32.194  31.234  1.00  0.00    -0.206 F 
ATOM     89  C   UNL A   1      46.819  34.342  30.464  1.00  0.00     0.040 A 
ATOM     90  C   UNL A   1      45.871  35.169  28.411  1.00  0.00     0.040 A 
ATOM     91  F   UNL A   1      44.373  33.839  27.190  1.00  0.00    -0.206 F 
ATOM     92  C   UNL A   1      46.695  35.358  29.519  1.00  0.00     0.006 A 
ENDBRANCH  68  85
ENDBRANCH  42  43
ENDBRANCH  35  37
ENDBRANCH  34  35
ENDBRANCH   1  34
TORSDOF 12
ENDMDL
MODEL 3
REMARK VINA RESULT:     -13.4      1.523      6.436
REMARK SMILES CC1(C)O[C@@H]2C[C@H]3[C@H]4CCC5=CC(=O)C=C[C@@]5(C)[C@]4(F)[C@H](O)C[C@]3(C)[C@]2(C(=O)OCCOC(=O)c2ccc(-c3c4nc(c(-c5c(F)cccc5F)c5ccc([nH]5)c(-c5c(F)cccc5F)c5nc(c(-c6c(F)cccc6F)c6ccc3[nH]6)C=C5)C=C4)cc2)O1
REMARK SMILES IDX 31 1 30 2 29 3 27 4 28 5 26 6 1 7 2 8 4 9 89 10 3 11 5 12
REMARK SMILES IDX 6 13 24 14 7 15 23 16 25 17 8 18 21 19 9 20 19 21 10 22
REMARK SMILES IDX 17 23 20 24 11 25 16 26 18 27 12 28 15 29 13 30 14 31 22 32
REMARK SMILES IDX 32 34 33 35 34 36 35 37 36 38 88 39 37 40 87 41 38 42 39 43
REMARK SMILES IDX 40 44 81 45 41 46 86 47 80 48 82 49 42 50 85 51 79 52 78 53
REMARK SMILES IDX 43 55 69 56 52 57 68 58 53 59 56 60 67 61 83 62 54 63 55 64
REMARK SMILES IDX 66 66 84 67 57 68 44 69 45 70 50 71 46 72 47 73 49 74 51 75
REMARK SMILES IDX 48 76 70 77 71 78 76 79 72 80 73 81 75 82 77 83 74 84 58 85
REMARK SMILES IDX 59 86 64 87 60 88 61 89 63 90 65 91 62 92
REMARK H PARENT 22 33 82 54 56 65
REMARK Flexibility Score: inf
ROOT
ATOM      1  C   UNL A   1      31.426  33.128  26.227  1.00  0.00     0.275 C 
ENDROOT
BRANCH   1   2
ATOM      2  C   UNL A   1      30.795  31.818  25.769  1.00  0.00     0.274 C 
BRANCH   2   3
ATOM      3  O   UNL A   1      31.815  30.841  25.485  1.00  0.00    -0.460 OA
BRANCH   3   4
ATOM      4  C   UNL A   1      31.707  29.646  26.137  1.00  0.00     0.342 C 
ATOM      5  O   UNL A   1      31.426  29.529  27.324  1.00  0.00    -0.249 OA
BRANCH   4   6
ATOM      6  C   UNL A   1      32.199  28.503  25.265  1.00  0.00     0.200 C 
ATOM      7  C   UNL A   1      29.659  29.524  23.332  1.00  0.00     0.075 C 
ATOM      8  C   UNL A   1      30.807  28.517  23.385  1.00  0.00     0.165 C 
ATOM      9  O   UNL A   1      32.013  29.178  22.986  1.00  0.00    -0.344 OA
ATOM     10  O   UNL A   1      30.927  28.015  24.732  1.00  0.00    -0.329 OA
ATOM     11  C   UNL A   1      30.550  27.340  22.434  1.00  0.00     0.075 C 
ATOM     12  C   UNL A   1      32.986  28.927  23.998  1.00  0.00     0.166 C 
ATOM     13  C   UNL A   1      33.861  27.693  23.579  1.00  0.00     0.040 C 
ATOM     14  C   UNL A   1      33.094  27.334  25.852  1.00  0.00     0.016 C 
ATOM     15  C   UNL A   1      33.291  26.612  24.491  1.00  0.00     0.008 C 
ATOM     16  C   UNL A   1      32.545  26.406  26.955  1.00  0.00     0.046 C 
ATOM     17  C   UNL A   1      34.423  27.901  26.421  1.00  0.00     0.015 C 
ATOM     18  C   UNL A   1      33.361  25.103  24.307  1.00  0.00     0.035 C 
ATOM     19  C   UNL A   1      32.091  25.020  26.498  1.00  0.00     0.154 C 
ATOM     20  C   UNL A   1      34.439  24.537  23.402  1.00  0.00     0.012 C 
ATOM     21  C   UNL A   1      33.156  24.301  25.600  1.00  0.00     0.152 C 
ATOM     22  C   UNL A   1      33.922  23.187  22.889  1.00  0.00     0.032 C 
ATOM     23  C   UNL A   1      32.804  22.787  25.255  1.00  0.00     0.044 C 
ATOM     24  F   UNL A   1      34.352  24.328  26.276  1.00  0.00    -0.239 F 
ATOM     25  C   UNL A   1      33.559  22.244  24.012  1.00  0.00    -0.053 C 
ATOM     26  C   UNL A   1      33.089  21.873  26.450  1.00  0.00    -0.009 C 
ATOM     27  C   UNL A   1      31.289  22.606  24.958  1.00  0.00     0.024 C 
ATOM     28  C   UNL A   1      33.823  20.931  23.873  1.00  0.00     0.052 C 
ATOM     29  C   UNL A   1      33.383  20.571  26.318  1.00  0.00     0.048 C 
ATOM     30  C   UNL A   1      33.532  19.982  24.969  1.00  0.00     0.178 C 
ATOM     31  O   UNL A   1      33.477  18.775  24.779  1.00  0.00    -0.290 OA
BRANCH  19  32
ATOM     32  O   UNL A   1      30.839  25.190  25.834  1.00  0.00    -0.390 OA
ATOM     33  H   UNL A   1      30.170  24.631  26.261  1.00  0.00     0.211 HD
ENDBRANCH  19  32
ENDBRANCH   4   6
ENDBRANCH   3   4
ENDBRANCH   2   3
ENDBRANCH   1   2
BRANCH   1  34
ATOM     34  O   UNL A   1      31.929  32.960  27.563  1.00  0.00    -0.458 OA
BRANCH  34  35
ATOM     35  C   UNL A   1      32.862  33.848  27.964  1.00  0.00     0.338 C 
ATOM     36  O   UNL A   1      32.730  35.069  28.046  1.00  0.00    -0.246 OA
BRANCH  35  37
ATOM     37  C   UNL A   1      34.088  33.156  28.404  1.00  0.00     0.060 A 
ATOM     38  C   UNL A   1      34.175  31.767  28.341  1.00  0.00     0.016 A 
ATOM     39  C   UNL A   1      35.100  33.871  29.042  1.00  0.00     0.016 A 
ATOM     40  C   UNL A   1      35.180  31.088  29.024  1.00  0.00     0.010 A 
ATOM     41  C   UNL A   1      36.191  33.191  29.599  1.00  0.00     0.010 A 
ATOM     42  C   UNL A   1      36.229  31.786  29.633  1.00  0.00    -0.014 A 
BRANCH  42  43
ATOM     43  C   UNL A   1      37.349  31.055  30.300  1.00  0.00     0.031 A 
ATOM     44  C   UNL A   1      37.626  31.252  31.770  1.00  0.00     0.074 A 
ATOM     45  C   UNL A   1      38.139  30.215  29.598  1.00  0.00     0.049 A 
ATOM     46  N   UNL A   1      38.697  30.944  32.459  1.00  0.00    -0.248 NA
ATOM     47  C   UNL A   1      36.571  31.899  32.567  1.00  0.00     0.031 C 
ATOM     48  C   UNL A   1      37.982  29.871  28.183  1.00  0.00     0.029 A 
ATOM     49  N   UNL A   1      39.243  29.492  29.984  1.00  0.00    -0.354 N 
ATOM     50  C   UNL A   1      38.480  31.433  33.741  1.00  0.00     0.074 A 
ATOM     51  C   UNL A   1      37.168  32.044  33.742  1.00  0.00     0.031 C 
ATOM     52  C   UNL A   1      38.909  28.970  27.836  1.00  0.00     0.029 A 
ATOM     53  C   UNL A   1      39.813  28.773  28.961  1.00  0.00     0.049 A 
ATOM     54  H   UNL A   1      39.591  29.488  30.905  1.00  0.00     0.167 HD
ATOM     55  C   UNL A   1      39.308  31.385  34.814  1.00  0.00     0.037 A 
ATOM     56  C   UNL A   1      40.970  28.089  28.894  1.00  0.00     0.037 A 
ATOM     57  C   UNL A   1      40.579  30.704  34.831  1.00  0.00     0.049 A 
ATOM     58  C   UNL A   1      41.879  28.067  30.083  1.00  0.00     0.074 A 
ATOM     59  C   UNL A   1      41.473  30.574  35.881  1.00  0.00     0.029 A 
ATOM     60  N   UNL A   1      41.123  30.016  33.758  1.00  0.00    -0.354 N 
ATOM     61  N   UNL A   1      41.709  28.615  31.261  1.00  0.00    -0.248 NA
ATOM     62  C   UNL A   1      43.158  27.361  29.924  1.00  0.00     0.031 C 
ATOM     63  C   UNL A   1      42.574  29.836  35.432  1.00  0.00     0.029 A 
ATOM     64  C   UNL A   1      42.344  29.469  34.117  1.00  0.00     0.049 A 
ATOM     65  H   UNL A   1      40.704  29.928  32.871  1.00  0.00     0.167 HD
ATOM     66  C   UNL A   1      42.854  28.318  31.984  1.00  0.00     0.074 A 
ATOM     67  C   UNL A   1      43.703  27.520  31.122  1.00  0.00     0.031 C 
ATOM     68  C   UNL A   1      43.179  28.681  33.249  1.00  0.00     0.037 A 
BRANCH  55  69
ATOM     69  C   UNL A   1      38.891  32.115  36.058  1.00  0.00     0.057 A 
ATOM     70  C   UNL A   1      39.208  33.459  36.282  1.00  0.00     0.134 A 
ATOM     71  C   UNL A   1      38.093  31.471  37.016  1.00  0.00     0.134 A 
ATOM     72  F   UNL A   1      39.977  34.131  35.412  1.00  0.00    -0.206 F 
ATOM     73  C   UNL A   1      38.757  34.135  37.419  1.00  0.00     0.040 A 
ATOM     74  C   UNL A   1      37.617  32.142  38.142  1.00  0.00     0.040 A 
ATOM     75  F   UNL A   1      37.747  30.185  36.858  1.00  0.00    -0.206 F 
ATOM     76  C   UNL A   1      37.950  33.479  38.348  1.00  0.00     0.006 A 
ENDBRANCH  55  69
BRANCH  56  77
ATOM     77  C   UNL A   1      41.362  27.434  27.620  1.00  0.00     0.057 A 
ATOM     78  C   UNL A   1      42.079  28.128  26.640  1.00  0.00     0.134 A 
ATOM     79  C   UNL A   1      41.052  26.091  27.365  1.00  0.00     0.134 A 
ATOM     80  F   UNL A   1      42.382  29.422  26.815  1.00  0.00    -0.206 F 
ATOM     81  C   UNL A   1      42.476  27.510  25.453  1.00  0.00     0.040 A 
ATOM     82  C   UNL A   1      41.469  25.453  26.197  1.00  0.00     0.040 A 
ATOM     83  F   UNL A   1      40.368  25.371  28.267  1.00  0.00    -0.206 F 
ATOM     84  C   UNL A   1      42.181  26.165  25.236  1.00  0.00     0.006 A 
ENDBRANCH  56  77
BRANCH  68  85
ATOM     85  C   UNL A   1      44.492  28.191  33.777  1.00  0.00     0.057 A 
ATOM     86  C   UNL A   1      44.614  26.947  34.410  1.00  0.00     0.134 A 
ATOM     87  C   UNL A   1      45.648  28.969  33.645  1.00  0.00     0.134 A 
ATOM     88  F   UNL A   1      43.538  26.164  34.581  1.00  0.00    -0.206 F 
ATOM     89  C   UNL A   1      45.837  26.507  34.916  1.00  0.00     0.040 A 
ATOM     90  C   UNL A   1      46.881  28.530  34.128  1.00  0.00     0.040 A 
ATOM     91  F   UNL A   1      45.598  30.167  33.045  1.00  0.00    -0.206 F 
ATOM     92  C   UNL A   1      46.976  27.297  34.773  1.00  0.00     0.006 A 
ENDBRANCH  68  85
ENDBRANCH  42  43
ENDBRANCH  35  37
ENDBRANCH  34  35
ENDBRANCH   1  34
TORSDOF 12
ENDMDL
