MODEL 1
REMARK VINA RESULT:      -9.1      0.000      0.000
REMARK SMILES O=C(OCCOC(=O)c1c(C2CC2)nn(-c2ccc(Cl)c(F)c2)c1Cl)c1ccc(-c2c3nc(c(-c4c(F)cccc4F)c4ccc([nH]4)c(-c4c(F)cccc4F)c4nc(c(-c5c(F)cccc5F)c5ccc2[nH]5)C=C4)C=C3)cc1
REMARK SMILES IDX 4 1 3 2 2 3 1 4 26 5 27 6 79 7 28 8 78 9 29 10 30 11 31 12
REMARK SMILES IDX 72 13 32 14 77 15 71 16 73 17 33 18 76 19 70 20 69 21 34 23
REMARK SMILES IDX 60 24 43 25 59 26 44 27 47 28 58 29 74 30 45 31 46 32 57 34
REMARK SMILES IDX 75 35 48 36 35 37 36 38 41 39 37 40 38 41 40 42 42 43 39 44
REMARK SMILES IDX 61 45 62 46 67 47 63 48 64 49 66 50 68 51 65 52 49 53 50 54
REMARK SMILES IDX 55 55 51 56 52 57 54 58 56 59 53 60 5 61 6 62 7 63 8 64 9 65
REMARK SMILES IDX 10 66 24 67 14 68 15 69 25 70 11 71 12 72 13 73 16 74 17 75
REMARK SMILES IDX 23 76 18 77 21 78 19 79 22 80 20 81
REMARK H PARENT 73 22 47 33
REMARK Flexibility Score: inf
ROOT
ATOM      1  C   UNL A   1      34.586  33.476  31.194  1.00  0.00     0.275 C 
ENDROOT
BRANCH   1   2
ATOM      2  O   UNL A   1      34.519  32.346  30.317  1.00  0.00    -0.458 OA
BRANCH   2   3
ATOM      3  C   UNL A   1      35.227  32.381  29.168  1.00  0.00     0.338 C 
ATOM      4  O   UNL A   1      34.930  32.963  28.143  1.00  0.00    -0.246 OA
BRANCH   3   5
ATOM      5  C   UNL A   1      36.321  31.387  29.299  1.00  0.00     0.060 A 
ATOM      6  C   UNL A   1      37.634  31.706  28.925  1.00  0.00     0.016 A 
ATOM      7  C   UNL A   1      36.050  30.165  29.918  1.00  0.00     0.016 A 
ATOM      8  C   UNL A   1      38.669  30.817  29.180  1.00  0.00     0.010 A 
ATOM      9  C   UNL A   1      37.094  29.274  30.171  1.00  0.00     0.010 A 
ATOM     10  C   UNL A   1      38.407  29.595  29.806  1.00  0.00    -0.014 A 
BRANCH  10  11
ATOM     11  C   UNL A   1      39.544  28.695  30.011  1.00  0.00     0.031 A 
ATOM     12  C   UNL A   1      40.164  28.584  31.367  1.00  0.00     0.074 A 
ATOM     13  C   UNL A   1      40.079  27.923  29.046  1.00  0.00     0.049 A 
ATOM     14  N   UNL A   1      41.341  28.989  31.737  1.00  0.00    -0.248 NA
ATOM     15  C   UNL A   1      39.409  27.903  32.425  1.00  0.00     0.031 C 
ATOM     16  C   UNL A   1      39.542  27.600  27.725  1.00  0.00     0.029 A 
ATOM     17  N   UNL A   1      41.246  27.212  29.101  1.00  0.00    -0.354 N 
ATOM     18  C   UNL A   1      41.547  28.487  33.021  1.00  0.00     0.074 A 
ATOM     19  C   UNL A   1      40.302  27.872  33.418  1.00  0.00     0.031 C 
ATOM     20  C   UNL A   1      40.284  26.613  27.177  1.00  0.00     0.029 A 
ATOM     21  C   UNL A   1      41.432  26.360  28.033  1.00  0.00     0.049 A 
ATOM     22  H   UNL A   1      41.895  27.302  29.836  1.00  0.00     0.167 HD
ATOM     23  C   UNL A   1      42.769  28.485  33.625  1.00  0.00     0.037 A 
ATOM     24  C   UNL A   1      42.451  25.497  27.844  1.00  0.00     0.037 A 
ATOM     25  C   UNL A   1      43.724  29.323  32.958  1.00  0.00     0.049 A 
ATOM     26  C   UNL A   1      43.617  25.959  28.629  1.00  0.00     0.074 A 
ATOM     27  C   UNL A   1      43.821  30.667  32.656  1.00  0.00     0.029 A 
ATOM     28  N   UNL A   1      44.734  28.718  32.257  1.00  0.00    -0.354 N 
ATOM     29  N   UNL A   1      44.330  27.013  28.345  1.00  0.00    -0.248 NA
ATOM     30  C   UNL A   1      43.859  25.381  29.943  1.00  0.00     0.031 C 
ATOM     31  C   UNL A   1      44.574  30.728  31.446  1.00  0.00     0.029 A 
ATOM     32  C   UNL A   1      44.868  29.412  31.084  1.00  0.00     0.049 A 
ATOM     33  H   UNL A   1      45.261  27.937  32.541  1.00  0.00     0.167 HD
ATOM     34  C   UNL A   1      44.808  27.459  29.565  1.00  0.00     0.074 A 
ATOM     35  C   UNL A   1      44.628  26.335  30.473  1.00  0.00     0.031 C 
ATOM     36  C   UNL A   1      45.040  28.784  29.794  1.00  0.00     0.037 A 
BRANCH  23  37
ATOM     37  C   UNL A   1      43.209  27.522  34.697  1.00  0.00     0.057 A 
ATOM     38  C   UNL A   1      43.402  26.162  34.389  1.00  0.00     0.134 A 
ATOM     39  C   UNL A   1      43.177  27.833  36.068  1.00  0.00     0.134 A 
ATOM     40  F   UNL A   1      43.405  25.740  33.115  1.00  0.00    -0.206 F 
ATOM     41  C   UNL A   1      43.528  25.177  35.377  1.00  0.00     0.040 A 
ATOM     42  C   UNL A   1      43.346  26.865  37.064  1.00  0.00     0.040 A 
ATOM     43  F   UNL A   1      42.892  29.071  36.498  1.00  0.00    -0.206 F 
ATOM     44  C   UNL A   1      43.502  25.528  36.721  1.00  0.00     0.006 A 
ENDBRANCH  23  37
BRANCH  24  45
ATOM     45  C   UNL A   1      42.441  24.237  27.082  1.00  0.00     0.057 A 
ATOM     46  C   UNL A   1      42.858  24.178  25.749  1.00  0.00     0.134 A 
ATOM     47  C   UNL A   1      42.222  23.005  27.724  1.00  0.00     0.134 A 
ATOM     48  F   UNL A   1      43.140  25.300  25.072  1.00  0.00    -0.206 F 
ATOM     49  C   UNL A   1      43.046  22.960  25.086  1.00  0.00     0.040 A 
ATOM     50  C   UNL A   1      42.394  21.783  27.072  1.00  0.00     0.040 A 
ATOM     51  F   UNL A   1      41.906  22.949  29.027  1.00  0.00    -0.206 F 
ATOM     52  C   UNL A   1      42.816  21.757  25.750  1.00  0.00     0.006 A 
ENDBRANCH  24  45
BRANCH  36  53
ATOM     53  C   UNL A   1      45.138  29.694  28.605  1.00  0.00     0.057 A 
ATOM     54  C   UNL A   1      44.024  30.268  27.974  1.00  0.00     0.134 A 
ATOM     55  C   UNL A   1      46.400  30.114  28.172  1.00  0.00     0.134 A 
ATOM     56  F   UNL A   1      42.780  30.007  28.396  1.00  0.00    -0.206 F 
ATOM     57  C   UNL A   1      44.164  31.177  26.921  1.00  0.00     0.040 A 
ATOM     58  C   UNL A   1      46.554  31.046  27.142  1.00  0.00     0.040 A 
ATOM     59  F   UNL A   1      47.511  29.657  28.774  1.00  0.00    -0.206 F 
ATOM     60  C   UNL A   1      45.433  31.571  26.505  1.00  0.00     0.006 A 
ENDBRANCH  36  53
ENDBRANCH  10  11
ENDBRANCH   3   5
ENDBRANCH   2   3
ENDBRANCH   1   2
BRANCH   1  61
ATOM     61  C   UNL A   1      34.400  33.127  32.674  1.00  0.00     0.275 C 
BRANCH  61  62
ATOM     62  O   UNL A   1      35.565  32.449  33.186  1.00  0.00    -0.458 OA
BRANCH  62  63
ATOM     63  C   UNL A   1      36.603  33.247  33.583  1.00  0.00     0.343 C 
ATOM     64  O   UNL A   1      36.469  34.317  34.158  1.00  0.00    -0.246 OA
BRANCH  63  65
ATOM     65  C   UNL A   1      37.889  32.756  33.135  1.00  0.00     0.121 A 
ATOM     66  C   UNL A   1      38.786  31.787  33.666  1.00  0.00     0.082 A 
ATOM     67  C   UNL A   1      38.631  33.333  32.126  1.00  0.00     0.147 A 
ATOM     68  N   UNL A   1      39.937  31.718  32.982  1.00  0.00    -0.170 NA
ATOM     69  N   UNL A   1      39.876  32.758  32.122  1.00  0.00    -0.221 N 
ATOM     70  Cl  UNL A   1      38.247  34.583  31.020  1.00  0.00    -0.061 Cl
BRANCH  66  71
ATOM     71  C   UNL A   1      38.640  30.864  34.871  1.00  0.00     0.041 C 
ATOM     72  C   UNL A   1      39.743  30.517  35.829  1.00  0.00     0.011 C 
ATOM     73  C   UNL A   1      38.664  31.467  36.250  1.00  0.00     0.011 C 
ENDBRANCH  66  71
BRANCH  69  74
ATOM     74  C   UNL A   1      41.071  33.213  31.521  1.00  0.00     0.069 A 
ATOM     75  C   UNL A   1      41.427  32.745  30.251  1.00  0.00     0.030 A 
ATOM     76  C   UNL A   1      41.920  34.069  32.232  1.00  0.00     0.069 A 
ATOM     77  C   UNL A   1      42.616  33.190  29.663  1.00  0.00     0.026 A 
ATOM     78  C   UNL A   1      43.121  34.465  31.654  1.00  0.00     0.143 A 
ATOM     79  C   UNL A   1      43.465  34.046  30.370  1.00  0.00     0.076 A 
ATOM     80  F   UNL A   1      43.946  35.246  32.367  1.00  0.00    -0.205 F 
ATOM     81  Cl  UNL A   1      44.937  34.566  29.647  1.00  0.00    -0.081 Cl
ENDBRANCH  69  74
ENDBRANCH  63  65
ENDBRANCH  62  63
ENDBRANCH  61  62
ENDBRANCH   1  61
TORSDOF 13
ENDMDL
MODEL 2
REMARK VINA RESULT:      -9.0      4.031      9.509
REMARK SMILES O=C(OCCOC(=O)c1c(C2CC2)nn(-c2ccc(Cl)c(F)c2)c1Cl)c1ccc(-c2c3nc(c(-c4c(F)cccc4F)c4ccc([nH]4)c(-c4c(F)cccc4F)c4nc(c(-c5c(F)cccc5F)c5ccc2[nH]5)C=C4)C=C3)cc1
REMARK SMILES IDX 4 1 3 2 2 3 1 4 26 5 27 6 79 7 28 8 78 9 29 10 30 11 31 12
REMARK SMILES IDX 72 13 32 14 77 15 71 16 73 17 33 18 76 19 70 20 69 21 34 23
REMARK SMILES IDX 60 24 43 25 59 26 44 27 47 28 58 29 74 30 45 31 46 32 57 34
REMARK SMILES IDX 75 35 48 36 35 37 36 38 41 39 37 40 38 41 40 42 42 43 39 44
REMARK SMILES IDX 61 45 62 46 67 47 63 48 64 49 66 50 68 51 65 52 49 53 50 54
REMARK SMILES IDX 55 55 51 56 52 57 54 58 56 59 53 60 5 61 6 62 7 63 8 64 9 65
REMARK SMILES IDX 10 66 24 67 14 68 15 69 25 70 11 71 12 72 13 73 16 74 17 75
REMARK SMILES IDX 23 76 18 77 21 78 19 79 22 80 20 81
REMARK H PARENT 73 22 47 33
REMARK Flexibility Score: inf
ROOT
ATOM      1  C   UNL A   1      41.972  21.085  26.090  1.00  0.00     0.275 C 
ENDROOT
BRANCH   1   2
ATOM      2  O   UNL A   1      41.357  21.805  27.163  1.00  0.00    -0.458 OA
BRANCH   2   3
ATOM      3  C   UNL A   1      40.139  22.350  26.958  1.00  0.00     0.338 C 
ATOM      4  O   UNL A   1      39.227  21.878  26.306  1.00  0.00    -0.246 OA
BRANCH   3   5
ATOM      5  C   UNL A   1      40.188  23.739  27.476  1.00  0.00     0.060 A 
ATOM      6  C   UNL A   1      41.233  24.162  28.309  1.00  0.00     0.016 A 
ATOM      7  C   UNL A   1      39.242  24.661  27.023  1.00  0.00     0.016 A 
ATOM      8  C   UNL A   1      41.340  25.497  28.674  1.00  0.00     0.010 A 
ATOM      9  C   UNL A   1      39.354  26.002  27.392  1.00  0.00     0.010 A 
ATOM     10  C   UNL A   1      40.402  26.428  28.217  1.00  0.00    -0.014 A 
BRANCH  10  11
ATOM     11  C   UNL A   1      40.560  27.811  28.672  1.00  0.00     0.031 A 
ATOM     12  C   UNL A   1      41.749  28.602  28.229  1.00  0.00     0.074 A 
ATOM     13  C   UNL A   1      39.682  28.449  29.468  1.00  0.00     0.049 A 
ATOM     14  N   UNL A   1      42.747  29.008  28.953  1.00  0.00    -0.248 NA
ATOM     15  C   UNL A   1      41.815  29.034  26.828  1.00  0.00     0.031 C 
ATOM     16  C   UNL A   1      38.321  28.058  29.834  1.00  0.00     0.029 A 
ATOM     17  N   UNL A   1      39.848  29.655  30.090  1.00  0.00    -0.354 N 
ATOM     18  C   UNL A   1      43.492  29.872  28.152  1.00  0.00     0.074 A 
ATOM     19  C   UNL A   1      42.905  29.808  26.835  1.00  0.00     0.031 C 
ATOM     20  C   UNL A   1      37.719  29.093  30.458  1.00  0.00     0.029 A 
ATOM     21  C   UNL A   1      38.700  30.143  30.678  1.00  0.00     0.049 A 
ATOM     22  H   UNL A   1      40.709  30.132  30.116  1.00  0.00     0.167 HD
ATOM     23  C   UNL A   1      44.460  30.692  28.653  1.00  0.00     0.037 A 
ATOM     24  C   UNL A   1      38.543  31.326  31.308  1.00  0.00     0.037 A 
ATOM     25  C   UNL A   1      44.846  30.349  29.992  1.00  0.00     0.049 A 
ATOM     26  C   UNL A   1      39.867  31.794  31.775  1.00  0.00     0.074 A 
ATOM     27  C   UNL A   1      45.394  29.243  30.611  1.00  0.00     0.029 A 
ATOM     28  N   UNL A   1      44.455  31.180  31.009  1.00  0.00    -0.354 N 
ATOM     29  N   UNL A   1      40.540  31.254  32.752  1.00  0.00    -0.248 NA
ATOM     30  C   UNL A   1      40.609  32.746  30.961  1.00  0.00     0.031 C 
ATOM     31  C   UNL A   1      44.883  29.264  31.942  1.00  0.00     0.029 A 
ATOM     32  C   UNL A   1      44.042  30.374  32.037  1.00  0.00     0.049 A 
ATOM     33  H   UNL A   1      44.469  32.164  31.002  1.00  0.00     0.167 HD
ATOM     34  C   UNL A   1      41.868  31.487  32.441  1.00  0.00     0.074 A 
ATOM     35  C   UNL A   1      41.840  32.539  31.434  1.00  0.00     0.031 C 
ATOM     36  C   UNL A   1      42.848  30.614  32.815  1.00  0.00     0.037 A 
BRANCH  23  37
ATOM     37  C   UNL A   1      44.906  31.991  28.033  1.00  0.00     0.057 A 
ATOM     38  C   UNL A   1      44.036  33.098  28.010  1.00  0.00     0.134 A 
ATOM     39  C   UNL A   1      46.047  32.101  27.220  1.00  0.00     0.134 A 
ATOM     40  F   UNL A   1      42.892  33.088  28.712  1.00  0.00    -0.206 F 
ATOM     41  C   UNL A   1      44.273  34.224  27.212  1.00  0.00     0.040 A 
ATOM     42  C   UNL A   1      46.318  33.239  26.451  1.00  0.00     0.040 A 
ATOM     43  F   UNL A   1      46.899  31.076  27.068  1.00  0.00    -0.206 F 
ATOM     44  C   UNL A   1      45.419  34.298  26.430  1.00  0.00     0.006 A 
ENDBRANCH  23  37
BRANCH  24  45
ATOM     45  C   UNL A   1      37.311  32.119  31.450  1.00  0.00     0.057 A 
ATOM     46  C   UNL A   1      36.753  32.811  30.371  1.00  0.00     0.134 A 
ATOM     47  C   UNL A   1      36.526  32.037  32.614  1.00  0.00     0.134 A 
ATOM     48  F   UNL A   1      37.406  32.899  29.204  1.00  0.00    -0.206 F 
ATOM     49  C   UNL A   1      35.483  33.394  30.445  1.00  0.00     0.040 A 
ATOM     50  C   UNL A   1      35.263  32.623  32.706  1.00  0.00     0.040 A 
ATOM     51  F   UNL A   1      36.932  31.320  33.673  1.00  0.00    -0.206 F 
ATOM     52  C   UNL A   1      34.733  33.297  31.614  1.00  0.00     0.006 A 
ENDBRANCH  24  45
BRANCH  36  53
ATOM     53  C   UNL A   1      42.523  29.613  33.884  1.00  0.00     0.057 A 
ATOM     54  C   UNL A   1      41.961  28.355  33.622  1.00  0.00     0.134 A 
ATOM     55  C   UNL A   1      42.919  29.871  35.201  1.00  0.00     0.134 A 
ATOM     56  F   UNL A   1      41.654  27.980  32.373  1.00  0.00    -0.206 F 
ATOM     57  C   UNL A   1      41.752  27.418  34.639  1.00  0.00     0.040 A 
ATOM     58  C   UNL A   1      42.745  28.931  36.221  1.00  0.00     0.040 A 
ATOM     59  F   UNL A   1      43.525  31.029  35.512  1.00  0.00    -0.206 F 
ATOM     60  C   UNL A   1      42.148  27.704  35.942  1.00  0.00     0.006 A 
ENDBRANCH  36  53
ENDBRANCH  10  11
ENDBRANCH   3   5
ENDBRANCH   2   3
ENDBRANCH   1   2
BRANCH   1  61
ATOM     61  C   UNL A   1      43.370  21.592  25.721  1.00  0.00     0.275 C 
BRANCH  61  62
ATOM     62  O   UNL A   1      43.384  23.032  25.640  1.00  0.00    -0.458 OA
BRANCH  62  63
ATOM     63  C   UNL A   1      44.608  23.632  25.759  1.00  0.00     0.343 C 
ATOM     64  O   UNL A   1      45.600  23.307  25.122  1.00  0.00    -0.246 OA
BRANCH  63  65
ATOM     65  C   UNL A   1      44.647  24.617  26.819  1.00  0.00     0.121 A 
ATOM     66  C   UNL A   1      44.842  26.026  26.815  1.00  0.00     0.082 A 
ATOM     67  C   UNL A   1      44.702  24.309  28.162  1.00  0.00     0.147 A 
ATOM     68  N   UNL A   1      44.917  26.542  28.050  1.00  0.00    -0.170 NA
ATOM     69  N   UNL A   1      44.956  25.461  28.860  1.00  0.00    -0.221 N 
ATOM     70  Cl  UNL A   1      44.553  22.811  28.980  1.00  0.00    -0.061 Cl
BRANCH  66  71
ATOM     71  C   UNL A   1      44.993  26.997  25.649  1.00  0.00     0.041 C 
ATOM     72  C   UNL A   1      45.903  28.192  25.636  1.00  0.00     0.011 C 
ATOM     73  C   UNL A   1      46.267  26.971  24.848  1.00  0.00     0.011 C 
ENDBRANCH  66  71
BRANCH  69  74
ATOM     74  C   UNL A   1      45.418  25.622  30.186  1.00  0.00     0.069 A 
ATOM     75  C   UNL A   1      46.787  25.794  30.424  1.00  0.00     0.030 A 
ATOM     76  C   UNL A   1      44.512  25.534  31.249  1.00  0.00     0.069 A 
ATOM     77  C   UNL A   1      47.241  25.943  31.738  1.00  0.00     0.026 A 
ATOM     78  C   UNL A   1      44.986  25.636  32.552  1.00  0.00     0.143 A 
ATOM     79  C   UNL A   1      46.339  25.857  32.802  1.00  0.00     0.076 A 
ATOM     80  F   UNL A   1      44.113  25.502  33.561  1.00  0.00    -0.205 F 
ATOM     81  Cl  UNL A   1      46.914  26.016  34.416  1.00  0.00    -0.081 Cl
ENDBRANCH  69  74
ENDBRANCH  63  65
ENDBRANCH  62  63
ENDBRANCH  61  62
ENDBRANCH   1  61
TORSDOF 13
ENDMDL
MODEL 3
REMARK VINA RESULT:      -8.7      4.782      7.504
REMARK SMILES O=C(OCCOC(=O)c1c(C2CC2)nn(-c2ccc(Cl)c(F)c2)c1Cl)c1ccc(-c2c3nc(c(-c4c(F)cccc4F)c4ccc([nH]4)c(-c4c(F)cccc4F)c4nc(c(-c5c(F)cccc5F)c5ccc2[nH]5)C=C4)C=C3)cc1
REMARK SMILES IDX 4 1 3 2 2 3 1 4 26 5 27 6 79 7 28 8 78 9 29 10 30 11 31 12
REMARK SMILES IDX 72 13 32 14 77 15 71 16 73 17 33 18 76 19 70 20 69 21 34 23
REMARK SMILES IDX 60 24 43 25 59 26 44 27 47 28 58 29 74 30 45 31 46 32 57 34
REMARK SMILES IDX 75 35 48 36 35 37 36 38 41 39 37 40 38 41 40 42 42 43 39 44
REMARK SMILES IDX 61 45 62 46 67 47 63 48 64 49 66 50 68 51 65 52 49 53 50 54
REMARK SMILES IDX 55 55 51 56 52 57 54 58 56 59 53 60 5 61 6 62 7 63 8 64 9 65
REMARK SMILES IDX 10 66 24 67 14 68 15 69 25 70 11 71 12 72 13 73 16 74 17 75
REMARK SMILES IDX 23 76 18 77 21 78 19 79 22 80 20 81
REMARK H PARENT 73 22 47 33
REMARK Flexibility Score: inf
ROOT
ATOM      1  C   UNL A   1      32.665  31.215  27.266  1.00  0.00     0.275 C 
ENDROOT
BRANCH   1   2
ATOM      2  O   UNL A   1      34.078  31.074  27.081  1.00  0.00    -0.458 OA
BRANCH   2   3
ATOM      3  C   UNL A   1      34.903  31.872  27.792  1.00  0.00     0.338 C 
ATOM      4  O   UNL A   1      34.763  33.060  28.011  1.00  0.00    -0.246 OA
BRANCH   3   5
ATOM      5  C   UNL A   1      36.137  31.094  28.064  1.00  0.00     0.060 A 
ATOM      6  C   UNL A   1      37.219  31.671  28.743  1.00  0.00     0.016 A 
ATOM      7  C   UNL A   1      36.160  29.735  27.743  1.00  0.00     0.016 A 
ATOM      8  C   UNL A   1      38.308  30.894  29.110  1.00  0.00     0.010 A 
ATOM      9  C   UNL A   1      37.258  28.958  28.113  1.00  0.00     0.010 A 
ATOM     10  C   UNL A   1      38.336  29.531  28.799  1.00  0.00    -0.014 A 
BRANCH  10  11
ATOM     11  C   UNL A   1      39.534  28.783  29.188  1.00  0.00     0.031 A 
ATOM     12  C   UNL A   1      39.901  28.677  30.634  1.00  0.00     0.074 A 
ATOM     13  C   UNL A   1      40.345  28.152  28.319  1.00  0.00     0.049 A 
ATOM     14  N   UNL A   1      40.917  29.215  31.236  1.00  0.00    -0.248 NA
ATOM     15  C   UNL A   1      39.070  27.836  31.503  1.00  0.00     0.031 C 
ATOM     16  C   UNL A   1      40.115  27.839  26.909  1.00  0.00     0.029 A 
ATOM     17  N   UNL A   1      41.573  27.605  28.573  1.00  0.00    -0.354 N 
ATOM     18  C   UNL A   1      40.952  28.669  32.518  1.00  0.00     0.074 A 
ATOM     19  C   UNL A   1      39.759  27.867  32.648  1.00  0.00     0.031 C 
ATOM     20  C   UNL A   1      41.081  26.997  26.482  1.00  0.00     0.029 A 
ATOM     21  C   UNL A   1      42.075  26.852  27.533  1.00  0.00     0.049 A 
ATOM     22  H   UNL A   1      42.054  27.738  29.422  1.00  0.00     0.167 HD
ATOM     23  C   UNL A   1      42.028  28.797  33.346  1.00  0.00     0.037 A 
ATOM     24  C   UNL A   1      43.226  26.150  27.515  1.00  0.00     0.037 A 
ATOM     25  C   UNL A   1      42.958  29.797  32.903  1.00  0.00     0.049 A 
ATOM     26  C   UNL A   1      44.146  26.718  28.525  1.00  0.00     0.074 A 
ATOM     27  C   UNL A   1      42.913  31.157  32.671  1.00  0.00     0.029 A 
ATOM     28  N   UNL A   1      44.158  29.379  32.389  1.00  0.00    -0.354 N 
ATOM     29  N   UNL A   1      44.739  27.874  28.418  1.00  0.00    -0.248 NA
ATOM     30  C   UNL A   1      44.222  26.100  29.841  1.00  0.00     0.031 C 
ATOM     31  C   UNL A   1      43.860  31.394  31.630  1.00  0.00     0.029 A 
ATOM     32  C   UNL A   1      44.405  30.155  31.288  1.00  0.00     0.049 A 
ATOM     33  H   UNL A   1      44.731  28.661  32.744  1.00  0.00     0.167 HD
ATOM     34  C   UNL A   1      44.912  28.307  29.721  1.00  0.00     0.074 A 
ATOM     35  C   UNL A   1      44.732  27.116  30.540  1.00  0.00     0.031 C 
ATOM     36  C   UNL A   1      44.902  29.635  30.034  1.00  0.00     0.037 A 
BRANCH  23  37
ATOM     37  C   UNL A   1      42.396  27.840  34.450  1.00  0.00     0.057 A 
ATOM     38  C   UNL A   1      42.962  26.589  34.140  1.00  0.00     0.134 A 
ATOM     39  C   UNL A   1      41.959  27.995  35.777  1.00  0.00     0.134 A 
ATOM     40  F   UNL A   1      43.374  26.311  32.894  1.00  0.00    -0.206 F 
ATOM     41  C   UNL A   1      43.061  25.555  35.080  1.00  0.00     0.040 A 
ATOM     42  C   UNL A   1      42.092  26.984  36.736  1.00  0.00     0.040 A 
ATOM     43  F   UNL A   1      41.305  29.096  36.174  1.00  0.00    -0.206 F 
ATOM     44  C   UNL A   1      42.626  25.752  36.384  1.00  0.00     0.006 A 
ENDBRANCH  23  37
BRANCH  24  45
ATOM     45  C   UNL A   1      43.541  24.948  26.724  1.00  0.00     0.057 A 
ATOM     46  C   UNL A   1      42.915  23.722  26.967  1.00  0.00     0.134 A 
ATOM     47  C   UNL A   1      44.316  25.033  25.554  1.00  0.00     0.134 A 
ATOM     48  F   UNL A   1      42.115  23.562  28.031  1.00  0.00    -0.206 F 
ATOM     49  C   UNL A   1      43.053  22.635  26.096  1.00  0.00     0.040 A 
ATOM     50  C   UNL A   1      44.472  23.954  24.682  1.00  0.00     0.040 A 
ATOM     51  F   UNL A   1      44.885  26.190  25.183  1.00  0.00    -0.206 F 
ATOM     52  C   UNL A   1      43.832  22.751  24.947  1.00  0.00     0.006 A 
ENDBRANCH  24  45
BRANCH  36  53
ATOM     53  C   UNL A   1      45.085  30.620  28.918  1.00  0.00     0.057 A 
ATOM     54  C   UNL A   1      44.045  31.043  28.079  1.00  0.00     0.134 A 
ATOM     55  C   UNL A   1      46.319  31.264  28.775  1.00  0.00     0.134 A 
ATOM     56  F   UNL A   1      42.803  30.559  28.219  1.00  0.00    -0.206 F 
ATOM     57  C   UNL A   1      44.241  32.025  27.104  1.00  0.00     0.040 A 
ATOM     58  C   UNL A   1      46.520  32.270  27.826  1.00  0.00     0.040 A 
ATOM     59  F   UNL A   1      47.343  30.957  29.589  1.00  0.00    -0.206 F 
ATOM     60  C   UNL A   1      45.481  32.645  26.978  1.00  0.00     0.006 A 
ENDBRANCH  36  53
ENDBRANCH  10  11
ENDBRANCH   3   5
ENDBRANCH   2   3
ENDBRANCH   1   2
BRANCH   1  61
ATOM     61  C   UNL A   1      31.854  29.997  26.816  1.00  0.00     0.275 C 
BRANCH  61  62
ATOM     62  O   UNL A   1      32.696  28.829  26.729  1.00  0.00    -0.458 OA
BRANCH  62  63
ATOM     63  C   UNL A   1      32.052  27.622  26.685  1.00  0.00     0.343 C 
ATOM     64  O   UNL A   1      31.087  27.330  27.377  1.00  0.00    -0.246 OA
BRANCH  63  65
ATOM     65  C   UNL A   1      32.712  26.667  25.821  1.00  0.00     0.121 A 
ATOM     66  C   UNL A   1      33.458  26.815  24.618  1.00  0.00     0.082 A 
ATOM     67  C   UNL A   1      32.557  25.300  25.913  1.00  0.00     0.147 A 
ATOM     68  N   UNL A   1      33.804  25.638  24.076  1.00  0.00    -0.170 NA
ATOM     69  N   UNL A   1      33.137  24.724  24.813  1.00  0.00    -0.221 N 
ATOM     70  Cl  UNL A   1      31.770  24.334  27.089  1.00  0.00    -0.061 Cl
BRANCH  66  71
ATOM     71  C   UNL A   1      33.887  28.074  23.872  1.00  0.00     0.041 C 
ATOM     72  C   UNL A   1      33.918  28.221  22.378  1.00  0.00     0.011 C 
ATOM     73  C   UNL A   1      32.836  28.890  23.169  1.00  0.00     0.011 C 
ENDBRANCH  66  71
BRANCH  69  74
ATOM     74  C   UNL A   1      32.965  23.423  24.288  1.00  0.00     0.069 A 
ATOM     75  C   UNL A   1      31.977  23.192  23.324  1.00  0.00     0.030 A 
ATOM     76  C   UNL A   1      33.734  22.368  24.791  1.00  0.00     0.069 A 
ATOM     77  C   UNL A   1      31.802  21.902  22.814  1.00  0.00     0.026 A 
ATOM     78  C   UNL A   1      33.517  21.082  24.308  1.00  0.00     0.143 A 
ATOM     79  C   UNL A   1      32.570  20.846  23.312  1.00  0.00     0.076 A 
ATOM     80  F   UNL A   1      34.228  20.074  24.833  1.00  0.00    -0.205 F 
ATOM     81  Cl  UNL A   1      32.329  19.258  22.696  1.00  0.00    -0.081 Cl
ENDBRANCH  69  74
ENDBRANCH  63  65
ENDBRANCH  62  63
ENDBRANCH  61  62
ENDBRANCH   1  61
TORSDOF 13
ENDMDL
