MODEL 1
REMARK VINA RESULT:      -9.6      0.000      0.000
REMARK SMILES C[C@@H]1CCCN(c2cc(Br)ccc2/C=C/C(=O)OCCOC(=O)c2ccc(-c3c4nc(c(-c5c(F)cccc5F)c5ccc([nH]5)c(-c5c(F)cccc5F)c5nc(c(-c6c(F)cccc6F)c6ccc3[nH]6)C=C5)C=C4)cc2)C1
REMARK SMILES IDX 19 1 18 2 16 3 17 4 15 5 14 6 13 7 7 8 8 9 9 10 12 11 10 12
REMARK SMILES IDX 11 13 6 14 1 15 2 16 3 17 78 18 4 19 5 20 20 21 21 22 22 23
REMARK SMILES IDX 23 24 24 25 25 26 77 27 26 28 76 29 27 30 28 31 29 32 70 33
REMARK SMILES IDX 30 34 75 35 69 36 71 37 31 38 74 39 68 40 67 41 32 43 58 44
REMARK SMILES IDX 41 45 57 46 42 47 45 48 56 49 72 50 43 51 44 52 55 54 73 55
REMARK SMILES IDX 46 56 33 57 34 58 39 59 35 60 36 61 38 62 40 63 37 64 59 65
REMARK SMILES IDX 60 66 65 67 61 68 62 69 64 70 66 71 63 72 47 73 48 74 53 75
REMARK SMILES IDX 49 76 50 77 52 78 54 79 51 80
REMARK H PARENT 71 42 45 53
REMARK Flexibility Score: inf
ROOT
ATOM      1  C   UNL A   1      45.135  19.666  25.143  1.00  0.00     0.275 C 
ENDROOT
BRANCH   1   2
ATOM      2  O   UNL A   1      45.216  20.986  25.712  1.00  0.00    -0.459 OA
BRANCH   2   3
ATOM      3  C   UNL A   1      46.045  21.850  25.081  1.00  0.00     0.330 C 
ATOM      4  O   UNL A   1      46.870  21.566  24.224  1.00  0.00    -0.247 OA
BRANCH   3   5
ATOM      5  C   UNL A   1      45.848  23.248  25.509  1.00  0.00     0.094 C 
ATOM      6  C   UNL A   1      45.858  24.319  24.701  1.00  0.00     0.018 C 
BRANCH   6   7
ATOM      7  C   UNL A   1      45.724  25.701  25.208  1.00  0.00    -0.002 A 
ATOM      8  C   UNL A   1      46.844  26.551  25.363  1.00  0.00     0.045 A 
ATOM      9  C   UNL A   1      46.637  27.832  25.914  1.00  0.00     0.042 A 
ATOM     10  C   UNL A   1      45.369  28.258  26.307  1.00  0.00     0.020 A 
ATOM     11  C   UNL A   1      44.456  26.139  25.644  1.00  0.00     0.011 A 
ATOM     12  Br  UNL A   1      45.139  29.994  27.016  1.00  0.00    -0.051 Br
ATOM     13  C   UNL A   1      44.277  27.413  26.182  1.00  0.00     0.016 A 
BRANCH   8  14
ATOM     14  N   UNL A   1      48.133  26.200  24.994  1.00  0.00    -0.371 N 
ATOM     15  C   UNL A   1      50.554  27.319  22.295  1.00  0.00     0.009 C 
ATOM     16  C   UNL A   1      49.954  27.171  23.691  1.00  0.00     0.005 C 
ATOM     17  C   UNL A   1      50.947  26.481  24.640  1.00  0.00     0.007 C 
ATOM     18  C   UNL A   1      48.621  26.402  23.635  1.00  0.00     0.119 C 
ATOM     19  C   UNL A   1      50.338  26.288  26.028  1.00  0.00     0.022 C 
ATOM     20  C   UNL A   1      49.011  25.537  25.950  1.00  0.00     0.116 C 
ENDBRANCH   8  14
ENDBRANCH   6   7
ENDBRANCH   3   5
ENDBRANCH   2   3
ENDBRANCH   1   2
BRANCH   1  21
ATOM     21  C   UNL A   1      43.834  18.966  25.546  1.00  0.00     0.275 C 
BRANCH  21  22
ATOM     22  O   UNL A   1      42.681  19.591  24.953  1.00  0.00    -0.458 OA
BRANCH  22  23
ATOM     23  C   UNL A   1      41.630  19.769  25.788  1.00  0.00     0.338 C 
ATOM     24  O   UNL A   1      40.738  18.973  26.033  1.00  0.00    -0.246 OA
BRANCH  23  25
ATOM     25  C   UNL A   1      41.750  21.068  26.471  1.00  0.00     0.060 A 
ATOM     26  C   UNL A   1      42.059  22.194  25.700  1.00  0.00     0.016 A 
ATOM     27  C   UNL A   1      41.642  21.166  27.859  1.00  0.00     0.016 A 
ATOM     28  C   UNL A   1      42.275  23.424  26.319  1.00  0.00     0.010 A 
ATOM     29  C   UNL A   1      41.862  22.399  28.479  1.00  0.00     0.010 A 
ATOM     30  C   UNL A   1      42.196  23.531  27.714  1.00  0.00    -0.014 A 
BRANCH  30  31
ATOM     31  C   UNL A   1      42.532  24.808  28.388  1.00  0.00     0.031 A 
ATOM     32  C   UNL A   1      41.477  25.865  28.541  1.00  0.00     0.074 A 
ATOM     33  C   UNL A   1      43.775  25.022  28.854  1.00  0.00     0.049 A 
ATOM     34  N   UNL A   1      41.583  27.082  29.012  1.00  0.00    -0.248 NA
ATOM     35  C   UNL A   1      40.119  25.504  28.103  1.00  0.00     0.031 C 
ATOM     36  C   UNL A   1      44.875  24.061  28.797  1.00  0.00     0.029 A 
ATOM     37  N   UNL A   1      44.322  26.126  29.457  1.00  0.00    -0.354 N 
ATOM     38  C   UNL A   1      40.314  27.638  28.914  1.00  0.00     0.074 A 
ATOM     39  C   UNL A   1      39.457  26.633  28.321  1.00  0.00     0.031 C 
ATOM     40  C   UNL A   1      45.971  24.621  29.337  1.00  0.00     0.029 A 
ATOM     41  C   UNL A   1      45.659  25.990  29.740  1.00  0.00     0.049 A 
ATOM     42  H   UNL A   1      43.806  26.938  29.667  1.00  0.00     0.167 HD
ATOM     43  C   UNL A   1      39.901  28.871  29.287  1.00  0.00     0.037 A 
ATOM     44  C   UNL A   1      46.537  26.880  30.241  1.00  0.00     0.037 A 
ATOM     45  C   UNL A   1      40.754  29.869  29.882  1.00  0.00     0.049 A 
ATOM     46  C   UNL A   1      46.068  28.266  30.592  1.00  0.00     0.074 A 
ATOM     47  C   UNL A   1      40.425  31.145  30.303  1.00  0.00     0.029 A 
ATOM     48  N   UNL A   1      42.105  29.698  30.138  1.00  0.00    -0.354 N 
ATOM     49  N   UNL A   1      44.865  28.779  30.500  1.00  0.00    -0.248 NA
ATOM     50  C   UNL A   1      47.079  29.196  31.115  1.00  0.00     0.031 C 
ATOM     51  C   UNL A   1      41.588  31.761  30.780  1.00  0.00     0.029 A 
ATOM     52  C   UNL A   1      42.630  30.852  30.696  1.00  0.00     0.049 A 
ATOM     53  H   UNL A   1      42.617  28.877  29.950  1.00  0.00     0.167 HD
ATOM     54  C   UNL A   1      44.968  30.080  30.979  1.00  0.00     0.074 A 
ATOM     55  C   UNL A   1      46.350  30.275  31.366  1.00  0.00     0.031 C 
ATOM     56  C   UNL A   1      44.004  31.026  31.090  1.00  0.00     0.037 A 
BRANCH  43  57
ATOM     57  C   UNL A   1      38.464  29.221  29.041  1.00  0.00     0.057 A 
ATOM     58  C   UNL A   1      37.507  29.177  30.063  1.00  0.00     0.134 A 
ATOM     59  C   UNL A   1      38.037  29.633  27.773  1.00  0.00     0.134 A 
ATOM     60  F   UNL A   1      37.850  28.777  31.298  1.00  0.00    -0.206 F 
ATOM     61  C   UNL A   1      36.172  29.510  29.827  1.00  0.00     0.040 A 
ATOM     62  C   UNL A   1      36.710  29.991  27.530  1.00  0.00     0.040 A 
ATOM     63  F   UNL A   1      38.904  29.703  26.752  1.00  0.00    -0.206 F 
ATOM     64  C   UNL A   1      35.772  29.924  28.558  1.00  0.00     0.006 A 
ENDBRANCH  43  57
BRANCH  44  65
ATOM     65  C   UNL A   1      47.956  26.493  30.431  1.00  0.00     0.057 A 
ATOM     66  C   UNL A   1      48.937  26.868  29.506  1.00  0.00     0.134 A 
ATOM     67  C   UNL A   1      48.363  25.727  31.530  1.00  0.00     0.134 A 
ATOM     68  F   UNL A   1      48.604  27.581  28.420  1.00  0.00    -0.206 F 
ATOM     69  C   UNL A   1      50.270  26.487  29.661  1.00  0.00     0.040 A 
ATOM     70  C   UNL A   1      49.696  25.358  31.710  1.00  0.00     0.040 A 
ATOM     71  F   UNL A   1      47.469  25.335  32.450  1.00  0.00    -0.206 F 
ATOM     72  C   UNL A   1      50.654  25.734  30.770  1.00  0.00     0.006 A 
ENDBRANCH  44  65
BRANCH  56  73
ATOM     73  C   UNL A   1      44.396  32.340  31.696  1.00  0.00     0.057 A 
ATOM     74  C   UNL A   1      44.326  32.570  33.076  1.00  0.00     0.134 A 
ATOM     75  C   UNL A   1      44.895  33.373  30.891  1.00  0.00     0.134 A 
ATOM     76  F   UNL A   1      43.845  31.624  33.898  1.00  0.00    -0.206 F 
ATOM     77  C   UNL A   1      44.722  33.785  33.632  1.00  0.00     0.040 A 
ATOM     78  C   UNL A   1      45.315  34.585  31.439  1.00  0.00     0.040 A 
ATOM     79  F   UNL A   1      44.995  33.213  29.563  1.00  0.00    -0.206 F 
ATOM     80  C   UNL A   1      45.226  34.796  32.813  1.00  0.00     0.006 A 
ENDBRANCH  56  73
ENDBRANCH  30  31
ENDBRANCH  23  25
ENDBRANCH  22  23
ENDBRANCH  21  22
ENDBRANCH   1  21
TORSDOF 13
ENDMDL
MODEL 2
REMARK VINA RESULT:      -9.3      3.801      7.122
REMARK SMILES C[C@@H]1CCCN(c2cc(Br)ccc2/C=C/C(=O)OCCOC(=O)c2ccc(-c3c4nc(c(-c5c(F)cccc5F)c5ccc([nH]5)c(-c5c(F)cccc5F)c5nc(c(-c6c(F)cccc6F)c6ccc3[nH]6)C=C5)C=C4)cc2)C1
REMARK SMILES IDX 19 1 18 2 16 3 17 4 15 5 14 6 13 7 7 8 8 9 9 10 12 11 10 12
REMARK SMILES IDX 11 13 6 14 1 15 2 16 3 17 78 18 4 19 5 20 20 21 21 22 22 23
REMARK SMILES IDX 23 24 24 25 25 26 77 27 26 28 76 29 27 30 28 31 29 32 70 33
REMARK SMILES IDX 30 34 75 35 69 36 71 37 31 38 74 39 68 40 67 41 32 43 58 44
REMARK SMILES IDX 41 45 57 46 42 47 45 48 56 49 72 50 43 51 44 52 55 54 73 55
REMARK SMILES IDX 46 56 33 57 34 58 39 59 35 60 36 61 38 62 40 63 37 64 59 65
REMARK SMILES IDX 60 66 65 67 61 68 62 69 64 70 66 71 63 72 47 73 48 74 53 75
REMARK SMILES IDX 49 76 50 77 52 78 54 79 51 80
REMARK H PARENT 71 42 45 53
REMARK Flexibility Score: inf
ROOT
ATOM      1  C   UNL A   1      37.412  20.750  24.948  1.00  0.00     0.275 C 
ENDROOT
BRANCH   1   2
ATOM      2  O   UNL A   1      37.736  22.129  24.690  1.00  0.00    -0.459 OA
BRANCH   2   3
ATOM      3  C   UNL A   1      36.854  22.808  23.922  1.00  0.00     0.330 C 
ATOM      4  O   UNL A   1      36.764  22.754  22.703  1.00  0.00    -0.247 OA
BRANCH   3   5
ATOM      5  C   UNL A   1      35.934  23.649  24.712  1.00  0.00     0.094 C 
ATOM      6  C   UNL A   1      34.907  24.358  24.217  1.00  0.00     0.018 C 
BRANCH   6   7
ATOM      7  C   UNL A   1      34.068  25.236  25.058  1.00  0.00    -0.002 A 
ATOM      8  C   UNL A   1      33.047  24.719  25.891  1.00  0.00     0.045 A 
ATOM      9  C   UNL A   1      32.251  25.630  26.612  1.00  0.00     0.042 A 
ATOM     10  C   UNL A   1      32.447  27.007  26.510  1.00  0.00     0.020 A 
ATOM     11  C   UNL A   1      34.226  26.633  24.944  1.00  0.00     0.011 A 
ATOM     12  Br  UNL A   1      31.368  28.187  27.518  1.00  0.00    -0.051 Br
ATOM     13  C   UNL A   1      33.427  27.514  25.671  1.00  0.00     0.016 A 
BRANCH   8  14
ATOM     14  N   UNL A   1      32.793  23.365  26.046  1.00  0.00    -0.371 N 
ATOM     15  C   UNL A   1      32.324  20.432  23.686  1.00  0.00     0.009 C 
ATOM     16  C   UNL A   1      33.007  21.335  24.709  1.00  0.00     0.005 C 
ATOM     17  C   UNL A   1      33.304  20.561  26.005  1.00  0.00     0.007 C 
ATOM     18  C   UNL A   1      32.152  22.582  24.997  1.00  0.00     0.119 C 
ATOM     19  C   UNL A   1      33.948  21.469  27.052  1.00  0.00     0.022 C 
ATOM     20  C   UNL A   1      33.092  22.707  27.312  1.00  0.00     0.116 C 
ENDBRANCH   8  14
ENDBRANCH   6   7
ENDBRANCH   3   5
ENDBRANCH   2   3
ENDBRANCH   1   2
BRANCH   1  21
ATOM     21  C   UNL A   1      38.662  19.866  24.899  1.00  0.00     0.275 C 
BRANCH  21  22
ATOM     22  O   UNL A   1      39.353  19.843  26.161  1.00  0.00    -0.458 OA
BRANCH  22  23
ATOM     23  C   UNL A   1      40.703  19.771  26.077  1.00  0.00     0.338 C 
ATOM     24  O   UNL A   1      41.365  18.879  25.573  1.00  0.00    -0.246 OA
BRANCH  23  25
ATOM     25  C   UNL A   1      41.301  21.005  26.611  1.00  0.00     0.060 A 
ATOM     26  C   UNL A   1      41.295  21.197  27.998  1.00  0.00     0.016 A 
ATOM     27  C   UNL A   1      41.788  21.998  25.760  1.00  0.00     0.016 A 
ATOM     28  C   UNL A   1      41.765  22.393  28.537  1.00  0.00     0.010 A 
ATOM     29  C   UNL A   1      42.256  23.198  26.302  1.00  0.00     0.010 A 
ATOM     30  C   UNL A   1      42.231  23.408  27.692  1.00  0.00    -0.014 A 
BRANCH  30  31
ATOM     31  C   UNL A   1      42.630  24.724  28.249  1.00  0.00     0.031 A 
ATOM     32  C   UNL A   1      41.594  25.792  28.445  1.00  0.00     0.074 A 
ATOM     33  C   UNL A   1      43.914  24.962  28.570  1.00  0.00     0.049 A 
ATOM     34  N   UNL A   1      41.745  27.035  28.827  1.00  0.00    -0.248 NA
ATOM     35  C   UNL A   1      40.199  25.409  28.172  1.00  0.00     0.031 C 
ATOM     36  C   UNL A   1      45.005  23.995  28.460  1.00  0.00     0.029 A 
ATOM     37  N   UNL A   1      44.518  26.099  29.046  1.00  0.00    -0.354 N 
ATOM     38  C   UNL A   1      40.471  27.588  28.826  1.00  0.00     0.074 A 
ATOM     39  C   UNL A   1      39.560  26.551  28.387  1.00  0.00     0.031 C 
ATOM     40  C   UNL A   1      46.150  24.584  28.849  1.00  0.00     0.029 A 
ATOM     41  C   UNL A   1      45.877  25.976  29.197  1.00  0.00     0.049 A 
ATOM     42  H   UNL A   1      44.024  26.924  29.257  1.00  0.00     0.167 HD
ATOM     43  C   UNL A   1      40.095  28.843  29.164  1.00  0.00     0.037 A 
ATOM     44  C   UNL A   1      46.799  26.892  29.550  1.00  0.00     0.037 A 
ATOM     45  C   UNL A   1      41.001  29.872  29.605  1.00  0.00     0.049 A 
ATOM     46  C   UNL A   1      46.364  28.298  29.862  1.00  0.00     0.074 A 
ATOM     47  C   UNL A   1      40.713  31.173  29.979  1.00  0.00     0.029 A 
ATOM     48  N   UNL A   1      42.372  29.713  29.730  1.00  0.00    -0.354 N 
ATOM     49  N   UNL A   1      45.157  28.809  29.862  1.00  0.00    -0.248 NA
ATOM     50  C   UNL A   1      47.421  29.255  30.219  1.00  0.00     0.031 C 
ATOM     51  C   UNL A   1      41.917  31.813  30.295  1.00  0.00     0.029 A 
ATOM     52  C   UNL A   1      42.948  30.897  30.160  1.00  0.00     0.049 A 
ATOM     53  H   UNL A   1      42.864  28.881  29.542  1.00  0.00     0.167 HD
ATOM     54  C   UNL A   1      45.305  30.136  30.247  1.00  0.00     0.074 A 
ATOM     55  C   UNL A   1      46.719  30.350  30.478  1.00  0.00     0.031 C 
ATOM     56  C   UNL A   1      44.355  31.090  30.399  1.00  0.00     0.037 A 
BRANCH  43  57
ATOM     57  C   UNL A   1      38.638  29.182  29.046  1.00  0.00     0.057 A 
ATOM     58  C   UNL A   1      37.776  29.129  30.148  1.00  0.00     0.134 A 
ATOM     59  C   UNL A   1      38.099  29.592  27.821  1.00  0.00     0.134 A 
ATOM     60  F   UNL A   1      38.229  28.731  31.347  1.00  0.00    -0.206 F 
ATOM     61  C   UNL A   1      36.423  29.452  30.031  1.00  0.00     0.040 A 
ATOM     62  C   UNL A   1      36.752  29.940  27.697  1.00  0.00     0.040 A 
ATOM     63  F   UNL A   1      38.871  29.670  26.727  1.00  0.00    -0.206 F 
ATOM     64  C   UNL A   1      35.909  29.865  28.803  1.00  0.00     0.006 A 
ENDBRANCH  43  57
BRANCH  44  65
ATOM     65  C   UNL A   1      48.231  26.512  29.615  1.00  0.00     0.057 A 
ATOM     66  C   UNL A   1      49.078  26.694  28.516  1.00  0.00     0.134 A 
ATOM     67  C   UNL A   1      48.784  25.946  30.770  1.00  0.00     0.134 A 
ATOM     68  F   UNL A   1      48.601  27.210  27.374  1.00  0.00    -0.206 F 
ATOM     69  C   UNL A   1      50.421  26.317  28.559  1.00  0.00     0.040 A 
ATOM     70  C   UNL A   1      50.130  25.585  30.835  1.00  0.00     0.040 A 
ATOM     71  F   UNL A   1      48.022  25.744  31.856  1.00  0.00    -0.206 F 
ATOM     72  C   UNL A   1      50.951  25.765  29.724  1.00  0.00     0.006 A 
ENDBRANCH  44  65
BRANCH  56  73
ATOM     73  C   UNL A   1      44.803  32.438  30.880  1.00  0.00     0.057 A 
ATOM     74  C   UNL A   1      45.136  33.468  29.992  1.00  0.00     0.134 A 
ATOM     75  C   UNL A   1      44.856  32.722  32.251  1.00  0.00     0.134 A 
ATOM     76  F   UNL A   1      45.118  33.255  28.667  1.00  0.00    -0.206 F 
ATOM     77  C   UNL A   1      45.522  34.727  30.450  1.00  0.00     0.040 A 
ATOM     78  C   UNL A   1      45.219  33.984  32.721  1.00  0.00     0.040 A 
ATOM     79  F   UNL A   1      44.542  31.780  33.154  1.00  0.00    -0.206 F 
ATOM     80  C   UNL A   1      45.557  34.991  31.819  1.00  0.00     0.006 A 
ENDBRANCH  56  73
ENDBRANCH  30  31
ENDBRANCH  23  25
ENDBRANCH  22  23
ENDBRANCH  21  22
ENDBRANCH   1  21
TORSDOF 13
ENDMDL
MODEL 3
REMARK VINA RESULT:      -9.2      0.817      6.432
REMARK SMILES C[C@@H]1CCCN(c2cc(Br)ccc2/C=C/C(=O)OCCOC(=O)c2ccc(-c3c4nc(c(-c5c(F)cccc5F)c5ccc([nH]5)c(-c5c(F)cccc5F)c5nc(c(-c6c(F)cccc6F)c6ccc3[nH]6)C=C5)C=C4)cc2)C1
REMARK SMILES IDX 19 1 18 2 16 3 17 4 15 5 14 6 13 7 7 8 8 9 9 10 12 11 10 12
REMARK SMILES IDX 11 13 6 14 1 15 2 16 3 17 78 18 4 19 5 20 20 21 21 22 22 23
REMARK SMILES IDX 23 24 24 25 25 26 77 27 26 28 76 29 27 30 28 31 29 32 70 33
REMARK SMILES IDX 30 34 75 35 69 36 71 37 31 38 74 39 68 40 67 41 32 43 58 44
REMARK SMILES IDX 41 45 57 46 42 47 45 48 56 49 72 50 43 51 44 52 55 54 73 55
REMARK SMILES IDX 46 56 33 57 34 58 39 59 35 60 36 61 38 62 40 63 37 64 59 65
REMARK SMILES IDX 60 66 65 67 61 68 62 69 64 70 66 71 63 72 47 73 48 74 53 75
REMARK SMILES IDX 49 76 50 77 52 78 54 79 51 80
REMARK H PARENT 71 42 45 53
REMARK Flexibility Score: inf
ROOT
ATOM      1  C   UNL A   1      45.033  19.518  25.016  1.00  0.00     0.275 C 
ENDROOT
BRANCH   1   2
ATOM      2  O   UNL A   1      45.274  20.768  25.688  1.00  0.00    -0.459 OA
BRANCH   2   3
ATOM      3  C   UNL A   1      46.005  21.676  25.001  1.00  0.00     0.330 C 
ATOM      4  O   UNL A   1      46.717  21.449  24.033  1.00  0.00    -0.247 OA
BRANCH   3   5
ATOM      5  C   UNL A   1      45.850  23.048  25.521  1.00  0.00     0.094 C 
ATOM      6  C   UNL A   1      46.097  24.174  24.834  1.00  0.00     0.018 C 
BRANCH   6   7
ATOM      7  C   UNL A   1      45.986  25.517  25.441  1.00  0.00    -0.002 A 
ATOM      8  C   UNL A   1      47.091  26.152  26.057  1.00  0.00     0.045 A 
ATOM      9  C   UNL A   1      46.884  27.404  26.667  1.00  0.00     0.042 A 
ATOM     10  C   UNL A   1      45.628  28.009  26.679  1.00  0.00     0.020 A 
ATOM     11  C   UNL A   1      44.717  26.131  25.495  1.00  0.00     0.011 A 
ATOM     12  Br  UNL A   1      45.408  29.702  27.490  1.00  0.00    -0.051 Br
ATOM     13  C   UNL A   1      44.539  27.374  26.102  1.00  0.00     0.016 A 
BRANCH   8  14
ATOM     14  N   UNL A   1      48.368  25.615  26.084  1.00  0.00    -0.371 N 
ATOM     15  C   UNL A   1      51.737  26.622  24.656  1.00  0.00     0.009 C 
ATOM     16  C   UNL A   1      50.650  26.393  25.703  1.00  0.00     0.005 C 
ATOM     17  C   UNL A   1      51.126  25.395  26.771  1.00  0.00     0.007 C 
ATOM     18  C   UNL A   1      49.345  25.913  25.043  1.00  0.00     0.119 C 
ATOM     19  C   UNL A   1      50.028  25.125  27.800  1.00  0.00     0.022 C 
ATOM     20  C   UNL A   1      48.739  24.664  27.124  1.00  0.00     0.116 C 
ENDBRANCH   8  14
ENDBRANCH   6   7
ENDBRANCH   3   5
ENDBRANCH   2   3
ENDBRANCH   1   2
BRANCH   1  21
ATOM     21  C   UNL A   1      43.712  18.889  25.467  1.00  0.00     0.275 C 
BRANCH  21  22
ATOM     22  O   UNL A   1      42.575  19.655  25.029  1.00  0.00    -0.458 OA
BRANCH  22  23
ATOM     23  C   UNL A   1      41.688  19.974  26.001  1.00  0.00     0.338 C 
ATOM     24  O   UNL A   1      40.768  19.288  26.415  1.00  0.00    -0.246 OA
BRANCH  23  25
ATOM     25  C   UNL A   1      42.042  21.276  26.590  1.00  0.00     0.060 A 
ATOM     26  C   UNL A   1      42.066  21.385  27.985  1.00  0.00     0.016 A 
ATOM     27  C   UNL A   1      42.266  22.394  25.786  1.00  0.00     0.016 A 
ATOM     28  C   UNL A   1      42.303  22.623  28.582  1.00  0.00     0.010 A 
ATOM     29  C   UNL A   1      42.501  23.634  26.386  1.00  0.00     0.010 A 
ATOM     30  C   UNL A   1      42.504  23.758  27.787  1.00  0.00    -0.014 A 
BRANCH  30  31
ATOM     31  C   UNL A   1      42.647  25.095  28.411  1.00  0.00     0.031 A 
ATOM     32  C   UNL A   1      43.955  25.485  29.038  1.00  0.00     0.074 A 
ATOM     33  C   UNL A   1      41.611  25.952  28.424  1.00  0.00     0.049 A 
ATOM     34  N   UNL A   1      44.263  26.562  29.716  1.00  0.00    -0.248 NA
ATOM     35  C   UNL A   1      45.066  24.533  28.881  1.00  0.00     0.031 C 
ATOM     36  C   UNL A   1      40.304  25.704  27.819  1.00  0.00     0.029 A 
ATOM     37  N   UNL A   1      41.495  27.202  28.979  1.00  0.00    -0.354 N 
ATOM     38  C   UNL A   1      45.594  26.412  30.080  1.00  0.00     0.074 A 
ATOM     39  C   UNL A   1      46.032  25.131  29.564  1.00  0.00     0.031 C 
ATOM     40  C   UNL A   1      39.511  26.768  28.043  1.00  0.00     0.029 A 
ATOM     41  C   UNL A   1      40.244  27.749  28.838  1.00  0.00     0.049 A 
ATOM     42  H   UNL A   1      42.237  27.661  29.434  1.00  0.00     0.167 HD
ATOM     43  C   UNL A   1      46.381  27.265  30.776  1.00  0.00     0.037 A 
ATOM     44  C   UNL A   1      39.740  28.902  29.322  1.00  0.00     0.037 A 
ATOM     45  C   UNL A   1      45.946  28.541  31.284  1.00  0.00     0.049 A 
ATOM     46  C   UNL A   1      40.616  29.806  30.145  1.00  0.00     0.074 A 
ATOM     47  C   UNL A   1      46.673  29.480  31.994  1.00  0.00     0.029 A 
ATOM     48  N   UNL A   1      44.667  29.053  31.134  1.00  0.00    -0.354 N 
ATOM     49  N   UNL A   1      41.874  29.656  30.479  1.00  0.00    -0.248 NA
ATOM     50  C   UNL A   1      39.999  31.036  30.661  1.00  0.00     0.031 C 
ATOM     51  C   UNL A   1      45.821  30.546  32.307  1.00  0.00     0.029 A 
ATOM     52  C   UNL A   1      44.578  30.289  31.754  1.00  0.00     0.049 A 
ATOM     53  H   UNL A   1      43.930  28.605  30.658  1.00  0.00     0.167 HD
ATOM     54  C   UNL A   1      42.209  30.786  31.218  1.00  0.00     0.074 A 
ATOM     55  C   UNL A   1      41.022  31.613  31.278  1.00  0.00     0.031 C 
ATOM     56  C   UNL A   1      43.393  31.108  31.791  1.00  0.00     0.037 A 
BRANCH  43  57
ATOM     57  C   UNL A   1      47.791  26.834  31.051  1.00  0.00     0.057 A 
ATOM     58  C   UNL A   1      48.095  25.878  32.028  1.00  0.00     0.134 A 
ATOM     59  C   UNL A   1      48.855  27.364  30.311  1.00  0.00     0.134 A 
ATOM     60  F   UNL A   1      47.121  25.342  32.781  1.00  0.00    -0.206 F 
ATOM     61  C   UNL A   1      49.409  25.478  32.274  1.00  0.00     0.040 A 
ATOM     62  C   UNL A   1      50.172  26.955  30.532  1.00  0.00     0.040 A 
ATOM     63  F   UNL A   1      48.633  28.280  29.357  1.00  0.00    -0.206 F 
ATOM     64  C   UNL A   1      50.452  26.014  31.519  1.00  0.00     0.006 A 
ENDBRANCH  43  57
BRANCH  44  65
ATOM     65  C   UNL A   1      38.327  29.262  29.049  1.00  0.00     0.057 A 
ATOM     66  C   UNL A   1      37.349  29.153  30.045  1.00  0.00     0.134 A 
ATOM     67  C   UNL A   1      37.917  29.708  27.787  1.00  0.00     0.134 A 
ATOM     68  F   UNL A   1      37.676  28.708  31.267  1.00  0.00    -0.206 F 
ATOM     69  C   UNL A   1      36.013  29.465  29.792  1.00  0.00     0.040 A 
ATOM     70  C   UNL A   1      36.589  30.045  27.526  1.00  0.00     0.040 A 
ATOM     71  F   UNL A   1      38.808  29.831  26.791  1.00  0.00    -0.206 F 
ATOM     72  C   UNL A   1      35.630  29.918  28.530  1.00  0.00     0.006 A 
ENDBRANCH  44  65
BRANCH  56  73
ATOM     73  C   UNL A   1      43.481  32.430  32.493  1.00  0.00     0.057 A 
ATOM     74  C   UNL A   1      43.811  33.609  31.813  1.00  0.00     0.134 A 
ATOM     75  C   UNL A   1      43.185  32.531  33.859  1.00  0.00     0.134 A 
ATOM     76  F   UNL A   1      44.117  33.577  30.507  1.00  0.00    -0.206 F 
ATOM     77  C   UNL A   1      43.859  34.839  32.469  1.00  0.00     0.040 A 
ATOM     78  C   UNL A   1      43.208  33.758  34.521  1.00  0.00     0.040 A 
ATOM     79  F   UNL A   1      42.854  31.440  34.566  1.00  0.00    -0.206 F 
ATOM     80  C   UNL A   1      43.550  34.917  33.827  1.00  0.00     0.006 A 
ENDBRANCH  56  73
ENDBRANCH  30  31
ENDBRANCH  23  25
ENDBRANCH  22  23
ENDBRANCH  21  22
ENDBRANCH   1  21
TORSDOF 13
ENDMDL
