MODEL 1
REMARK VINA RESULT:     -12.3      0.000      0.000
REMARK SMILES CC1(C)C(NC(=O)N[C@]2(C(=O)OCCOC(=O)c3ccc(-c4c5nc(c(-c6c(F)cccc6F)c6ccc([nH]6)c(-c6c(F)cccc6F)c6nc(c(-c7c(F)cccc7F)c7ccc4[nH]7)C=C6)C=C5)cc3)CC[C@@H](C)CC2)C1(C)C
REMARK SMILES IDX 13 1 12 2 10 3 11 4 9 5 75 6 74 7 76 8 73 9 77 10 72 11 8 12
REMARK SMILES IDX 6 13 7 15 5 16 4 18 2 19 78 20 1 21 3 22 79 23 80 24 14 25
REMARK SMILES IDX 15 26 16 27 17 28 18 29 19 30 71 31 20 32 70 33 21 34 22 35
REMARK SMILES IDX 23 36 64 37 24 38 69 39 63 40 65 41 25 42 68 43 62 44 61 45
REMARK SMILES IDX 26 47 52 48 35 49 51 50 36 51 39 52 50 53 66 54 37 55 38 56
REMARK SMILES IDX 49 58 67 59 40 60 27 61 28 62 33 63 29 64 30 65 32 66 34 67
REMARK SMILES IDX 31 68 53 69 54 70 59 71 55 72 56 73 58 74 60 75 57 76 41 77
REMARK SMILES IDX 42 78 47 79 43 80 44 81 46 82 48 83 45 84
REMARK H PARENT 8 14 5 17 65 46 39 57
REMARK Flexibility Score: inf
ROOT
ATOM      1  C   UNL A   1      30.769  28.721  24.303  1.00  0.00     0.274 C 
ENDROOT
BRANCH   1   2
ATOM      2  O   UNL A   1      30.413  27.369  24.784  1.00  0.00    -0.460 OA
BRANCH   2   3
ATOM      3  C   UNL A   1      31.035  26.713  25.796  1.00  0.00     0.332 C 
ATOM      4  O   UNL A   1      31.168  27.231  26.900  1.00  0.00    -0.249 OA
BRANCH   3   5
ATOM      5  C   UNL A   1      31.439  25.206  25.466  1.00  0.00     0.139 C 
ATOM      6  C   UNL A   1      33.962  28.055  23.889  1.00  0.00     0.007 C 
ATOM      7  C   UNL A   1      33.841  26.559  24.248  1.00  0.00    -0.014 C 
ATOM      8  C   UNL A   1      32.742  25.931  23.359  1.00  0.00     0.006 C 
ATOM      9  C   UNL A   1      33.718  26.354  25.780  1.00  0.00     0.006 C 
ATOM     10  C   UNL A   1      31.855  24.878  24.011  1.00  0.00     0.041 C 
ATOM     11  C   UNL A   1      32.835  25.156  26.204  1.00  0.00     0.041 C 
BRANCH   5  12
ATOM     12  N   UNL A   1      30.550  24.055  25.950  1.00  0.00    -0.322 N 
ATOM     13  C   UNL A   1      30.453  22.725  26.146  1.00  0.00     0.315 C 
ATOM     14  H   UNL A   1      29.696  24.452  26.236  1.00  0.00     0.166 HD
ATOM     15  O   UNL A   1      29.497  22.385  26.862  1.00  0.00    -0.249 OA
ATOM     16  N   UNL A   1      31.195  21.697  25.681  1.00  0.00    -0.334 N 
ATOM     17  H   UNL A   1      30.722  20.835  25.737  1.00  0.00     0.165 HD
BRANCH  16  18
ATOM     18  C   UNL A   1      32.495  21.567  25.134  1.00  0.00     0.096 C 
ATOM     19  C   UNL A   1      33.928  21.210  25.599  1.00  0.00    -0.007 C 
ATOM     20  C   UNL A   1      32.990  20.146  25.191  1.00  0.00    -0.007 C 
ATOM     21  C   UNL A   1      35.167  21.221  24.693  1.00  0.00     0.014 C 
ATOM     22  C   UNL A   1      34.260  21.345  27.050  1.00  0.00     0.014 C 
ATOM     23  C   UNL A   1      32.822  18.997  26.161  1.00  0.00     0.014 C 
ATOM     24  C   UNL A   1      32.792  19.719  23.849  1.00  0.00     0.014 C 
ENDBRANCH  16  18
ENDBRANCH   5  12
ENDBRANCH   3   5
ENDBRANCH   2   3
ENDBRANCH   1   2
BRANCH   1  25
ATOM     25  C   UNL A   1      31.117  30.074  25.101  1.00  0.00     0.275 C 
BRANCH  25  26
ATOM     26  O   UNL A   1      31.968  30.020  26.285  1.00  0.00    -0.458 OA
BRANCH  26  27
ATOM     27  C   UNL A   1      32.556  31.099  26.888  1.00  0.00     0.338 C 
ATOM     28  O   UNL A   1      31.960  32.097  27.219  1.00  0.00    -0.246 OA
BRANCH  27  29
ATOM     29  C   UNL A   1      34.049  30.878  27.251  1.00  0.00     0.060 A 
ATOM     30  C   UNL A   1      34.677  29.644  27.411  1.00  0.00     0.016 A 
ATOM     31  C   UNL A   1      34.842  31.964  27.624  1.00  0.00     0.016 A 
ATOM     32  C   UNL A   1      35.890  29.452  28.119  1.00  0.00     0.010 A 
ATOM     33  C   UNL A   1      36.121  31.790  28.245  1.00  0.00     0.010 A 
ATOM     34  C   UNL A   1      36.651  30.522  28.575  1.00  0.00    -0.014 A 
BRANCH  34  35
ATOM     35  C   UNL A   1      37.916  30.335  29.411  1.00  0.00     0.031 A 
ATOM     36  C   UNL A   1      39.067  29.498  28.871  1.00  0.00     0.074 A 
ATOM     37  C   UNL A   1      38.135  30.903  30.626  1.00  0.00     0.049 A 
ATOM     38  N   UNL A   1      40.076  28.941  29.503  1.00  0.00    -0.248 NA
ATOM     39  C   UNL A   1      39.082  29.268  27.419  1.00  0.00     0.031 C 
ATOM     40  C   UNL A   1      37.266  31.861  31.308  1.00  0.00     0.029 A 
ATOM     41  N   UNL A   1      39.181  30.738  31.527  1.00  0.00    -0.354 N 
ATOM     42  C   UNL A   1      40.786  28.219  28.545  1.00  0.00     0.074 A 
ATOM     43  C   UNL A   1      40.103  28.433  27.285  1.00  0.00     0.031 C 
ATOM     44  C   UNL A   1      37.806  32.203  32.490  1.00  0.00     0.029 A 
ATOM     45  C   UNL A   1      39.003  31.403  32.724  1.00  0.00     0.049 A 
ATOM     46  H   UNL A   1      39.978  30.195  31.330  1.00  0.00     0.167 HD
ATOM     47  C   UNL A   1      41.890  27.440  28.692  1.00  0.00     0.037 A 
ATOM     48  C   UNL A   1      39.656  31.341  33.909  1.00  0.00     0.037 A 
ATOM     49  C   UNL A   1      42.637  27.275  29.918  1.00  0.00     0.049 A 
ATOM     50  C   UNL A   1      40.816  30.396  34.094  1.00  0.00     0.074 A 
ATOM     51  C   UNL A   1      43.761  26.495  30.146  1.00  0.00     0.029 A 
ATOM     52  N   UNL A   1      42.357  27.915  31.114  1.00  0.00    -0.354 N 
ATOM     53  N   UNL A   1      41.389  29.608  33.218  1.00  0.00    -0.248 NA
ATOM     54  C   UNL A   1      41.404  30.314  35.442  1.00  0.00     0.031 C 
ATOM     55  C   UNL A   1      44.126  26.620  31.491  1.00  0.00     0.029 A 
ATOM     56  C   UNL A   1      43.270  27.528  32.087  1.00  0.00     0.049 A 
ATOM     57  H   UNL A   1      41.618  28.550  31.255  1.00  0.00     0.167 HD
ATOM     58  C   UNL A   1      42.408  28.954  33.903  1.00  0.00     0.074 A 
ATOM     59  C   UNL A   1      42.396  29.456  35.259  1.00  0.00     0.031 C 
ATOM     60  C   UNL A   1      43.271  28.014  33.442  1.00  0.00     0.037 A 
BRANCH  47  61
ATOM     61  C   UNL A   1      42.332  26.628  27.504  1.00  0.00     0.057 A 
ATOM     62  C   UNL A   1      43.238  27.107  26.549  1.00  0.00     0.134 A 
ATOM     63  C   UNL A   1      41.869  25.313  27.347  1.00  0.00     0.134 A 
ATOM     64  F   UNL A   1      43.716  28.357  26.633  1.00  0.00    -0.206 F 
ATOM     65  C   UNL A   1      43.640  26.320  25.466  1.00  0.00     0.040 A 
ATOM     66  C   UNL A   1      42.289  24.507  26.288  1.00  0.00     0.040 A 
ATOM     67  F   UNL A   1      41.012  24.782  28.233  1.00  0.00    -0.206 F 
ATOM     68  C   UNL A   1      43.171  25.013  25.338  1.00  0.00     0.006 A 
ENDBRANCH  47  61
BRANCH  48  69
ATOM     69  C   UNL A   1      39.170  32.132  35.080  1.00  0.00     0.057 A 
ATOM     70  C   UNL A   1      39.580  33.456  35.295  1.00  0.00     0.134 A 
ATOM     71  C   UNL A   1      38.327  31.565  36.045  1.00  0.00     0.134 A 
ATOM     72  F   UNL A   1      40.430  34.046  34.441  1.00  0.00    -0.206 F 
ATOM     73  C   UNL A   1      39.173  34.179  36.420  1.00  0.00     0.040 A 
ATOM     74  C   UNL A   1      37.883  32.288  37.155  1.00  0.00     0.040 A 
ATOM     75  F   UNL A   1      37.911  30.296  35.920  1.00  0.00    -0.206 F 
ATOM     76  C   UNL A   1      38.312  33.598  37.348  1.00  0.00     0.006 A 
ENDBRANCH  48  69
BRANCH  60  77
ATOM     77  C   UNL A   1      44.307  27.496  34.402  1.00  0.00     0.057 A 
ATOM     78  C   UNL A   1      44.100  26.343  35.173  1.00  0.00     0.134 A 
ATOM     79  C   UNL A   1      45.529  28.163  34.566  1.00  0.00     0.134 A 
ATOM     80  F   UNL A   1      42.949  25.659  35.077  1.00  0.00    -0.206 F 
ATOM     81  C   UNL A   1      45.049  25.898  36.096  1.00  0.00     0.040 A 
ATOM     82  C   UNL A   1      46.498  27.711  35.464  1.00  0.00     0.040 A 
ATOM     83  F   UNL A   1      45.802  29.268  33.856  1.00  0.00    -0.206 F 
ATOM     84  C   UNL A   1      46.254  26.582  36.243  1.00  0.00     0.006 A 
ENDBRANCH  60  77
ENDBRANCH  34  35
ENDBRANCH  27  29
ENDBRANCH  26  27
ENDBRANCH  25  26
ENDBRANCH   1  25
TORSDOF 13
ENDMDL
MODEL 2
REMARK VINA RESULT:     -12.3      0.875      1.779
REMARK SMILES CC1(C)C(NC(=O)N[C@]2(C(=O)OCCOC(=O)c3ccc(-c4c5nc(c(-c6c(F)cccc6F)c6ccc([nH]6)c(-c6c(F)cccc6F)c6nc(c(-c7c(F)cccc7F)c7ccc4[nH]7)C=C6)C=C5)cc3)CC[C@@H](C)CC2)C1(C)C
REMARK SMILES IDX 13 1 12 2 10 3 11 4 9 5 75 6 74 7 76 8 73 9 77 10 72 11 8 12
REMARK SMILES IDX 6 13 7 15 5 16 4 18 2 19 78 20 1 21 3 22 79 23 80 24 14 25
REMARK SMILES IDX 15 26 16 27 17 28 18 29 19 30 71 31 20 32 70 33 21 34 22 35
REMARK SMILES IDX 23 36 64 37 24 38 69 39 63 40 65 41 25 42 68 43 62 44 61 45
REMARK SMILES IDX 26 47 52 48 35 49 51 50 36 51 39 52 50 53 66 54 37 55 38 56
REMARK SMILES IDX 49 58 67 59 40 60 27 61 28 62 33 63 29 64 30 65 32 66 34 67
REMARK SMILES IDX 31 68 53 69 54 70 59 71 55 72 56 73 58 74 60 75 57 76 41 77
REMARK SMILES IDX 42 78 47 79 43 80 44 81 46 82 48 83 45 84
REMARK H PARENT 8 14 5 17 65 46 39 57
REMARK Flexibility Score: inf
ROOT
ATOM      1  C   UNL A   1      32.219  28.824  25.663  1.00  0.00     0.274 C 
ENDROOT
BRANCH   1   2
ATOM      2  O   UNL A   1      31.502  27.561  25.941  1.00  0.00    -0.460 OA
BRANCH   2   3
ATOM      3  C   UNL A   1      31.744  26.376  25.325  1.00  0.00     0.332 C 
ATOM      4  O   UNL A   1      32.890  25.987  25.128  1.00  0.00    -0.249 OA
BRANCH   3   5
ATOM      5  C   UNL A   1      30.443  25.506  25.019  1.00  0.00     0.139 C 
ATOM      6  C   UNL A   1      31.184  28.517  22.308  1.00  0.00     0.007 C 
ATOM      7  C   UNL A   1      30.407  27.202  22.528  1.00  0.00    -0.014 C 
ATOM      8  C   UNL A   1      29.378  27.426  23.661  1.00  0.00     0.006 C 
ATOM      9  C   UNL A   1      31.370  25.996  22.672  1.00  0.00     0.006 C 
ATOM     10  C   UNL A   1      29.153  26.262  24.618  1.00  0.00     0.041 C 
ATOM     11  C   UNL A   1      30.880  24.886  23.633  1.00  0.00     0.041 C 
BRANCH   5  12
ATOM     12  N   UNL A   1      30.028  24.388  25.984  1.00  0.00    -0.322 N 
ATOM     13  C   UNL A   1      30.374  23.215  26.548  1.00  0.00     0.315 C 
ATOM     14  H   UNL A   1      29.141  24.629  26.337  1.00  0.00     0.166 HD
ATOM     15  O   UNL A   1      29.678  22.896  27.525  1.00  0.00    -0.249 OA
ATOM     16  N   UNL A   1      31.326  22.314  26.223  1.00  0.00    -0.334 N 
ATOM     17  H   UNL A   1      31.154  21.426  26.615  1.00  0.00     0.165 HD
BRANCH  16  18
ATOM     18  C   UNL A   1      32.514  22.345  25.453  1.00  0.00     0.096 C 
ATOM     19  C   UNL A   1      33.968  21.818  25.526  1.00  0.00    -0.007 C 
ATOM     20  C   UNL A   1      32.898  20.977  24.955  1.00  0.00    -0.007 C 
ATOM     21  C   UNL A   1      35.054  22.105  24.478  1.00  0.00     0.014 C 
ATOM     22  C   UNL A   1      34.525  21.448  26.863  1.00  0.00     0.014 C 
ATOM     23  C   UNL A   1      32.789  19.572  25.507  1.00  0.00     0.014 C 
ATOM     24  C   UNL A   1      32.468  21.032  23.601  1.00  0.00     0.014 C 
ENDBRANCH  16  18
ENDBRANCH   5  12
ENDBRANCH   3   5
ENDBRANCH   2   3
ENDBRANCH   1   2
BRANCH   1  25
ATOM     25  C   UNL A   1      31.745  30.358  25.761  1.00  0.00     0.275 C 
BRANCH  25  26
ATOM     26  O   UNL A   1      31.836  31.066  27.033  1.00  0.00    -0.458 OA
BRANCH  26  27
ATOM     27  C   UNL A   1      32.657  32.131  27.290  1.00  0.00     0.338 C 
ATOM     28  O   UNL A   1      32.277  33.275  27.363  1.00  0.00    -0.246 OA
BRANCH  27  29
ATOM     29  C   UNL A   1      34.117  31.729  27.630  1.00  0.00     0.060 A 
ATOM     30  C   UNL A   1      34.579  30.431  27.841  1.00  0.00     0.016 A 
ATOM     31  C   UNL A   1      35.059  32.716  27.927  1.00  0.00     0.016 A 
ATOM     32  C   UNL A   1      35.776  30.113  28.530  1.00  0.00     0.010 A 
ATOM     33  C   UNL A   1      36.321  32.401  28.527  1.00  0.00     0.010 A 
ATOM     34  C   UNL A   1      36.687  31.092  28.912  1.00  0.00    -0.014 A 
BRANCH  34  35
ATOM     35  C   UNL A   1      37.940  30.777  29.727  1.00  0.00     0.031 A 
ATOM     36  C   UNL A   1      39.036  29.905  29.131  1.00  0.00     0.074 A 
ATOM     37  C   UNL A   1      38.197  31.258  30.973  1.00  0.00     0.049 A 
ATOM     38  N   UNL A   1      40.010  29.250  29.722  1.00  0.00    -0.248 NA
ATOM     39  C   UNL A   1      39.032  29.762  27.668  1.00  0.00     0.031 C 
ATOM     40  C   UNL A   1      37.390  32.225  31.715  1.00  0.00     0.029 A 
ATOM     41  N   UNL A   1      39.232  30.975  31.856  1.00  0.00    -0.354 N 
ATOM     42  C   UNL A   1      40.672  28.545  28.719  1.00  0.00     0.074 A 
ATOM     43  C   UNL A   1      40.000  28.875  27.478  1.00  0.00     0.031 C 
ATOM     44  C   UNL A   1      37.953  32.461  32.912  1.00  0.00     0.029 A 
ATOM     45  C   UNL A   1      39.098  31.576  33.091  1.00  0.00     0.049 A 
ATOM     46  H   UNL A   1      39.994  30.397  31.621  1.00  0.00     0.167 HD
ATOM     47  C   UNL A   1      41.726  27.692  28.813  1.00  0.00     0.037 A 
ATOM     48  C   UNL A   1      39.749  31.404  34.266  1.00  0.00     0.037 A 
ATOM     49  C   UNL A   1      42.464  27.409  30.022  1.00  0.00     0.049 A 
ATOM     50  C   UNL A   1      40.849  30.380  34.387  1.00  0.00     0.074 A 
ATOM     51  C   UNL A   1      43.539  26.549  30.196  1.00  0.00     0.029 A 
ATOM     52  N   UNL A   1      42.226  27.992  31.256  1.00  0.00    -0.354 N 
ATOM     53  N   UNL A   1      41.370  29.612  33.463  1.00  0.00    -0.248 NA
ATOM     54  C   UNL A   1      41.434  30.182  35.724  1.00  0.00     0.031 C 
ATOM     55  C   UNL A   1      43.914  26.570  31.544  1.00  0.00     0.029 A 
ATOM     56  C   UNL A   1      43.117  27.492  32.199  1.00  0.00     0.049 A 
ATOM     57  H   UNL A   1      41.529  28.662  31.439  1.00  0.00     0.167 HD
ATOM     58  C   UNL A   1      42.349  28.857  34.101  1.00  0.00     0.074 A 
ATOM     59  C   UNL A   1      42.371  29.277  35.485  1.00  0.00     0.031 C 
ATOM     60  C   UNL A   1      43.151  27.896  33.580  1.00  0.00     0.037 A 
BRANCH  47  61
ATOM     61  C   UNL A   1      42.114  26.927  27.576  1.00  0.00     0.057 A 
ATOM     62  C   UNL A   1      41.575  25.675  27.254  1.00  0.00     0.134 A 
ATOM     63  C   UNL A   1      43.020  27.490  26.663  1.00  0.00     0.134 A 
ATOM     64  F   UNL A   1      40.710  25.075  28.083  1.00  0.00    -0.206 F 
ATOM     65  C   UNL A   1      41.946  25.000  26.088  1.00  0.00     0.040 A 
ATOM     66  C   UNL A   1      43.371  26.839  25.480  1.00  0.00     0.040 A 
ATOM     67  F   UNL A   1      43.563  28.694  26.898  1.00  0.00    -0.206 F 
ATOM     68  C   UNL A   1      42.841  25.585  25.193  1.00  0.00     0.006 A 
ENDBRANCH  47  61
BRANCH  48  69
ATOM     69  C   UNL A   1      39.316  32.153  35.485  1.00  0.00     0.057 A 
ATOM     70  C   UNL A   1      39.833  33.419  35.793  1.00  0.00     0.134 A 
ATOM     71  C   UNL A   1      38.415  31.594  36.403  1.00  0.00     0.134 A 
ATOM     72  F   UNL A   1      40.741  33.992  34.989  1.00  0.00    -0.206 F 
ATOM     73  C   UNL A   1      39.473  34.096  36.962  1.00  0.00     0.040 A 
ATOM     74  C   UNL A   1      38.019  32.275  37.556  1.00  0.00     0.040 A 
ATOM     75  F   UNL A   1      37.897  30.376  36.188  1.00  0.00    -0.206 F 
ATOM     76  C   UNL A   1      38.554  33.528  37.842  1.00  0.00     0.006 A 
ENDBRANCH  48  69
BRANCH  60  77
ATOM     77  C   UNL A   1      44.155  27.258  34.501  1.00  0.00     0.057 A 
ATOM     78  C   UNL A   1      45.430  27.805  34.709  1.00  0.00     0.134 A 
ATOM     79  C   UNL A   1      43.850  26.073  35.184  1.00  0.00     0.134 A 
ATOM     80  F   UNL A   1      45.797  28.931  34.079  1.00  0.00    -0.206 F 
ATOM     81  C   UNL A   1      46.372  27.178  35.528  1.00  0.00     0.040 A 
ATOM     82  C   UNL A   1      44.773  25.453  36.029  1.00  0.00     0.040 A 
ATOM     83  F   UNL A   1      42.647  25.496  35.042  1.00  0.00    -0.206 F 
ATOM     84  C   UNL A   1      46.044  25.999  36.193  1.00  0.00     0.006 A 
ENDBRANCH  60  77
ENDBRANCH  34  35
ENDBRANCH  27  29
ENDBRANCH  26  27
ENDBRANCH  25  26
ENDBRANCH   1  25
TORSDOF 13
ENDMDL
MODEL 3
REMARK VINA RESULT:     -12.3      4.053      8.844
REMARK SMILES CC1(C)C(NC(=O)N[C@]2(C(=O)OCCOC(=O)c3ccc(-c4c5nc(c(-c6c(F)cccc6F)c6ccc([nH]6)c(-c6c(F)cccc6F)c6nc(c(-c7c(F)cccc7F)c7ccc4[nH]7)C=C6)C=C5)cc3)CC[C@@H](C)CC2)C1(C)C
REMARK SMILES IDX 13 1 12 2 10 3 11 4 9 5 75 6 74 7 76 8 73 9 77 10 72 11 8 12
REMARK SMILES IDX 6 13 7 15 5 16 4 18 2 19 78 20 1 21 3 22 79 23 80 24 14 25
REMARK SMILES IDX 15 26 16 27 17 28 18 29 19 30 71 31 20 32 70 33 21 34 22 35
REMARK SMILES IDX 23 36 64 37 24 38 69 39 63 40 65 41 25 42 68 43 62 44 61 45
REMARK SMILES IDX 26 47 52 48 35 49 51 50 36 51 39 52 50 53 66 54 37 55 38 56
REMARK SMILES IDX 49 58 67 59 40 60 27 61 28 62 33 63 29 64 30 65 32 66 34 67
REMARK SMILES IDX 31 68 53 69 54 70 59 71 55 72 56 73 58 74 60 75 57 76 41 77
REMARK SMILES IDX 42 78 47 79 43 80 44 81 46 82 48 83 45 84
REMARK H PARENT 8 14 5 17 65 46 39 57
REMARK Flexibility Score: inf
ROOT
ATOM      1  C   UNL A   1      34.422  20.956  24.620  1.00  0.00     0.274 C 
ENDROOT
BRANCH   1   2
ATOM      2  O   UNL A   1      33.875  21.848  23.576  1.00  0.00    -0.460 OA
BRANCH   2   3
ATOM      3  C   UNL A   1      34.321  23.102  23.311  1.00  0.00     0.332 C 
ATOM      4  O   UNL A   1      35.490  23.307  23.001  1.00  0.00    -0.249 OA
BRANCH   3   5
ATOM      5  C   UNL A   1      33.189  24.226  23.305  1.00  0.00     0.139 C 
ATOM      6  C   UNL A   1      34.476  23.091  27.049  1.00  0.00     0.007 C 
ATOM      7  C   UNL A   1      33.732  24.194  26.269  1.00  0.00    -0.014 C 
ATOM      8  C   UNL A   1      32.431  23.590  25.689  1.00  0.00     0.006 C 
ATOM      9  C   UNL A   1      34.678  24.923  25.281  1.00  0.00     0.006 C 
ATOM     10  C   UNL A   1      32.017  24.066  24.303  1.00  0.00     0.041 C 
ATOM     11  C   UNL A   1      34.004  25.403  23.973  1.00  0.00     0.041 C 
BRANCH   5  12
ATOM     12  N   UNL A   1      32.587  24.695  21.975  1.00  0.00    -0.322 N 
ATOM     13  C   UNL A   1      32.013  25.715  21.307  1.00  0.00     0.315 C 
ATOM     14  H   UNL A   1      32.644  23.937  21.350  1.00  0.00     0.166 HD
ATOM     15  O   UNL A   1      31.971  25.558  20.077  1.00  0.00    -0.249 OA
ATOM     16  N   UNL A   1      31.453  26.865  21.742  1.00  0.00    -0.334 N 
ATOM     17  H   UNL A   1      30.854  27.269  21.073  1.00  0.00     0.165 HD
BRANCH  16  18
ATOM     18  C   UNL A   1      31.526  27.626  22.934  1.00  0.00     0.096 C 
ATOM     19  C   UNL A   1      30.904  28.907  23.542  1.00  0.00    -0.007 C 
ATOM     20  C   UNL A   1      30.227  27.604  23.695  1.00  0.00    -0.007 C 
ATOM     21  C   UNL A   1      31.277  29.493  24.911  1.00  0.00     0.014 C 
ATOM     22  C   UNL A   1      30.301  29.914  22.616  1.00  0.00     0.014 C 
ATOM     23  C   UNL A   1      28.764  27.563  23.308  1.00  0.00     0.014 C 
ATOM     24  C   UNL A   1      30.513  26.666  24.725  1.00  0.00     0.014 C 
ENDBRANCH  16  18
ENDBRANCH   5  12
ENDBRANCH   3   5
ENDBRANCH   2   3
ENDBRANCH   1   2
BRANCH   1  25
ATOM     25  C   UNL A   1      35.897  20.351  24.834  1.00  0.00     0.275 C 
BRANCH  25  26
ATOM     26  O   UNL A   1      37.057  21.236  24.803  1.00  0.00    -0.458 OA
BRANCH  26  27
ATOM     27  C   UNL A   1      38.260  20.988  25.407  1.00  0.00     0.338 C 
ATOM     28  O   UNL A   1      38.910  19.985  25.232  1.00  0.00    -0.246 OA
BRANCH  27  29
ATOM     29  C   UNL A   1      38.802  22.181  26.238  1.00  0.00     0.060 A 
ATOM     30  C   UNL A   1      38.389  23.507  26.130  1.00  0.00     0.016 A 
ATOM     31  C   UNL A   1      39.913  22.005  27.064  1.00  0.00     0.016 A 
ATOM     32  C   UNL A   1      39.145  24.618  26.580  1.00  0.00     0.010 A 
ATOM     33  C   UNL A   1      40.629  23.116  27.617  1.00  0.00     0.010 A 
ATOM     34  C   UNL A   1      40.304  24.461  27.331  1.00  0.00    -0.014 A 
BRANCH  34  35
ATOM     35  C   UNL A   1      41.177  25.642  27.754  1.00  0.00     0.031 A 
ATOM     36  C   UNL A   1      40.600  26.734  28.644  1.00  0.00     0.074 A 
ATOM     37  C   UNL A   1      42.489  25.794  27.430  1.00  0.00     0.049 A 
ATOM     38  N   UNL A   1      41.025  27.958  28.863  1.00  0.00    -0.248 NA
ATOM     39  C   UNL A   1      39.382  26.390  29.391  1.00  0.00     0.031 C 
ATOM     40  C   UNL A   1      43.325  24.831  26.715  1.00  0.00     0.029 A 
ATOM     41  N   UNL A   1      43.360  26.852  27.658  1.00  0.00    -0.354 N 
ATOM     42  C   UNL A   1      40.079  28.557  29.693  1.00  0.00     0.074 A 
ATOM     43  C   UNL A   1      39.071  27.549  29.956  1.00  0.00     0.031 C 
ATOM     44  C   UNL A   1      44.567  25.324  26.575  1.00  0.00     0.029 A 
ATOM     45  C   UNL A   1      44.603  26.693  27.076  1.00  0.00     0.049 A 
ATOM     46  H   UNL A   1      43.114  27.645  28.188  1.00  0.00     0.167 HD
ATOM     47  C   UNL A   1      40.036  29.825  30.180  1.00  0.00     0.037 A 
ATOM     48  C   UNL A   1      45.636  27.546  26.884  1.00  0.00     0.037 A 
ATOM     49  C   UNL A   1      41.065  30.823  30.000  1.00  0.00     0.049 A 
ATOM     50  C   UNL A   1      45.538  28.981  27.337  1.00  0.00     0.074 A 
ATOM     51  C   UNL A   1      41.088  32.133  30.458  1.00  0.00     0.029 A 
ATOM     52  N   UNL A   1      42.263  30.622  29.334  1.00  0.00    -0.354 N 
ATOM     53  N   UNL A   1      44.574  29.577  27.994  1.00  0.00    -0.248 NA
ATOM     54  C   UNL A   1      46.663  29.869  26.996  1.00  0.00     0.031 C 
ATOM     55  C   UNL A   1      42.271  32.738  30.021  1.00  0.00     0.029 A 
ATOM     56  C   UNL A   1      43.017  31.788  29.346  1.00  0.00     0.049 A 
ATOM     57  H   UNL A   1      42.539  29.776  28.911  1.00  0.00     0.167 HD
ATOM     58  C   UNL A   1      44.984  30.896  28.159  1.00  0.00     0.074 A 
ATOM     59  C   UNL A   1      46.294  31.010  27.558  1.00  0.00     0.031 C 
ATOM     60  C   UNL A   1      44.322  31.921  28.751  1.00  0.00     0.037 A 
BRANCH  47  61
ATOM     61  C   UNL A   1      38.788  30.249  30.907  1.00  0.00     0.057 A 
ATOM     62  C   UNL A   1      37.683  30.815  30.257  1.00  0.00     0.134 A 
ATOM     63  C   UNL A   1      38.679  30.038  32.290  1.00  0.00     0.134 A 
ATOM     64  F   UNL A   1      37.719  31.052  28.938  1.00  0.00    -0.206 F 
ATOM     65  C   UNL A   1      36.533  31.183  30.960  1.00  0.00     0.040 A 
ATOM     66  C   UNL A   1      37.523  30.370  32.996  1.00  0.00     0.040 A 
ATOM     67  F   UNL A   1      39.692  29.485  32.975  1.00  0.00    -0.206 F 
ATOM     68  C   UNL A   1      36.447  30.953  32.333  1.00  0.00     0.006 A 
ENDBRANCH  47  61
BRANCH  48  69
ATOM     69  C   UNL A   1      46.847  27.105  26.127  1.00  0.00     0.057 A 
ATOM     70  C   UNL A   1      46.936  27.243  24.735  1.00  0.00     0.134 A 
ATOM     71  C   UNL A   1      47.924  26.481  26.773  1.00  0.00     0.134 A 
ATOM     72  F   UNL A   1      45.919  27.781  24.044  1.00  0.00    -0.206 F 
ATOM     73  C   UNL A   1      48.043  26.779  24.017  1.00  0.00     0.040 A 
ATOM     74  C   UNL A   1      49.053  26.046  26.073  1.00  0.00     0.040 A 
ATOM     75  F   UNL A   1      47.901  26.293  28.100  1.00  0.00    -0.206 F 
ATOM     76  C   UNL A   1      49.111  26.189  24.690  1.00  0.00     0.006 A 
ENDBRANCH  48  69
BRANCH  60  77
ATOM     77  C   UNL A   1      45.022  33.250  28.820  1.00  0.00     0.057 A 
ATOM     78  C   UNL A   1      45.897  33.580  29.865  1.00  0.00     0.134 A 
ATOM     79  C   UNL A   1      44.813  34.222  27.831  1.00  0.00     0.134 A 
ATOM     80  F   UNL A   1      46.136  32.704  30.853  1.00  0.00    -0.206 F 
ATOM     81  C   UNL A   1      46.504  34.835  29.944  1.00  0.00     0.040 A 
ATOM     82  C   UNL A   1      45.438  35.470  27.884  1.00  0.00     0.040 A 
ATOM     83  F   UNL A   1      43.997  33.975  26.795  1.00  0.00    -0.206 F 
ATOM     84  C   UNL A   1      46.277  35.785  28.950  1.00  0.00     0.006 A 
ENDBRANCH  60  77
ENDBRANCH  34  35
ENDBRANCH  27  29
ENDBRANCH  26  27
ENDBRANCH  25  26
ENDBRANCH   1  25
TORSDOF 13
ENDMDL
