MODEL 1
REMARK VINA RESULT:     -11.0      0.000      0.000
REMARK SMILES N#CCc1nc(-c2ccccc2)c(CC(=O)OCCOC(=O)c2ccc(-c3c4nc(c(-c5c(F)cccc5F)c5ccc([nH]5)c(-c5c(F)cccc5F)c5nc(c(-c6c(F)cccc6F)c6ccc3[nH]6)C=C5)C=C4)cc2)s1
REMARK SMILES IDX 18 1 17 2 15 3 16 4 14 5 13 6 4 7 5 8 77 9 6 10 3 11 2 12
REMARK SMILES IDX 1 13 7 14 8 15 12 16 9 17 11 18 10 19 19 20 20 21 21 22
REMARK SMILES IDX 22 23 23 24 24 25 76 26 25 27 75 28 26 29 27 30 28 31 69 32
REMARK SMILES IDX 29 33 74 34 68 35 70 36 30 37 73 38 67 39 66 40 31 42 57 43
REMARK SMILES IDX 40 44 56 45 41 46 44 47 55 48 71 49 42 50 43 51 54 53 72 54
REMARK SMILES IDX 45 55 32 56 33 57 38 58 34 59 35 60 37 61 39 62 36 63 58 64
REMARK SMILES IDX 59 65 64 66 60 67 61 68 63 69 65 70 62 71 46 72 47 73 52 74
REMARK SMILES IDX 48 75 49 76 51 77 53 78 50 79
REMARK H PARENT 70 41 44 52
REMARK Flexibility Score: inf
ROOT
ATOM      1  C   UNL A   1      37.810  20.047  24.940  1.00  0.00     0.274 C 
ENDROOT
BRANCH   1   2
ATOM      2  O   UNL A   1      37.167  21.151  24.270  1.00  0.00    -0.462 OA
BRANCH   2   3
ATOM      3  C   UNL A   1      36.121  21.703  24.937  1.00  0.00     0.311 C 
ATOM      4  O   UNL A   1      36.066  21.832  26.158  1.00  0.00    -0.252 OA
BRANCH   3   5
ATOM      5  C   UNL A   1      34.972  22.137  24.066  1.00  0.00     0.171 C 
BRANCH   5   6
ATOM      6  C   UNL A   1      33.601  22.041  24.667  1.00  0.00     0.044 A 
ATOM      7  C   UNL A   1      31.500  22.366  25.866  1.00  0.00     0.108 A 
ATOM      8  N   UNL A   1      31.558  21.138  25.386  1.00  0.00    -0.240 NA
ATOM      9  S   UNL A   1      32.892  23.335  25.548  1.00  0.00    -0.121 S 
ATOM     10  C   UNL A   1      32.754  20.946  24.717  1.00  0.00     0.085 A 
BRANCH   7  11
ATOM     11  C   UNL A   1      30.348  22.920  26.659  1.00  0.00     0.187 C 
BRANCH  11  12
ATOM     12  C   UNL A   1      30.318  24.429  26.480  1.00  0.00     0.069 C 
ATOM     13  N   UNL A   1      30.293  25.681  26.332  1.00  0.00    -0.198 NA
ENDBRANCH  11  12
ENDBRANCH   7  11
BRANCH  10  14
ATOM     14  C   UNL A   1      33.112  19.674  24.112  1.00  0.00     0.001 A 
ATOM     15  C   UNL A   1      32.358  19.170  23.042  1.00  0.00     0.010 A 
ATOM     16  C   UNL A   1      34.115  18.886  24.684  1.00  0.00     0.010 A 
ATOM     17  C   UNL A   1      32.569  17.869  22.584  1.00  0.00     0.001 A 
ATOM     18  C   UNL A   1      34.330  17.587  24.217  1.00  0.00     0.001 A 
ATOM     19  C   UNL A   1      33.549  17.076  23.179  1.00  0.00     0.000 A 
ENDBRANCH  10  14
ENDBRANCH   5   6
ENDBRANCH   3   5
ENDBRANCH   2   3
ENDBRANCH   1   2
BRANCH   1  20
ATOM     20  C   UNL A   1      39.171  20.473  25.488  1.00  0.00     0.275 C 
BRANCH  20  21
ATOM     21  O   UNL A   1      39.961  19.307  25.790  1.00  0.00    -0.458 OA
BRANCH  21  22
ATOM     22  C   UNL A   1      41.284  19.521  25.967  1.00  0.00     0.338 C 
ATOM     23  O   UNL A   1      42.201  18.753  25.738  1.00  0.00    -0.246 OA
BRANCH  22  24
ATOM     24  C   UNL A   1      41.493  20.868  26.523  1.00  0.00     0.060 A 
ATOM     25  C   UNL A   1      41.866  21.929  25.696  1.00  0.00     0.016 A 
ATOM     26  C   UNL A   1      41.417  21.045  27.905  1.00  0.00     0.016 A 
ATOM     27  C   UNL A   1      42.207  23.163  26.250  1.00  0.00     0.010 A 
ATOM     28  C   UNL A   1      41.707  22.294  28.454  1.00  0.00     0.010 A 
ATOM     29  C   UNL A   1      42.130  23.356  27.634  1.00  0.00    -0.014 A 
BRANCH  29  30
ATOM     30  C   UNL A   1      42.536  24.644  28.249  1.00  0.00     0.031 A 
ATOM     31  C   UNL A   1      41.509  25.717  28.476  1.00  0.00     0.074 A 
ATOM     32  C   UNL A   1      43.823  24.864  28.578  1.00  0.00     0.049 A 
ATOM     33  N   UNL A   1      41.679  26.966  28.831  1.00  0.00    -0.248 NA
ATOM     34  C   UNL A   1      40.104  25.336  28.267  1.00  0.00     0.031 C 
ATOM     35  C   UNL A   1      44.908  23.893  28.447  1.00  0.00     0.029 A 
ATOM     36  N   UNL A   1      44.434  25.986  29.078  1.00  0.00    -0.354 N 
ATOM     37  C   UNL A   1      40.410  27.529  28.850  1.00  0.00     0.074 A 
ATOM     38  C   UNL A   1      39.479  26.488  28.467  1.00  0.00     0.031 C 
ATOM     39  C   UNL A   1      46.055  24.462  28.856  1.00  0.00     0.029 A 
ATOM     40  C   UNL A   1      45.792  25.850  29.223  1.00  0.00     0.049 A 
ATOM     41  H   UNL A   1      43.945  26.809  29.311  1.00  0.00     0.167 HD
ATOM     42  C   UNL A   1      40.054  28.799  29.156  1.00  0.00     0.037 A 
ATOM     43  C   UNL A   1      46.726  26.754  29.573  1.00  0.00     0.037 A 
ATOM     44  C   UNL A   1      40.978  29.825  29.564  1.00  0.00     0.049 A 
ATOM     45  C   UNL A   1      46.313  28.167  29.870  1.00  0.00     0.074 A 
ATOM     46  C   UNL A   1      40.711  31.138  29.911  1.00  0.00     0.029 A 
ATOM     47  N   UNL A   1      42.347  29.648  29.686  1.00  0.00    -0.354 N 
ATOM     48  N   UNL A   1      45.114  28.696  29.857  1.00  0.00    -0.248 NA
ATOM     49  C   UNL A   1      47.386  29.111  30.216  1.00  0.00     0.031 C 
ATOM     50  C   UNL A   1      41.924  31.765  30.217  1.00  0.00     0.029 A 
ATOM     51  C   UNL A   1      42.941  30.831  30.092  1.00  0.00     0.049 A 
ATOM     52  H   UNL A   1      42.826  28.806  29.510  1.00  0.00     0.167 HD
ATOM     53  C   UNL A   1      45.284  30.030  30.204  1.00  0.00     0.074 A 
ATOM     54  C   UNL A   1      46.702  30.226  30.435  1.00  0.00     0.031 C 
ATOM     55  C   UNL A   1      44.351  31.005  30.320  1.00  0.00     0.037 A 
BRANCH  42  56
ATOM     56  C   UNL A   1      38.604  29.156  29.034  1.00  0.00     0.057 A 
ATOM     57  C   UNL A   1      37.729  29.082  30.125  1.00  0.00     0.134 A 
ATOM     58  C   UNL A   1      38.084  29.605  27.814  1.00  0.00     0.134 A 
ATOM     59  F   UNL A   1      38.163  28.643  31.315  1.00  0.00    -0.206 F 
ATOM     60  C   UNL A   1      36.382  29.427  30.001  1.00  0.00     0.040 A 
ATOM     61  C   UNL A   1      36.744  29.971  27.682  1.00  0.00     0.040 A 
ATOM     62  F   UNL A   1      38.871  29.699  26.731  1.00  0.00    -0.206 F 
ATOM     63  C   UNL A   1      35.887  29.878  28.777  1.00  0.00     0.006 A 
ENDBRANCH  42  56
BRANCH  43  64
ATOM     64  C   UNL A   1      48.153  26.353  29.632  1.00  0.00     0.057 A 
ATOM     65  C   UNL A   1      48.706  25.832  30.807  1.00  0.00     0.134 A 
ATOM     66  C   UNL A   1      48.992  26.477  28.520  1.00  0.00     0.134 A 
ATOM     67  F   UNL A   1      47.955  25.712  31.911  1.00  0.00    -0.206 F 
ATOM     68  C   UNL A   1      50.048  25.454  30.875  1.00  0.00     0.040 A 
ATOM     69  C   UNL A   1      50.330  26.084  28.567  1.00  0.00     0.040 A 
ATOM     70  F   UNL A   1      48.518  26.970  27.366  1.00  0.00    -0.206 F 
ATOM     71  C   UNL A   1      50.862  25.573  29.750  1.00  0.00     0.006 A 
ENDBRANCH  43  64
BRANCH  55  72
ATOM     72  C   UNL A   1      44.832  32.361  30.738  1.00  0.00     0.057 A 
ATOM     73  C   UNL A   1      45.183  33.338  29.799  1.00  0.00     0.134 A 
ATOM     74  C   UNL A   1      44.913  32.702  32.094  1.00  0.00     0.134 A 
ATOM     75  F   UNL A   1      45.139  33.065  28.486  1.00  0.00    -0.206 F 
ATOM     76  C   UNL A   1      45.616  34.605  30.194  1.00  0.00     0.040 A 
ATOM     77  C   UNL A   1      45.327  33.971  32.501  1.00  0.00     0.040 A 
ATOM     78  F   UNL A   1      44.586  31.811  33.041  1.00  0.00    -0.206 F 
ATOM     79  C   UNL A   1      45.683  34.925  31.550  1.00  0.00     0.006 A 
ENDBRANCH  55  72
ENDBRANCH  29  30
ENDBRANCH  22  24
ENDBRANCH  21  22
ENDBRANCH  20  21
ENDBRANCH   1  20
TORSDOF 15
ENDMDL
MODEL 2
REMARK VINA RESULT:     -10.9      0.630      1.487
REMARK SMILES N#CCc1nc(-c2ccccc2)c(CC(=O)OCCOC(=O)c2ccc(-c3c4nc(c(-c5c(F)cccc5F)c5ccc([nH]5)c(-c5c(F)cccc5F)c5nc(c(-c6c(F)cccc6F)c6ccc3[nH]6)C=C5)C=C4)cc2)s1
REMARK SMILES IDX 18 1 17 2 15 3 16 4 14 5 13 6 4 7 5 8 77 9 6 10 3 11 2 12
REMARK SMILES IDX 1 13 7 14 8 15 12 16 9 17 11 18 10 19 19 20 20 21 21 22
REMARK SMILES IDX 22 23 23 24 24 25 76 26 25 27 75 28 26 29 27 30 28 31 69 32
REMARK SMILES IDX 29 33 74 34 68 35 70 36 30 37 73 38 67 39 66 40 31 42 57 43
REMARK SMILES IDX 40 44 56 45 41 46 44 47 55 48 71 49 42 50 43 51 54 53 72 54
REMARK SMILES IDX 45 55 32 56 33 57 38 58 34 59 35 60 37 61 39 62 36 63 58 64
REMARK SMILES IDX 59 65 64 66 60 67 61 68 63 69 65 70 62 71 46 72 47 73 52 74
REMARK SMILES IDX 48 75 49 76 51 77 53 78 50 79
REMARK H PARENT 70 41 44 52
REMARK Flexibility Score: inf
ROOT
ATOM      1  C   UNL A   1      37.815  20.060  24.982  1.00  0.00     0.274 C 
ENDROOT
BRANCH   1   2
ATOM      2  O   UNL A   1      37.208  21.198  24.337  1.00  0.00    -0.462 OA
BRANCH   2   3
ATOM      3  C   UNL A   1      36.114  21.703  24.961  1.00  0.00     0.311 C 
ATOM      4  O   UNL A   1      36.010  21.839  26.178  1.00  0.00    -0.252 OA
BRANCH   3   5
ATOM      5  C   UNL A   1      34.975  22.070  24.046  1.00  0.00     0.171 C 
BRANCH   5   6
ATOM      6  C   UNL A   1      33.592  21.960  24.619  1.00  0.00     0.044 A 
ATOM      7  C   UNL A   1      31.457  22.273  25.758  1.00  0.00     0.108 A 
ATOM      8  N   UNL A   1      31.554  21.033  25.319  1.00  0.00    -0.240 NA
ATOM      9  S   UNL A   1      32.833  23.265  25.441  1.00  0.00    -0.121 S 
ATOM     10  C   UNL A   1      32.770  20.848  24.684  1.00  0.00     0.085 A 
BRANCH   7  11
ATOM     11  C   UNL A   1      30.274  22.824  26.506  1.00  0.00     0.187 C 
BRANCH  11  12
ATOM     12  C   UNL A   1      30.363  24.342  26.504  1.00  0.00     0.069 C 
ATOM     13  N   UNL A   1      30.437  25.601  26.503  1.00  0.00    -0.198 NA
ENDBRANCH  11  12
ENDBRANCH   7  11
BRANCH  10  14
ATOM     14  C   UNL A   1      33.171  19.567  24.128  1.00  0.00     0.001 A 
ATOM     15  C   UNL A   1      32.486  19.035  23.026  1.00  0.00     0.010 A 
ATOM     16  C   UNL A   1      34.142  18.797  24.776  1.00  0.00     0.010 A 
ATOM     17  C   UNL A   1      32.732  17.726  22.609  1.00  0.00     0.001 A 
ATOM     18  C   UNL A   1      34.392  17.491  24.350  1.00  0.00     0.001 A 
ATOM     19  C   UNL A   1      33.679  16.953  23.278  1.00  0.00     0.000 A 
ENDBRANCH  10  14
ENDBRANCH   5   6
ENDBRANCH   3   5
ENDBRANCH   2   3
ENDBRANCH   1   2
BRANCH   1  20
ATOM     20  C   UNL A   1      39.221  20.406  25.468  1.00  0.00     0.275 C 
BRANCH  20  21
ATOM     21  O   UNL A   1      39.928  19.200  25.813  1.00  0.00    -0.458 OA
BRANCH  21  22
ATOM     22  C   UNL A   1      41.252  19.339  26.049  1.00  0.00     0.338 C 
ATOM     23  O   UNL A   1      42.124  18.498  25.931  1.00  0.00    -0.246 OA
BRANCH  22  24
ATOM     24  C   UNL A   1      41.526  20.709  26.517  1.00  0.00     0.060 A 
ATOM     25  C   UNL A   1      41.923  21.701  25.619  1.00  0.00     0.016 A 
ATOM     26  C   UNL A   1      41.486  20.973  27.886  1.00  0.00     0.016 A 
ATOM     27  C   UNL A   1      42.323  22.952  26.088  1.00  0.00     0.010 A 
ATOM     28  C   UNL A   1      41.836  22.241  28.351  1.00  0.00     0.010 A 
ATOM     29  C   UNL A   1      42.283  23.232  27.459  1.00  0.00    -0.014 A 
BRANCH  29  30
ATOM     30  C   UNL A   1      42.752  24.539  27.984  1.00  0.00     0.031 A 
ATOM     31  C   UNL A   1      41.751  25.605  28.330  1.00  0.00     0.074 A 
ATOM     32  C   UNL A   1      44.069  24.779  28.128  1.00  0.00     0.049 A 
ATOM     33  N   UNL A   1      41.951  26.863  28.631  1.00  0.00    -0.248 NA
ATOM     34  C   UNL A   1      40.336  25.204  28.325  1.00  0.00     0.031 C 
ATOM     35  C   UNL A   1      45.139  23.817  27.868  1.00  0.00     0.029 A 
ATOM     36  N   UNL A   1      44.727  25.918  28.515  1.00  0.00    -0.354 N 
ATOM     37  C   UNL A   1      40.690  27.412  28.815  1.00  0.00     0.074 A 
ATOM     38  C   UNL A   1      39.729  26.353  28.587  1.00  0.00     0.031 C 
ATOM     39  C   UNL A   1      46.323  24.408  28.101  1.00  0.00     0.029 A 
ATOM     40  C   UNL A   1      46.094  25.801  28.473  1.00  0.00     0.049 A 
ATOM     41  H   UNL A   1      44.264  26.741  28.797  1.00  0.00     0.167 HD
ATOM     42  C   UNL A   1      40.362  28.685  29.141  1.00  0.00     0.037 A 
ATOM     43  C   UNL A   1      47.056  26.723  28.671  1.00  0.00     0.037 A 
ATOM     44  C   UNL A   1      41.319  29.730  29.396  1.00  0.00     0.049 A 
ATOM     45  C   UNL A   1      46.668  28.138  28.993  1.00  0.00     0.074 A 
ATOM     46  C   UNL A   1      41.084  31.048  29.749  1.00  0.00     0.029 A 
ATOM     47  N   UNL A   1      42.694  29.571  29.330  1.00  0.00    -0.354 N 
ATOM     48  N   UNL A   1      45.471  28.653  29.136  1.00  0.00    -0.248 NA
ATOM     49  C   UNL A   1      47.765  29.101  29.167  1.00  0.00     0.031 C 
ATOM     50  C   UNL A   1      42.319  31.694  29.871  1.00  0.00     0.029 A 
ATOM     51  C   UNL A   1      43.322  30.769  29.625  1.00  0.00     0.049 A 
ATOM     52  H   UNL A   1      43.156  28.730  29.107  1.00  0.00     0.167 HD
ATOM     53  C   UNL A   1      45.669  29.996  29.428  1.00  0.00     0.074 A 
ATOM     54  C   UNL A   1      47.102  30.213  29.456  1.00  0.00     0.031 C 
ATOM     55  C   UNL A   1      44.747  30.964  29.652  1.00  0.00     0.037 A 
BRANCH  42  56
ATOM     56  C   UNL A   1      38.904  29.024  29.214  1.00  0.00     0.057 A 
ATOM     57  C   UNL A   1      38.170  28.884  30.398  1.00  0.00     0.134 A 
ATOM     58  C   UNL A   1      38.234  29.520  28.089  1.00  0.00     0.134 A 
ATOM     59  F   UNL A   1      38.751  28.397  31.504  1.00  0.00    -0.206 F 
ATOM     60  C   UNL A   1      36.814  29.212  30.456  1.00  0.00     0.040 A 
ATOM     61  C   UNL A   1      36.884  29.870  28.140  1.00  0.00     0.040 A 
ATOM     62  F   UNL A   1      38.882  29.679  26.925  1.00  0.00    -0.206 F 
ATOM     63  C   UNL A   1      36.169  29.711  29.325  1.00  0.00     0.006 A 
ENDBRANCH  42  56
BRANCH  43  64
ATOM     64  C   UNL A   1      48.482  26.339  28.540  1.00  0.00     0.057 A 
ATOM     65  C   UNL A   1      49.132  26.397  27.303  1.00  0.00     0.134 A 
ATOM     66  C   UNL A   1      49.227  25.911  29.644  1.00  0.00     0.134 A 
ATOM     67  F   UNL A   1      48.461  26.777  26.206  1.00  0.00    -0.206 F 
ATOM     68  C   UNL A   1      50.473  26.035  27.166  1.00  0.00     0.040 A 
ATOM     69  C   UNL A   1      50.574  25.566  29.527  1.00  0.00     0.040 A 
ATOM     70  F   UNL A   1      48.658  25.835  30.857  1.00  0.00    -0.206 F 
ATOM     71  C   UNL A   1      51.200  25.626  28.283  1.00  0.00     0.006 A 
ENDBRANCH  43  64
BRANCH  55  72
ATOM     72  C   UNL A   1      45.263  32.334  29.971  1.00  0.00     0.057 A 
ATOM     73  C   UNL A   1      45.565  32.717  31.283  1.00  0.00     0.134 A 
ATOM     74  C   UNL A   1      45.490  33.266  28.952  1.00  0.00     0.134 A 
ATOM     75  F   UNL A   1      45.355  31.871  32.304  1.00  0.00    -0.206 F 
ATOM     76  C   UNL A   1      46.059  33.990  31.573  1.00  0.00     0.040 A 
ATOM     77  C   UNL A   1      46.001  34.535  29.228  1.00  0.00     0.040 A 
ATOM     78  F   UNL A   1      45.225  32.956  27.674  1.00  0.00    -0.206 F 
ATOM     79  C   UNL A   1      46.284  34.901  30.542  1.00  0.00     0.006 A 
ENDBRANCH  55  72
ENDBRANCH  29  30
ENDBRANCH  22  24
ENDBRANCH  21  22
ENDBRANCH  20  21
ENDBRANCH   1  20
TORSDOF 15
ENDMDL
MODEL 3
REMARK VINA RESULT:     -10.9      5.372      9.734
REMARK SMILES N#CCc1nc(-c2ccccc2)c(CC(=O)OCCOC(=O)c2ccc(-c3c4nc(c(-c5c(F)cccc5F)c5ccc([nH]5)c(-c5c(F)cccc5F)c5nc(c(-c6c(F)cccc6F)c6ccc3[nH]6)C=C5)C=C4)cc2)s1
REMARK SMILES IDX 18 1 17 2 15 3 16 4 14 5 13 6 4 7 5 8 77 9 6 10 3 11 2 12
REMARK SMILES IDX 1 13 7 14 8 15 12 16 9 17 11 18 10 19 19 20 20 21 21 22
REMARK SMILES IDX 22 23 23 24 24 25 76 26 25 27 75 28 26 29 27 30 28 31 69 32
REMARK SMILES IDX 29 33 74 34 68 35 70 36 30 37 73 38 67 39 66 40 31 42 57 43
REMARK SMILES IDX 40 44 56 45 41 46 44 47 55 48 71 49 42 50 43 51 54 53 72 54
REMARK SMILES IDX 45 55 32 56 33 57 38 58 34 59 35 60 37 61 39 62 36 63 58 64
REMARK SMILES IDX 59 65 64 66 60 67 61 68 63 69 65 70 62 71 46 72 47 73 52 74
REMARK SMILES IDX 48 75 49 76 51 77 53 78 50 79
REMARK H PARENT 70 41 44 52
REMARK Flexibility Score: inf
ROOT
ATOM      1  C   UNL A   1      31.724  31.982  26.580  1.00  0.00     0.274 C 
ENDROOT
BRANCH   1   2
ATOM      2  O   UNL A   1      31.684  30.560  26.817  1.00  0.00    -0.462 OA
BRANCH   2   3
ATOM      3  C   UNL A   1      32.246  29.795  25.847  1.00  0.00     0.311 C 
ATOM      4  O   UNL A   1      33.395  29.932  25.433  1.00  0.00    -0.252 OA
BRANCH   3   5
ATOM      5  C   UNL A   1      31.337  28.748  25.259  1.00  0.00     0.171 C 
BRANCH   5   6
ATOM      6  C   UNL A   1      30.674  29.090  23.957  1.00  0.00     0.044 A 
ATOM      7  C   UNL A   1      29.343  30.028  22.139  1.00  0.00     0.108 A 
ATOM      8  N   UNL A   1      29.925  28.913  21.741  1.00  0.00    -0.240 NA
ATOM      9  S   UNL A   1      29.654  30.463  23.780  1.00  0.00    -0.121 S 
ATOM     10  C   UNL A   1      30.669  28.371  22.774  1.00  0.00     0.085 A 
BRANCH   7  11
ATOM     11  C   UNL A   1      28.449  30.879  21.280  1.00  0.00     0.187 C 
BRANCH  11  12
ATOM     12  C   UNL A   1      28.369  32.269  21.890  1.00  0.00     0.069 C 
ATOM     13  N   UNL A   1      28.302  33.422  22.396  1.00  0.00    -0.198 NA
ENDBRANCH  11  12
ENDBRANCH   7  11
BRANCH  10  14
ATOM     14  C   UNL A   1      31.394  27.119  22.637  1.00  0.00     0.001 A 
ATOM     15  C   UNL A   1      30.803  25.916  23.051  1.00  0.00     0.010 A 
ATOM     16  C   UNL A   1      32.731  27.127  22.227  1.00  0.00     0.010 A 
ATOM     17  C   UNL A   1      31.557  24.744  23.107  1.00  0.00     0.001 A 
ATOM     18  C   UNL A   1      33.480  25.949  22.275  1.00  0.00     0.001 A 
ATOM     19  C   UNL A   1      32.898  24.764  22.727  1.00  0.00     0.000 A 
ENDBRANCH  10  14
ENDBRANCH   5   6
ENDBRANCH   3   5
ENDBRANCH   2   3
ENDBRANCH   1   2
BRANCH   1  20
ATOM     20  C   UNL A   1      32.597  32.675  27.623  1.00  0.00     0.275 C 
BRANCH  20  21
ATOM     21  O   UNL A   1      32.347  34.094  27.604  1.00  0.00    -0.458 OA
BRANCH  21  22
ATOM     22  C   UNL A   1      32.906  34.805  28.608  1.00  0.00     0.338 C 
ATOM     23  O   UNL A   1      32.517  35.856  29.084  1.00  0.00    -0.246 OA
BRANCH  22  24
ATOM     24  C   UNL A   1      34.129  34.126  29.069  1.00  0.00     0.060 A 
ATOM     25  C   UNL A   1      34.085  33.238  30.145  1.00  0.00     0.016 A 
ATOM     26  C   UNL A   1      35.348  34.465  28.484  1.00  0.00     0.016 A 
ATOM     27  C   UNL A   1      35.267  32.715  30.670  1.00  0.00     0.010 A 
ATOM     28  C   UNL A   1      36.526  33.900  28.975  1.00  0.00     0.010 A 
ATOM     29  C   UNL A   1      36.498  33.042  30.088  1.00  0.00    -0.014 A 
BRANCH  29  30
ATOM     30  C   UNL A   1      37.770  32.538  30.662  1.00  0.00     0.031 A 
ATOM     31  C   UNL A   1      38.454  31.356  30.033  1.00  0.00     0.074 A 
ATOM     32  C   UNL A   1      38.299  33.118  31.755  1.00  0.00     0.049 A 
ATOM     33  N   UNL A   1      39.466  30.653  30.473  1.00  0.00    -0.248 NA
ATOM     34  C   UNL A   1      37.920  30.900  28.740  1.00  0.00     0.031 C 
ATOM     35  C   UNL A   1      37.758  34.293  32.437  1.00  0.00     0.029 A 
ATOM     36  N   UNL A   1      39.405  32.780  32.493  1.00  0.00    -0.354 N 
ATOM     37  C   UNL A   1      39.666  29.650  29.534  1.00  0.00     0.074 A 
ATOM     38  C   UNL A   1      38.668  29.832  28.501  1.00  0.00     0.031 C 
ATOM     39  C   UNL A   1      38.535  34.579  33.495  1.00  0.00     0.029 A 
ATOM     40  C   UNL A   1      39.591  33.576  33.596  1.00  0.00     0.049 A 
ATOM     41  H   UNL A   1      40.010  32.040  32.255  1.00  0.00     0.167 HD
ATOM     42  C   UNL A   1      40.595  28.666  29.534  1.00  0.00     0.037 A 
ATOM     43  C   UNL A   1      40.485  33.485  34.598  1.00  0.00     0.037 A 
ATOM     44  C   UNL A   1      41.605  28.503  30.547  1.00  0.00     0.049 A 
ATOM     45  C   UNL A   1      41.482  32.361  34.598  1.00  0.00     0.074 A 
ATOM     46  C   UNL A   1      42.602  27.546  30.627  1.00  0.00     0.029 A 
ATOM     47  N   UNL A   1      41.750  29.325  31.654  1.00  0.00    -0.354 N 
ATOM     48  N   UNL A   1      41.644  31.402  33.721  1.00  0.00    -0.248 NA
ATOM     49  C   UNL A   1      42.410  32.301  35.737  1.00  0.00     0.031 C 
ATOM     50  C   UNL A   1      43.334  27.773  31.798  1.00  0.00     0.029 A 
ATOM     51  C   UNL A   1      42.811  28.891  32.429  1.00  0.00     0.049 A 
ATOM     52  H   UNL A   1      41.181  30.103  31.859  1.00  0.00     0.167 HD
ATOM     53  C   UNL A   1      42.698  30.631  34.192  1.00  0.00     0.074 A 
ATOM     54  C   UNL A   1      43.147  31.243  35.426  1.00  0.00     0.031 C 
ATOM     55  C   UNL A   1      43.245  29.515  33.651  1.00  0.00     0.037 A 
BRANCH  42  56
ATOM     56  C   UNL A   1      40.545  27.670  28.416  1.00  0.00     0.057 A 
ATOM     57  C   UNL A   1      39.765  26.509  28.494  1.00  0.00     0.134 A 
ATOM     58  C   UNL A   1      41.266  27.889  27.237  1.00  0.00     0.134 A 
ATOM     59  F   UNL A   1      39.065  26.234  29.604  1.00  0.00    -0.206 F 
ATOM     60  C   UNL A   1      39.718  25.593  27.441  1.00  0.00     0.040 A 
ATOM     61  C   UNL A   1      41.212  26.991  26.171  1.00  0.00     0.040 A 
ATOM     62  F   UNL A   1      42.031  28.983  27.100  1.00  0.00    -0.206 F 
ATOM     63  C   UNL A   1      40.440  25.836  26.273  1.00  0.00     0.006 A 
ENDBRANCH  42  56
BRANCH  43  64
ATOM     64  C   UNL A   1      40.458  34.474  35.703  1.00  0.00     0.057 A 
ATOM     65  C   UNL A   1      41.233  35.637  35.648  1.00  0.00     0.134 A 
ATOM     66  C   UNL A   1      39.656  34.283  36.833  1.00  0.00     0.134 A 
ATOM     67  F   UNL A   1      42.039  35.861  34.599  1.00  0.00    -0.206 F 
ATOM     68  C   UNL A   1      41.218  36.573  36.682  1.00  0.00     0.040 A 
ATOM     69  C   UNL A   1      39.614  35.220  37.866  1.00  0.00     0.040 A 
ATOM     70  F   UNL A   1      38.890  33.187  36.942  1.00  0.00    -0.206 F 
ATOM     71  C   UNL A   1      40.400  36.369  37.792  1.00  0.00     0.006 A 
ENDBRANCH  43  64
BRANCH  55  72
ATOM     72  C   UNL A   1      44.402  28.903  34.379  1.00  0.00     0.057 A 
ATOM     73  C   UNL A   1      45.719  29.312  34.139  1.00  0.00     0.134 A 
ATOM     74  C   UNL A   1      44.194  27.919  35.353  1.00  0.00     0.134 A 
ATOM     75  F   UNL A   1      45.984  30.241  33.207  1.00  0.00    -0.206 F 
ATOM     76  C   UNL A   1      46.793  28.750  34.831  1.00  0.00     0.040 A 
ATOM     77  C   UNL A   1      45.257  27.363  36.065  1.00  0.00     0.040 A 
ATOM     78  F   UNL A   1      42.954  27.490  35.632  1.00  0.00    -0.206 F 
ATOM     79  C   UNL A   1      46.562  27.776  35.802  1.00  0.00     0.006 A 
ENDBRANCH  55  72
ENDBRANCH  29  30
ENDBRANCH  22  24
ENDBRANCH  21  22
ENDBRANCH  20  21
ENDBRANCH   1  20
TORSDOF 15
ENDMDL
