MODEL 1
REMARK VINA RESULT:     -10.5      0.000      0.000
REMARK SMILES O=C(CSc1nc2ncccc2[nH]1)OCCOC(=O)c1ccc(-c2c3nc(c(-c4c(F)cccc4F)c4ccc([nH]4)c(-c4c(F)cccc4F)c4nc(c(-c5c(F)cccc5F)c5ccc2[nH]5)C=C4)C=C3)cc1
REMARK SMILES IDX 15 1 14 2 2 3 1 4 3 5 4 6 5 7 6 8 13 9 7 10 12 11 8 13 11 14
REMARK SMILES IDX 9 15 10 16 16 17 17 18 18 19 19 20 20 21 21 22 73 23 22 24
REMARK SMILES IDX 72 25 23 26 24 27 25 28 66 29 26 30 71 31 65 32 67 33 27 34
REMARK SMILES IDX 70 35 64 36 63 37 28 39 54 40 37 41 53 42 38 43 41 44 52 45
REMARK SMILES IDX 68 46 39 47 40 48 51 50 69 51 42 52 29 53 30 54 35 55 31 56
REMARK SMILES IDX 32 57 34 58 36 59 33 60 55 61 56 62 61 63 57 64 58 65 60 66
REMARK SMILES IDX 62 67 59 68 43 69 44 70 49 71 45 72 46 73 48 74 50 75 47 76
REMARK H PARENT 13 12 67 38 41 49
REMARK Flexibility Score: inf
ROOT
ATOM      1  C   UNL A   1      41.232  19.780  26.121  1.00  0.00     0.274 C 
ENDROOT
BRANCH   1   2
ATOM      2  O   UNL A   1      42.321  19.181  25.384  1.00  0.00    -0.461 OA
BRANCH   2   3
ATOM      3  C   UNL A   1      43.306  18.408  25.894  1.00  0.00     0.316 C 
ATOM      4  O   UNL A   1      43.058  17.579  26.771  1.00  0.00    -0.251 OA
BRANCH   3   5
ATOM      5  C   UNL A   1      44.730  18.578  25.417  1.00  0.00     0.200 C 
BRANCH   5   6
ATOM      6  S   UNL A   1      44.897  19.615  23.958  1.00  0.00    -0.076 SA
BRANCH   6   7
ATOM      7  C   UNL A   1      45.069  21.170  24.664  1.00  0.00     0.168 A 
ATOM      8  N   UNL A   1      46.056  21.549  25.430  1.00  0.00    -0.203 NA
ATOM      9  N   UNL A   1      44.181  22.173  24.402  1.00  0.00    -0.332 N 
ATOM     10  C   UNL A   1      45.814  22.876  25.655  1.00  0.00     0.178 A 
ATOM     11  C   UNL A   1      44.656  23.301  25.008  1.00  0.00     0.086 A 
ATOM     12  H   UNL A   1      43.353  22.096  23.875  1.00  0.00     0.169 HD
ATOM     13  N   UNL A   1      46.603  23.700  26.374  1.00  0.00    -0.235 NA
ATOM     14  C   UNL A   1      44.221  24.619  25.049  1.00  0.00     0.032 A 
ATOM     15  C   UNL A   1      46.179  24.981  26.405  1.00  0.00     0.114 A 
ATOM     16  C   UNL A   1      45.038  25.479  25.778  1.00  0.00     0.022 A 
ENDBRANCH   6   7
ENDBRANCH   5   6
ENDBRANCH   3   5
ENDBRANCH   2   3
ENDBRANCH   1   2
BRANCH   1  17
ATOM     17  C   UNL A   1      41.705  20.887  27.055  1.00  0.00     0.275 C 
BRANCH  17  18
ATOM     18  O   UNL A   1      41.637  22.145  26.392  1.00  0.00    -0.458 OA
BRANCH  18  19
ATOM     19  C   UNL A   1      40.618  22.959  26.760  1.00  0.00     0.338 C 
ATOM     20  O   UNL A   1      39.454  22.672  26.892  1.00  0.00    -0.246 OA
BRANCH  19  21
ATOM     21  C   UNL A   1      41.175  24.311  26.924  1.00  0.00     0.060 A 
ATOM     22  C   UNL A   1      41.982  24.528  28.041  1.00  0.00     0.016 A 
ATOM     23  C   UNL A   1      40.697  25.368  26.132  1.00  0.00     0.016 A 
ATOM     24  C   UNL A   1      42.075  25.814  28.521  1.00  0.00     0.010 A 
ATOM     25  C   UNL A   1      40.771  26.644  26.623  1.00  0.00     0.010 A 
ATOM     26  C   UNL A   1      41.364  26.825  27.864  1.00  0.00    -0.014 A 
BRANCH  26  27
ATOM     27  C   UNL A   1      41.262  28.109  28.509  1.00  0.00     0.031 A 
ATOM     28  C   UNL A   1      42.399  28.993  28.201  1.00  0.00     0.074 A 
ATOM     29  C   UNL A   1      40.205  28.436  29.276  1.00  0.00     0.049 A 
ATOM     30  N   UNL A   1      43.389  29.273  28.979  1.00  0.00    -0.248 NA
ATOM     31  C   UNL A   1      42.568  29.449  26.814  1.00  0.00     0.031 C 
ATOM     32  C   UNL A   1      38.930  27.734  29.440  1.00  0.00     0.029 A 
ATOM     33  N   UNL A   1      40.045  29.545  30.043  1.00  0.00    -0.354 N 
ATOM     34  C   UNL A   1      44.200  30.131  28.249  1.00  0.00     0.074 A 
ATOM     35  C   UNL A   1      43.763  30.038  26.882  1.00  0.00     0.031 C 
ATOM     36  C   UNL A   1      38.053  28.544  30.081  1.00  0.00     0.029 A 
ATOM     37  C   UNL A   1      38.746  29.753  30.493  1.00  0.00     0.049 A 
ATOM     38  H   UNL A   1      40.787  30.152  30.263  1.00  0.00     0.167 HD
ATOM     39  C   UNL A   1      44.977  31.048  28.885  1.00  0.00     0.037 A 
ATOM     40  C   UNL A   1      38.296  30.880  31.098  1.00  0.00     0.037 A 
ATOM     41  C   UNL A   1      45.125  30.720  30.283  1.00  0.00     0.049 A 
ATOM     42  C   UNL A   1      39.485  31.597  31.634  1.00  0.00     0.074 A 
ATOM     43  C   UNL A   1      45.667  29.663  30.985  1.00  0.00     0.029 A 
ATOM     44  N   UNL A   1      44.321  31.390  31.173  1.00  0.00    -0.354 N 
ATOM     45  N   UNL A   1      40.204  31.149  32.626  1.00  0.00    -0.248 NA
ATOM     46  C   UNL A   1      40.162  32.536  30.750  1.00  0.00     0.031 C 
ATOM     47  C   UNL A   1      44.808  29.484  32.111  1.00  0.00     0.029 A 
ATOM     48  C   UNL A   1      43.829  30.476  32.067  1.00  0.00     0.049 A 
ATOM     49  H   UNL A   1      44.133  32.357  31.169  1.00  0.00     0.167 HD
ATOM     50  C   UNL A   1      41.518  31.391  32.251  1.00  0.00     0.074 A 
ATOM     51  C   UNL A   1      41.427  32.311  31.119  1.00  0.00     0.031 C 
ATOM     52  C   UNL A   1      42.535  30.595  32.698  1.00  0.00     0.037 A 
BRANCH  39  53
ATOM     53  C   UNL A   1      45.224  32.441  28.366  1.00  0.00     0.057 A 
ATOM     54  C   UNL A   1      46.424  32.866  27.758  1.00  0.00     0.134 A 
ATOM     55  C   UNL A   1      44.118  33.285  28.161  1.00  0.00     0.134 A 
ATOM     56  F   UNL A   1      47.556  32.157  27.812  1.00  0.00    -0.206 F 
ATOM     57  C   UNL A   1      46.502  34.008  26.960  1.00  0.00     0.040 A 
ATOM     58  C   UNL A   1      44.174  34.403  27.323  1.00  0.00     0.040 A 
ATOM     59  F   UNL A   1      42.923  32.994  28.697  1.00  0.00    -0.206 F 
ATOM     60  C   UNL A   1      45.367  34.758  26.705  1.00  0.00     0.006 A 
ENDBRANCH  39  53
BRANCH  40  61
ATOM     61  C   UNL A   1      36.978  31.539  30.949  1.00  0.00     0.057 A 
ATOM     62  C   UNL A   1      36.640  32.232  29.773  1.00  0.00     0.134 A 
ATOM     63  C   UNL A   1      36.135  31.748  32.050  1.00  0.00     0.134 A 
ATOM     64  F   UNL A   1      37.420  32.170  28.684  1.00  0.00    -0.206 F 
ATOM     65  C   UNL A   1      35.538  33.091  29.698  1.00  0.00     0.040 A 
ATOM     66  C   UNL A   1      35.030  32.610  31.989  1.00  0.00     0.040 A 
ATOM     67  F   UNL A   1      36.402  31.171  33.231  1.00  0.00    -0.206 F 
ATOM     68  C   UNL A   1      34.735  33.293  30.814  1.00  0.00     0.006 A 
ENDBRANCH  40  61
BRANCH  52  69
ATOM     69  C   UNL A   1      42.217  29.610  33.789  1.00  0.00     0.057 A 
ATOM     70  C   UNL A   1      42.492  29.962  35.113  1.00  0.00     0.134 A 
ATOM     71  C   UNL A   1      41.776  28.297  33.560  1.00  0.00     0.134 A 
ATOM     72  F   UNL A   1      42.976  31.181  35.400  1.00  0.00    -0.206 F 
ATOM     73  C   UNL A   1      42.324  29.061  36.166  1.00  0.00     0.040 A 
ATOM     74  C   UNL A   1      41.571  27.394  34.609  1.00  0.00     0.040 A 
ATOM     75  F   UNL A   1      41.585  27.836  32.317  1.00  0.00    -0.206 F 
ATOM     76  C   UNL A   1      41.849  27.776  35.918  1.00  0.00     0.006 A 
ENDBRANCH  52  69
ENDBRANCH  26  27
ENDBRANCH  19  21
ENDBRANCH  18  19
ENDBRANCH  17  18
ENDBRANCH   1  17
TORSDOF 13
ENDMDL
MODEL 2
REMARK VINA RESULT:     -10.2      4.635     10.963
REMARK SMILES O=C(CSc1nc2ncccc2[nH]1)OCCOC(=O)c1ccc(-c2c3nc(c(-c4c(F)cccc4F)c4ccc([nH]4)c(-c4c(F)cccc4F)c4nc(c(-c5c(F)cccc5F)c5ccc2[nH]5)C=C4)C=C3)cc1
REMARK SMILES IDX 15 1 14 2 2 3 1 4 3 5 4 6 5 7 6 8 13 9 7 10 12 11 8 13 11 14
REMARK SMILES IDX 9 15 10 16 16 17 17 18 18 19 19 20 20 21 21 22 73 23 22 24
REMARK SMILES IDX 72 25 23 26 24 27 25 28 66 29 26 30 71 31 65 32 67 33 27 34
REMARK SMILES IDX 70 35 64 36 63 37 28 39 54 40 37 41 53 42 38 43 41 44 52 45
REMARK SMILES IDX 68 46 39 47 40 48 51 50 69 51 42 52 29 53 30 54 35 55 31 56
REMARK SMILES IDX 32 57 34 58 36 59 33 60 55 61 56 62 61 63 57 64 58 65 60 66
REMARK SMILES IDX 62 67 59 68 43 69 44 70 49 71 45 72 46 73 48 74 50 75 47 76
REMARK H PARENT 13 12 67 38 41 49
REMARK Flexibility Score: inf
ROOT
ATOM      1  C   UNL A   1      34.554  34.769  28.585  1.00  0.00     0.274 C 
ENDROOT
BRANCH   1   2
ATOM      2  O   UNL A   1      33.514  35.308  29.430  1.00  0.00    -0.461 OA
BRANCH   2   3
ATOM      3  C   UNL A   1      33.277  36.616  29.678  1.00  0.00     0.316 C 
ATOM      4  O   UNL A   1      33.086  37.403  28.749  1.00  0.00    -0.251 OA
BRANCH   3   5
ATOM      5  C   UNL A   1      33.279  37.134  31.097  1.00  0.00     0.200 C 
BRANCH   5   6
ATOM      6  S   UNL A   1      32.659  35.959  32.309  1.00  0.00    -0.076 SA
BRANCH   6   7
ATOM      7  C   UNL A   1      34.013  34.922  32.501  1.00  0.00     0.168 A 
ATOM      8  N   UNL A   1      35.082  35.193  33.200  1.00  0.00    -0.203 NA
ATOM      9  N   UNL A   1      34.028  33.665  31.969  1.00  0.00    -0.332 N 
ATOM     10  C   UNL A   1      35.819  34.044  33.143  1.00  0.00     0.178 A 
ATOM     11  C   UNL A   1      35.177  33.060  32.395  1.00  0.00     0.086 A 
ATOM     12  H   UNL A   1      33.341  33.269  31.386  1.00  0.00     0.169 HD
ATOM     13  N   UNL A   1      37.003  33.847  33.760  1.00  0.00    -0.235 NA
ATOM     14  C   UNL A   1      35.705  31.787  32.227  1.00  0.00     0.032 A 
ATOM     15  C   UNL A   1      37.508  32.606  33.599  1.00  0.00     0.114 A 
ATOM     16  C   UNL A   1      36.920  31.572  32.872  1.00  0.00     0.022 A 
ENDBRANCH   6   7
ENDBRANCH   5   6
ENDBRANCH   3   5
ENDBRANCH   2   3
ENDBRANCH   1   2
BRANCH   1  17
ATOM     17  C   UNL A   1      34.189  33.404  28.016  1.00  0.00     0.275 C 
BRANCH  17  18
ATOM     18  O   UNL A   1      35.371  32.683  27.685  1.00  0.00    -0.458 OA
BRANCH  18  19
ATOM     19  C   UNL A   1      35.287  31.333  27.760  1.00  0.00     0.338 C 
ATOM     20  O   UNL A   1      34.495  30.609  27.208  1.00  0.00    -0.246 OA
BRANCH  19  21
ATOM     21  C   UNL A   1      36.322  30.881  28.704  1.00  0.00     0.060 A 
ATOM     22  C   UNL A   1      37.487  31.644  28.773  1.00  0.00     0.016 A 
ATOM     23  C   UNL A   1      36.224  29.611  29.297  1.00  0.00     0.016 A 
ATOM     24  C   UNL A   1      38.637  31.017  29.193  1.00  0.00     0.010 A 
ATOM     25  C   UNL A   1      37.374  28.981  29.693  1.00  0.00     0.010 A 
ATOM     26  C   UNL A   1      38.573  29.660  29.529  1.00  0.00    -0.014 A 
BRANCH  26  27
ATOM     27  C   UNL A   1      39.812  28.951  29.723  1.00  0.00     0.031 A 
ATOM     28  C   UNL A   1      40.257  28.956  31.127  1.00  0.00     0.074 A 
ATOM     29  C   UNL A   1      40.444  28.335  28.707  1.00  0.00     0.049 A 
ATOM     30  N   UNL A   1      41.201  29.673  31.632  1.00  0.00    -0.248 NA
ATOM     31  C   UNL A   1      39.434  28.249  32.119  1.00  0.00     0.031 C 
ATOM     32  C   UNL A   1      39.965  28.066  27.348  1.00  0.00     0.029 A 
ATOM     33  N   UNL A   1      41.671  27.753  28.719  1.00  0.00    -0.354 N 
ATOM     34  C   UNL A   1      41.240  29.337  32.978  1.00  0.00     0.074 A 
ATOM     35  C   UNL A   1      40.020  28.628  33.255  1.00  0.00     0.031 C 
ATOM     36  C   UNL A   1      40.804  27.188  26.745  1.00  0.00     0.029 A 
ATOM     37  C   UNL A   1      41.941  26.951  27.617  1.00  0.00     0.049 A 
ATOM     38  H   UNL A   1      42.317  27.888  29.449  1.00  0.00     0.167 HD
ATOM     39  C   UNL A   1      42.403  29.433  33.676  1.00  0.00     0.037 A 
ATOM     40  C   UNL A   1      43.002  26.115  27.497  1.00  0.00     0.037 A 
ATOM     41  C   UNL A   1      43.360  30.257  32.977  1.00  0.00     0.049 A 
ATOM     42  C   UNL A   1      44.036  26.572  28.464  1.00  0.00     0.074 A 
ATOM     43  C   UNL A   1      43.403  31.577  32.578  1.00  0.00     0.029 A 
ATOM     44  N   UNL A   1      44.329  29.611  32.248  1.00  0.00    -0.354 N 
ATOM     45  N   UNL A   1      44.690  27.693  28.335  1.00  0.00    -0.248 NA
ATOM     46  C   UNL A   1      43.977  26.040  29.818  1.00  0.00     0.031 C 
ATOM     47  C   UNL A   1      44.064  31.563  31.314  1.00  0.00     0.029 A 
ATOM     48  C   UNL A   1      44.441  30.248  31.040  1.00  0.00     0.049 A 
ATOM     49  H   UNL A   1      44.851  28.830  32.542  1.00  0.00     0.167 HD
ATOM     50  C   UNL A   1      44.741  28.225  29.616  1.00  0.00     0.074 A 
ATOM     51  C   UNL A   1      44.347  27.128  30.499  1.00  0.00     0.031 C 
ATOM     52  C   UNL A   1      44.807  29.575  29.815  1.00  0.00     0.037 A 
BRANCH  39  53
ATOM     53  C   UNL A   1      42.828  28.449  34.737  1.00  0.00     0.057 A 
ATOM     54  C   UNL A   1      43.169  27.103  34.488  1.00  0.00     0.134 A 
ATOM     55  C   UNL A   1      43.231  28.948  35.988  1.00  0.00     0.134 A 
ATOM     56  F   UNL A   1      42.904  26.489  33.330  1.00  0.00    -0.206 F 
ATOM     57  C   UNL A   1      43.907  26.333  35.387  1.00  0.00     0.040 A 
ATOM     58  C   UNL A   1      44.013  28.200  36.874  1.00  0.00     0.040 A 
ATOM     59  F   UNL A   1      42.956  30.210  36.346  1.00  0.00    -0.206 F 
ATOM     60  C   UNL A   1      44.369  26.893  36.566  1.00  0.00     0.006 A 
ENDBRANCH  39  53
BRANCH  40  61
ATOM     61  C   UNL A   1      43.048  24.774  26.867  1.00  0.00     0.057 A 
ATOM     62  C   UNL A   1      43.598  24.591  25.586  1.00  0.00     0.134 A 
ATOM     63  C   UNL A   1      42.306  23.700  27.378  1.00  0.00     0.134 A 
ATOM     64  F   UNL A   1      44.257  25.580  24.966  1.00  0.00    -0.206 F 
ATOM     65  C   UNL A   1      43.410  23.415  24.850  1.00  0.00     0.040 A 
ATOM     66  C   UNL A   1      42.108  22.518  26.650  1.00  0.00     0.040 A 
ATOM     67  F   UNL A   1      41.701  23.797  28.571  1.00  0.00    -0.206 F 
ATOM     68  C   UNL A   1      42.652  22.377  25.377  1.00  0.00     0.006 A 
ENDBRANCH  40  61
BRANCH  52  69
ATOM     69  C   UNL A   1      45.064  30.442  28.614  1.00  0.00     0.057 A 
ATOM     70  C   UNL A   1      46.358  30.924  28.397  1.00  0.00     0.134 A 
ATOM     71  C   UNL A   1      44.059  30.913  27.753  1.00  0.00     0.134 A 
ATOM     72  F   UNL A   1      47.357  30.565  29.218  1.00  0.00    -0.206 F 
ATOM     73  C   UNL A   1      46.649  31.818  27.366  1.00  0.00     0.040 A 
ATOM     74  C   UNL A   1      44.343  31.783  26.694  1.00  0.00     0.040 A 
ATOM     75  F   UNL A   1      42.774  30.589  27.944  1.00  0.00    -0.206 F 
ATOM     76  C   UNL A   1      45.643  32.240  26.501  1.00  0.00     0.006 A 
ENDBRANCH  52  69
ENDBRANCH  26  27
ENDBRANCH  19  21
ENDBRANCH  18  19
ENDBRANCH  17  18
ENDBRANCH   1  17
TORSDOF 13
ENDMDL
MODEL 3
REMARK VINA RESULT:     -10.2      4.866     11.075
REMARK SMILES O=C(CSc1nc2ncccc2[nH]1)OCCOC(=O)c1ccc(-c2c3nc(c(-c4c(F)cccc4F)c4ccc([nH]4)c(-c4c(F)cccc4F)c4nc(c(-c5c(F)cccc5F)c5ccc2[nH]5)C=C4)C=C3)cc1
REMARK SMILES IDX 15 1 14 2 2 3 1 4 3 5 4 6 5 7 6 8 13 9 7 10 12 11 8 13 11 14
REMARK SMILES IDX 9 15 10 16 16 17 17 18 18 19 19 20 20 21 21 22 73 23 22 24
REMARK SMILES IDX 72 25 23 26 24 27 25 28 66 29 26 30 71 31 65 32 67 33 27 34
REMARK SMILES IDX 70 35 64 36 63 37 28 39 54 40 37 41 53 42 38 43 41 44 52 45
REMARK SMILES IDX 68 46 39 47 40 48 51 50 69 51 42 52 29 53 30 54 35 55 31 56
REMARK SMILES IDX 32 57 34 58 36 59 33 60 55 61 56 62 61 63 57 64 58 65 60 66
REMARK SMILES IDX 62 67 59 68 43 69 44 70 49 71 45 72 46 73 48 74 50 75 47 76
REMARK H PARENT 13 12 67 38 41 49
REMARK Flexibility Score: inf
ROOT
ATOM      1  C   UNL A   1      34.444  34.634  28.916  1.00  0.00     0.274 C 
ENDROOT
BRANCH   1   2
ATOM      2  O   UNL A   1      33.150  35.029  29.424  1.00  0.00    -0.461 OA
BRANCH   2   3
ATOM      3  C   UNL A   1      32.914  35.903  30.429  1.00  0.00     0.316 C 
ATOM      4  O   UNL A   1      32.703  37.092  30.184  1.00  0.00    -0.251 OA
BRANCH   3   5
ATOM      5  C   UNL A   1      32.942  35.436  31.865  1.00  0.00     0.200 C 
BRANCH   5   6
ATOM      6  S   UNL A   1      34.030  36.393  32.929  1.00  0.00    -0.076 SA
BRANCH   6   7
ATOM      7  C   UNL A   1      35.237  35.234  33.312  1.00  0.00     0.168 A 
ATOM      8  N   UNL A   1      35.260  34.492  34.387  1.00  0.00    -0.203 NA
ATOM      9  N   UNL A   1      36.255  34.953  32.447  1.00  0.00    -0.332 N 
ATOM     10  C   UNL A   1      36.333  33.666  34.199  1.00  0.00     0.178 A 
ATOM     11  C   UNL A   1      36.966  33.917  32.984  1.00  0.00     0.086 A 
ATOM     12  H   UNL A   1      36.442  35.412  31.597  1.00  0.00     0.169 HD
ATOM     13  N   UNL A   1      36.725  32.694  35.048  1.00  0.00    -0.235 NA
ATOM     14  C   UNL A   1      38.056  33.178  32.545  1.00  0.00     0.032 A 
ATOM     15  C   UNL A   1      37.781  31.975  34.614  1.00  0.00     0.114 A 
ATOM     16  C   UNL A   1      38.458  32.164  33.411  1.00  0.00     0.022 A 
ENDBRANCH   6   7
ENDBRANCH   5   6
ENDBRANCH   3   5
ENDBRANCH   2   3
ENDBRANCH   1   2
BRANCH   1  17
ATOM     17  C   UNL A   1      34.361  33.418  28.003  1.00  0.00     0.275 C 
BRANCH  17  18
ATOM     18  O   UNL A   1      34.167  32.240  28.778  1.00  0.00    -0.458 OA
BRANCH  18  19
ATOM     19  C   UNL A   1      35.045  32.041  29.791  1.00  0.00     0.338 C 
ATOM     20  O   UNL A   1      34.915  32.343  30.951  1.00  0.00    -0.246 OA
BRANCH  19  21
ATOM     21  C   UNL A   1      36.249  31.424  29.212  1.00  0.00     0.060 A 
ATOM     22  C   UNL A   1      36.165  30.073  28.876  1.00  0.00     0.016 A 
ATOM     23  C   UNL A   1      37.474  32.109  29.246  1.00  0.00     0.016 A 
ATOM     24  C   UNL A   1      37.333  29.347  28.850  1.00  0.00     0.010 A 
ATOM     25  C   UNL A   1      38.635  31.382  29.243  1.00  0.00     0.010 A 
ATOM     26  C   UNL A   1      38.532  30.001  29.155  1.00  0.00    -0.014 A 
BRANCH  26  27
ATOM     27  C   UNL A   1      39.706  29.196  29.372  1.00  0.00     0.031 A 
ATOM     28  C   UNL A   1      40.054  29.068  30.798  1.00  0.00     0.074 A 
ATOM     29  C   UNL A   1      40.365  28.613  28.354  1.00  0.00     0.049 A 
ATOM     30  N   UNL A   1      41.006  29.680  31.416  1.00  0.00    -0.248 NA
ATOM     31  C   UNL A   1      39.121  28.350  31.678  1.00  0.00     0.031 C 
ATOM     32  C   UNL A   1      39.965  28.478  26.951  1.00  0.00     0.029 A 
ATOM     33  N   UNL A   1      41.549  27.949  28.399  1.00  0.00    -0.354 N 
ATOM     34  C   UNL A   1      40.931  29.244  32.731  1.00  0.00     0.074 A 
ATOM     35  C   UNL A   1      39.651  28.604  32.875  1.00  0.00     0.031 C 
ATOM     36  C   UNL A   1      40.784  27.590  26.336  1.00  0.00     0.029 A 
ATOM     37  C   UNL A   1      41.841  27.212  27.257  1.00  0.00     0.049 A 
ATOM     38  H   UNL A   1      42.150  27.985  29.177  1.00  0.00     0.167 HD
ATOM     39  C   UNL A   1      42.047  29.208  33.507  1.00  0.00     0.037 A 
ATOM     40  C   UNL A   1      42.852  26.315  27.140  1.00  0.00     0.037 A 
ATOM     41  C   UNL A   1      43.101  30.012  32.936  1.00  0.00     0.049 A 
ATOM     42  C   UNL A   1      43.845  26.628  28.203  1.00  0.00     0.074 A 
ATOM     43  C   UNL A   1      43.256  31.353  32.643  1.00  0.00     0.029 A 
ATOM     44  N   UNL A   1      44.074  29.356  32.221  1.00  0.00    -0.354 N 
ATOM     45  N   UNL A   1      44.577  27.708  28.202  1.00  0.00    -0.248 NA
ATOM     46  C   UNL A   1      43.659  26.004  29.506  1.00  0.00     0.031 C 
ATOM     47  C   UNL A   1      44.000  31.384  31.425  1.00  0.00     0.029 A 
ATOM     48  C   UNL A   1      44.309  30.070  31.076  1.00  0.00     0.049 A 
ATOM     49  H   UNL A   1      44.523  28.522  32.487  1.00  0.00     0.167 HD
ATOM     50  C   UNL A   1      44.575  28.140  29.522  1.00  0.00     0.074 A 
ATOM     51  C   UNL A   1      44.052  27.012  30.291  1.00  0.00     0.031 C 
ATOM     52  C   UNL A   1      44.713  29.464  29.828  1.00  0.00     0.037 A 
BRANCH  39  53
ATOM     53  C   UNL A   1      42.334  28.123  34.513  1.00  0.00     0.057 A 
ATOM     54  C   UNL A   1      41.988  28.188  35.879  1.00  0.00     0.134 A 
ATOM     55  C   UNL A   1      42.661  26.840  34.038  1.00  0.00     0.134 A 
ATOM     56  F   UNL A   1      41.605  29.319  36.478  1.00  0.00    -0.206 F 
ATOM     57  C   UNL A   1      41.914  27.057  36.693  1.00  0.00     0.040 A 
ATOM     58  C   UNL A   1      42.541  25.696  34.832  1.00  0.00     0.040 A 
ATOM     59  F   UNL A   1      43.016  26.650  32.759  1.00  0.00    -0.206 F 
ATOM     60  C   UNL A   1      42.149  25.800  36.161  1.00  0.00     0.006 A 
ENDBRANCH  39  53
BRANCH  40  61
ATOM     61  C   UNL A   1      42.855  25.024  26.413  1.00  0.00     0.057 A 
ATOM     62  C   UNL A   1      42.176  23.902  26.920  1.00  0.00     0.134 A 
ATOM     63  C   UNL A   1      43.747  24.779  25.359  1.00  0.00     0.134 A 
ATOM     64  F   UNL A   1      41.362  24.006  27.980  1.00  0.00    -0.206 F 
ATOM     65  C   UNL A   1      42.382  22.611  26.420  1.00  0.00     0.040 A 
ATOM     66  C   UNL A   1      43.965  23.490  24.851  1.00  0.00     0.040 A 
ATOM     67  F   UNL A   1      44.478  25.777  24.840  1.00  0.00    -0.206 F 
ATOM     68  C   UNL A   1      43.289  22.400  25.389  1.00  0.00     0.006 A 
ENDBRANCH  40  61
BRANCH  52  69
ATOM     69  C   UNL A   1      45.107  30.396  28.716  1.00  0.00     0.057 A 
ATOM     70  C   UNL A   1      46.443  30.795  28.614  1.00  0.00     0.134 A 
ATOM     71  C   UNL A   1      44.195  31.004  27.837  1.00  0.00     0.134 A 
ATOM     72  F   UNL A   1      47.360  30.302  29.462  1.00  0.00    -0.206 F 
ATOM     73  C   UNL A   1      46.862  31.739  27.675  1.00  0.00     0.040 A 
ATOM     74  C   UNL A   1      44.607  31.926  26.869  1.00  0.00     0.040 A 
ATOM     75  F   UNL A   1      42.881  30.763  27.927  1.00  0.00    -0.206 F 
ATOM     76  C   UNL A   1      45.945  32.298  26.789  1.00  0.00     0.006 A 
ENDBRANCH  52  69
ENDBRANCH  26  27
ENDBRANCH  19  21
ENDBRANCH  18  19
ENDBRANCH  17  18
ENDBRANCH   1  17
TORSDOF 13
ENDMDL
