MODEL 1
REMARK VINA RESULT:     -10.2      0.000      0.000
REMARK SMILES COc1cccc(C(=O)N[C@H]2C=C[C@@H](C(=O)OCCOC(=O)c3ccc(-c4c5nc(c(-c6c(F)cccc6F)c6ccc([nH]6)c(-c6c(F)cccc6F)c6nc(c(-c7c(F)cccc7F)c7ccc4[nH]7)C=C6)C=C5)cc3)C2)c1
REMARK SMILES IDX 18 1 17 2 15 3 16 4 14 5 11 6 12 7 77 8 13 9 10 10 8 11 9 12
REMARK SMILES IDX 7 14 3 15 4 16 78 17 5 18 6 19 2 20 1 21 19 22 20 23 21 24
REMARK SMILES IDX 22 25 23 26 24 27 76 28 25 29 75 30 26 31 27 32 28 33 69 34
REMARK SMILES IDX 29 35 74 36 68 37 70 38 30 39 73 40 67 41 66 42 31 44 57 45
REMARK SMILES IDX 40 46 56 47 41 48 44 49 55 50 71 51 42 52 43 53 54 55 72 56
REMARK SMILES IDX 45 57 32 58 33 59 38 60 34 61 35 62 37 63 39 64 36 65 58 66
REMARK SMILES IDX 59 67 64 68 60 69 61 70 63 71 65 72 62 73 46 74 47 75 52 76
REMARK SMILES IDX 48 77 49 78 51 79 53 80 50 81
REMARK H PARENT 10 13 70 43 44 54
REMARK Flexibility Score: inf
ROOT
ATOM      1  C   UNL A   1      33.320  37.215  30.126  1.00  0.00     0.274 C 
ENDROOT
BRANCH   1   2
ATOM      2  O   UNL A   1      32.579  36.807  31.289  1.00  0.00    -0.462 OA
BRANCH   2   3
ATOM      3  C   UNL A   1      33.269  36.548  32.427  1.00  0.00     0.312 C 
ATOM      4  O   UNL A   1      33.208  37.224  33.448  1.00  0.00    -0.252 OA
BRANCH   3   5
ATOM      5  C   UNL A   1      34.118  35.283  32.329  1.00  0.00     0.124 C 
ATOM      6  C   UNL A   1      35.879  34.002  33.466  1.00  0.00     0.106 C 
ATOM      7  C   UNL A   1      34.517  33.403  33.667  1.00  0.00    -0.006 C 
ATOM      8  C   UNL A   1      35.538  35.376  32.892  1.00  0.00     0.048 C 
ATOM      9  C   UNL A   1      33.552  34.113  33.069  1.00  0.00    -0.014 C 
BRANCH   6  10
ATOM     10  N   UNL A   1      36.564  33.993  34.742  1.00  0.00    -0.346 N 
ATOM     11  C   UNL A   1      37.440  33.108  35.312  1.00  0.00     0.251 C 
ATOM     12  O   UNL A   1      37.835  33.312  36.458  1.00  0.00    -0.269 OA
ATOM     13  H   UNL A   1      36.361  34.773  35.307  1.00  0.00     0.164 HD
BRANCH  11  14
ATOM     14  C   UNL A   1      37.992  31.959  34.565  1.00  0.00     0.043 A 
ATOM     15  C   UNL A   1      37.811  30.106  33.034  1.00  0.00     0.119 A 
ATOM     16  C   UNL A   1      39.163  29.812  33.233  1.00  0.00     0.046 A 
ATOM     17  C   UNL A   1      37.209  31.160  33.727  1.00  0.00     0.060 A 
ATOM     18  C   UNL A   1      39.935  30.593  34.092  1.00  0.00     0.005 A 
ATOM     19  C   UNL A   1      39.349  31.666  34.760  1.00  0.00     0.014 A 
BRANCH  15  20
ATOM     20  O   UNL A   1      37.145  29.281  32.167  1.00  0.00    -0.497 OA
ATOM     21  C   UNL A   1      37.862  28.092  31.850  1.00  0.00     0.278 C 
ENDBRANCH  15  20
ENDBRANCH  11  14
ENDBRANCH   6  10
ENDBRANCH   3   5
ENDBRANCH   2   3
ENDBRANCH   1   2
BRANCH   1  22
ATOM     22  C   UNL A   1      32.962  36.312  28.943  1.00  0.00     0.275 C 
BRANCH  22  23
ATOM     23  O   UNL A   1      32.653  34.969  29.374  1.00  0.00    -0.458 OA
BRANCH  23  24
ATOM     24  C   UNL A   1      32.959  34.003  28.476  1.00  0.00     0.338 C 
ATOM     25  O   UNL A   1      32.305  33.662  27.508  1.00  0.00    -0.246 OA
BRANCH  24  26
ATOM     26  C   UNL A   1      34.292  33.445  28.742  1.00  0.00     0.060 A 
ATOM     27  C   UNL A   1      34.446  32.620  29.859  1.00  0.00     0.016 A 
ATOM     28  C   UNL A   1      35.399  33.829  27.984  1.00  0.00     0.016 A 
ATOM     29  C   UNL A   1      35.716  32.189  30.235  1.00  0.00     0.010 A 
ATOM     30  C   UNL A   1      36.672  33.376  28.351  1.00  0.00     0.010 A 
ATOM     31  C   UNL A   1      36.841  32.559  29.482  1.00  0.00    -0.014 A 
BRANCH  31  32
ATOM     32  C   UNL A   1      38.182  32.057  29.870  1.00  0.00     0.031 A 
ATOM     33  C   UNL A   1      38.693  30.738  29.365  1.00  0.00     0.074 A 
ATOM     34  C   UNL A   1      38.956  32.809  30.675  1.00  0.00     0.049 A 
ATOM     35  N   UNL A   1      39.817  30.127  29.648  1.00  0.00    -0.248 NA
ATOM     36  C   UNL A   1      37.833  30.008  28.422  1.00  0.00     0.031 C 
ATOM     37  C   UNL A   1      38.584  34.116  31.219  1.00  0.00     0.029 A 
ATOM     38  N   UNL A   1      40.214  32.584  31.173  1.00  0.00    -0.354 N 
ATOM     39  C   UNL A   1      39.792  28.935  28.938  1.00  0.00     0.074 A 
ATOM     40  C   UNL A   1      38.539  28.904  28.212  1.00  0.00     0.031 C 
ATOM     41  C   UNL A   1      39.599  34.585  31.961  1.00  0.00     0.029 A 
ATOM     42  C   UNL A   1      40.671  33.594  31.983  1.00  0.00     0.049 A 
ATOM     43  H   UNL A   1      40.739  31.777  30.969  1.00  0.00     0.167 HD
ATOM     44  C   UNL A   1      40.729  27.957  28.896  1.00  0.00     0.037 A 
ATOM     45  C   UNL A   1      41.813  33.703  32.685  1.00  0.00     0.037 A 
ATOM     46  C   UNL A   1      41.986  27.992  29.599  1.00  0.00     0.049 A 
ATOM     47  C   UNL A   1      42.822  32.595  32.639  1.00  0.00     0.074 A 
ATOM     48  C   UNL A   1      43.005  27.053  29.592  1.00  0.00     0.029 A 
ATOM     49  N   UNL A   1      42.399  29.020  30.433  1.00  0.00    -0.354 N 
ATOM     50  N   UNL A   1      42.780  31.470  31.972  1.00  0.00    -0.248 NA
ATOM     51  C   UNL A   1      44.032  32.767  33.456  1.00  0.00     0.031 C 
ATOM     52  C   UNL A   1      44.021  27.500  30.444  1.00  0.00     0.029 A 
ATOM     53  C   UNL A   1      43.648  28.730  30.958  1.00  0.00     0.049 A 
ATOM     54  H   UNL A   1      41.880  29.835  30.624  1.00  0.00     0.167 HD
ATOM     55  C   UNL A   1      43.954  30.799  32.284  1.00  0.00     0.074 A 
ATOM     56  C   UNL A   1      44.699  31.653  33.186  1.00  0.00     0.031 C 
ATOM     57  C   UNL A   1      44.372  29.582  31.864  1.00  0.00     0.037 A 
BRANCH  44  58
ATOM     58  C   UNL A   1      40.426  26.742  28.073  1.00  0.00     0.057 A 
ATOM     59  C   UNL A   1      39.555  25.745  28.524  1.00  0.00     0.134 A 
ATOM     60  C   UNL A   1      40.965  26.602  26.787  1.00  0.00     0.134 A 
ATOM     61  F   UNL A   1      39.015  25.819  29.750  1.00  0.00    -0.206 F 
ATOM     62  C   UNL A   1      39.233  24.645  27.727  1.00  0.00     0.040 A 
ATOM     63  C   UNL A   1      40.639  25.516  25.975  1.00  0.00     0.040 A 
ATOM     64  F   UNL A   1      41.803  27.528  26.296  1.00  0.00    -0.206 F 
ATOM     65  C   UNL A   1      39.771  24.533  26.445  1.00  0.00     0.006 A 
ENDBRANCH  44  58
BRANCH  45  66
ATOM     66  C   UNL A   1      42.048  34.910  33.511  1.00  0.00     0.057 A 
ATOM     67  C   UNL A   1      41.563  34.995  34.819  1.00  0.00     0.134 A 
ATOM     68  C   UNL A   1      42.780  35.996  33.016  1.00  0.00     0.134 A 
ATOM     69  F   UNL A   1      40.838  33.993  35.337  1.00  0.00    -0.206 F 
ATOM     70  C   UNL A   1      41.797  36.122  35.610  1.00  0.00     0.040 A 
ATOM     71  C   UNL A   1      43.038  37.120  33.801  1.00  0.00     0.040 A 
ATOM     72  F   UNL A   1      43.271  35.969  31.769  1.00  0.00    -0.206 F 
ATOM     73  C   UNL A   1      42.543  37.185  35.102  1.00  0.00     0.006 A 
ENDBRANCH  45  66
BRANCH  57  74
ATOM     74  C   UNL A   1      45.696  29.105  32.378  1.00  0.00     0.057 A 
ATOM     75  C   UNL A   1      45.793  28.340  33.546  1.00  0.00     0.134 A 
ATOM     76  C   UNL A   1      46.880  29.393  31.688  1.00  0.00     0.134 A 
ATOM     77  F   UNL A   1      44.696  28.044  34.258  1.00  0.00    -0.206 F 
ATOM     78  C   UNL A   1      47.027  27.891  34.021  1.00  0.00     0.040 A 
ATOM     79  C   UNL A   1      48.117  28.936  32.145  1.00  0.00     0.040 A 
ATOM     80  F   UNL A   1      46.851  30.119  30.560  1.00  0.00    -0.206 F 
ATOM     81  C   UNL A   1      48.193  28.186  33.317  1.00  0.00     0.006 A 
ENDBRANCH  57  74
ENDBRANCH  31  32
ENDBRANCH  24  26
ENDBRANCH  23  24
ENDBRANCH  22  23
ENDBRANCH   1  22
TORSDOF 14
ENDMDL
MODEL 2
REMARK VINA RESULT:      -9.9      0.735      6.268
REMARK SMILES COc1cccc(C(=O)N[C@H]2C=C[C@@H](C(=O)OCCOC(=O)c3ccc(-c4c5nc(c(-c6c(F)cccc6F)c6ccc([nH]6)c(-c6c(F)cccc6F)c6nc(c(-c7c(F)cccc7F)c7ccc4[nH]7)C=C6)C=C5)cc3)C2)c1
REMARK SMILES IDX 18 1 17 2 15 3 16 4 14 5 11 6 12 7 77 8 13 9 10 10 8 11 9 12
REMARK SMILES IDX 7 14 3 15 4 16 78 17 5 18 6 19 2 20 1 21 19 22 20 23 21 24
REMARK SMILES IDX 22 25 23 26 24 27 76 28 25 29 75 30 26 31 27 32 28 33 69 34
REMARK SMILES IDX 29 35 74 36 68 37 70 38 30 39 73 40 67 41 66 42 31 44 57 45
REMARK SMILES IDX 40 46 56 47 41 48 44 49 55 50 71 51 42 52 43 53 54 55 72 56
REMARK SMILES IDX 45 57 32 58 33 59 38 60 34 61 35 62 37 63 39 64 36 65 58 66
REMARK SMILES IDX 59 67 64 68 60 69 61 70 63 71 65 72 62 73 46 74 47 75 52 76
REMARK SMILES IDX 48 77 49 78 51 79 53 80 50 81
REMARK H PARENT 10 13 70 43 44 54
REMARK Flexibility Score: inf
ROOT
ATOM      1  C   UNL A   1      33.468  37.173  30.358  1.00  0.00     0.274 C 
ENDROOT
BRANCH   1   2
ATOM      2  O   UNL A   1      32.905  36.973  31.666  1.00  0.00    -0.462 OA
BRANCH   2   3
ATOM      3  C   UNL A   1      33.751  36.698  32.689  1.00  0.00     0.312 C 
ATOM      4  O   UNL A   1      33.891  37.399  33.685  1.00  0.00    -0.252 OA
BRANCH   3   5
ATOM      5  C   UNL A   1      34.500  35.381  32.500  1.00  0.00     0.124 C 
ATOM      6  C   UNL A   1      36.061  33.831  33.592  1.00  0.00     0.106 C 
ATOM      7  C   UNL A   1      34.644  33.337  33.632  1.00  0.00    -0.006 C 
ATOM      8  C   UNL A   1      35.877  35.285  33.161  1.00  0.00     0.048 C 
ATOM      9  C   UNL A   1      33.787  34.191  33.059  1.00  0.00    -0.014 C 
BRANCH   6  10
ATOM     10  N   UNL A   1      36.646  33.620  34.901  1.00  0.00    -0.346 N 
ATOM     11  C   UNL A   1      37.462  32.639  35.399  1.00  0.00     0.251 C 
ATOM     12  O   UNL A   1      37.770  32.666  36.588  1.00  0.00    -0.269 OA
ATOM     13  H   UNL A   1      36.412  34.315  35.557  1.00  0.00     0.164 HD
BRANCH  11  14
ATOM     14  C   UNL A   1      38.052  31.596  34.535  1.00  0.00     0.043 A 
ATOM     15  C   UNL A   1      39.900  30.295  33.698  1.00  0.00     0.119 A 
ATOM     16  C   UNL A   1      39.030  29.616  32.839  1.00  0.00     0.046 A 
ATOM     17  C   UNL A   1      39.421  31.314  34.525  1.00  0.00     0.060 A 
ATOM     18  C   UNL A   1      37.670  29.920  32.830  1.00  0.00     0.005 A 
ATOM     19  C   UNL A   1      37.180  30.911  33.677  1.00  0.00     0.014 A 
BRANCH  15  20
ATOM     20  O   UNL A   1      41.215  29.917  33.631  1.00  0.00    -0.497 OA
ATOM     21  C   UNL A   1      41.399  28.506  33.577  1.00  0.00     0.278 C 
ENDBRANCH  15  20
ENDBRANCH  11  14
ENDBRANCH   6  10
ENDBRANCH   3   5
ENDBRANCH   2   3
ENDBRANCH   1   2
BRANCH   1  22
ATOM     22  C   UNL A   1      32.673  36.369  29.325  1.00  0.00     0.275 C 
BRANCH  22  23
ATOM     23  O   UNL A   1      32.661  34.961  29.641  1.00  0.00    -0.458 OA
BRANCH  23  24
ATOM     24  C   UNL A   1      33.002  34.148  28.614  1.00  0.00     0.338 C 
ATOM     25  O   UNL A   1      32.387  33.969  27.580  1.00  0.00    -0.246 OA
BRANCH  24  26
ATOM     26  C   UNL A   1      34.324  33.547  28.840  1.00  0.00     0.060 A 
ATOM     27  C   UNL A   1      34.465  32.655  29.905  1.00  0.00     0.016 A 
ATOM     28  C   UNL A   1      35.435  33.952  28.100  1.00  0.00     0.016 A 
ATOM     29  C   UNL A   1      35.727  32.176  30.248  1.00  0.00     0.010 A 
ATOM     30  C   UNL A   1      36.700  33.451  28.432  1.00  0.00     0.010 A 
ATOM     31  C   UNL A   1      36.856  32.566  29.513  1.00  0.00    -0.014 A 
BRANCH  31  32
ATOM     32  C   UNL A   1      38.189  32.013  29.863  1.00  0.00     0.031 A 
ATOM     33  C   UNL A   1      39.136  32.772  30.746  1.00  0.00     0.074 A 
ATOM     34  C   UNL A   1      38.540  30.803  29.389  1.00  0.00     0.049 A 
ATOM     35  N   UNL A   1      40.356  32.458  31.107  1.00  0.00    -0.248 NA
ATOM     36  C   UNL A   1      38.656  34.047  31.297  1.00  0.00     0.031 C 
ATOM     37  C   UNL A   1      37.703  29.957  28.537  1.00  0.00     0.029 A 
ATOM     38  N   UNL A   1      39.689  30.073  29.561  1.00  0.00    -0.354 N 
ATOM     39  C   UNL A   1      40.798  33.502  31.907  1.00  0.00     0.074 A 
ATOM     40  C   UNL A   1      39.716  34.464  31.978  1.00  0.00     0.031 C 
ATOM     41  C   UNL A   1      38.360  28.816  28.274  1.00  0.00     0.029 A 
ATOM     42  C   UNL A   1      39.678  28.871  28.899  1.00  0.00     0.049 A 
ATOM     43  H   UNL A   1      40.448  30.382  30.107  1.00  0.00     0.167 HD
ATOM     44  C   UNL A   1      41.995  33.645  32.525  1.00  0.00     0.037 A 
ATOM     45  C   UNL A   1      40.629  27.926  28.786  1.00  0.00     0.037 A 
ATOM     46  C   UNL A   1      43.066  32.682  32.475  1.00  0.00     0.049 A 
ATOM     47  C   UNL A   1      41.954  28.121  29.461  1.00  0.00     0.074 A 
ATOM     48  C   UNL A   1      44.304  32.738  33.094  1.00  0.00     0.029 A 
ATOM     49  N   UNL A   1      43.027  31.490  31.769  1.00  0.00    -0.354 N 
ATOM     50  N   UNL A   1      42.360  29.118  30.205  1.00  0.00    -0.248 NA
ATOM     51  C   UNL A   1      42.957  27.064  29.268  1.00  0.00     0.031 C 
ATOM     52  C   UNL A   1      45.025  31.592  32.738  1.00  0.00     0.029 A 
ATOM     53  C   UNL A   1      44.225  30.810  31.923  1.00  0.00     0.049 A 
ATOM     54  H   UNL A   1      42.261  31.175  31.236  1.00  0.00     0.167 HD
ATOM     55  C   UNL A   1      43.664  28.812  30.572  1.00  0.00     0.074 A 
ATOM     56  C   UNL A   1      43.973  27.524  29.985  1.00  0.00     0.031 C 
ATOM     57  C   UNL A   1      44.525  29.537  31.323  1.00  0.00     0.037 A 
BRANCH  44  58
ATOM     58  C   UNL A   1      42.228  34.905  33.301  1.00  0.00     0.057 A 
ATOM     59  C   UNL A   1      41.773  35.056  34.615  1.00  0.00     0.134 A 
ATOM     60  C   UNL A   1      42.974  35.953  32.747  1.00  0.00     0.134 A 
ATOM     61  F   UNL A   1      41.045  34.091  35.197  1.00  0.00    -0.206 F 
ATOM     62  C   UNL A   1      42.044  36.211  35.352  1.00  0.00     0.040 A 
ATOM     63  C   UNL A   1      43.267  37.106  33.478  1.00  0.00     0.040 A 
ATOM     64  F   UNL A   1      43.444  35.865  31.493  1.00  0.00    -0.206 F 
ATOM     65  C   UNL A   1      42.800  37.236  34.784  1.00  0.00     0.006 A 
ENDBRANCH  44  58
BRANCH  45  66
ATOM     66  C   UNL A   1      40.360  26.715  27.978  1.00  0.00     0.057 A 
ATOM     67  C   UNL A   1      39.553  25.683  28.468  1.00  0.00     0.134 A 
ATOM     68  C   UNL A   1      40.886  26.572  26.688  1.00  0.00     0.134 A 
ATOM     69  F   UNL A   1      39.040  25.757  29.705  1.00  0.00    -0.206 F 
ATOM     70  C   UNL A   1      39.280  24.548  27.703  1.00  0.00     0.040 A 
ATOM     71  C   UNL A   1      40.605  25.452  25.906  1.00  0.00     0.040 A 
ATOM     72  F   UNL A   1      41.664  27.531  26.165  1.00  0.00    -0.206 F 
ATOM     73  C   UNL A   1      39.801  24.435  26.415  1.00  0.00     0.006 A 
ENDBRANCH  45  66
BRANCH  57  74
ATOM     74  C   UNL A   1      45.885  28.951  31.551  1.00  0.00     0.057 A 
ATOM     75  C   UNL A   1      46.141  28.100  32.632  1.00  0.00     0.134 A 
ATOM     76  C   UNL A   1      46.940  29.222  30.672  1.00  0.00     0.134 A 
ATOM     77  F   UNL A   1      45.174  27.815  33.517  1.00  0.00    -0.206 F 
ATOM     78  C   UNL A   1      47.407  27.551  32.841  1.00  0.00     0.040 A 
ATOM     79  C   UNL A   1      48.206  28.666  30.862  1.00  0.00     0.040 A 
ATOM     80  F   UNL A   1      46.756  30.028  29.615  1.00  0.00    -0.206 F 
ATOM     81  C   UNL A   1      48.443  27.831  31.952  1.00  0.00     0.006 A 
ENDBRANCH  57  74
ENDBRANCH  31  32
ENDBRANCH  24  26
ENDBRANCH  23  24
ENDBRANCH  22  23
ENDBRANCH   1  22
TORSDOF 14
ENDMDL
MODEL 3
REMARK VINA RESULT:      -9.7      5.117     11.612
REMARK SMILES COc1cccc(C(=O)N[C@H]2C=C[C@@H](C(=O)OCCOC(=O)c3ccc(-c4c5nc(c(-c6c(F)cccc6F)c6ccc([nH]6)c(-c6c(F)cccc6F)c6nc(c(-c7c(F)cccc7F)c7ccc4[nH]7)C=C6)C=C5)cc3)C2)c1
REMARK SMILES IDX 18 1 17 2 15 3 16 4 14 5 11 6 12 7 77 8 13 9 10 10 8 11 9 12
REMARK SMILES IDX 7 14 3 15 4 16 78 17 5 18 6 19 2 20 1 21 19 22 20 23 21 24
REMARK SMILES IDX 22 25 23 26 24 27 76 28 25 29 75 30 26 31 27 32 28 33 69 34
REMARK SMILES IDX 29 35 74 36 68 37 70 38 30 39 73 40 67 41 66 42 31 44 57 45
REMARK SMILES IDX 40 46 56 47 41 48 44 49 55 50 71 51 42 52 43 53 54 55 72 56
REMARK SMILES IDX 45 57 32 58 33 59 38 60 34 61 35 62 37 63 39 64 36 65 58 66
REMARK SMILES IDX 59 67 64 68 60 69 61 70 63 71 65 72 62 73 46 74 47 75 52 76
REMARK SMILES IDX 48 77 49 78 51 79 53 80 50 81
REMARK H PARENT 10 13 70 43 44 54
REMARK Flexibility Score: inf
ROOT
ATOM      1  C   UNL A   1      43.762  18.812  25.093  1.00  0.00     0.274 C 
ENDROOT
BRANCH   1   2
ATOM      2  O   UNL A   1      45.174  18.623  25.282  1.00  0.00    -0.462 OA
BRANCH   2   3
ATOM      3  C   UNL A   1      45.994  19.681  25.066  1.00  0.00     0.312 C 
ATOM      4  O   UNL A   1      47.187  19.594  24.795  1.00  0.00    -0.252 OA
BRANCH   3   5
ATOM      5  C   UNL A   1      45.267  21.020  25.152  1.00  0.00     0.124 C 
ATOM      6  C   UNL A   1      45.623  23.448  25.274  1.00  0.00     0.106 C 
ATOM      7  C   UNL A   1      45.208  22.999  23.902  1.00  0.00    -0.006 C 
ATOM      8  C   UNL A   1      45.972  22.122  25.948  1.00  0.00     0.048 C 
ATOM      9  C   UNL A   1      45.037  21.674  23.827  1.00  0.00    -0.014 C 
BRANCH   6  10
ATOM     10  N   UNL A   1      46.708  24.396  25.125  1.00  0.00    -0.346 N 
ATOM     11  C   UNL A   1      46.744  25.765  25.135  1.00  0.00     0.251 C 
ATOM     12  O   UNL A   1      47.812  26.336  24.921  1.00  0.00    -0.269 OA
ATOM     13  H   UNL A   1      47.588  23.975  24.993  1.00  0.00     0.164 HD
BRANCH  11  14
ATOM     14  C   UNL A   1      45.560  26.578  25.478  1.00  0.00     0.043 A 
ATOM     15  C   UNL A   1      44.481  28.474  26.502  1.00  0.00     0.119 A 
ATOM     16  C   UNL A   1      43.240  28.002  26.064  1.00  0.00     0.046 A 
ATOM     17  C   UNL A   1      45.644  27.746  26.242  1.00  0.00     0.060 A 
ATOM     18  C   UNL A   1      43.155  26.822  25.328  1.00  0.00     0.005 A 
ATOM     19  C   UNL A   1      44.315  26.109  25.036  1.00  0.00     0.014 A 
BRANCH  15  20
ATOM     20  O   UNL A   1      44.453  29.644  27.214  1.00  0.00    -0.497 OA
ATOM     21  C   UNL A   1      45.486  30.555  26.853  1.00  0.00     0.278 C 
ENDBRANCH  15  20
ENDBRANCH  11  14
ENDBRANCH   6  10
ENDBRANCH   3   5
ENDBRANCH   2   3
ENDBRANCH   1   2
BRANCH   1  22
ATOM     22  C   UNL A   1      42.986  17.936  26.082  1.00  0.00     0.275 C 
BRANCH  22  23
ATOM     23  O   UNL A   1      42.217  18.734  27.007  1.00  0.00    -0.458 OA
BRANCH  23  24
ATOM     24  C   UNL A   1      41.354  19.599  26.425  1.00  0.00     0.338 C 
ATOM     25  O   UNL A   1      40.460  19.335  25.643  1.00  0.00    -0.246 OA
BRANCH  24  26
ATOM     26  C   UNL A   1      41.547  20.960  26.945  1.00  0.00     0.060 A 
ATOM     27  C   UNL A   1      41.875  21.968  26.035  1.00  0.00     0.016 A 
ATOM     28  C   UNL A   1      41.537  21.216  28.317  1.00  0.00     0.016 A 
ATOM     29  C   UNL A   1      42.213  23.238  26.497  1.00  0.00     0.010 A 
ATOM     30  C   UNL A   1      41.854  22.499  28.777  1.00  0.00     0.010 A 
ATOM     31  C   UNL A   1      42.202  23.518  27.872  1.00  0.00    -0.014 A 
BRANCH  31  32
ATOM     32  C   UNL A   1      42.521  24.887  28.346  1.00  0.00     0.031 A 
ATOM     33  C   UNL A   1      43.925  25.276  28.708  1.00  0.00     0.074 A 
ATOM     34  C   UNL A   1      41.532  25.796  28.436  1.00  0.00     0.049 A 
ATOM     35  N   UNL A   1      44.368  26.412  29.188  1.00  0.00    -0.248 NA
ATOM     36  C   UNL A   1      44.970  24.260  28.506  1.00  0.00     0.031 C 
ATOM     37  C   UNL A   1      40.130  25.551  28.097  1.00  0.00     0.029 A 
ATOM     38  N   UNL A   1      41.556  27.109  28.834  1.00  0.00    -0.354 N 
ATOM     39  C   UNL A   1      45.734  26.243  29.367  1.00  0.00     0.074 A 
ATOM     40  C   UNL A   1      46.050  24.894  28.946  1.00  0.00     0.031 C 
ATOM     41  C   UNL A   1      39.430  26.681  28.286  1.00  0.00     0.029 A 
ATOM     42  C   UNL A   1      40.324  27.714  28.801  1.00  0.00     0.049 A 
ATOM     43  H   UNL A   1      42.377  27.572  29.115  1.00  0.00     0.167 HD
ATOM     44  C   UNL A   1      46.641  27.134  29.838  1.00  0.00     0.037 A 
ATOM     45  C   UNL A   1      39.948  28.953  29.166  1.00  0.00     0.037 A 
ATOM     46  C   UNL A   1      46.335  28.484  30.237  1.00  0.00     0.049 A 
ATOM     47  C   UNL A   1      40.967  29.910  29.706  1.00  0.00     0.074 A 
ATOM     48  C   UNL A   1      47.200  29.462  30.703  1.00  0.00     0.029 A 
ATOM     49  N   UNL A   1      45.070  29.049  30.217  1.00  0.00    -0.354 N 
ATOM     50  N   UNL A   1      42.253  29.733  29.879  1.00  0.00    -0.248 NA
ATOM     51  C   UNL A   1      40.480  31.235  30.116  1.00  0.00     0.031 C 
ATOM     52  C   UNL A   1      46.451  30.609  30.992  1.00  0.00     0.029 A 
ATOM     53  C   UNL A   1      45.127  30.355  30.678  1.00  0.00     0.049 A 
ATOM     54  H   UNL A   1      44.251  28.590  29.920  1.00  0.00     0.167 HD
ATOM     55  C   UNL A   1      42.731  30.921  30.415  1.00  0.00     0.074 A 
ATOM     56  C   UNL A   1      41.600  31.820  30.519  1.00  0.00     0.031 C 
ATOM     57  C   UNL A   1      43.993  31.234  30.790  1.00  0.00     0.037 A 
BRANCH  44  58
ATOM     58  C   UNL A   1      48.060  26.674  29.970  1.00  0.00     0.057 A 
ATOM     59  C   UNL A   1      49.007  26.907  28.967  1.00  0.00     0.134 A 
ATOM     60  C   UNL A   1      48.497  26.047  31.144  1.00  0.00     0.134 A 
ATOM     61  F   UNL A   1      48.646  27.495  27.816  1.00  0.00    -0.206 F 
ATOM     62  C   UNL A   1      50.341  26.526  29.123  1.00  0.00     0.040 A 
ATOM     63  C   UNL A   1      49.831  25.676  31.319  1.00  0.00     0.040 A 
ATOM     64  F   UNL A   1      47.638  25.801  32.145  1.00  0.00    -0.206 F 
ATOM     65  C   UNL A   1      50.757  25.915  30.305  1.00  0.00     0.006 A 
ENDBRANCH  44  58
BRANCH  45  66
ATOM     66  C   UNL A   1      38.524  29.346  29.047  1.00  0.00     0.057 A 
ATOM     67  C   UNL A   1      37.977  29.717  27.816  1.00  0.00     0.134 A 
ATOM     68  C   UNL A   1      37.675  29.338  30.161  1.00  0.00     0.134 A 
ATOM     69  F   UNL A   1      38.750  29.762  26.720  1.00  0.00    -0.206 F 
ATOM     70  C   UNL A   1      36.632  30.069  27.694  1.00  0.00     0.040 A 
ATOM     71  C   UNL A   1      36.325  29.669  30.050  1.00  0.00     0.040 A 
ATOM     72  F   UNL A   1      38.145  28.988  31.367  1.00  0.00    -0.206 F 
ATOM     73  C   UNL A   1      35.801  30.039  28.813  1.00  0.00     0.006 A 
ENDBRANCH  45  66
BRANCH  57  74
ATOM     74  C   UNL A   1      44.215  32.606  31.348  1.00  0.00     0.057 A 
ATOM     75  C   UNL A   1      44.148  32.854  32.724  1.00  0.00     0.134 A 
ATOM     76  C   UNL A   1      44.517  33.684  30.507  1.00  0.00     0.134 A 
ATOM     77  F   UNL A   1      43.847  31.865  33.579  1.00  0.00    -0.206 F 
ATOM     78  C   UNL A   1      44.359  34.131  33.244  1.00  0.00     0.040 A 
ATOM     79  C   UNL A   1      44.747  34.962  31.017  1.00  0.00     0.040 A 
ATOM     80  F   UNL A   1      44.599  33.509  29.179  1.00  0.00    -0.206 F 
ATOM     81  C   UNL A   1      44.664  35.189  32.389  1.00  0.00     0.006 A 
ENDBRANCH  57  74
ENDBRANCH  31  32
ENDBRANCH  24  26
ENDBRANCH  23  24
ENDBRANCH  22  23
ENDBRANCH   1  22
TORSDOF 14
ENDMDL
