MODEL 1
REMARK VINA RESULT:     -11.0      0.000      0.000
REMARK SMILES C[NH+](C)Cc1noc(C[C@@](C)(C(=O)OCCOC(=O)c2ccc(-c3c4nc(c(-c5c(F)cccc5F)c5ccc([nH]5)c(-c5c(F)cccc5F)c5nc(c(-c6c(F)cccc6F)c6ccc3[nH]6)C=C5)C=C4)cc2)c2ccccc2)n1
REMARK SMILES IDX 15 1 14 2 12 3 13 4 10 5 11 6 9 7 8 8 5 9 6 10 80 11 7 12
REMARK SMILES IDX 4 13 2 14 1 15 3 16 74 18 75 19 79 20 76 21 78 22 77 23
REMARK SMILES IDX 16 24 17 25 18 26 19 27 20 28 21 29 73 30 22 31 72 32 23 33
REMARK SMILES IDX 24 34 25 35 66 36 26 37 71 38 65 39 67 40 27 41 70 42 64 43
REMARK SMILES IDX 63 44 28 46 54 47 37 48 53 49 38 50 41 51 52 52 68 53 39 54
REMARK SMILES IDX 40 55 51 57 69 58 42 59 29 60 30 61 35 62 31 63 32 64 34 65
REMARK SMILES IDX 36 66 33 67 55 68 56 69 61 70 57 71 58 72 60 73 62 74 59 75
REMARK SMILES IDX 43 76 44 77 49 78 45 79 46 80 48 81 50 82 47 83
REMARK H PARENT 2 17 67 45 41 56
REMARK Flexibility Score: inf
ROOT
ATOM      1  C   UNL A   1      36.788  22.587  23.731  1.00  0.00     0.274 C 
ENDROOT
BRANCH   1   2
ATOM      2  O   UNL A   1      35.867  23.357  24.536  1.00  0.00    -0.461 OA
BRANCH   2   3
ATOM      3  C   UNL A   1      34.638  23.637  24.011  1.00  0.00     0.316 C 
ATOM      4  O   UNL A   1      34.495  24.110  22.890  1.00  0.00    -0.251 OA
BRANCH   3   5
ATOM      5  C   UNL A   1      33.471  23.396  25.033  1.00  0.00     0.099 C 
ATOM      6  C   UNL A   1      34.185  22.786  26.257  1.00  0.00     0.029 C 
BRANCH   5   7
ATOM      7  C   UNL A   1      32.494  22.353  24.375  1.00  0.00     0.123 C 
BRANCH   7   8
ATOM      8  C   UNL A   1      32.755  20.910  24.606  1.00  0.00     0.228 A 
ATOM      9  C   UNL A   1      33.415  18.918  24.642  1.00  0.00     0.226 A 
ATOM     10  N   UNL A   1      32.270  18.881  25.340  1.00  0.00    -0.056 NA
ATOM     11  N   UNL A   1      33.777  20.178  24.222  1.00  0.00    -0.190 NA
ATOM     12  O   UNL A   1      31.827  20.204  25.313  1.00  0.00    -0.339 OA
BRANCH   9  13
ATOM     13  C   UNL A   1      34.272  17.720  24.343  1.00  0.00     0.344 C 
BRANCH  13  14
ATOM     14  N   UNL A   1      34.307  16.648  25.360  1.00  0.00    -0.333 N 
ATOM     15  C   UNL A   1      33.256  15.651  25.187  1.00  0.00     0.332 C 
ATOM     16  C   UNL A   1      35.620  16.027  25.506  1.00  0.00     0.332 C 
ATOM     17  H   UNL A   1      34.114  17.126  26.240  1.00  0.00     0.348 HD
ENDBRANCH  13  14
ENDBRANCH   9  13
ENDBRANCH   7   8
ENDBRANCH   5   7
BRANCH   5  18
ATOM     18  C   UNL A   1      32.774  24.718  25.500  1.00  0.00    -0.030 A 
ATOM     19  C   UNL A   1      31.373  24.809  25.617  1.00  0.00     0.005 A 
ATOM     20  C   UNL A   1      33.482  25.865  25.907  1.00  0.00     0.005 A 
ATOM     21  C   UNL A   1      30.713  25.989  25.983  1.00  0.00     0.000 A 
ATOM     22  C   UNL A   1      32.829  27.040  26.314  1.00  0.00     0.000 A 
ATOM     23  C   UNL A   1      31.444  27.114  26.321  1.00  0.00     0.000 A 
ENDBRANCH   5  18
ENDBRANCH   3   5
ENDBRANCH   2   3
ENDBRANCH   1   2
BRANCH   1  24
ATOM     24  C   UNL A   1      37.180  21.334  24.505  1.00  0.00     0.275 C 
BRANCH  24  25
ATOM     25  O   UNL A   1      37.622  21.752  25.808  1.00  0.00    -0.458 OA
BRANCH  25  26
ATOM     26  C   UNL A   1      38.890  21.433  26.140  1.00  0.00     0.338 C 
ATOM     27  O   UNL A   1      39.430  20.339  26.067  1.00  0.00    -0.246 OA
BRANCH  26  28
ATOM     28  C   UNL A   1      39.565  22.655  26.603  1.00  0.00     0.060 A 
ATOM     29  C   UNL A   1      39.126  23.896  26.140  1.00  0.00     0.016 A 
ATOM     30  C   UNL A   1      40.678  22.570  27.440  1.00  0.00     0.016 A 
ATOM     31  C   UNL A   1      39.814  25.053  26.495  1.00  0.00     0.010 A 
ATOM     32  C   UNL A   1      41.331  23.741  27.840  1.00  0.00     0.010 A 
ATOM     33  C   UNL A   1      40.915  24.995  27.357  1.00  0.00    -0.014 A 
BRANCH  33  34
ATOM     34  C   UNL A   1      41.679  26.235  27.663  1.00  0.00     0.031 A 
ATOM     35  C   UNL A   1      41.067  27.280  28.553  1.00  0.00     0.074 A 
ATOM     36  C   UNL A   1      42.937  26.407  27.214  1.00  0.00     0.049 A 
ATOM     37  N   UNL A   1      41.490  28.488  28.828  1.00  0.00    -0.248 NA
ATOM     38  C   UNL A   1      39.810  26.916  29.226  1.00  0.00     0.031 C 
ATOM     39  C   UNL A   1      43.697  25.442  26.421  1.00  0.00     0.029 A 
ATOM     40  N   UNL A   1      43.809  27.456  27.386  1.00  0.00    -0.354 N 
ATOM     41  C   UNL A   1      40.527  29.045  29.659  1.00  0.00     0.074 A 
ATOM     42  C   UNL A   1      39.503  28.041  29.853  1.00  0.00     0.031 C 
ATOM     43  C   UNL A   1      44.934  25.923  26.211  1.00  0.00     0.029 A 
ATOM     44  C   UNL A   1      45.031  27.261  26.788  1.00  0.00     0.049 A 
ATOM     45  H   UNL A   1      43.579  28.270  27.888  1.00  0.00     0.167 HD
ATOM     46  C   UNL A   1      40.496  30.283  30.204  1.00  0.00     0.037 A 
ATOM     47  C   UNL A   1      46.096  28.081  26.690  1.00  0.00     0.037 A 
ATOM     48  C   UNL A   1      41.533  31.268  30.054  1.00  0.00     0.049 A 
ATOM     49  C   UNL A   1      46.020  29.468  27.264  1.00  0.00     0.074 A 
ATOM     50  C   UNL A   1      41.569  32.565  30.534  1.00  0.00     0.029 A 
ATOM     51  N   UNL A   1      42.731  31.053  29.391  1.00  0.00    -0.354 N 
ATOM     52  N   UNL A   1      45.056  30.027  27.954  1.00  0.00    -0.248 NA
ATOM     53  C   UNL A   1      47.169  30.353  27.015  1.00  0.00     0.031 C 
ATOM     54  C   UNL A   1      42.783  33.144  30.144  1.00  0.00     0.029 A 
ATOM     55  C   UNL A   1      43.512  32.195  29.447  1.00  0.00     0.049 A 
ATOM     56  H   UNL A   1      42.987  30.213  28.947  1.00  0.00     0.167 HD
ATOM     57  C   UNL A   1      45.479  31.323  28.219  1.00  0.00     0.074 A 
ATOM     58  C   UNL A   1      46.800  31.461  27.642  1.00  0.00     0.031 C 
ATOM     59  C   UNL A   1      44.825  32.316  28.868  1.00  0.00     0.037 A 
BRANCH  46  60
ATOM     60  C   UNL A   1      39.267  30.657  30.975  1.00  0.00     0.057 A 
ATOM     61  C   UNL A   1      38.154  31.242  30.362  1.00  0.00     0.134 A 
ATOM     62  C   UNL A   1      39.199  30.415  32.352  1.00  0.00     0.134 A 
ATOM     63  F   UNL A   1      38.167  31.517  29.049  1.00  0.00    -0.206 F 
ATOM     64  C   UNL A   1      37.019  31.590  31.098  1.00  0.00     0.040 A 
ATOM     65  C   UNL A   1      38.064  30.740  33.095  1.00  0.00     0.040 A 
ATOM     66  F   UNL A   1      40.234  29.856  32.998  1.00  0.00    -0.206 F 
ATOM     67  C   UNL A   1      36.971  31.336  32.468  1.00  0.00     0.006 A 
ENDBRANCH  46  60
BRANCH  47  68
ATOM     68  C   UNL A   1      47.321  27.633  25.979  1.00  0.00     0.057 A 
ATOM     69  C   UNL A   1      47.412  27.703  24.584  1.00  0.00     0.134 A 
ATOM     70  C   UNL A   1      48.415  27.100  26.672  1.00  0.00     0.134 A 
ATOM     71  F   UNL A   1      46.384  28.177  23.864  1.00  0.00    -0.206 F 
ATOM     72  C   UNL A   1      48.543  27.252  23.902  1.00  0.00     0.040 A 
ATOM     73  C   UNL A   1      49.562  26.667  26.004  1.00  0.00     0.040 A 
ATOM     74  F   UNL A   1      48.386  26.999  28.008  1.00  0.00    -0.206 F 
ATOM     75  C   UNL A   1      49.625  26.738  24.614  1.00  0.00     0.006 A 
ENDBRANCH  47  68
BRANCH  59  76
ATOM     76  C   UNL A   1      45.531  33.632  28.995  1.00  0.00     0.057 A 
ATOM     77  C   UNL A   1      45.360  34.647  28.044  1.00  0.00     0.134 A 
ATOM     78  C   UNL A   1      46.356  33.901  30.093  1.00  0.00     0.134 A 
ATOM     79  F   UNL A   1      44.592  34.445  26.965  1.00  0.00    -0.206 F 
ATOM     80  C   UNL A   1      46.003  35.879  28.174  1.00  0.00     0.040 A 
ATOM     81  C   UNL A   1      46.989  35.136  30.242  1.00  0.00     0.040 A 
ATOM     82  F   UNL A   1      46.555  32.972  31.039  1.00  0.00    -0.206 F 
ATOM     83  C   UNL A   1      46.816  36.128  29.278  1.00  0.00     0.006 A 
ENDBRANCH  59  76
ENDBRANCH  33  34
ENDBRANCH  26  28
ENDBRANCH  25  26
ENDBRANCH  24  25
ENDBRANCH   1  24
TORSDOF 16
ENDMDL
MODEL 2
REMARK VINA RESULT:     -10.9      2.913      6.985
REMARK SMILES C[NH+](C)Cc1noc(C[C@@](C)(C(=O)OCCOC(=O)c2ccc(-c3c4nc(c(-c5c(F)cccc5F)c5ccc([nH]5)c(-c5c(F)cccc5F)c5nc(c(-c6c(F)cccc6F)c6ccc3[nH]6)C=C5)C=C4)cc2)c2ccccc2)n1
REMARK SMILES IDX 15 1 14 2 12 3 13 4 10 5 11 6 9 7 8 8 5 9 6 10 80 11 7 12
REMARK SMILES IDX 4 13 2 14 1 15 3 16 74 18 75 19 79 20 76 21 78 22 77 23
REMARK SMILES IDX 16 24 17 25 18 26 19 27 20 28 21 29 73 30 22 31 72 32 23 33
REMARK SMILES IDX 24 34 25 35 66 36 26 37 71 38 65 39 67 40 27 41 70 42 64 43
REMARK SMILES IDX 63 44 28 46 54 47 37 48 53 49 38 50 41 51 52 52 68 53 39 54
REMARK SMILES IDX 40 55 51 57 69 58 42 59 29 60 30 61 35 62 31 63 32 64 34 65
REMARK SMILES IDX 36 66 33 67 55 68 56 69 61 70 57 71 58 72 60 73 62 74 59 75
REMARK SMILES IDX 43 76 44 77 49 78 45 79 46 80 48 81 50 82 47 83
REMARK H PARENT 2 17 67 45 41 56
REMARK Flexibility Score: inf
ROOT
ATOM      1  C   UNL A   1      32.729  30.449  27.216  1.00  0.00     0.274 C 
ENDROOT
BRANCH   1   2
ATOM      2  O   UNL A   1      33.126  29.116  26.818  1.00  0.00    -0.461 OA
BRANCH   2   3
ATOM      3  C   UNL A   1      32.227  28.104  26.988  1.00  0.00     0.316 C 
ATOM      4  O   UNL A   1      31.632  27.924  28.044  1.00  0.00    -0.251 OA
BRANCH   3   5
ATOM      5  C   UNL A   1      32.137  27.154  25.741  1.00  0.00     0.099 C 
ATOM      6  C   UNL A   1      31.710  25.802  26.350  1.00  0.00     0.029 C 
BRANCH   5   7
ATOM      7  C   UNL A   1      33.584  27.063  25.130  1.00  0.00     0.123 C 
BRANCH   7   8
ATOM      8  C   UNL A   1      33.959  25.822  24.407  1.00  0.00     0.228 A 
ATOM      9  C   UNL A   1      34.770  24.026  23.686  1.00  0.00     0.226 A 
ATOM     10  N   UNL A   1      34.018  24.462  22.664  1.00  0.00    -0.056 NA
ATOM     11  N   UNL A   1      34.708  24.820  24.809  1.00  0.00    -0.190 NA
ATOM     12  O   UNL A   1      33.482  25.659  23.140  1.00  0.00    -0.339 OA
BRANCH   9  13
ATOM     13  C   UNL A   1      35.602  22.775  23.660  1.00  0.00     0.344 C 
BRANCH  13  14
ATOM     14  N   UNL A   1      35.407  21.814  24.766  1.00  0.00    -0.333 N 
ATOM     15  C   UNL A   1      34.191  21.018  24.633  1.00  0.00     0.332 C 
ATOM     16  C   UNL A   1      36.574  20.975  25.022  1.00  0.00     0.332 C 
ATOM     17  H   UNL A   1      35.285  22.399  25.592  1.00  0.00     0.348 HD
ENDBRANCH  13  14
ENDBRANCH   9  13
ENDBRANCH   7   8
ENDBRANCH   5   7
BRANCH   5  18
ATOM     18  C   UNL A   1      31.035  27.582  24.715  1.00  0.00    -0.030 A 
ATOM     19  C   UNL A   1      31.157  28.760  23.953  1.00  0.00     0.005 A 
ATOM     20  C   UNL A   1      29.903  26.798  24.421  1.00  0.00     0.005 A 
ATOM     21  C   UNL A   1      30.169  29.199  23.063  1.00  0.00     0.000 A 
ATOM     22  C   UNL A   1      28.926  27.210  23.501  1.00  0.00     0.000 A 
ATOM     23  C   UNL A   1      29.042  28.428  22.844  1.00  0.00     0.000 A 
ENDBRANCH   5  18
ENDBRANCH   3   5
ENDBRANCH   2   3
ENDBRANCH   1   2
BRANCH   1  24
ATOM     24  C   UNL A   1      33.959  31.191  27.726  1.00  0.00     0.275 C 
BRANCH  24  25
ATOM     25  O   UNL A   1      34.922  30.203  28.132  1.00  0.00    -0.458 OA
BRANCH  25  26
ATOM     26  C   UNL A   1      35.740  30.548  29.147  1.00  0.00     0.338 C 
ATOM     27  O   UNL A   1      35.474  31.232  30.124  1.00  0.00    -0.246 OA
BRANCH  26  28
ATOM     28  C   UNL A   1      37.054  29.932  28.908  1.00  0.00     0.060 A 
ATOM     29  C   UNL A   1      37.776  29.417  29.985  1.00  0.00     0.016 A 
ATOM     30  C   UNL A   1      37.605  29.925  27.625  1.00  0.00     0.016 A 
ATOM     31  C   UNL A   1      39.060  28.918  29.787  1.00  0.00     0.010 A 
ATOM     32  C   UNL A   1      38.873  29.369  27.422  1.00  0.00     0.010 A 
ATOM     33  C   UNL A   1      39.621  28.875  28.505  1.00  0.00    -0.014 A 
BRANCH  33  34
ATOM     34  C   UNL A   1      41.021  28.404  28.329  1.00  0.00     0.031 A 
ATOM     35  C   UNL A   1      42.159  29.355  28.578  1.00  0.00     0.074 A 
ATOM     36  C   UNL A   1      41.291  27.122  28.019  1.00  0.00     0.049 A 
ATOM     37  N   UNL A   1      43.437  29.200  28.343  1.00  0.00    -0.248 NA
ATOM     38  C   UNL A   1      41.810  30.655  29.172  1.00  0.00     0.031 C 
ATOM     39  C   UNL A   1      40.299  26.062  27.840  1.00  0.00     0.029 A 
ATOM     40  N   UNL A   1      42.495  26.487  27.821  1.00  0.00    -0.354 N 
ATOM     41  C   UNL A   1      44.036  30.398  28.709  1.00  0.00     0.074 A 
ATOM     42  C   UNL A   1      42.984  31.267  29.191  1.00  0.00     0.031 C 
ATOM     43  C   UNL A   1      40.933  24.902  27.602  1.00  0.00     0.029 A 
ATOM     44  C   UNL A   1      42.372  25.148  27.537  1.00  0.00     0.049 A 
ATOM     45  H   UNL A   1      43.362  26.947  27.878  1.00  0.00     0.167 HD
ATOM     46  C   UNL A   1      45.343  30.744  28.642  1.00  0.00     0.037 A 
ATOM     47  C   UNL A   1      43.309  24.230  27.226  1.00  0.00     0.037 A 
ATOM     48  C   UNL A   1      46.398  29.868  28.209  1.00  0.00     0.049 A 
ATOM     49  C   UNL A   1      44.748  24.650  27.113  1.00  0.00     0.074 A 
ATOM     50  C   UNL A   1      47.747  30.145  28.067  1.00  0.00     0.029 A 
ATOM     51  N   UNL A   1      46.225  28.535  27.872  1.00  0.00    -0.354 N 
ATOM     52  N   UNL A   1      45.292  25.819  27.353  1.00  0.00    -0.248 NA
ATOM     53  C   UNL A   1      45.702  23.630  26.651  1.00  0.00     0.031 C 
ATOM     54  C   UNL A   1      48.389  28.982  27.623  1.00  0.00     0.029 A 
ATOM     55  C   UNL A   1      47.442  27.976  27.519  1.00  0.00     0.049 A 
ATOM     56  H   UNL A   1      45.365  28.058  27.882  1.00  0.00     0.167 HD
ATOM     57  C   UNL A   1      46.643  25.675  27.071  1.00  0.00     0.074 A 
ATOM     58  C   UNL A   1      46.847  24.298  26.670  1.00  0.00     0.031 C 
ATOM     59  C   UNL A   1      47.628  26.605  27.123  1.00  0.00     0.037 A 
BRANCH  46  60
ATOM     60  C   UNL A   1      45.692  32.156  29.001  1.00  0.00     0.057 A 
ATOM     61  C   UNL A   1      46.097  32.518  30.290  1.00  0.00     0.134 A 
ATOM     62  C   UNL A   1      45.631  33.164  28.031  1.00  0.00     0.134 A 
ATOM     63  F   UNL A   1      46.154  31.600  31.267  1.00  0.00    -0.206 F 
ATOM     64  C   UNL A   1      46.412  33.840  30.608  1.00  0.00     0.040 A 
ATOM     65  C   UNL A   1      45.962  34.485  28.331  1.00  0.00     0.040 A 
ATOM     66  F   UNL A   1      45.251  32.880  26.776  1.00  0.00    -0.206 F 
ATOM     67  C   UNL A   1      46.349  34.827  29.625  1.00  0.00     0.006 A 
ENDBRANCH  46  60
BRANCH  47  68
ATOM     68  C   UNL A   1      42.917  22.824  26.953  1.00  0.00     0.057 A 
ATOM     69  C   UNL A   1      42.802  22.349  25.641  1.00  0.00     0.134 A 
ATOM     70  C   UNL A   1      42.622  21.932  27.991  1.00  0.00     0.134 A 
ATOM     71  F   UNL A   1      43.043  23.166  24.605  1.00  0.00    -0.206 F 
ATOM     72  C   UNL A   1      42.400  21.040  25.371  1.00  0.00     0.040 A 
ATOM     73  C   UNL A   1      42.243  20.614  27.736  1.00  0.00     0.040 A 
ATOM     74  F   UNL A   1      42.707  22.328  29.269  1.00  0.00    -0.206 F 
ATOM     75  C   UNL A   1      42.125  20.167  26.422  1.00  0.00     0.006 A 
ENDBRANCH  47  68
BRANCH  59  76
ATOM     76  C   UNL A   1      49.009  26.162  26.746  1.00  0.00     0.057 A 
ATOM     77  C   UNL A   1      49.506  26.343  25.449  1.00  0.00     0.134 A 
ATOM     78  C   UNL A   1      49.861  25.585  27.695  1.00  0.00     0.134 A 
ATOM     79  F   UNL A   1      48.733  26.879  24.494  1.00  0.00    -0.206 F 
ATOM     80  C   UNL A   1      50.800  25.948  25.105  1.00  0.00     0.040 A 
ATOM     81  C   UNL A   1      51.162  25.202  27.367  1.00  0.00     0.040 A 
ATOM     82  F   UNL A   1      49.445  25.390  28.955  1.00  0.00    -0.206 F 
ATOM     83  C   UNL A   1      51.634  25.381  26.067  1.00  0.00     0.006 A 
ENDBRANCH  59  76
ENDBRANCH  33  34
ENDBRANCH  26  28
ENDBRANCH  25  26
ENDBRANCH  24  25
ENDBRANCH   1  24
TORSDOF 16
ENDMDL
MODEL 3
REMARK VINA RESULT:     -10.9      4.794      9.506
REMARK SMILES C[NH+](C)Cc1noc(C[C@@](C)(C(=O)OCCOC(=O)c2ccc(-c3c4nc(c(-c5c(F)cccc5F)c5ccc([nH]5)c(-c5c(F)cccc5F)c5nc(c(-c6c(F)cccc6F)c6ccc3[nH]6)C=C5)C=C4)cc2)c2ccccc2)n1
REMARK SMILES IDX 15 1 14 2 12 3 13 4 10 5 11 6 9 7 8 8 5 9 6 10 80 11 7 12
REMARK SMILES IDX 4 13 2 14 1 15 3 16 74 18 75 19 79 20 76 21 78 22 77 23
REMARK SMILES IDX 16 24 17 25 18 26 19 27 20 28 21 29 73 30 22 31 72 32 23 33
REMARK SMILES IDX 24 34 25 35 66 36 26 37 71 38 65 39 67 40 27 41 70 42 64 43
REMARK SMILES IDX 63 44 28 46 54 47 37 48 53 49 38 50 41 51 52 52 68 53 39 54
REMARK SMILES IDX 40 55 51 57 69 58 42 59 29 60 30 61 35 62 31 63 32 64 34 65
REMARK SMILES IDX 36 66 33 67 55 68 56 69 61 70 57 71 58 72 60 73 62 74 59 75
REMARK SMILES IDX 43 76 44 77 49 78 45 79 46 80 48 81 50 82 47 83
REMARK H PARENT 2 17 67 45 41 56
REMARK Flexibility Score: inf
ROOT
ATOM      1  C   UNL A   1      31.544  28.833  26.815  1.00  0.00     0.274 C 
ENDROOT
BRANCH   1   2
ATOM      2  O   UNL A   1      32.472  27.932  26.170  1.00  0.00    -0.461 OA
BRANCH   2   3
ATOM      3  C   UNL A   1      31.973  26.790  25.612  1.00  0.00     0.316 C 
ATOM      4  O   UNL A   1      31.198  26.052  26.210  1.00  0.00    -0.251 OA
BRANCH   3   5
ATOM      5  C   UNL A   1      32.586  26.483  24.201  1.00  0.00     0.099 C 
ATOM      6  C   UNL A   1      33.330  27.787  23.841  1.00  0.00     0.029 C 
BRANCH   5   7
ATOM      7  C   UNL A   1      31.380  26.237  23.221  1.00  0.00     0.123 C 
BRANCH   7   8
ATOM      8  C   UNL A   1      30.504  27.388  22.888  1.00  0.00     0.228 A 
ATOM      9  C   UNL A   1      29.001  28.838  22.682  1.00  0.00     0.226 A 
ATOM     10  N   UNL A   1      29.840  29.110  21.670  1.00  0.00    -0.056 NA
ATOM     11  N   UNL A   1      29.418  27.809  23.495  1.00  0.00    -0.190 NA
ATOM     12  O   UNL A   1      30.837  28.143  21.802  1.00  0.00    -0.339 OA
BRANCH   9  13
ATOM     13  C   UNL A   1      27.725  29.581  22.955  1.00  0.00     0.344 C 
BRANCH  13  14
ATOM     14  N   UNL A   1      27.796  31.057  22.975  1.00  0.00    -0.333 N 
ATOM     15  C   UNL A   1      28.842  31.575  23.849  1.00  0.00     0.332 C 
ATOM     16  C   UNL A   1      27.860  31.656  21.645  1.00  0.00     0.332 C 
ATOM     17  H   UNL A   1      26.905  31.349  23.379  1.00  0.00     0.348 HD
ENDBRANCH  13  14
ENDBRANCH   9  13
ENDBRANCH   7   8
ENDBRANCH   5   7
BRANCH   5  18
ATOM     18  C   UNL A   1      33.640  25.326  24.221  1.00  0.00    -0.030 A 
ATOM     19  C   UNL A   1      34.475  25.111  25.335  1.00  0.00     0.005 A 
ATOM     20  C   UNL A   1      33.775  24.382  23.185  1.00  0.00     0.005 A 
ATOM     21  C   UNL A   1      35.462  24.119  25.369  1.00  0.00     0.000 A 
ATOM     22  C   UNL A   1      34.735  23.358  23.228  1.00  0.00     0.000 A 
ATOM     23  C   UNL A   1      35.602  23.245  24.306  1.00  0.00     0.000 A 
ENDBRANCH   5  18
ENDBRANCH   3   5
ENDBRANCH   2   3
ENDBRANCH   1   2
BRANCH   1  24
ATOM     24  C   UNL A   1      31.571  30.168  26.081  1.00  0.00     0.275 C 
BRANCH  24  25
ATOM     25  O   UNL A   1      32.926  30.648  26.109  1.00  0.00    -0.458 OA
BRANCH  25  26
ATOM     26  C   UNL A   1      33.201  31.611  27.012  1.00  0.00     0.338 C 
ATOM     27  O   UNL A   1      32.523  32.589  27.294  1.00  0.00    -0.246 OA
BRANCH  26  28
ATOM     28  C   UNL A   1      34.484  31.286  27.655  1.00  0.00     0.060 A 
ATOM     29  C   UNL A   1      34.764  29.961  27.990  1.00  0.00     0.016 A 
ATOM     30  C   UNL A   1      35.380  32.302  27.990  1.00  0.00     0.016 A 
ATOM     31  C   UNL A   1      35.931  29.652  28.684  1.00  0.00     0.010 A 
ATOM     32  C   UNL A   1      36.579  31.978  28.635  1.00  0.00     0.010 A 
ATOM     33  C   UNL A   1      36.859  30.650  29.004  1.00  0.00    -0.014 A 
BRANCH  33  34
ATOM     34  C   UNL A   1      38.063  30.307  29.808  1.00  0.00     0.031 A 
ATOM     35  C   UNL A   1      39.161  29.492  29.186  1.00  0.00     0.074 A 
ATOM     36  C   UNL A   1      38.218  30.773  31.063  1.00  0.00     0.049 A 
ATOM     37  N   UNL A   1      40.218  28.959  29.744  1.00  0.00    -0.248 NA
ATOM     38  C   UNL A   1      39.056  29.244  27.740  1.00  0.00     0.031 C 
ATOM     39  C   UNL A   1      37.284  31.652  31.767  1.00  0.00     0.029 A 
ATOM     40  N   UNL A   1      39.241  30.586  31.962  1.00  0.00    -0.354 N 
ATOM     41  C   UNL A   1      40.873  28.271  28.732  1.00  0.00     0.074 A 
ATOM     42  C   UNL A   1      40.101  28.461  27.522  1.00  0.00     0.031 C 
ATOM     43  C   UNL A   1      37.796  31.962  32.970  1.00  0.00     0.029 A 
ATOM     44  C   UNL A   1      39.056  31.247  33.153  1.00  0.00     0.049 A 
ATOM     45  H   UNL A   1      40.031  30.032  31.772  1.00  0.00     0.167 HD
ATOM     46  C   UNL A   1      42.010  27.541  28.806  1.00  0.00     0.037 A 
ATOM     47  C   UNL A   1      39.800  31.249  34.277  1.00  0.00     0.037 A 
ATOM     48  C   UNL A   1      42.807  27.388  29.993  1.00  0.00     0.049 A 
ATOM     49  C   UNL A   1      41.034  30.393  34.350  1.00  0.00     0.074 A 
ATOM     50  C   UNL A   1      43.953  26.632  30.174  1.00  0.00     0.029 A 
ATOM     51  N   UNL A   1      42.554  28.026  31.197  1.00  0.00    -0.354 N 
ATOM     52  N   UNL A   1      41.586  29.653  33.418  1.00  0.00    -0.248 NA
ATOM     53  C   UNL A   1      41.732  30.345  35.644  1.00  0.00     0.031 C 
ATOM     54  C   UNL A   1      44.382  26.796  31.497  1.00  0.00     0.029 A 
ATOM     55  C   UNL A   1      43.519  27.678  32.127  1.00  0.00     0.049 A 
ATOM     56  H   UNL A   1      41.799  28.635  31.365  1.00  0.00     0.167 HD
ATOM     57  C   UNL A   1      42.688  29.054  34.012  1.00  0.00     0.074 A 
ATOM     58  C   UNL A   1      42.749  29.537  35.376  1.00  0.00     0.031 C 
ATOM     59  C   UNL A   1      43.565  28.168  33.480  1.00  0.00     0.037 A 
BRANCH  46  60
ATOM     60  C   UNL A   1      42.429  26.806  27.569  1.00  0.00     0.057 A 
ATOM     61  C   UNL A   1      43.270  27.382  26.611  1.00  0.00     0.134 A 
ATOM     62  C   UNL A   1      41.989  25.496  27.346  1.00  0.00     0.134 A 
ATOM     63  F   UNL A   1      43.708  28.642  26.759  1.00  0.00    -0.206 F 
ATOM     64  C   UNL A   1      43.644  26.685  25.460  1.00  0.00     0.040 A 
ATOM     65  C   UNL A   1      42.372  24.782  26.210  1.00  0.00     0.040 A 
ATOM     66  F   UNL A   1      41.181  24.889  28.228  1.00  0.00    -0.206 F 
ATOM     67  C   UNL A   1      43.198  25.380  25.260  1.00  0.00     0.006 A 
ENDBRANCH  46  60
BRANCH  47  68
ATOM     68  C   UNL A   1      39.380  32.055  35.451  1.00  0.00     0.057 A 
ATOM     69  C   UNL A   1      38.526  31.522  36.424  1.00  0.00     0.134 A 
ATOM     70  C   UNL A   1      39.797  33.382  35.614  1.00  0.00     0.134 A 
ATOM     71  F   UNL A   1      38.069  30.267  36.305  1.00  0.00    -0.206 F 
ATOM     72  C   UNL A   1      38.095  32.281  37.512  1.00  0.00     0.040 A 
ATOM     73  C   UNL A   1      39.393  34.145  36.711  1.00  0.00     0.040 A 
ATOM     74  F   UNL A   1      40.609  33.952  34.713  1.00  0.00    -0.206 F 
ATOM     75  C   UNL A   1      38.534  33.596  37.661  1.00  0.00     0.006 A 
ENDBRANCH  47  68
BRANCH  59  76
ATOM     76  C   UNL A   1      44.664  27.674  34.370  1.00  0.00     0.057 A 
ATOM     77  C   UNL A   1      44.523  26.502  35.124  1.00  0.00     0.134 A 
ATOM     78  C   UNL A   1      45.886  28.353  34.447  1.00  0.00     0.134 A 
ATOM     79  F   UNL A   1      43.372  25.814  35.101  1.00  0.00    -0.206 F 
ATOM     80  C   UNL A   1      45.555  26.031  35.938  1.00  0.00     0.040 A 
ATOM     81  C   UNL A   1      46.931  27.883  35.243  1.00  0.00     0.040 A 
ATOM     82  F   UNL A   1      46.085  29.478  33.745  1.00  0.00    -0.206 F 
ATOM     83  C   UNL A   1      46.765  26.720  35.995  1.00  0.00     0.006 A 
ENDBRANCH  59  76
ENDBRANCH  33  34
ENDBRANCH  26  28
ENDBRANCH  25  26
ENDBRANCH  24  25
ENDBRANCH   1  24
TORSDOF 16
ENDMDL
