MODEL 1
REMARK VINA RESULT:     -12.6      0.000      0.000
REMARK SMILES Cc1ccc(-n2c(C)c(C[NH2+]Cc3ccc(F)cc3)c(C(=O)OCCOC(=O)c3ccc(-c4c5nc(c(-c6c(F)cccc6F)c6ccc([nH]6)c(-c6c(F)cccc6F)c6nc(c(-c7c(F)cccc7F)c7ccc4[nH]7)C=C6)C=C5)cc3)c2C)cc1
REMARK SMILES IDX 24 1 23 2 21 3 22 4 20 5 6 6 7 7 83 8 8 9 9 10 84 11 5 12
REMARK SMILES IDX 1 13 2 14 3 15 86 16 4 17 85 18 10 19 11 20 12 23 13 24
REMARK SMILES IDX 14 25 19 26 15 27 18 28 16 29 17 30 25 31 26 32 27 33 28 34
REMARK SMILES IDX 29 35 30 36 82 37 31 38 81 39 32 40 33 41 34 42 75 43 35 44
REMARK SMILES IDX 80 45 74 46 76 47 36 48 79 49 73 50 72 51 37 53 63 54 46 55
REMARK SMILES IDX 62 56 47 57 50 58 61 59 77 60 48 61 49 62 60 64 78 65 51 66
REMARK SMILES IDX 38 67 39 68 44 69 40 70 41 71 43 72 45 73 42 74 64 75 65 76
REMARK SMILES IDX 70 77 66 78 67 79 69 80 71 81 68 82 52 83 53 84 58 85 54 86
REMARK SMILES IDX 55 87 57 88 59 89 56 90
REMARK H PARENT 11 21 11 22 76 52 50 63
REMARK Flexibility Score: inf
ROOT
ATOM      1  C   UNL A   1      32.498  29.974  26.856  1.00  0.00     0.275 C 
ENDROOT
BRANCH   1   2
ATOM      2  O   UNL A   1      31.968  28.923  26.038  1.00  0.00    -0.458 OA
BRANCH   2   3
ATOM      3  C   UNL A   1      31.629  27.806  26.756  1.00  0.00     0.340 C 
ATOM      4  O   UNL A   1      31.379  27.806  27.956  1.00  0.00    -0.246 OA
BRANCH   3   5
ATOM      5  C   UNL A   1      31.893  26.574  26.041  1.00  0.00     0.090 A 
ATOM      6  N   UNL A   1      33.222  24.924  25.309  1.00  0.00    -0.317 N 
ATOM      7  C   UNL A   1      31.926  24.556  25.002  1.00  0.00     0.030 A 
ATOM      8  C   UNL A   1      33.211  26.182  25.865  1.00  0.00     0.035 A 
ATOM      9  C   UNL A   1      31.577  23.256  24.355  1.00  0.00     0.065 C 
ATOM     10  C   UNL A   1      31.059  25.510  25.558  1.00  0.00     0.042 A 
ATOM     11  C   UNL A   1      34.454  26.919  26.265  1.00  0.00     0.066 C 
BRANCH   6  12
ATOM     12  C   UNL A   1      34.386  24.131  25.245  1.00  0.00     0.046 A 
ATOM     13  C   UNL A   1      37.076  20.863  24.626  1.00  0.00     0.044 C 
ATOM     14  C   UNL A   1      36.209  22.064  24.862  1.00  0.00    -0.051 A 
ATOM     15  C   UNL A   1      35.623  22.272  26.123  1.00  0.00     0.005 A 
ATOM     16  C   UNL A   1      35.917  22.940  23.810  1.00  0.00     0.005 A 
ATOM     17  C   UNL A   1      34.709  23.309  26.323  1.00  0.00     0.027 A 
ATOM     18  C   UNL A   1      35.003  23.971  23.997  1.00  0.00     0.027 A 
ENDBRANCH   6  12
BRANCH  10  19
ATOM     19  C   UNL A   1      29.581  25.289  25.757  1.00  0.00     0.300 C 
BRANCH  19  20
ATOM     20  N   UNL A   1      28.781  25.955  24.744  1.00  0.00    -0.339 N 
ATOM     21  H   UNL A   1      28.153  26.608  25.213  1.00  0.00     0.346 HD
ATOM     22  H   UNL A   1      28.288  25.221  24.237  1.00  0.00     0.346 HD
BRANCH  20  23
ATOM     23  C   UNL A   1      29.558  26.703  23.746  1.00  0.00     0.297 C 
BRANCH  23  24
ATOM     24  C   UNL A   1      29.091  28.101  23.367  1.00  0.00     0.006 A 
ATOM     25  C   UNL A   1      27.727  28.359  23.128  1.00  0.00     0.012 A 
ATOM     26  C   UNL A   1      29.978  29.194  23.354  1.00  0.00     0.012 A 
ATOM     27  C   UNL A   1      27.274  29.664  22.886  1.00  0.00     0.040 A 
ATOM     28  C   UNL A   1      29.530  30.491  23.083  1.00  0.00     0.040 A 
ATOM     29  C   UNL A   1      28.180  30.716  22.857  1.00  0.00     0.123 A 
ATOM     30  F   UNL A   1      27.751  31.956  22.590  1.00  0.00    -0.207 F 
ENDBRANCH  23  24
ENDBRANCH  20  23
ENDBRANCH  19  20
ENDBRANCH  10  19
ENDBRANCH   3   5
ENDBRANCH   2   3
ENDBRANCH   1   2
BRANCH   1  31
ATOM     31  C   UNL A   1      34.025  30.046  26.821  1.00  0.00     0.275 C 
BRANCH  31  32
ATOM     32  O   UNL A   1      34.740  29.879  28.070  1.00  0.00    -0.458 OA
BRANCH  32  33
ATOM     33  C   UNL A   1      35.867  30.498  28.481  1.00  0.00     0.338 C 
ATOM     34  O   UNL A   1      35.858  31.628  28.957  1.00  0.00    -0.246 OA
BRANCH  33  35
ATOM     35  C   UNL A   1      37.133  29.754  28.423  1.00  0.00     0.060 A 
ATOM     36  C   UNL A   1      37.892  29.871  27.254  1.00  0.00     0.016 A 
ATOM     37  C   UNL A   1      37.585  28.976  29.486  1.00  0.00     0.016 A 
ATOM     38  C   UNL A   1      39.154  29.288  27.172  1.00  0.00     0.010 A 
ATOM     39  C   UNL A   1      38.848  28.394  29.407  1.00  0.00     0.010 A 
ATOM     40  C   UNL A   1      39.642  28.559  28.259  1.00  0.00    -0.014 A 
BRANCH  40  41
ATOM     41  C   UNL A   1      40.845  27.736  28.120  1.00  0.00     0.031 A 
ATOM     42  C   UNL A   1      40.828  26.260  27.939  1.00  0.00     0.074 A 
ATOM     43  C   UNL A   1      42.013  28.328  28.459  1.00  0.00     0.049 A 
ATOM     44  N   UNL A   1      41.635  25.453  28.556  1.00  0.00    -0.248 NA
ATOM     45  C   UNL A   1      39.891  25.571  27.057  1.00  0.00     0.031 C 
ATOM     46  C   UNL A   1      43.347  27.751  28.436  1.00  0.00     0.029 A 
ATOM     47  N   UNL A   1      42.154  29.497  29.214  1.00  0.00    -0.354 N 
ATOM     48  C   UNL A   1      41.527  24.219  27.956  1.00  0.00     0.074 A 
ATOM     49  C   UNL A   1      40.372  24.319  27.088  1.00  0.00     0.031 C 
ATOM     50  C   UNL A   1      44.073  28.349  29.396  1.00  0.00     0.029 A 
ATOM     51  C   UNL A   1      43.190  29.258  30.116  1.00  0.00     0.049 A 
ATOM     52  H   UNL A   1      41.625  30.323  29.126  1.00  0.00     0.167 HD
ATOM     53  C   UNL A   1      42.504  23.279  28.116  1.00  0.00     0.037 A 
ATOM     54  C   UNL A   1      43.083  29.376  31.468  1.00  0.00     0.037 A 
ATOM     55  C   UNL A   1      43.581  23.726  28.984  1.00  0.00     0.049 A 
ATOM     56  C   UNL A   1      43.595  28.181  32.219  1.00  0.00     0.074 A 
ATOM     57  C   UNL A   1      44.793  24.332  28.703  1.00  0.00     0.029 A 
ATOM     58  N   UNL A   1      43.389  23.840  30.355  1.00  0.00    -0.354 N 
ATOM     59  N   UNL A   1      43.683  26.990  31.703  1.00  0.00    -0.248 NA
ATOM     60  C   UNL A   1      43.986  28.219  33.626  1.00  0.00     0.031 C 
ATOM     61  C   UNL A   1      45.328  24.835  29.905  1.00  0.00     0.029 A 
ATOM     62  C   UNL A   1      44.443  24.529  30.922  1.00  0.00     0.049 A 
ATOM     63  H   UNL A   1      42.616  23.482  30.850  1.00  0.00     0.167 HD
ATOM     64  C   UNL A   1      44.195  26.133  32.642  1.00  0.00     0.074 A 
ATOM     65  C   UNL A   1      44.350  26.942  33.836  1.00  0.00     0.031 C 
ATOM     66  C   UNL A   1      44.486  24.837  32.339  1.00  0.00     0.037 A 
BRANCH  53  67
ATOM     67  C   UNL A   1      42.622  22.085  27.205  1.00  0.00     0.057 A 
ATOM     68  C   UNL A   1      41.806  20.947  27.373  1.00  0.00     0.134 A 
ATOM     69  C   UNL A   1      43.560  21.993  26.167  1.00  0.00     0.134 A 
ATOM     70  F   UNL A   1      40.828  20.904  28.286  1.00  0.00    -0.206 F 
ATOM     71  C   UNL A   1      41.971  19.775  26.628  1.00  0.00     0.040 A 
ATOM     72  C   UNL A   1      43.756  20.814  25.431  1.00  0.00     0.040 A 
ATOM     73  F   UNL A   1      44.322  23.047  25.836  1.00  0.00    -0.206 F 
ATOM     74  C   UNL A   1      42.968  19.693  25.671  1.00  0.00     0.006 A 
ENDBRANCH  53  67
BRANCH  54  75
ATOM     75  C   UNL A   1      41.962  30.211  31.957  1.00  0.00     0.057 A 
ATOM     76  C   UNL A   1      40.765  29.609  32.378  1.00  0.00     0.134 A 
ATOM     77  C   UNL A   1      42.168  31.544  32.315  1.00  0.00     0.134 A 
ATOM     78  F   UNL A   1      40.521  28.322  32.088  1.00  0.00    -0.206 F 
ATOM     79  C   UNL A   1      39.840  30.286  33.176  1.00  0.00     0.040 A 
ATOM     80  C   UNL A   1      41.261  32.218  33.129  1.00  0.00     0.040 A 
ATOM     81  F   UNL A   1      43.304  32.176  31.985  1.00  0.00    -0.206 F 
ATOM     82  C   UNL A   1      40.100  31.593  33.575  1.00  0.00     0.006 A 
ENDBRANCH  54  75
BRANCH  66  83
ATOM     83  C   UNL A   1      45.006  23.807  33.300  1.00  0.00     0.057 A 
ATOM     84  C   UNL A   1      46.289  23.839  33.858  1.00  0.00     0.134 A 
ATOM     85  C   UNL A   1      44.157  22.787  33.784  1.00  0.00     0.134 A 
ATOM     86  F   UNL A   1      47.157  24.814  33.552  1.00  0.00    -0.206 F 
ATOM     87  C   UNL A   1      46.721  22.887  34.792  1.00  0.00     0.040 A 
ATOM     88  C   UNL A   1      44.562  21.858  34.744  1.00  0.00     0.040 A 
ATOM     89  F   UNL A   1      42.895  22.654  33.349  1.00  0.00    -0.206 F 
ATOM     90  C   UNL A   1      45.855  21.897  35.243  1.00  0.00     0.006 A 
ENDBRANCH  66  83
ENDBRANCH  40  41
ENDBRANCH  33  35
ENDBRANCH  32  33
ENDBRANCH  31  32
ENDBRANCH   1  31
TORSDOF 16
ENDMDL
MODEL 2
REMARK VINA RESULT:     -12.4      3.987      9.613
REMARK SMILES Cc1ccc(-n2c(C)c(C[NH2+]Cc3ccc(F)cc3)c(C(=O)OCCOC(=O)c3ccc(-c4c5nc(c(-c6c(F)cccc6F)c6ccc([nH]6)c(-c6c(F)cccc6F)c6nc(c(-c7c(F)cccc7F)c7ccc4[nH]7)C=C6)C=C5)cc3)c2C)cc1
REMARK SMILES IDX 24 1 23 2 21 3 22 4 20 5 6 6 7 7 83 8 8 9 9 10 84 11 5 12
REMARK SMILES IDX 1 13 2 14 3 15 86 16 4 17 85 18 10 19 11 20 12 23 13 24
REMARK SMILES IDX 14 25 19 26 15 27 18 28 16 29 17 30 25 31 26 32 27 33 28 34
REMARK SMILES IDX 29 35 30 36 82 37 31 38 81 39 32 40 33 41 34 42 75 43 35 44
REMARK SMILES IDX 80 45 74 46 76 47 36 48 79 49 73 50 72 51 37 53 63 54 46 55
REMARK SMILES IDX 62 56 47 57 50 58 61 59 77 60 48 61 49 62 60 64 78 65 51 66
REMARK SMILES IDX 38 67 39 68 44 69 40 70 41 71 43 72 45 73 42 74 64 75 65 76
REMARK SMILES IDX 70 77 66 78 67 79 69 80 71 81 68 82 52 83 53 84 58 85 54 86
REMARK SMILES IDX 55 87 57 88 59 89 56 90
REMARK H PARENT 11 21 11 22 76 52 50 63
REMARK Flexibility Score: inf
ROOT
ATOM      1  C   UNL A   1      36.899  23.300  24.828  1.00  0.00     0.275 C 
ENDROOT
BRANCH   1   2
ATOM      2  O   UNL A   1      35.993  24.295  24.332  1.00  0.00    -0.458 OA
BRANCH   2   3
ATOM      3  C   UNL A   1      34.771  23.781  23.988  1.00  0.00     0.340 C 
ATOM      4  O   UNL A   1      34.598  22.929  23.125  1.00  0.00    -0.246 OA
BRANCH   3   5
ATOM      5  C   UNL A   1      33.665  24.553  24.517  1.00  0.00     0.090 A 
ATOM      6  N   UNL A   1      32.191  26.240  24.467  1.00  0.00    -0.317 N 
ATOM      7  C   UNL A   1      31.819  25.419  25.514  1.00  0.00     0.030 A 
ATOM      8  C   UNL A   1      33.355  25.762  23.914  1.00  0.00     0.035 A 
ATOM      9  C   UNL A   1      30.611  25.666  26.357  1.00  0.00     0.065 C 
ATOM     10  C   UNL A   1      32.648  24.287  25.495  1.00  0.00     0.042 A 
ATOM     11  C   UNL A   1      34.077  26.444  22.791  1.00  0.00     0.066 C 
BRANCH   6  12
ATOM     12  C   UNL A   1      31.462  27.308  23.902  1.00  0.00     0.046 A 
ATOM     13  C   UNL A   1      28.496  30.305  23.188  1.00  0.00     0.044 C 
ATOM     14  C   UNL A   1      29.587  29.292  23.366  1.00  0.00    -0.051 A 
ATOM     15  C   UNL A   1      29.479  28.027  22.761  1.00  0.00     0.005 A 
ATOM     16  C   UNL A   1      30.679  29.571  24.196  1.00  0.00     0.005 A 
ATOM     17  C   UNL A   1      30.418  27.027  23.023  1.00  0.00     0.027 A 
ATOM     18  C   UNL A   1      31.616  28.579  24.470  1.00  0.00     0.027 A 
ENDBRANCH   6  12
BRANCH  10  19
ATOM     19  C   UNL A   1      32.342  23.007  26.231  1.00  0.00     0.300 C 
BRANCH  19  20
ATOM     20  N   UNL A   1      33.024  21.861  25.656  1.00  0.00    -0.339 N 
ATOM     21  H   UNL A   1      33.390  21.292  26.418  1.00  0.00     0.346 HD
ATOM     22  H   UNL A   1      33.755  22.235  25.049  1.00  0.00     0.346 HD
BRANCH  20  23
ATOM     23  C   UNL A   1      32.179  21.007  24.810  1.00  0.00     0.297 C 
BRANCH  23  24
ATOM     24  C   UNL A   1      32.791  19.746  24.218  1.00  0.00     0.006 A 
ATOM     25  C   UNL A   1      33.944  19.175  24.789  1.00  0.00     0.012 A 
ATOM     26  C   UNL A   1      32.167  19.052  23.163  1.00  0.00     0.012 A 
ATOM     27  C   UNL A   1      34.451  17.955  24.318  1.00  0.00     0.040 A 
ATOM     28  C   UNL A   1      32.690  17.850  22.674  1.00  0.00     0.040 A 
ATOM     29  C   UNL A   1      33.824  17.309  23.260  1.00  0.00     0.123 A 
ATOM     30  F   UNL A   1      34.331  16.162  22.787  1.00  0.00    -0.207 F 
ENDBRANCH  23  24
ENDBRANCH  20  23
ENDBRANCH  19  20
ENDBRANCH  10  19
ENDBRANCH   3   5
ENDBRANCH   2   3
ENDBRANCH   1   2
BRANCH   1  31
ATOM     31  C   UNL A   1      37.622  23.733  26.104  1.00  0.00     0.275 C 
BRANCH  31  32
ATOM     32  O   UNL A   1      38.997  23.311  26.279  1.00  0.00    -0.458 OA
BRANCH  32  33
ATOM     33  C   UNL A   1      40.046  24.032  26.730  1.00  0.00     0.338 C 
ATOM     34  O   UNL A   1      41.204  23.756  26.441  1.00  0.00    -0.246 OA
BRANCH  33  35
ATOM     35  C   UNL A   1      39.772  25.233  27.533  1.00  0.00     0.060 A 
ATOM     36  C   UNL A   1      39.973  26.473  26.920  1.00  0.00     0.016 A 
ATOM     37  C   UNL A   1      39.311  25.157  28.845  1.00  0.00     0.016 A 
ATOM     38  C   UNL A   1      39.625  27.649  27.579  1.00  0.00     0.010 A 
ATOM     39  C   UNL A   1      38.961  26.332  29.506  1.00  0.00     0.010 A 
ATOM     40  C   UNL A   1      39.102  27.579  28.873  1.00  0.00    -0.014 A 
BRANCH  40  41
ATOM     41  C   UNL A   1      38.958  28.791  29.681  1.00  0.00     0.031 A 
ATOM     42  C   UNL A   1      38.022  29.901  29.358  1.00  0.00     0.074 A 
ATOM     43  C   UNL A   1      39.930  29.017  30.594  1.00  0.00     0.049 A 
ATOM     44  N   UNL A   1      38.339  31.156  29.448  1.00  0.00    -0.248 NA
ATOM     45  C   UNL A   1      36.655  29.688  28.893  1.00  0.00     0.031 C 
ATOM     46  C   UNL A   1      40.052  30.137  31.512  1.00  0.00     0.029 A 
ATOM     47  N   UNL A   1      41.187  28.406  30.623  1.00  0.00    -0.354 N 
ATOM     48  C   UNL A   1      37.178  31.887  29.344  1.00  0.00     0.074 A 
ATOM     49  C   UNL A   1      36.170  30.939  28.916  1.00  0.00     0.031 C 
ATOM     50  C   UNL A   1      41.359  30.344  31.741  1.00  0.00     0.029 A 
ATOM     51  C   UNL A   1      42.107  29.417  30.901  1.00  0.00     0.049 A 
ATOM     52  H   UNL A   1      41.384  27.452  30.476  1.00  0.00     0.167 HD
ATOM     53  C   UNL A   1      37.127  33.179  29.779  1.00  0.00     0.037 A 
ATOM     54  C   UNL A   1      43.182  29.721  30.123  1.00  0.00     0.037 A 
ATOM     55  C   UNL A   1      38.401  33.652  30.296  1.00  0.00     0.049 A 
ATOM     56  C   UNL A   1      43.297  31.183  29.799  1.00  0.00     0.074 A 
ATOM     57  C   UNL A   1      38.915  33.681  31.581  1.00  0.00     0.029 A 
ATOM     58  N   UNL A   1      39.460  33.924  29.439  1.00  0.00    -0.354 N 
ATOM     59  N   UNL A   1      42.289  32.006  29.819  1.00  0.00    -0.248 NA
ATOM     60  C   UNL A   1      44.539  31.819  29.369  1.00  0.00     0.031 C 
ATOM     61  C   UNL A   1      40.296  33.948  31.502  1.00  0.00     0.029 A 
ATOM     62  C   UNL A   1      40.623  34.090  30.166  1.00  0.00     0.049 A 
ATOM     63  H   UNL A   1      39.393  33.988  28.459  1.00  0.00     0.167 HD
ATOM     64  C   UNL A   1      42.731  33.260  29.487  1.00  0.00     0.074 A 
ATOM     65  C   UNL A   1      44.141  33.091  29.194  1.00  0.00     0.031 C 
ATOM     66  C   UNL A   1      41.900  34.340  29.525  1.00  0.00     0.037 A 
BRANCH  53  67
ATOM     67  C   UNL A   1      35.822  33.888  30.033  1.00  0.00     0.057 A 
ATOM     68  C   UNL A   1      35.048  34.406  28.974  1.00  0.00     0.134 A 
ATOM     69  C   UNL A   1      35.304  34.121  31.315  1.00  0.00     0.134 A 
ATOM     70  F   UNL A   1      35.382  34.218  27.692  1.00  0.00    -0.206 F 
ATOM     71  C   UNL A   1      33.897  35.175  29.178  1.00  0.00     0.040 A 
ATOM     72  C   UNL A   1      34.168  34.915  31.535  1.00  0.00     0.040 A 
ATOM     73  F   UNL A   1      35.890  33.588  32.398  1.00  0.00    -0.206 F 
ATOM     74  C   UNL A   1      33.467  35.458  30.463  1.00  0.00     0.006 A 
ENDBRANCH  53  67
BRANCH  54  75
ATOM     75  C   UNL A   1      43.631  28.658  29.196  1.00  0.00     0.057 A 
ATOM     76  C   UNL A   1      44.301  27.527  29.691  1.00  0.00     0.134 A 
ATOM     77  C   UNL A   1      43.132  28.588  27.895  1.00  0.00     0.134 A 
ATOM     78  F   UNL A   1      44.781  27.523  30.943  1.00  0.00    -0.206 F 
ATOM     79  C   UNL A   1      44.414  26.352  28.944  1.00  0.00     0.040 A 
ATOM     80  C   UNL A   1      43.221  27.412  27.154  1.00  0.00     0.040 A 
ATOM     81  F   UNL A   1      42.445  29.612  27.366  1.00  0.00    -0.206 F 
ATOM     82  C   UNL A   1      43.849  26.285  27.675  1.00  0.00     0.006 A 
ENDBRANCH  54  75
BRANCH  66  83
ATOM     83  C   UNL A   1      42.268  35.744  29.141  1.00  0.00     0.057 A 
ATOM     84  C   UNL A   1      43.158  36.543  29.869  1.00  0.00     0.134 A 
ATOM     85  C   UNL A   1      41.803  36.300  27.929  1.00  0.00     0.134 A 
ATOM     86  F   UNL A   1      43.743  36.092  30.987  1.00  0.00    -0.206 F 
ATOM     87  C   UNL A   1      43.517  37.832  29.451  1.00  0.00     0.040 A 
ATOM     88  C   UNL A   1      42.185  37.566  27.482  1.00  0.00     0.040 A 
ATOM     89  F   UNL A   1      40.962  35.633  27.125  1.00  0.00    -0.206 F 
ATOM     90  C   UNL A   1      43.036  38.344  28.250  1.00  0.00     0.006 A 
ENDBRANCH  66  83
ENDBRANCH  40  41
ENDBRANCH  33  35
ENDBRANCH  32  33
ENDBRANCH  31  32
ENDBRANCH   1  31
TORSDOF 16
ENDMDL
MODEL 3
REMARK VINA RESULT:     -12.3      3.780      9.130
REMARK SMILES Cc1ccc(-n2c(C)c(C[NH2+]Cc3ccc(F)cc3)c(C(=O)OCCOC(=O)c3ccc(-c4c5nc(c(-c6c(F)cccc6F)c6ccc([nH]6)c(-c6c(F)cccc6F)c6nc(c(-c7c(F)cccc7F)c7ccc4[nH]7)C=C6)C=C5)cc3)c2C)cc1
REMARK SMILES IDX 24 1 23 2 21 3 22 4 20 5 6 6 7 7 83 8 8 9 9 10 84 11 5 12
REMARK SMILES IDX 1 13 2 14 3 15 86 16 4 17 85 18 10 19 11 20 12 23 13 24
REMARK SMILES IDX 14 25 19 26 15 27 18 28 16 29 17 30 25 31 26 32 27 33 28 34
REMARK SMILES IDX 29 35 30 36 82 37 31 38 81 39 32 40 33 41 34 42 75 43 35 44
REMARK SMILES IDX 80 45 74 46 76 47 36 48 79 49 73 50 72 51 37 53 63 54 46 55
REMARK SMILES IDX 62 56 47 57 50 58 61 59 77 60 48 61 49 62 60 64 78 65 51 66
REMARK SMILES IDX 38 67 39 68 44 69 40 70 41 71 43 72 45 73 42 74 64 75 65 76
REMARK SMILES IDX 70 77 66 78 67 79 69 80 71 81 68 82 52 83 53 84 58 85 54 86
REMARK SMILES IDX 55 87 57 88 59 89 56 90
REMARK H PARENT 11 21 11 22 76 52 50 63
REMARK Flexibility Score: inf
ROOT
ATOM      1  C   UNL A   1      36.089  22.905  24.052  1.00  0.00     0.275 C 
ENDROOT
BRANCH   1   2
ATOM      2  O   UNL A   1      35.906  23.770  25.181  1.00  0.00    -0.458 OA
BRANCH   2   3
ATOM      3  C   UNL A   1      34.771  23.484  25.893  1.00  0.00     0.340 C 
ATOM      4  O   UNL A   1      34.727  22.713  26.844  1.00  0.00    -0.246 OA
BRANCH   3   5
ATOM      5  C   UNL A   1      33.563  23.935  25.232  1.00  0.00     0.090 A 
ATOM      6  N   UNL A   1      32.179  25.508  24.437  1.00  0.00    -0.317 N 
ATOM      7  C   UNL A   1      31.686  24.291  24.007  1.00  0.00     0.030 A 
ATOM      8  C   UNL A   1      33.269  25.290  25.246  1.00  0.00     0.035 A 
ATOM      9  C   UNL A   1      30.483  24.159  23.131  1.00  0.00     0.065 C 
ATOM     10  C   UNL A   1      32.599  23.294  24.383  1.00  0.00     0.042 A 
ATOM     11  C   UNL A   1      34.017  26.389  25.937  1.00  0.00     0.066 C 
BRANCH   6  12
ATOM     12  C   UNL A   1      31.784  26.798  24.023  1.00  0.00     0.046 A 
ATOM     13  C   UNL A   1      29.848  30.022  21.987  1.00  0.00     0.044 C 
ATOM     14  C   UNL A   1      30.566  28.956  22.760  1.00  0.00    -0.051 A 
ATOM     15  C   UNL A   1      31.802  28.468  22.302  1.00  0.00     0.005 A 
ATOM     16  C   UNL A   1      29.976  28.390  23.895  1.00  0.00     0.005 A 
ATOM     17  C   UNL A   1      32.421  27.386  22.932  1.00  0.00     0.027 A 
ATOM     18  C   UNL A   1      30.580  27.307  24.526  1.00  0.00     0.027 A 
ENDBRANCH   6  12
BRANCH  10  19
ATOM     19  C   UNL A   1      32.614  21.903  23.801  1.00  0.00     0.300 C 
BRANCH  19  20
ATOM     20  N   UNL A   1      32.787  20.880  24.817  1.00  0.00    -0.339 N 
ATOM     21  H   UNL A   1      31.950  20.298  24.830  1.00  0.00     0.346 HD
ATOM     22  H   UNL A   1      32.946  21.371  25.697  1.00  0.00     0.346 HD
BRANCH  20  23
ATOM     23  C   UNL A   1      33.950  20.006  24.613  1.00  0.00     0.297 C 
BRANCH  23  24
ATOM     24  C   UNL A   1      33.782  18.513  24.856  1.00  0.00     0.006 A 
ATOM     25  C   UNL A   1      32.687  18.028  25.598  1.00  0.00     0.012 A 
ATOM     26  C   UNL A   1      34.641  17.569  24.260  1.00  0.00     0.012 A 
ATOM     27  C   UNL A   1      32.465  16.650  25.734  1.00  0.00     0.040 A 
ATOM     28  C   UNL A   1      34.435  16.195  24.422  1.00  0.00     0.040 A 
ATOM     29  C   UNL A   1      33.346  15.747  25.152  1.00  0.00     0.123 A 
ATOM     30  F   UNL A   1      33.153  14.431  25.315  1.00  0.00    -0.207 F 
ENDBRANCH  23  24
ENDBRANCH  20  23
ENDBRANCH  19  20
ENDBRANCH  10  19
ENDBRANCH   3   5
ENDBRANCH   2   3
ENDBRANCH   1   2
BRANCH   1  31
ATOM     31  C   UNL A   1      37.221  21.896  24.250  1.00  0.00     0.275 C 
BRANCH  31  32
ATOM     32  O   UNL A   1      37.719  21.693  25.596  1.00  0.00    -0.458 OA
BRANCH  32  33
ATOM     33  C   UNL A   1      39.000  21.582  26.009  1.00  0.00     0.338 C 
ATOM     34  O   UNL A   1      39.687  20.599  25.758  1.00  0.00    -0.246 OA
BRANCH  33  35
ATOM     35  C   UNL A   1      39.604  22.718  26.718  1.00  0.00     0.060 A 
ATOM     36  C   UNL A   1      40.629  22.436  27.627  1.00  0.00     0.016 A 
ATOM     37  C   UNL A   1      39.202  24.032  26.491  1.00  0.00     0.016 A 
ATOM     38  C   UNL A   1      41.325  23.469  28.248  1.00  0.00     0.010 A 
ATOM     39  C   UNL A   1      39.898  25.068  27.110  1.00  0.00     0.010 A 
ATOM     40  C   UNL A   1      40.970  24.792  27.977  1.00  0.00    -0.014 A 
BRANCH  40  41
ATOM     41  C   UNL A   1      41.508  25.885  28.789  1.00  0.00     0.031 A 
ATOM     42  C   UNL A   1      40.780  27.150  29.072  1.00  0.00     0.074 A 
ATOM     43  C   UNL A   1      42.836  25.839  29.043  1.00  0.00     0.049 A 
ATOM     44  N   UNL A   1      41.336  28.322  29.033  1.00  0.00    -0.248 NA
ATOM     45  C   UNL A   1      39.360  27.201  29.408  1.00  0.00     0.031 C 
ATOM     46  C   UNL A   1      43.635  26.788  29.800  1.00  0.00     0.029 A 
ATOM     47  N   UNL A   1      43.776  25.059  28.363  1.00  0.00    -0.354 N 
ATOM     48  C   UNL A   1      40.460  29.218  29.603  1.00  0.00     0.074 A 
ATOM     49  C   UNL A   1      39.215  28.492  29.743  1.00  0.00     0.031 C 
ATOM     50  C   UNL A   1      44.881  26.774  29.297  1.00  0.00     0.029 A 
ATOM     51  C   UNL A   1      44.882  25.880  28.146  1.00  0.00     0.049 A 
ATOM     52  H   UNL A   1      43.676  24.118  28.091  1.00  0.00     0.167 HD
ATOM     53  C   UNL A   1      40.898  30.428  30.054  1.00  0.00     0.037 A 
ATOM     54  C   UNL A   1      45.429  26.137  26.926  1.00  0.00     0.037 A 
ATOM     55  C   UNL A   1      42.318  30.638  29.823  1.00  0.00     0.049 A 
ATOM     56  C   UNL A   1      45.641  27.599  26.657  1.00  0.00     0.074 A 
ATOM     57  C   UNL A   1      43.420  30.410  30.629  1.00  0.00     0.029 A 
ATOM     58  N   UNL A   1      42.803  30.877  28.544  1.00  0.00    -0.354 N 
ATOM     59  N   UNL A   1      44.975  28.544  27.253  1.00  0.00    -0.248 NA
ATOM     60  C   UNL A   1      46.572  28.108  25.653  1.00  0.00     0.031 C 
ATOM     61  C   UNL A   1      44.578  30.489  29.830  1.00  0.00     0.029 A 
ATOM     62  C   UNL A   1      44.180  30.772  28.537  1.00  0.00     0.049 A 
ATOM     63  H   UNL A   1      42.248  31.089  27.759  1.00  0.00     0.167 HD
ATOM     64  C   UNL A   1      45.415  29.758  26.792  1.00  0.00     0.074 A 
ATOM     65  C   UNL A   1      46.400  29.435  25.778  1.00  0.00     0.031 C 
ATOM     66  C   UNL A   1      44.955  30.928  27.320  1.00  0.00     0.037 A 
BRANCH  53  67
ATOM     67  C   UNL A   1      40.084  31.271  31.003  1.00  0.00     0.057 A 
ATOM     68  C   UNL A   1      40.250  31.175  32.399  1.00  0.00     0.134 A 
ATOM     69  C   UNL A   1      39.089  32.166  30.584  1.00  0.00     0.134 A 
ATOM     70  F   UNL A   1      41.195  30.404  32.951  1.00  0.00    -0.206 F 
ATOM     71  C   UNL A   1      39.430  31.847  33.312  1.00  0.00     0.040 A 
ATOM     72  C   UNL A   1      38.241  32.824  31.488  1.00  0.00     0.040 A 
ATOM     73  F   UNL A   1      38.906  32.427  29.281  1.00  0.00    -0.206 F 
ATOM     74  C   UNL A   1      38.400  32.655  32.859  1.00  0.00     0.006 A 
ENDBRANCH  53  67
BRANCH  54  75
ATOM     75  C   UNL A   1      45.111  25.164  25.857  1.00  0.00     0.057 A 
ATOM     76  C   UNL A   1      45.982  24.095  25.592  1.00  0.00     0.134 A 
ATOM     77  C   UNL A   1      43.824  25.088  25.321  1.00  0.00     0.134 A 
ATOM     78  F   UNL A   1      47.223  24.096  26.101  1.00  0.00    -0.206 F 
ATOM     79  C   UNL A   1      45.570  22.967  24.878  1.00  0.00     0.040 A 
ATOM     80  C   UNL A   1      43.400  23.957  24.626  1.00  0.00     0.040 A 
ATOM     81  F   UNL A   1      42.921  26.050  25.562  1.00  0.00    -0.206 F 
ATOM     82  C   UNL A   1      44.263  22.886  24.411  1.00  0.00     0.006 A 
ENDBRANCH  54  75
BRANCH  66  83
ATOM     83  C   UNL A   1      45.336  32.306  26.861  1.00  0.00     0.057 A 
ATOM     84  C   UNL A   1      46.512  32.960  27.248  1.00  0.00     0.134 A 
ATOM     85  C   UNL A   1      44.551  32.982  25.901  1.00  0.00     0.134 A 
ATOM     86  F   UNL A   1      47.388  32.380  28.080  1.00  0.00    -0.206 F 
ATOM     87  C   UNL A   1      46.857  34.226  26.757  1.00  0.00     0.040 A 
ATOM     88  C   UNL A   1      44.905  34.226  25.375  1.00  0.00     0.040 A 
ATOM     89  F   UNL A   1      43.409  32.460  25.429  1.00  0.00    -0.206 F 
ATOM     90  C   UNL A   1      46.057  34.860  25.813  1.00  0.00     0.006 A 
ENDBRANCH  66  83
ENDBRANCH  40  41
ENDBRANCH  33  35
ENDBRANCH  32  33
ENDBRANCH  31  32
ENDBRANCH   1  31
TORSDOF 16
ENDMDL
