MODEL 1
REMARK VINA RESULT:     -11.5      0.000      0.000
REMARK SMILES C[C@H]1CC[C@H](CNC(=O)NCc2ccc(C(=O)OCCOC(=O)c3ccc(-c4c5nc(c(-c6c(F)cccc6F)c6ccc([nH]6)c(-c6c(F)cccc6F)c6nc(c(-c7c(F)cccc7F)c7ccc4[nH]7)C=C6)C=C5)cc3)o2)CC1
REMARK SMILES IDX 19 1 18 2 16 3 17 4 15 5 12 6 13 7 78 8 14 9 11 10 10 11
REMARK SMILES IDX 7 12 8 13 9 15 6 17 5 18 1 19 2 20 80 21 3 22 79 23 4 24
REMARK SMILES IDX 20 25 21 26 22 27 23 28 24 29 25 30 77 31 26 32 76 33 27 34
REMARK SMILES IDX 28 35 29 36 70 37 30 38 75 39 69 40 71 41 31 42 74 43 68 44
REMARK SMILES IDX 67 45 32 47 58 48 41 49 57 50 42 51 45 52 56 53 72 54 43 55
REMARK SMILES IDX 44 56 55 58 73 59 46 60 33 61 34 62 39 63 35 64 36 65 38 66
REMARK SMILES IDX 40 67 37 68 59 69 60 70 65 71 61 72 62 73 64 74 66 75 63 76
REMARK SMILES IDX 47 77 48 78 53 79 49 80 50 81 52 82 54 83 51 84
REMARK H PARENT 7 14 10 16 71 46 45 57
REMARK Flexibility Score: inf
ROOT
ATOM      1  C   UNL A   1      34.292  33.904  29.992  1.00  0.00     0.275 C 
ENDROOT
BRANCH   1   2
ATOM      2  O   UNL A   1      34.065  32.655  29.311  1.00  0.00    -0.456 OA
BRANCH   2   3
ATOM      3  C   UNL A   1      34.708  32.492  28.116  1.00  0.00     0.374 C 
ATOM      4  O   UNL A   1      35.416  33.345  27.592  1.00  0.00    -0.242 OA
BRANCH   3   5
ATOM      5  C   UNL A   1      34.499  31.150  27.620  1.00  0.00     0.211 A 
ATOM      6  C   UNL A   1      33.635  29.665  26.220  1.00  0.00     0.124 A 
ATOM      7  C   UNL A   1      34.555  28.988  26.992  1.00  0.00     0.048 A 
ATOM      8  O   UNL A   1      33.557  30.963  26.639  1.00  0.00    -0.452 OA
ATOM      9  C   UNL A   1      35.112  29.939  27.885  1.00  0.00     0.058 A 
BRANCH   6  10
ATOM     10  C   UNL A   1      32.750  29.245  25.096  1.00  0.00     0.193 C 
BRANCH  10  11
ATOM     11  N   UNL A   1      33.519  29.056  23.887  1.00  0.00    -0.331 N 
ATOM     12  N   UNL A   1      33.751  26.731  23.560  1.00  0.00    -0.338 N 
ATOM     13  C   UNL A   1      33.785  27.994  23.124  1.00  0.00     0.315 C 
ATOM     14  H   UNL A   1      33.735  26.067  22.832  1.00  0.00     0.165 HD
ATOM     15  O   UNL A   1      34.110  28.191  21.952  1.00  0.00    -0.249 OA
ATOM     16  H   UNL A   1      33.935  29.885  23.557  1.00  0.00     0.165 HD
BRANCH  12  17
ATOM     17  C   UNL A   1      33.735  26.134  24.882  1.00  0.00     0.121 C 
BRANCH  17  18
ATOM     18  C   UNL A   1      34.706  24.943  24.956  1.00  0.00     0.008 C 
ATOM     19  C   UNL A   1      36.198  20.816  24.930  1.00  0.00     0.007 C 
ATOM     20  C   UNL A   1      35.253  22.013  24.861  1.00  0.00    -0.014 C 
ATOM     21  C   UNL A   1      35.634  22.944  23.704  1.00  0.00     0.003 C 
ATOM     22  C   UNL A   1      35.252  22.780  26.189  1.00  0.00     0.003 C 
ATOM     23  C   UNL A   1      34.712  24.162  23.635  1.00  0.00     0.006 C 
ATOM     24  C   UNL A   1      34.348  24.012  26.129  1.00  0.00     0.006 C 
ENDBRANCH  17  18
ENDBRANCH  12  17
ENDBRANCH  10  11
ENDBRANCH   6  10
ENDBRANCH   3   5
ENDBRANCH   2   3
ENDBRANCH   1   2
BRANCH   1  25
ATOM     25  C   UNL A   1      34.503  33.687  31.494  1.00  0.00     0.275 C 
BRANCH  25  26
ATOM     26  O   UNL A   1      34.861  32.325  31.792  1.00  0.00    -0.458 OA
BRANCH  26  27
ATOM     27  C   UNL A   1      35.926  32.170  32.614  1.00  0.00     0.338 C 
ATOM     28  O   UNL A   1      35.973  32.406  33.810  1.00  0.00    -0.246 OA
BRANCH  27  29
ATOM     29  C   UNL A   1      37.028  31.535  31.873  1.00  0.00     0.060 A 
ATOM     30  C   UNL A   1      38.009  30.860  32.603  1.00  0.00     0.016 A 
ATOM     31  C   UNL A   1      37.130  31.646  30.484  1.00  0.00     0.016 A 
ATOM     32  C   UNL A   1      39.096  30.294  31.947  1.00  0.00     0.010 A 
ATOM     33  C   UNL A   1      38.233  31.086  29.829  1.00  0.00     0.010 A 
ATOM     34  C   UNL A   1      39.229  30.418  30.560  1.00  0.00    -0.014 A 
BRANCH  34  35
ATOM     35  C   UNL A   1      40.450  29.908  29.895  1.00  0.00     0.031 A 
ATOM     36  C   UNL A   1      41.627  30.820  29.712  1.00  0.00     0.074 A 
ATOM     37  C   UNL A   1      40.516  28.629  29.487  1.00  0.00     0.049 A 
ATOM     38  N   UNL A   1      42.749  30.611  29.072  1.00  0.00    -0.248 NA
ATOM     39  C   UNL A   1      41.527  32.151  30.332  1.00  0.00     0.031 C 
ATOM     40  C   UNL A   1      39.469  27.626  29.677  1.00  0.00     0.029 A 
ATOM     41  N   UNL A   1      41.512  27.955  28.826  1.00  0.00    -0.354 N 
ATOM     42  C   UNL A   1      43.478  31.787  29.191  1.00  0.00     0.074 A 
ATOM     43  C   UNL A   1      42.667  32.711  29.954  1.00  0.00     0.031 C 
ATOM     44  C   UNL A   1      39.875  26.464  29.140  1.00  0.00     0.029 A 
ATOM     45  C   UNL A   1      41.190  26.653  28.533  1.00  0.00     0.049 A 
ATOM     46  H   UNL A   1      42.375  28.366  28.585  1.00  0.00     0.167 HD
ATOM     47  C   UNL A   1      44.710  32.066  28.705  1.00  0.00     0.037 A 
ATOM     48  C   UNL A   1      41.870  25.728  27.830  1.00  0.00     0.037 A 
ATOM     49  C   UNL A   1      45.518  31.136  27.961  1.00  0.00     0.049 A 
ATOM     50  C   UNL A   1      43.211  26.082  27.250  1.00  0.00     0.074 A 
ATOM     51  C   UNL A   1      46.779  31.326  27.422  1.00  0.00     0.029 A 
ATOM     52  N   UNL A   1      45.144  29.836  27.655  1.00  0.00    -0.354 N 
ATOM     53  N   UNL A   1      43.880  27.205  27.340  1.00  0.00    -0.248 NA
ATOM     54  C   UNL A   1      43.889  25.041  26.463  1.00  0.00     0.031 C 
ATOM     55  C   UNL A   1      47.154  30.151  26.761  1.00  0.00     0.029 A 
ATOM     56  C   UNL A   1      46.144  29.217  26.922  1.00  0.00     0.049 A 
ATOM     57  H   UNL A   1      44.294  29.415  27.920  1.00  0.00     0.167 HD
ATOM     58  C   UNL A   1      45.064  27.000  26.645  1.00  0.00     0.074 A 
ATOM     59  C   UNL A   1      45.026  25.642  26.144  1.00  0.00     0.031 C 
ATOM     60  C   UNL A   1      46.091  27.861  26.439  1.00  0.00     0.037 A 
BRANCH  47  61
ATOM     61  C   UNL A   1      45.242  33.448  28.934  1.00  0.00     0.057 A 
ATOM     62  C   UNL A   1      46.033  33.764  30.045  1.00  0.00     0.134 A 
ATOM     63  C   UNL A   1      44.977  34.472  28.015  1.00  0.00     0.134 A 
ATOM     64  F   UNL A   1      46.308  32.833  30.971  1.00  0.00    -0.206 F 
ATOM     65  C   UNL A   1      46.528  35.055  30.243  1.00  0.00     0.040 A 
ATOM     66  C   UNL A   1      45.483  35.760  28.190  1.00  0.00     0.040 A 
ATOM     67  F   UNL A   1      44.227  34.233  26.929  1.00  0.00    -0.206 F 
ATOM     68  C   UNL A   1      46.257  36.055  29.311  1.00  0.00     0.006 A 
ENDBRANCH  47  61
BRANCH  48  69
ATOM     69  C   UNL A   1      41.279  24.384  27.611  1.00  0.00     0.057 A 
ATOM     70  C   UNL A   1      41.736  23.268  28.319  1.00  0.00     0.134 A 
ATOM     71  C   UNL A   1      40.251  24.185  26.683  1.00  0.00     0.134 A 
ATOM     72  F   UNL A   1      42.738  23.390  29.202  1.00  0.00    -0.206 F 
ATOM     73  C   UNL A   1      41.197  21.998  28.106  1.00  0.00     0.040 A 
ATOM     74  C   UNL A   1      39.687  22.926  26.476  1.00  0.00     0.040 A 
ATOM     75  F   UNL A   1      39.773  25.215  25.969  1.00  0.00    -0.206 F 
ATOM     76  C   UNL A   1      40.165  21.826  27.185  1.00  0.00     0.006 A 
ENDBRANCH  48  69
BRANCH  60  77
ATOM     77  C   UNL A   1      47.272  27.347  25.671  1.00  0.00     0.057 A 
ATOM     78  C   UNL A   1      48.308  26.643  26.296  1.00  0.00     0.134 A 
ATOM     79  C   UNL A   1      47.349  27.523  24.284  1.00  0.00     0.134 A 
ATOM     80  F   UNL A   1      48.297  26.453  27.624  1.00  0.00    -0.206 F 
ATOM     81  C   UNL A   1      49.391  26.147  25.570  1.00  0.00     0.040 A 
ATOM     82  C   UNL A   1      48.417  27.013  23.545  1.00  0.00     0.040 A 
ATOM     83  F   UNL A   1      46.384  28.181  23.626  1.00  0.00    -0.206 F 
ATOM     84  C   UNL A   1      49.444  26.326  24.189  1.00  0.00     0.006 A 
ENDBRANCH  60  77
ENDBRANCH  34  35
ENDBRANCH  27  29
ENDBRANCH  26  27
ENDBRANCH  25  26
ENDBRANCH   1  25
TORSDOF 15
ENDMDL
MODEL 2
REMARK VINA RESULT:     -11.5      5.113      9.929
REMARK SMILES C[C@H]1CC[C@H](CNC(=O)NCc2ccc(C(=O)OCCOC(=O)c3ccc(-c4c5nc(c(-c6c(F)cccc6F)c6ccc([nH]6)c(-c6c(F)cccc6F)c6nc(c(-c7c(F)cccc7F)c7ccc4[nH]7)C=C6)C=C5)cc3)o2)CC1
REMARK SMILES IDX 19 1 18 2 16 3 17 4 15 5 12 6 13 7 78 8 14 9 11 10 10 11
REMARK SMILES IDX 7 12 8 13 9 15 6 17 5 18 1 19 2 20 80 21 3 22 79 23 4 24
REMARK SMILES IDX 20 25 21 26 22 27 23 28 24 29 25 30 77 31 26 32 76 33 27 34
REMARK SMILES IDX 28 35 29 36 70 37 30 38 75 39 69 40 71 41 31 42 74 43 68 44
REMARK SMILES IDX 67 45 32 47 58 48 41 49 57 50 42 51 45 52 56 53 72 54 43 55
REMARK SMILES IDX 44 56 55 58 73 59 46 60 33 61 34 62 39 63 35 64 36 65 38 66
REMARK SMILES IDX 40 67 37 68 59 69 60 70 65 71 61 72 62 73 64 74 66 75 63 76
REMARK SMILES IDX 47 77 48 78 53 79 49 80 50 81 52 82 54 83 51 84
REMARK H PARENT 7 14 10 16 71 46 45 57
REMARK Flexibility Score: inf
ROOT
ATOM      1  C   UNL A   1      42.665  20.727  26.136  1.00  0.00     0.275 C 
ENDROOT
BRANCH   1   2
ATOM      2  O   UNL A   1      41.305  21.020  25.761  1.00  0.00    -0.456 OA
BRANCH   2   3
ATOM      3  C   UNL A   1      40.457  21.359  26.777  1.00  0.00     0.374 C 
ATOM      4  O   UNL A   1      40.667  21.118  27.961  1.00  0.00    -0.242 OA
BRANCH   3   5
ATOM      5  C   UNL A   1      39.337  22.112  26.257  1.00  0.00     0.211 A 
ATOM      6  C   UNL A   1      37.422  22.317  25.160  1.00  0.00     0.124 A 
ATOM      7  C   UNL A   1      37.652  23.527  25.779  1.00  0.00     0.048 A 
ATOM      8  O   UNL A   1      38.473  21.477  25.401  1.00  0.00    -0.452 OA
ATOM      9  C   UNL A   1      38.875  23.395  26.486  1.00  0.00     0.058 A 
BRANCH   6  10
ATOM     10  C   UNL A   1      36.310  21.809  24.308  1.00  0.00     0.193 C 
BRANCH  10  11
ATOM     11  N   UNL A   1      35.133  21.552  25.108  1.00  0.00    -0.331 N 
ATOM     12  N   UNL A   1      33.282  22.416  23.928  1.00  0.00    -0.338 N 
ATOM     13  C   UNL A   1      33.824  21.634  24.868  1.00  0.00     0.315 C 
ATOM     14  H   UNL A   1      32.347  22.186  23.721  1.00  0.00     0.165 HD
ATOM     15  O   UNL A   1      33.064  20.971  25.575  1.00  0.00    -0.249 OA
ATOM     16  H   UNL A   1      35.343  21.255  26.023  1.00  0.00     0.165 HD
BRANCH  12  17
ATOM     17  C   UNL A   1      33.784  23.534  23.152  1.00  0.00     0.121 C 
BRANCH  17  18
ATOM     18  C   UNL A   1      33.343  24.871  23.772  1.00  0.00     0.008 C 
ATOM     19  C   UNL A   1      33.549  28.941  25.403  1.00  0.00     0.007 C 
ATOM     20  C   UNL A   1      33.963  27.606  24.787  1.00  0.00    -0.014 C 
ATOM     21  C   UNL A   1      33.259  27.383  23.443  1.00  0.00     0.003 C 
ATOM     22  C   UNL A   1      33.662  26.449  25.748  1.00  0.00     0.003 C 
ATOM     23  C   UNL A   1      33.645  26.039  22.824  1.00  0.00     0.006 C 
ATOM     24  C   UNL A   1      34.024  25.096  25.135  1.00  0.00     0.006 C 
ENDBRANCH  17  18
ENDBRANCH  12  17
ENDBRANCH  10  11
ENDBRANCH   6  10
ENDBRANCH   3   5
ENDBRANCH   2   3
ENDBRANCH   1   2
BRANCH   1  25
ATOM     25  C   UNL A   1      43.651  21.661  25.428  1.00  0.00     0.275 C 
BRANCH  25  26
ATOM     26  O   UNL A   1      43.034  22.911  25.063  1.00  0.00    -0.458 OA
BRANCH  26  27
ATOM     27  C   UNL A   1      43.809  24.010  25.219  1.00  0.00     0.338 C 
ATOM     28  O   UNL A   1      44.798  24.310  24.573  1.00  0.00    -0.246 OA
BRANCH  27  29
ATOM     29  C   UNL A   1      43.204  24.895  26.228  1.00  0.00     0.060 A 
ATOM     30  C   UNL A   1      43.642  26.220  26.288  1.00  0.00     0.016 A 
ATOM     31  C   UNL A   1      42.260  24.419  27.141  1.00  0.00     0.016 A 
ATOM     32  C   UNL A   1      43.138  27.074  27.263  1.00  0.00     0.010 A 
ATOM     33  C   UNL A   1      41.764  25.279  28.128  1.00  0.00     0.010 A 
ATOM     34  C   UNL A   1      42.212  26.608  28.201  1.00  0.00    -0.014 A 
BRANCH  34  35
ATOM     35  C   UNL A   1      41.775  27.501  29.300  1.00  0.00     0.031 A 
ATOM     36  C   UNL A   1      42.514  27.484  30.604  1.00  0.00     0.074 A 
ATOM     37  C   UNL A   1      40.741  28.342  29.118  1.00  0.00     0.049 A 
ATOM     38  N   UNL A   1      42.241  28.106  31.722  1.00  0.00    -0.248 NA
ATOM     39  C   UNL A   1      43.728  26.653  30.659  1.00  0.00     0.031 C 
ATOM     40  C   UNL A   1      39.992  28.504  27.874  1.00  0.00     0.029 A 
ATOM     41  N   UNL A   1      40.144  29.220  29.988  1.00  0.00    -0.354 N 
ATOM     42  C   UNL A   1      43.230  27.725  32.619  1.00  0.00     0.074 A 
ATOM     43  C   UNL A   1      44.105  26.809  31.920  1.00  0.00     0.031 C 
ATOM     44  C   UNL A   1      39.030  29.423  28.060  1.00  0.00     0.029 A 
ATOM     45  C   UNL A   1      39.070  29.881  29.446  1.00  0.00     0.049 A 
ATOM     46  H   UNL A   1      40.456  29.362  30.912  1.00  0.00     0.167 HD
ATOM     47  C   UNL A   1      43.389  28.106  33.909  1.00  0.00     0.037 A 
ATOM     48  C   UNL A   1      38.201  30.738  30.014  1.00  0.00     0.037 A 
ATOM     49  C   UNL A   1      42.525  29.031  34.594  1.00  0.00     0.049 A 
ATOM     50  C   UNL A   1      38.365  31.100  31.465  1.00  0.00     0.074 A 
ATOM     51  C   UNL A   1      42.601  29.477  35.901  1.00  0.00     0.029 A 
ATOM     52  N   UNL A   1      41.427  29.656  34.021  1.00  0.00    -0.354 N 
ATOM     53  N   UNL A   1      39.285  30.712  32.315  1.00  0.00    -0.248 NA
ATOM     54  C   UNL A   1      37.366  32.013  32.037  1.00  0.00     0.031 C 
ATOM     55  C   UNL A   1      41.529  30.346  36.131  1.00  0.00     0.029 A 
ATOM     56  C   UNL A   1      40.808  30.472  34.954  1.00  0.00     0.049 A 
ATOM     57  H   UNL A   1      41.131  29.536  33.089  1.00  0.00     0.167 HD
ATOM     58  C   UNL A   1      38.990  31.350  33.512  1.00  0.00     0.074 A 
ATOM     59  C   UNL A   1      37.810  32.156  33.278  1.00  0.00     0.031 C 
ATOM     60  C   UNL A   1      39.639  31.274  34.700  1.00  0.00     0.037 A 
BRANCH  47  61
ATOM     61  C   UNL A   1      44.524  27.492  34.671  1.00  0.00     0.057 A 
ATOM     62  C   UNL A   1      45.785  28.097  34.741  1.00  0.00     0.134 A 
ATOM     63  C   UNL A   1      44.343  26.289  35.365  1.00  0.00     0.134 A 
ATOM     64  F   UNL A   1      46.028  29.241  34.084  1.00  0.00    -0.206 F 
ATOM     65  C   UNL A   1      46.831  27.517  35.461  1.00  0.00     0.040 A 
ATOM     66  C   UNL A   1      45.374  25.710  36.105  1.00  0.00     0.040 A 
ATOM     67  F   UNL A   1      43.158  25.660  35.339  1.00  0.00    -0.206 F 
ATOM     68  C   UNL A   1      46.625  26.323  36.150  1.00  0.00     0.006 A 
ENDBRANCH  47  61
BRANCH  48  69
ATOM     69  C   UNL A   1      37.080  31.292  29.216  1.00  0.00     0.057 A 
ATOM     70  C   UNL A   1      37.113  32.604  28.733  1.00  0.00     0.134 A 
ATOM     71  C   UNL A   1      35.946  30.525  28.926  1.00  0.00     0.134 A 
ATOM     72  F   UNL A   1      38.160  33.398  29.003  1.00  0.00    -0.206 F 
ATOM     73  C   UNL A   1      36.054  33.138  27.997  1.00  0.00     0.040 A 
ATOM     74  C   UNL A   1      34.890  31.037  28.172  1.00  0.00     0.040 A 
ATOM     75  F   UNL A   1      35.853  29.261  29.365  1.00  0.00    -0.206 F 
ATOM     76  C   UNL A   1      34.940  32.350  27.710  1.00  0.00     0.006 A 
ENDBRANCH  48  69
BRANCH  60  77
ATOM     77  C   UNL A   1      39.108  32.111  35.824  1.00  0.00     0.057 A 
ATOM     78  C   UNL A   1      38.225  31.590  36.777  1.00  0.00     0.134 A 
ATOM     79  C   UNL A   1      39.520  33.441  35.977  1.00  0.00     0.134 A 
ATOM     80  F   UNL A   1      37.784  30.327  36.678  1.00  0.00    -0.206 F 
ATOM     81  C   UNL A   1      37.755  32.370  37.835  1.00  0.00     0.040 A 
ATOM     82  C   UNL A   1      39.073  34.223  37.043  1.00  0.00     0.040 A 
ATOM     83  F   UNL A   1      40.372  33.995  35.102  1.00  0.00    -0.206 F 
ATOM     84  C   UNL A   1      38.184  33.688  37.973  1.00  0.00     0.006 A 
ENDBRANCH  60  77
ENDBRANCH  34  35
ENDBRANCH  27  29
ENDBRANCH  26  27
ENDBRANCH  25  26
ENDBRANCH   1  25
TORSDOF 15
ENDMDL
MODEL 3
REMARK VINA RESULT:     -11.5      5.014     10.006
REMARK SMILES C[C@H]1CC[C@H](CNC(=O)NCc2ccc(C(=O)OCCOC(=O)c3ccc(-c4c5nc(c(-c6c(F)cccc6F)c6ccc([nH]6)c(-c6c(F)cccc6F)c6nc(c(-c7c(F)cccc7F)c7ccc4[nH]7)C=C6)C=C5)cc3)o2)CC1
REMARK SMILES IDX 19 1 18 2 16 3 17 4 15 5 12 6 13 7 78 8 14 9 11 10 10 11
REMARK SMILES IDX 7 12 8 13 9 15 6 17 5 18 1 19 2 20 80 21 3 22 79 23 4 24
REMARK SMILES IDX 20 25 21 26 22 27 23 28 24 29 25 30 77 31 26 32 76 33 27 34
REMARK SMILES IDX 28 35 29 36 70 37 30 38 75 39 69 40 71 41 31 42 74 43 68 44
REMARK SMILES IDX 67 45 32 47 58 48 41 49 57 50 42 51 45 52 56 53 72 54 43 55
REMARK SMILES IDX 44 56 55 58 73 59 46 60 33 61 34 62 39 63 35 64 36 65 38 66
REMARK SMILES IDX 40 67 37 68 59 69 60 70 65 71 61 72 62 73 64 74 66 75 63 76
REMARK SMILES IDX 47 77 48 78 53 79 49 80 50 81 52 82 54 83 51 84
REMARK H PARENT 7 14 10 16 71 46 45 57
REMARK Flexibility Score: inf
ROOT
ATOM      1  C   UNL A   1      42.792  21.027  25.963  1.00  0.00     0.275 C 
ENDROOT
BRANCH   1   2
ATOM      2  O   UNL A   1      41.397  21.048  25.603  1.00  0.00    -0.456 OA
BRANCH   2   3
ATOM      3  C   UNL A   1      40.506  21.080  26.639  1.00  0.00     0.374 C 
ATOM      4  O   UNL A   1      40.534  20.315  27.597  1.00  0.00    -0.242 OA
BRANCH   3   5
ATOM      5  C   UNL A   1      39.598  22.193  26.477  1.00  0.00     0.211 A 
ATOM      6  C   UNL A   1      37.738  23.144  25.736  1.00  0.00     0.124 A 
ATOM      7  C   UNL A   1      38.328  24.049  26.593  1.00  0.00     0.048 A 
ATOM      8  O   UNL A   1      38.537  22.042  25.619  1.00  0.00    -0.452 OA
ATOM      9  C   UNL A   1      39.515  23.439  27.071  1.00  0.00     0.058 A 
BRANCH   6  10
ATOM     10  C   UNL A   1      36.473  23.170  24.947  1.00  0.00     0.193 C 
BRANCH  10  11
ATOM     11  N   UNL A   1      35.325  23.130  25.825  1.00  0.00    -0.331 N 
ATOM     12  N   UNL A   1      34.726  20.864  26.091  1.00  0.00    -0.338 N 
ATOM     13  C   UNL A   1      34.696  22.146  26.469  1.00  0.00     0.315 C 
ATOM     14  H   UNL A   1      34.418  20.244  26.792  1.00  0.00     0.165 HD
ATOM     15  O   UNL A   1      34.020  22.441  27.456  1.00  0.00    -0.249 OA
ATOM     16  H   UNL A   1      34.923  24.015  25.979  1.00  0.00     0.165 HD
BRANCH  12  17
ATOM     17  C   UNL A   1      35.117  20.196  24.864  1.00  0.00     0.121 C 
BRANCH  17  18
ATOM     18  C   UNL A   1      34.274  18.928  24.641  1.00  0.00     0.008 C 
ATOM     19  C   UNL A   1      32.464  14.991  25.335  1.00  0.00     0.007 C 
ATOM     20  C   UNL A   1      33.292  16.258  25.535  1.00  0.00    -0.014 C 
ATOM     21  C   UNL A   1      32.393  17.500  25.561  1.00  0.00     0.003 C 
ATOM     22  C   UNL A   1      34.356  16.389  24.438  1.00  0.00     0.003 C 
ATOM     23  C   UNL A   1      33.210  18.781  25.736  1.00  0.00     0.006 C 
ATOM     24  C   UNL A   1      35.169  17.675  24.589  1.00  0.00     0.006 C 
ENDBRANCH  17  18
ENDBRANCH  12  17
ENDBRANCH  10  11
ENDBRANCH   6  10
ENDBRANCH   3   5
ENDBRANCH   2   3
ENDBRANCH   1   2
BRANCH   1  25
ATOM     25  C   UNL A   1      43.621  21.907  25.021  1.00  0.00     0.275 C 
BRANCH  25  26
ATOM     26  O   UNL A   1      43.061  23.228  24.893  1.00  0.00    -0.458 OA
BRANCH  26  27
ATOM     27  C   UNL A   1      43.902  24.247  25.190  1.00  0.00     0.338 C 
ATOM     28  O   UNL A   1      44.961  24.508  24.647  1.00  0.00    -0.246 OA
BRANCH  27  29
ATOM     29  C   UNL A   1      43.283  25.109  26.211  1.00  0.00     0.060 A 
ATOM     30  C   UNL A   1      43.632  26.461  26.229  1.00  0.00     0.016 A 
ATOM     31  C   UNL A   1      42.415  24.588  27.173  1.00  0.00     0.016 A 
ATOM     32  C   UNL A   1      43.115  27.298  27.211  1.00  0.00     0.010 A 
ATOM     33  C   UNL A   1      41.906  25.432  28.168  1.00  0.00     0.010 A 
ATOM     34  C   UNL A   1      42.266  26.789  28.199  1.00  0.00    -0.014 A 
BRANCH  34  35
ATOM     35  C   UNL A   1      41.817  27.672  29.301  1.00  0.00     0.031 A 
ATOM     36  C   UNL A   1      42.561  27.663  30.604  1.00  0.00     0.074 A 
ATOM     37  C   UNL A   1      40.770  28.498  29.125  1.00  0.00     0.049 A 
ATOM     38  N   UNL A   1      42.281  28.277  31.724  1.00  0.00    -0.248 NA
ATOM     39  C   UNL A   1      43.787  26.851  30.652  1.00  0.00     0.031 C 
ATOM     40  C   UNL A   1      40.015  28.652  27.883  1.00  0.00     0.029 A 
ATOM     41  N   UNL A   1      40.162  29.363  29.999  1.00  0.00    -0.354 N 
ATOM     42  C   UNL A   1      43.278  27.909  32.617  1.00  0.00     0.074 A 
ATOM     43  C   UNL A   1      44.166  27.009  31.912  1.00  0.00     0.031 C 
ATOM     44  C   UNL A   1      39.039  29.555  28.075  1.00  0.00     0.029 A 
ATOM     45  C   UNL A   1      39.077  30.009  29.463  1.00  0.00     0.049 A 
ATOM     46  H   UNL A   1      40.475  29.507  30.922  1.00  0.00     0.167 HD
ATOM     47  C   UNL A   1      43.436  28.288  33.907  1.00  0.00     0.037 A 
ATOM     48  C   UNL A   1      38.196  30.851  30.036  1.00  0.00     0.037 A 
ATOM     49  C   UNL A   1      42.559  29.197  34.597  1.00  0.00     0.049 A 
ATOM     50  C   UNL A   1      38.359  31.211  31.487  1.00  0.00     0.074 A 
ATOM     51  C   UNL A   1      42.632  29.640  35.906  1.00  0.00     0.029 A 
ATOM     52  N   UNL A   1      41.450  29.807  34.030  1.00  0.00    -0.354 N 
ATOM     53  N   UNL A   1      39.287  30.835  32.333  1.00  0.00    -0.248 NA
ATOM     54  C   UNL A   1      37.347  32.106  32.065  1.00  0.00     0.031 C 
ATOM     55  C   UNL A   1      41.547  30.492  36.142  1.00  0.00     0.029 A 
ATOM     56  C   UNL A   1      40.821  30.610  34.967  1.00  0.00     0.049 A 
ATOM     57  H   UNL A   1      41.153  29.686  33.099  1.00  0.00     0.167 HD
ATOM     58  C   UNL A   1      38.986  31.464  33.533  1.00  0.00     0.074 A 
ATOM     59  C   UNL A   1      37.793  32.252  33.305  1.00  0.00     0.031 C 
ATOM     60  C   UNL A   1      39.639  31.395  34.719  1.00  0.00     0.037 A 
BRANCH  47  61
ATOM     61  C   UNL A   1      44.582  27.690  34.664  1.00  0.00     0.057 A 
ATOM     62  C   UNL A   1      44.466  26.474  35.349  1.00  0.00     0.134 A 
ATOM     63  C   UNL A   1      45.828  28.330  34.687  1.00  0.00     0.134 A 
ATOM     64  F   UNL A   1      43.295  25.821  35.380  1.00  0.00    -0.206 F 
ATOM     65  C   UNL A   1      45.544  25.925  36.045  1.00  0.00     0.040 A 
ATOM     66  C   UNL A   1      46.919  27.780  35.362  1.00  0.00     0.040 A 
ATOM     67  F   UNL A   1      46.006  29.497  34.050  1.00  0.00    -0.206 F 
ATOM     68  C   UNL A   1      46.776  26.576  36.048  1.00  0.00     0.006 A 
ENDBRANCH  47  61
BRANCH  48  69
ATOM     69  C   UNL A   1      37.064  31.390  29.243  1.00  0.00     0.057 A 
ATOM     70  C   UNL A   1      37.086  32.696  28.743  1.00  0.00     0.134 A 
ATOM     71  C   UNL A   1      35.931  30.614  28.974  1.00  0.00     0.134 A 
ATOM     72  F   UNL A   1      38.132  33.498  28.992  1.00  0.00    -0.206 F 
ATOM     73  C   UNL A   1      36.016  33.216  28.011  1.00  0.00     0.040 A 
ATOM     74  C   UNL A   1      34.865  31.112  28.225  1.00  0.00     0.040 A 
ATOM     75  F   UNL A   1      35.848  29.355  29.430  1.00  0.00    -0.206 F 
ATOM     76  C   UNL A   1      34.904  32.420  27.746  1.00  0.00     0.006 A 
ENDBRANCH  48  69
BRANCH  60  77
ATOM     77  C   UNL A   1      39.099  32.220  35.848  1.00  0.00     0.057 A 
ATOM     78  C   UNL A   1      38.200  31.692  36.782  1.00  0.00     0.134 A 
ATOM     79  C   UNL A   1      39.516  33.545  36.023  1.00  0.00     0.134 A 
ATOM     80  F   UNL A   1      37.753  30.433  36.661  1.00  0.00    -0.206 F 
ATOM     81  C   UNL A   1      37.721  32.460  37.844  1.00  0.00     0.040 A 
ATOM     82  C   UNL A   1      39.060  34.316  37.094  1.00  0.00     0.040 A 
ATOM     83  F   UNL A   1      40.382  34.106  35.166  1.00  0.00    -0.206 F 
ATOM     84  C   UNL A   1      38.156  33.774  38.005  1.00  0.00     0.006 A 
ENDBRANCH  60  77
ENDBRANCH  34  35
ENDBRANCH  27  29
ENDBRANCH  26  27
ENDBRANCH  25  26
ENDBRANCH   1  25
TORSDOF 15
ENDMDL
