MODEL 1
REMARK VINA RESULT:     -11.6      0.000      0.000
REMARK SMILES C[C@H]1OCC[C@@H]1C(=O)Nc1sc2c(c1C(=O)OCCOC(=O)c1ccc(-c3c4nc(c(-c5c(F)cccc5F)c5ccc([nH]5)c(-c5c(F)cccc5F)c5nc(c(-c6c(F)cccc6F)c6ccc3[nH]6)C=C5)C=C4)cc1)CCC2
REMARK SMILES IDX 18 1 17 2 15 3 16 4 14 5 10 6 11 7 12 8 13 9 79 10 77 11
REMARK SMILES IDX 78 12 9 13 7 14 8 15 6 17 1 18 2 19 3 20 4 21 5 22 19 23
REMARK SMILES IDX 20 24 21 25 22 26 23 27 24 28 76 29 25 30 75 31 26 32 27 33
REMARK SMILES IDX 28 34 69 35 29 36 74 37 68 38 70 39 30 40 73 41 67 42 66 43
REMARK SMILES IDX 31 45 57 46 40 47 56 48 41 49 44 50 55 51 71 52 42 53 43 54
REMARK SMILES IDX 54 56 72 57 45 58 32 59 33 60 38 61 34 62 35 63 37 64 39 65
REMARK SMILES IDX 36 66 58 67 59 68 64 69 60 70 61 71 63 72 65 73 62 74 46 75
REMARK SMILES IDX 47 76 52 77 48 78 49 79 51 80 53 81 50 82
REMARK H PARENT 9 16 70 44 44 55
REMARK Flexibility Score: inf
ROOT
ATOM      1  C   UNL A   1      37.593  23.713  25.777  1.00  0.00     0.275 C 
ENDROOT
BRANCH   1   2
ATOM      2  O   UNL A   1      37.362  22.547  24.961  1.00  0.00    -0.458 OA
BRANCH   2   3
ATOM      3  C   UNL A   1      36.482  22.701  23.930  1.00  0.00     0.341 C 
ATOM      4  O   UNL A   1      36.752  23.275  22.880  1.00  0.00    -0.246 OA
BRANCH   3   5
ATOM      5  C   UNL A   1      35.186  22.081  24.186  1.00  0.00     0.098 A 
ATOM      6  C   UNL A   1      33.984  22.649  23.781  1.00  0.00     0.110 A 
ATOM      7  S   UNL A   1      32.590  21.893  24.429  1.00  0.00    -0.122 S 
ATOM      8  C   UNL A   1      33.525  20.569  24.816  1.00  0.00     0.011 A 
ATOM      9  C   UNL A   1      34.873  20.761  24.640  1.00  0.00    -0.017 A 
ATOM     10  C   UNL A   1      33.140  19.181  25.151  1.00  0.00     0.047 C 
ATOM     11  C   UNL A   1      35.601  19.475  24.825  1.00  0.00     0.038 C 
ATOM     12  C   UNL A   1      34.434  18.433  24.720  1.00  0.00     0.010 C 
BRANCH   6  13
ATOM     13  N   UNL A   1      33.703  23.645  22.876  1.00  0.00    -0.317 N 
ATOM     14  C   UNL A   1      33.725  24.966  23.256  1.00  0.00     0.230 C 
ATOM     15  O   UNL A   1      34.198  25.765  22.436  1.00  0.00    -0.274 OA
ATOM     16  H   UNL A   1      33.485  23.410  21.946  1.00  0.00     0.170 HD
BRANCH  14  17
ATOM     17  C   UNL A   1      33.092  25.522  24.541  1.00  0.00     0.110 C 
ATOM     18  C   UNL A   1      30.557  25.377  24.464  1.00  0.00     0.039 C 
ATOM     19  C   UNL A   1      31.778  26.276  24.318  1.00  0.00     0.127 C 
ATOM     20  O   UNL A   1      31.688  27.274  25.370  1.00  0.00    -0.378 OA
ATOM     21  C   UNL A   1      32.680  26.951  26.351  1.00  0.00     0.161 C 
ATOM     22  C   UNL A   1      33.810  26.412  25.518  1.00  0.00     0.044 C 
ENDBRANCH  14  17
ENDBRANCH   6  13
ENDBRANCH   3   5
ENDBRANCH   2   3
ENDBRANCH   1   2
BRANCH   1  23
ATOM     23  C   UNL A   1      38.902  23.595  26.544  1.00  0.00     0.275 C 
BRANCH  23  24
ATOM     24  O   UNL A   1      39.785  24.693  26.270  1.00  0.00    -0.458 OA
BRANCH  24  25
ATOM     25  C   UNL A   1      40.184  25.266  27.424  1.00  0.00     0.338 C 
ATOM     26  O   UNL A   1      41.285  25.138  27.946  1.00  0.00    -0.246 OA
BRANCH  25  27
ATOM     27  C   UNL A   1      39.186  26.149  28.041  1.00  0.00     0.060 A 
ATOM     28  C   UNL A   1      38.981  27.396  27.453  1.00  0.00     0.016 A 
ATOM     29  C   UNL A   1      39.082  25.976  29.421  1.00  0.00     0.016 A 
ATOM     30  C   UNL A   1      39.032  28.525  28.266  1.00  0.00     0.010 A 
ATOM     31  C   UNL A   1      39.079  27.095  30.227  1.00  0.00     0.010 A 
ATOM     32  C   UNL A   1      39.196  28.366  29.645  1.00  0.00    -0.014 A 
BRANCH  32  33
ATOM     33  C   UNL A   1      39.336  29.536  30.528  1.00  0.00     0.031 A 
ATOM     34  C   UNL A   1      40.719  30.107  30.591  1.00  0.00     0.074 A 
ATOM     35  C   UNL A   1      38.220  30.177  30.955  1.00  0.00     0.049 A 
ATOM     36  N   UNL A   1      41.282  30.807  31.527  1.00  0.00    -0.248 NA
ATOM     37  C   UNL A   1      41.616  29.820  29.449  1.00  0.00     0.031 C 
ATOM     38  C   UNL A   1      36.833  29.730  30.742  1.00  0.00     0.029 A 
ATOM     39  N   UNL A   1      38.053  31.439  31.466  1.00  0.00    -0.354 N 
ATOM     40  C   UNL A   1      42.512  31.203  31.000  1.00  0.00     0.074 A 
ATOM     41  C   UNL A   1      42.726  30.460  29.793  1.00  0.00     0.031 C 
ATOM     42  C   UNL A   1      36.006  30.788  30.842  1.00  0.00     0.029 A 
ATOM     43  C   UNL A   1      36.786  31.961  31.195  1.00  0.00     0.049 A 
ATOM     44  H   UNL A   1      38.749  31.922  31.968  1.00  0.00     0.167 HD
ATOM     45  C   UNL A   1      43.143  32.332  31.409  1.00  0.00     0.037 A 
ATOM     46  C   UNL A   1      36.414  33.264  31.126  1.00  0.00     0.037 A 
ATOM     47  C   UNL A   1      42.835  32.674  32.764  1.00  0.00     0.049 A 
ATOM     48  C   UNL A   1      37.476  34.085  31.744  1.00  0.00     0.074 A 
ATOM     49  C   UNL A   1      42.999  32.057  33.987  1.00  0.00     0.029 A 
ATOM     50  N   UNL A   1      42.004  33.740  32.979  1.00  0.00    -0.354 N 
ATOM     51  N   UNL A   1      37.725  34.154  33.018  1.00  0.00    -0.248 NA
ATOM     52  C   UNL A   1      38.505  34.643  30.877  1.00  0.00     0.031 C 
ATOM     53  C   UNL A   1      41.942  32.545  34.805  1.00  0.00     0.029 A 
ATOM     54  C   UNL A   1      41.192  33.436  34.037  1.00  0.00     0.049 A 
ATOM     55  H   UNL A   1      41.993  34.578  32.463  1.00  0.00     0.167 HD
ATOM     56  C   UNL A   1      39.093  34.358  33.092  1.00  0.00     0.074 A 
ATOM     57  C   UNL A   1      39.484  34.811  31.765  1.00  0.00     0.031 C 
ATOM     58  C   UNL A   1      39.814  33.856  34.134  1.00  0.00     0.037 A 
BRANCH  45  59
ATOM     59  C   UNL A   1      43.698  33.326  30.416  1.00  0.00     0.057 A 
ATOM     60  C   UNL A   1      45.038  33.731  30.513  1.00  0.00     0.134 A 
ATOM     61  C   UNL A   1      42.889  34.116  29.569  1.00  0.00     0.134 A 
ATOM     62  F   UNL A   1      45.894  33.081  31.315  1.00  0.00    -0.206 F 
ATOM     63  C   UNL A   1      45.523  34.869  29.856  1.00  0.00     0.040 A 
ATOM     64  C   UNL A   1      43.376  35.220  28.866  1.00  0.00     0.040 A 
ATOM     65  F   UNL A   1      41.568  33.924  29.453  1.00  0.00    -0.206 F 
ATOM     66  C   UNL A   1      44.690  35.619  29.034  1.00  0.00     0.006 A 
ENDBRANCH  45  59
BRANCH  46  67
ATOM     67  C   UNL A   1      35.319  33.890  30.338  1.00  0.00     0.057 A 
ATOM     68  C   UNL A   1      34.268  34.571  30.973  1.00  0.00     0.134 A 
ATOM     69  C   UNL A   1      35.384  34.043  28.942  1.00  0.00     0.134 A 
ATOM     70  F   UNL A   1      34.141  34.539  32.308  1.00  0.00    -0.206 F 
ATOM     71  C   UNL A   1      33.345  35.355  30.266  1.00  0.00     0.040 A 
ATOM     72  C   UNL A   1      34.456  34.803  28.220  1.00  0.00     0.040 A 
ATOM     73  F   UNL A   1      36.398  33.531  28.231  1.00  0.00    -0.206 F 
ATOM     74  C   UNL A   1      33.438  35.474  28.884  1.00  0.00     0.006 A 
ENDBRANCH  46  67
BRANCH  58  75
ATOM     75  C   UNL A   1      39.062  33.441  35.364  1.00  0.00     0.057 A 
ATOM     76  C   UNL A   1      38.584  32.143  35.592  1.00  0.00     0.134 A 
ATOM     77  C   UNL A   1      38.929  34.362  36.409  1.00  0.00     0.134 A 
ATOM     78  F   UNL A   1      38.760  31.171  34.687  1.00  0.00    -0.206 F 
ATOM     79  C   UNL A   1      37.954  31.793  36.788  1.00  0.00     0.040 A 
ATOM     80  C   UNL A   1      38.337  34.014  37.624  1.00  0.00     0.040 A 
ATOM     81  F   UNL A   1      39.417  35.607  36.283  1.00  0.00    -0.206 F 
ATOM     82  C   UNL A   1      37.835  32.728  37.812  1.00  0.00     0.006 A 
ENDBRANCH  58  75
ENDBRANCH  32  33
ENDBRANCH  25  27
ENDBRANCH  24  25
ENDBRANCH  23  24
ENDBRANCH   1  23
TORSDOF 13
ENDMDL
MODEL 2
REMARK VINA RESULT:     -11.5      5.120      9.887
REMARK SMILES C[C@H]1OCC[C@@H]1C(=O)Nc1sc2c(c1C(=O)OCCOC(=O)c1ccc(-c3c4nc(c(-c5c(F)cccc5F)c5ccc([nH]5)c(-c5c(F)cccc5F)c5nc(c(-c6c(F)cccc6F)c6ccc3[nH]6)C=C5)C=C4)cc1)CCC2
REMARK SMILES IDX 18 1 17 2 15 3 16 4 14 5 10 6 11 7 12 8 13 9 79 10 77 11
REMARK SMILES IDX 78 12 9 13 7 14 8 15 6 17 1 18 2 19 3 20 4 21 5 22 19 23
REMARK SMILES IDX 20 24 21 25 22 26 23 27 24 28 76 29 25 30 75 31 26 32 27 33
REMARK SMILES IDX 28 34 69 35 29 36 74 37 68 38 70 39 30 40 73 41 67 42 66 43
REMARK SMILES IDX 31 45 57 46 40 47 56 48 41 49 44 50 55 51 71 52 42 53 43 54
REMARK SMILES IDX 54 56 72 57 45 58 32 59 33 60 38 61 34 62 35 63 37 64 39 65
REMARK SMILES IDX 36 66 58 67 59 68 64 69 60 70 61 71 63 72 65 73 62 74 46 75
REMARK SMILES IDX 47 76 52 77 48 78 49 79 51 80 53 81 50 82
REMARK H PARENT 9 16 70 44 44 55
REMARK Flexibility Score: inf
ROOT
ATOM      1  C   UNL A   1      33.646  29.142  27.588  1.00  0.00     0.275 C 
ENDROOT
BRANCH   1   2
ATOM      2  O   UNL A   1      33.251  27.903  26.964  1.00  0.00    -0.458 OA
BRANCH   2   3
ATOM      3  C   UNL A   1      31.914  27.638  26.952  1.00  0.00     0.341 C 
ATOM      4  O   UNL A   1      31.202  27.658  27.951  1.00  0.00    -0.246 OA
BRANCH   3   5
ATOM      5  C   UNL A   1      31.398  27.359  25.616  1.00  0.00     0.098 A 
ATOM      6  C   UNL A   1      30.975  26.097  25.216  1.00  0.00     0.110 A 
ATOM      7  S   UNL A   1      30.677  25.948  23.536  1.00  0.00    -0.122 S 
ATOM      8  C   UNL A   1      30.619  27.610  23.431  1.00  0.00     0.011 A 
ATOM      9  C   UNL A   1      31.001  28.260  24.577  1.00  0.00    -0.017 A 
ATOM     10  C   UNL A   1      30.070  28.491  22.377  1.00  0.00     0.047 C 
ATOM     11  C   UNL A   1      30.735  29.720  24.450  1.00  0.00     0.038 C 
ATOM     12  C   UNL A   1      29.758  29.757  23.224  1.00  0.00     0.010 C 
BRANCH   6  13
ATOM     13  N   UNL A   1      30.658  24.970  25.936  1.00  0.00    -0.317 N 
ATOM     14  C   UNL A   1      31.645  24.193  26.498  1.00  0.00     0.230 C 
ATOM     15  O   UNL A   1      31.407  23.733  27.623  1.00  0.00    -0.274 OA
ATOM     16  H   UNL A   1      29.715  24.716  26.052  1.00  0.00     0.170 HD
BRANCH  14  17
ATOM     17  C   UNL A   1      32.933  23.757  25.784  1.00  0.00     0.110 C 
ATOM     18  C   UNL A   1      33.043  21.231  25.530  1.00  0.00     0.039 C 
ATOM     19  C   UNL A   1      33.529  22.448  26.309  1.00  0.00     0.127 C 
ATOM     20  O   UNL A   1      34.963  22.530  26.098  1.00  0.00    -0.378 OA
ATOM     21  C   UNL A   1      35.204  23.636  25.221  1.00  0.00     0.161 C 
ATOM     22  C   UNL A   1      34.152  24.626  25.636  1.00  0.00     0.044 C 
ENDBRANCH  14  17
ENDBRANCH   6  13
ENDBRANCH   3   5
ENDBRANCH   2   3
ENDBRANCH   1   2
BRANCH   1  23
ATOM     23  C   UNL A   1      34.992  29.617  27.062  1.00  0.00     0.275 C 
BRANCH  23  24
ATOM     24  O   UNL A   1      36.079  29.164  27.884  1.00  0.00    -0.458 OA
BRANCH  24  25
ATOM     25  C   UNL A   1      36.803  30.216  28.316  1.00  0.00     0.338 C 
ATOM     26  O   UNL A   1      36.646  31.383  27.976  1.00  0.00    -0.246 OA
BRANCH  25  27
ATOM     27  C   UNL A   1      37.823  29.883  29.317  1.00  0.00     0.060 A 
ATOM     28  C   UNL A   1      38.975  30.666  29.346  1.00  0.00     0.016 A 
ATOM     29  C   UNL A   1      37.870  28.522  29.619  1.00  0.00     0.016 A 
ATOM     30  C   UNL A   1      40.211  30.025  29.319  1.00  0.00     0.010 A 
ATOM     31  C   UNL A   1      39.097  27.893  29.645  1.00  0.00     0.010 A 
ATOM     32  C   UNL A   1      40.255  28.629  29.355  1.00  0.00    -0.014 A 
BRANCH  32  33
ATOM     33  C   UNL A   1      41.537  27.912  29.246  1.00  0.00     0.031 A 
ATOM     34  C   UNL A   1      42.355  27.901  30.500  1.00  0.00     0.074 A 
ATOM     35  C   UNL A   1      41.744  27.090  28.187  1.00  0.00     0.049 A 
ATOM     36  N   UNL A   1      43.636  27.763  30.650  1.00  0.00    -0.248 NA
ATOM     37  C   UNL A   1      41.631  28.114  31.774  1.00  0.00     0.031 C 
ATOM     38  C   UNL A   1      40.855  26.942  27.023  1.00  0.00     0.029 A 
ATOM     39  N   UNL A   1      42.644  26.070  28.008  1.00  0.00    -0.354 N 
ATOM     40  C   UNL A   1      43.837  27.674  32.028  1.00  0.00     0.074 A 
ATOM     41  C   UNL A   1      42.607  28.034  32.670  1.00  0.00     0.031 C 
ATOM     42  C   UNL A   1      41.082  25.749  26.439  1.00  0.00     0.029 A 
ATOM     43  C   UNL A   1      42.170  25.087  27.136  1.00  0.00     0.049 A 
ATOM     44  H   UNL A   1      43.526  26.036  28.446  1.00  0.00     0.167 HD
ATOM     45  C   UNL A   1      44.896  27.017  32.563  1.00  0.00     0.037 A 
ATOM     46  C   UNL A   1      42.536  23.782  27.067  1.00  0.00     0.037 A 
ATOM     47  C   UNL A   1      46.040  27.024  31.702  1.00  0.00     0.049 A 
ATOM     48  C   UNL A   1      43.796  23.611  27.820  1.00  0.00     0.074 A 
ATOM     49  C   UNL A   1      46.838  28.005  31.150  1.00  0.00     0.029 A 
ATOM     50  N   UNL A   1      46.363  25.859  31.061  1.00  0.00    -0.354 N 
ATOM     51  N   UNL A   1      44.964  24.028  27.431  1.00  0.00    -0.248 NA
ATOM     52  C   UNL A   1      43.712  23.204  29.216  1.00  0.00     0.031 C 
ATOM     53  C   UNL A   1      47.322  27.459  29.928  1.00  0.00     0.029 A 
ATOM     54  C   UNL A   1      46.795  26.174  29.802  1.00  0.00     0.049 A 
ATOM     55  H   UNL A   1      46.297  24.953  31.440  1.00  0.00     0.167 HD
ATOM     56  C   UNL A   1      45.627  24.342  28.606  1.00  0.00     0.074 A 
ATOM     57  C   UNL A   1      44.882  23.666  29.658  1.00  0.00     0.031 C 
ATOM     58  C   UNL A   1      46.537  25.357  28.640  1.00  0.00     0.037 A 
BRANCH  45  59
ATOM     59  C   UNL A   1      44.719  26.021  33.684  1.00  0.00     0.057 A 
ATOM     60  C   UNL A   1      45.307  26.270  34.934  1.00  0.00     0.134 A 
ATOM     61  C   UNL A   1      44.253  24.701  33.490  1.00  0.00     0.134 A 
ATOM     62  F   UNL A   1      45.819  27.475  35.223  1.00  0.00    -0.206 F 
ATOM     63  C   UNL A   1      45.467  25.265  35.897  1.00  0.00     0.040 A 
ATOM     64  C   UNL A   1      44.357  23.707  34.463  1.00  0.00     0.040 A 
ATOM     65  F   UNL A   1      43.765  24.278  32.316  1.00  0.00    -0.206 F 
ATOM     66  C   UNL A   1      44.995  23.978  35.661  1.00  0.00     0.006 A 
ENDBRANCH  45  59
BRANCH  46  67
ATOM     67  C   UNL A   1      41.748  22.606  26.610  1.00  0.00     0.057 A 
ATOM     68  C   UNL A   1      42.375  21.504  26.007  1.00  0.00     0.134 A 
ATOM     69  C   UNL A   1      40.396  22.423  26.953  1.00  0.00     0.134 A 
ATOM     70  F   UNL A   1      43.677  21.550  25.688  1.00  0.00    -0.206 F 
ATOM     71  C   UNL A   1      41.703  20.297  25.766  1.00  0.00     0.040 A 
ATOM     72  C   UNL A   1      39.707  21.231  26.696  1.00  0.00     0.040 A 
ATOM     73  F   UNL A   1      39.715  23.359  27.626  1.00  0.00    -0.206 F 
ATOM     74  C   UNL A   1      40.364  20.158  26.112  1.00  0.00     0.006 A 
ENDBRANCH  46  67
BRANCH  58  75
ATOM     75  C   UNL A   1      47.084  25.844  27.332  1.00  0.00     0.057 A 
ATOM     76  C   UNL A   1      46.485  26.844  26.553  1.00  0.00     0.134 A 
ATOM     77  C   UNL A   1      48.331  25.369  26.909  1.00  0.00     0.134 A 
ATOM     78  F   UNL A   1      45.342  27.429  26.936  1.00  0.00    -0.206 F 
ATOM     79  C   UNL A   1      47.076  27.312  25.378  1.00  0.00     0.040 A 
ATOM     80  C   UNL A   1      48.951  25.856  25.757  1.00  0.00     0.040 A 
ATOM     81  F   UNL A   1      48.990  24.453  27.637  1.00  0.00    -0.206 F 
ATOM     82  C   UNL A   1      48.317  26.822  24.980  1.00  0.00     0.006 A 
ENDBRANCH  58  75
ENDBRANCH  32  33
ENDBRANCH  25  27
ENDBRANCH  24  25
ENDBRANCH  23  24
ENDBRANCH   1  23
TORSDOF 13
ENDMDL
MODEL 3
REMARK VINA RESULT:     -11.1      4.134      8.432
REMARK SMILES C[C@H]1OCC[C@@H]1C(=O)Nc1sc2c(c1C(=O)OCCOC(=O)c1ccc(-c3c4nc(c(-c5c(F)cccc5F)c5ccc([nH]5)c(-c5c(F)cccc5F)c5nc(c(-c6c(F)cccc6F)c6ccc3[nH]6)C=C5)C=C4)cc1)CCC2
REMARK SMILES IDX 18 1 17 2 15 3 16 4 14 5 10 6 11 7 12 8 13 9 79 10 77 11
REMARK SMILES IDX 78 12 9 13 7 14 8 15 6 17 1 18 2 19 3 20 4 21 5 22 19 23
REMARK SMILES IDX 20 24 21 25 22 26 23 27 24 28 76 29 25 30 75 31 26 32 27 33
REMARK SMILES IDX 28 34 69 35 29 36 74 37 68 38 70 39 30 40 73 41 67 42 66 43
REMARK SMILES IDX 31 45 57 46 40 47 56 48 41 49 44 50 55 51 71 52 42 53 43 54
REMARK SMILES IDX 54 56 72 57 45 58 32 59 33 60 38 61 34 62 35 63 37 64 39 65
REMARK SMILES IDX 36 66 58 67 59 68 64 69 60 70 61 71 63 72 65 73 62 74 46 75
REMARK SMILES IDX 47 76 52 77 48 78 49 79 51 80 53 81 50 82
REMARK H PARENT 9 16 70 44 44 55
REMARK Flexibility Score: inf
ROOT
ATOM      1  C   UNL A   1      36.997  21.848  25.838  1.00  0.00     0.275 C 
ENDROOT
BRANCH   1   2
ATOM      2  O   UNL A   1      35.759  21.928  25.102  1.00  0.00    -0.458 OA
BRANCH   2   3
ATOM      3  C   UNL A   1      34.692  21.282  25.652  1.00  0.00     0.341 C 
ATOM      4  O   UNL A   1      34.466  21.236  26.857  1.00  0.00    -0.246 OA
BRANCH   3   5
ATOM      5  C   UNL A   1      33.814  20.675  24.657  1.00  0.00     0.098 A 
ATOM      6  C   UNL A   1      33.101  21.418  23.724  1.00  0.00     0.110 A 
ATOM      7  S   UNL A   1      31.931  20.523  22.850  1.00  0.00    -0.122 S 
ATOM      8  C   UNL A   1      32.693  19.120  23.327  1.00  0.00     0.011 A 
ATOM      9  C   UNL A   1      33.676  19.305  24.267  1.00  0.00    -0.017 A 
ATOM     10  C   UNL A   1      32.605  17.744  22.792  1.00  0.00     0.047 C 
ATOM     11  C   UNL A   1      34.420  18.034  24.486  1.00  0.00     0.038 C 
ATOM     12  C   UNL A   1      33.994  17.198  23.230  1.00  0.00     0.010 C 
BRANCH   6  13
ATOM     13  N   UNL A   1      33.228  22.721  23.304  1.00  0.00    -0.317 N 
ATOM     14  C   UNL A   1      32.842  23.762  24.115  1.00  0.00     0.230 C 
ATOM     15  O   UNL A   1      33.569  24.765  24.102  1.00  0.00    -0.274 OA
ATOM     16  H   UNL A   1      33.601  22.910  22.413  1.00  0.00     0.170 HD
BRANCH  14  17
ATOM     17  C   UNL A   1      31.530  23.817  24.911  1.00  0.00     0.110 C 
ATOM     18  C   UNL A   1      30.031  25.700  24.098  1.00  0.00     0.039 C 
ATOM     19  C   UNL A   1      31.011  25.235  25.168  1.00  0.00     0.127 C 
ATOM     20  O   UNL A   1      30.271  25.186  26.417  1.00  0.00    -0.378 OA
ATOM     21  C   UNL A   1      30.062  23.806  26.736  1.00  0.00     0.161 C 
ATOM     22  C   UNL A   1      31.324  23.154  26.245  1.00  0.00     0.044 C 
ENDBRANCH  14  17
ENDBRANCH   6  13
ENDBRANCH   3   5
ENDBRANCH   2   3
ENDBRANCH   1   2
BRANCH   1  23
ATOM     23  C   UNL A   1      37.881  20.730  25.306  1.00  0.00     0.275 C 
BRANCH  23  24
ATOM     24  O   UNL A   1      39.267  21.103  25.293  1.00  0.00    -0.458 OA
BRANCH  24  25
ATOM     25  C   UNL A   1      40.021  20.099  25.783  1.00  0.00     0.338 C 
ATOM     26  O   UNL A   1      39.833  18.903  25.596  1.00  0.00    -0.246 OA
BRANCH  25  27
ATOM     27  C   UNL A   1      41.185  20.537  26.563  1.00  0.00     0.060 A 
ATOM     28  C   UNL A   1      41.006  20.730  27.932  1.00  0.00     0.016 A 
ATOM     29  C   UNL A   1      42.064  21.336  25.832  1.00  0.00     0.016 A 
ATOM     30  C   UNL A   1      41.422  21.935  28.489  1.00  0.00     0.010 A 
ATOM     31  C   UNL A   1      42.521  22.507  26.402  1.00  0.00     0.010 A 
ATOM     32  C   UNL A   1      42.081  22.868  27.683  1.00  0.00    -0.014 A 
BRANCH  32  33
ATOM     33  C   UNL A   1      42.464  24.187  28.214  1.00  0.00     0.031 A 
ATOM     34  C   UNL A   1      41.468  25.275  27.958  1.00  0.00     0.074 A 
ATOM     35  C   UNL A   1      43.474  24.266  29.116  1.00  0.00     0.049 A 
ATOM     36  N   UNL A   1      41.646  26.558  27.891  1.00  0.00    -0.248 NA
ATOM     37  C   UNL A   1      40.070  24.859  27.704  1.00  0.00     0.031 C 
ATOM     38  C   UNL A   1      44.352  23.159  29.528  1.00  0.00     0.029 A 
ATOM     39  N   UNL A   1      43.801  25.256  30.008  1.00  0.00    -0.354 N 
ATOM     40  C   UNL A   1      40.364  27.102  27.786  1.00  0.00     0.074 A 
ATOM     41  C   UNL A   1      39.455  26.023  27.535  1.00  0.00     0.031 C 
ATOM     42  C   UNL A   1      44.881  23.437  30.735  1.00  0.00     0.029 A 
ATOM     43  C   UNL A   1      44.442  24.759  31.146  1.00  0.00     0.049 A 
ATOM     44  H   UNL A   1      43.606  26.210  29.862  1.00  0.00     0.167 HD
ATOM     45  C   UNL A   1      40.074  28.356  28.215  1.00  0.00     0.037 A 
ATOM     46  C   UNL A   1      44.502  25.313  32.383  1.00  0.00     0.037 A 
ATOM     47  C   UNL A   1      41.200  29.236  28.143  1.00  0.00     0.049 A 
ATOM     48  C   UNL A   1      44.092  26.729  32.280  1.00  0.00     0.074 A 
ATOM     49  C   UNL A   1      42.014  29.697  27.129  1.00  0.00     0.029 A 
ATOM     50  N   UNL A   1      41.811  29.587  29.316  1.00  0.00    -0.354 N 
ATOM     51  N   UNL A   1      44.801  27.679  31.745  1.00  0.00    -0.248 NA
ATOM     52  C   UNL A   1      42.694  27.059  32.527  1.00  0.00     0.031 C 
ATOM     53  C   UNL A   1      43.274  29.954  27.738  1.00  0.00     0.029 A 
ATOM     54  C   UNL A   1      43.160  29.638  29.092  1.00  0.00     0.049 A 
ATOM     55  H   UNL A   1      41.359  29.771  30.171  1.00  0.00     0.167 HD
ATOM     56  C   UNL A   1      43.867  28.544  31.203  1.00  0.00     0.074 A 
ATOM     57  C   UNL A   1      42.608  28.204  31.851  1.00  0.00     0.031 C 
ATOM     58  C   UNL A   1      44.148  29.248  30.070  1.00  0.00     0.037 A 
BRANCH  45  59
ATOM     59  C   UNL A   1      38.872  28.629  29.087  1.00  0.00     0.057 A 
ATOM     60  C   UNL A   1      37.908  29.560  28.669  1.00  0.00     0.134 A 
ATOM     61  C   UNL A   1      38.786  28.240  30.443  1.00  0.00     0.134 A 
ATOM     62  F   UNL A   1      37.910  30.033  27.414  1.00  0.00    -0.206 F 
ATOM     63  C   UNL A   1      36.964  30.103  29.550  1.00  0.00     0.040 A 
ATOM     64  C   UNL A   1      37.814  28.733  31.314  1.00  0.00     0.040 A 
ATOM     65  F   UNL A   1      39.694  27.442  31.019  1.00  0.00    -0.206 F 
ATOM     66  C   UNL A   1      36.918  29.692  30.878  1.00  0.00     0.006 A 
ENDBRANCH  45  59
BRANCH  46  67
ATOM     67  C   UNL A   1      44.647  24.649  33.706  1.00  0.00     0.057 A 
ATOM     68  C   UNL A   1      43.913  23.495  34.021  1.00  0.00     0.134 A 
ATOM     69  C   UNL A   1      45.670  24.984  34.611  1.00  0.00     0.134 A 
ATOM     70  F   UNL A   1      42.950  23.052  33.200  1.00  0.00    -0.206 F 
ATOM     71  C   UNL A   1      44.182  22.722  35.160  1.00  0.00     0.040 A 
ATOM     72  C   UNL A   1      45.933  24.235  35.764  1.00  0.00     0.040 A 
ATOM     73  F   UNL A   1      46.508  26.001  34.371  1.00  0.00    -0.206 F 
ATOM     74  C   UNL A   1      45.196  23.091  36.036  1.00  0.00     0.006 A 
ENDBRANCH  46  67
BRANCH  58  75
ATOM     75  C   UNL A   1      45.587  29.369  29.666  1.00  0.00     0.057 A 
ATOM     76  C   UNL A   1      46.261  28.430  28.872  1.00  0.00     0.134 A 
ATOM     77  C   UNL A   1      46.277  30.542  29.990  1.00  0.00     0.134 A 
ATOM     78  F   UNL A   1      45.645  27.325  28.430  1.00  0.00    -0.206 F 
ATOM     79  C   UNL A   1      47.582  28.628  28.464  1.00  0.00     0.040 A 
ATOM     80  C   UNL A   1      47.584  30.770  29.555  1.00  0.00     0.040 A 
ATOM     81  F   UNL A   1      45.673  31.511  30.697  1.00  0.00    -0.206 F 
ATOM     82  C   UNL A   1      48.246  29.804  28.800  1.00  0.00     0.006 A 
ENDBRANCH  58  75
ENDBRANCH  32  33
ENDBRANCH  25  27
ENDBRANCH  24  25
ENDBRANCH  23  24
ENDBRANCH   1  23
TORSDOF 13
ENDMDL
