MODEL 1
REMARK VINA RESULT:     -11.7      0.000      0.000
REMARK SMILES CC[C@@H](C)[C@H](NC(=O)N1CCn2c1nc1ccccc12)C(=O)N[C@H](C)C(=O)OCCOC(=O)c1ccc(-c2c3nc(c(-c4c(F)cccc4F)c4ccc([nH]4)c(-c4c(F)cccc4F)c4nc(c(-c5c(F)cccc5F)c5ccc2[nH]5)C=C4)C=C3)cc1
REMARK SMILES IDX 29 1 28 2 26 3 27 4 24 5 25 6 23 7 21 8 22 9 5 11 3 12 4 13
REMARK SMILES IDX 2 14 1 15 6 16 7 17 8 19 9 20 10 21 13 22 11 23 12 24 14 25
REMARK SMILES IDX 20 26 15 27 19 28 16 29 18 30 17 31 30 32 31 33 32 34 33 35
REMARK SMILES IDX 34 36 35 37 87 38 36 39 86 40 37 41 38 42 39 43 80 44 40 45
REMARK SMILES IDX 85 46 79 47 81 48 41 49 84 50 78 51 77 52 42 54 68 55 51 56
REMARK SMILES IDX 67 57 52 58 55 59 66 60 82 61 53 62 54 63 65 65 83 66 56 67
REMARK SMILES IDX 43 68 44 69 49 70 45 71 46 72 48 73 50 74 47 75 69 76 70 77
REMARK SMILES IDX 75 78 71 79 72 80 74 81 76 82 73 83 57 84 58 85 63 86 59 87
REMARK SMILES IDX 60 88 62 89 64 90 61 91
REMARK H PARENT 23 10 6 18 81 53 55 64
REMARK Flexibility Score: inf
ROOT
ATOM      1  C   UNL A   1      36.768  21.280  24.847  1.00  0.00     0.274 C 
ENDROOT
BRANCH   1   2
ATOM      2  O   UNL A   1      35.655  20.826  25.663  1.00  0.00    -0.461 OA
BRANCH   2   3
ATOM      3  C   UNL A   1      34.746  20.017  25.061  1.00  0.00     0.328 C 
ATOM      4  O   UNL A   1      35.000  18.918  24.630  1.00  0.00    -0.250 OA
BRANCH   3   5
ATOM      5  C   UNL A   1      33.384  20.677  24.820  1.00  0.00     0.189 C 
ATOM      6  C   UNL A   1      32.456  19.898  23.906  1.00  0.00     0.043 C 
BRANCH   5   7
ATOM      7  N   UNL A   1      32.703  21.383  25.934  1.00  0.00    -0.341 N 
ATOM      8  C   UNL A   1      32.481  22.657  26.376  1.00  0.00     0.243 C 
ATOM      9  O   UNL A   1      31.914  22.730  27.475  1.00  0.00    -0.273 OA
ATOM     10  H   UNL A   1      32.281  20.733  26.541  1.00  0.00     0.164 HD
BRANCH   8  11
ATOM     11  C   UNL A   1      32.655  23.945  25.523  1.00  0.00     0.176 C 
BRANCH  11  12
ATOM     12  C   UNL A   1      34.038  23.947  24.764  1.00  0.00     0.018 C 
ATOM     13  C   UNL A   1      35.211  24.648  25.457  1.00  0.00     0.010 C 
BRANCH  12  14
ATOM     14  C   UNL A   1      33.941  24.335  23.266  1.00  0.00     0.002 C 
ATOM     15  C   UNL A   1      33.198  23.341  22.369  1.00  0.00     0.004 C 
ENDBRANCH  12  14
ENDBRANCH  11  12
BRANCH  11  16
ATOM     16  N   UNL A   1      32.288  25.090  26.350  1.00  0.00    -0.326 N 
ATOM     17  C   UNL A   1      31.984  26.382  26.160  1.00  0.00     0.324 C 
ATOM     18  H   UNL A   1      32.256  24.849  27.305  1.00  0.00     0.166 HD
ATOM     19  O   UNL A   1      31.737  27.031  27.185  1.00  0.00    -0.248 OA
BRANCH  17  20
ATOM     20  N   UNL A   1      32.044  27.002  24.967  1.00  0.00    -0.262 N 
ATOM     21  C   UNL A   1      33.230  27.783  24.565  1.00  0.00     0.152 C 
ATOM     22  C   UNL A   1      30.949  27.460  24.284  1.00  0.00     0.214 A 
ATOM     23  C   UNL A   1      32.707  28.876  23.626  1.00  0.00     0.148 C 
ATOM     24  N   UNL A   1      31.321  28.490  23.470  1.00  0.00    -0.308 N 
ATOM     25  N   UNL A   1      29.655  27.302  24.294  1.00  0.00    -0.212 NA
ATOM     26  C   UNL A   1      30.234  29.037  22.887  1.00  0.00     0.070 A 
ATOM     27  C   UNL A   1      29.191  28.259  23.402  1.00  0.00     0.091 A 
ATOM     28  C   UNL A   1      30.045  30.100  22.005  1.00  0.00     0.028 A 
ATOM     29  C   UNL A   1      27.877  28.541  23.001  1.00  0.00     0.031 A 
ATOM     30  C   UNL A   1      28.727  30.355  21.613  1.00  0.00     0.002 A 
ATOM     31  C   UNL A   1      27.662  29.589  22.096  1.00  0.00     0.002 A 
ENDBRANCH  17  20
ENDBRANCH  11  16
ENDBRANCH   8  11
ENDBRANCH   5   7
ENDBRANCH   3   5
ENDBRANCH   2   3
ENDBRANCH   1   2
BRANCH   1  32
ATOM     32  C   UNL A   1      38.168  21.003  25.383  1.00  0.00     0.275 C 
BRANCH  32  33
ATOM     33  O   UNL A   1      38.753  22.230  25.843  1.00  0.00    -0.458 OA
BRANCH  33  34
ATOM     34  C   UNL A   1      39.759  22.123  26.742  1.00  0.00     0.338 C 
ATOM     35  O   UNL A   1      40.228  21.116  27.237  1.00  0.00    -0.246 OA
BRANCH  34  36
ATOM     36  C   UNL A   1      40.211  23.493  27.009  1.00  0.00     0.060 A 
ATOM     37  C   UNL A   1      41.510  23.864  26.671  1.00  0.00     0.016 A 
ATOM     38  C   UNL A   1      39.357  24.391  27.653  1.00  0.00     0.016 A 
ATOM     39  C   UNL A   1      41.944  25.148  26.988  1.00  0.00     0.010 A 
ATOM     40  C   UNL A   1      39.807  25.644  28.023  1.00  0.00     0.010 A 
ATOM     41  C   UNL A   1      41.092  26.042  27.665  1.00  0.00    -0.014 A 
BRANCH  41  42
ATOM     42  C   UNL A   1      41.530  27.429  27.868  1.00  0.00     0.031 A 
ATOM     43  C   UNL A   1      40.451  28.475  27.793  1.00  0.00     0.074 A 
ATOM     44  C   UNL A   1      42.610  27.665  28.636  1.00  0.00     0.049 A 
ATOM     45  N   UNL A   1      39.707  28.855  28.794  1.00  0.00    -0.248 NA
ATOM     46  C   UNL A   1      39.964  28.945  26.493  1.00  0.00     0.031 C 
ATOM     47  C   UNL A   1      42.878  26.984  29.907  1.00  0.00     0.029 A 
ATOM     48  N   UNL A   1      43.536  28.677  28.577  1.00  0.00    -0.354 N 
ATOM     49  C   UNL A   1      38.651  29.587  28.269  1.00  0.00     0.074 A 
ATOM     50  C   UNL A   1      38.859  29.621  26.840  1.00  0.00     0.031 C 
ATOM     51  C   UNL A   1      43.793  27.702  30.589  1.00  0.00     0.029 A 
ATOM     52  C   UNL A   1      44.261  28.810  29.756  1.00  0.00     0.049 A 
ATOM     53  H   UNL A   1      43.672  29.246  27.785  1.00  0.00     0.167 HD
ATOM     54  C   UNL A   1      37.657  30.131  29.023  1.00  0.00     0.037 A 
ATOM     55  C   UNL A   1      44.715  30.002  30.229  1.00  0.00     0.037 A 
ATOM     56  C   UNL A   1      37.743  29.915  30.434  1.00  0.00     0.049 A 
ATOM     57  C   UNL A   1      43.435  30.602  30.754  1.00  0.00     0.074 A 
ATOM     58  C   UNL A   1      37.179  29.093  31.385  1.00  0.00     0.029 A 
ATOM     59  N   UNL A   1      38.596  30.724  31.146  1.00  0.00    -0.354 N 
ATOM     60  N   UNL A   1      42.866  30.325  31.896  1.00  0.00    -0.248 NA
ATOM     61  C   UNL A   1      42.565  31.281  29.789  1.00  0.00     0.031 C 
ATOM     62  C   UNL A   1      38.073  29.136  32.502  1.00  0.00     0.029 A 
ATOM     63  C   UNL A   1      39.142  29.950  32.134  1.00  0.00     0.049 A 
ATOM     64  H   UNL A   1      38.778  31.677  30.977  1.00  0.00     0.167 HD
ATOM     65  C   UNL A   1      41.502  30.550  31.697  1.00  0.00     0.074 A 
ATOM     66  C   UNL A   1      41.390  31.170  30.392  1.00  0.00     0.031 C 
ATOM     67  C   UNL A   1      40.530  30.053  32.517  1.00  0.00     0.037 A 
BRANCH  54  68
ATOM     68  C   UNL A   1      36.634  31.079  28.530  1.00  0.00     0.057 A 
ATOM     69  C   UNL A   1      35.329  30.702  28.213  1.00  0.00     0.134 A 
ATOM     70  C   UNL A   1      36.911  32.450  28.639  1.00  0.00     0.134 A 
ATOM     71  F   UNL A   1      34.997  29.408  28.107  1.00  0.00    -0.206 F 
ATOM     72  C   UNL A   1      34.323  31.663  28.058  1.00  0.00     0.040 A 
ATOM     73  C   UNL A   1      35.916  33.414  28.502  1.00  0.00     0.040 A 
ATOM     74  F   UNL A   1      38.152  32.863  28.952  1.00  0.00    -0.206 F 
ATOM     75  C   UNL A   1      34.611  33.019  28.225  1.00  0.00     0.006 A 
ENDBRANCH  54  68
BRANCH  55  76
ATOM     76  C   UNL A   1      45.674  30.732  29.344  1.00  0.00     0.057 A 
ATOM     77  C   UNL A   1      45.775  32.123  29.217  1.00  0.00     0.134 A 
ATOM     78  C   UNL A   1      46.584  29.981  28.572  1.00  0.00     0.134 A 
ATOM     79  F   UNL A   1      45.050  32.947  29.984  1.00  0.00    -0.206 F 
ATOM     80  C   UNL A   1      46.627  32.725  28.284  1.00  0.00     0.040 A 
ATOM     81  C   UNL A   1      47.456  30.570  27.651  1.00  0.00     0.040 A 
ATOM     82  F   UNL A   1      46.644  28.646  28.698  1.00  0.00    -0.206 F 
ATOM     83  C   UNL A   1      47.459  31.948  27.486  1.00  0.00     0.006 A 
ENDBRANCH  55  76
BRANCH  67  84
ATOM     84  C   UNL A   1      41.019  29.359  33.740  1.00  0.00     0.057 A 
ATOM     85  C   UNL A   1      41.320  27.991  33.744  1.00  0.00     0.134 A 
ATOM     86  C   UNL A   1      41.183  30.062  34.937  1.00  0.00     0.134 A 
ATOM     87  F   UNL A   1      41.210  27.254  32.626  1.00  0.00    -0.206 F 
ATOM     88  C   UNL A   1      41.735  27.338  34.905  1.00  0.00     0.040 A 
ATOM     89  C   UNL A   1      41.627  29.426  36.097  1.00  0.00     0.040 A 
ATOM     90  F   UNL A   1      40.900  31.372  35.004  1.00  0.00    -0.206 F 
ATOM     91  C   UNL A   1      41.893  28.058  36.086  1.00  0.00     0.006 A 
ENDBRANCH  67  84
ENDBRANCH  41  42
ENDBRANCH  34  36
ENDBRANCH  33  34
ENDBRANCH  32  33
ENDBRANCH   1  32
TORSDOF 17
ENDMDL
MODEL 2
REMARK VINA RESULT:     -11.4      2.657      7.612
REMARK SMILES CC[C@@H](C)[C@H](NC(=O)N1CCn2c1nc1ccccc12)C(=O)N[C@H](C)C(=O)OCCOC(=O)c1ccc(-c2c3nc(c(-c4c(F)cccc4F)c4ccc([nH]4)c(-c4c(F)cccc4F)c4nc(c(-c5c(F)cccc5F)c5ccc2[nH]5)C=C4)C=C3)cc1
REMARK SMILES IDX 29 1 28 2 26 3 27 4 24 5 25 6 23 7 21 8 22 9 5 11 3 12 4 13
REMARK SMILES IDX 2 14 1 15 6 16 7 17 8 19 9 20 10 21 13 22 11 23 12 24 14 25
REMARK SMILES IDX 20 26 15 27 19 28 16 29 18 30 17 31 30 32 31 33 32 34 33 35
REMARK SMILES IDX 34 36 35 37 87 38 36 39 86 40 37 41 38 42 39 43 80 44 40 45
REMARK SMILES IDX 85 46 79 47 81 48 41 49 84 50 78 51 77 52 42 54 68 55 51 56
REMARK SMILES IDX 67 57 52 58 55 59 66 60 82 61 53 62 54 63 65 65 83 66 56 67
REMARK SMILES IDX 43 68 44 69 49 70 45 71 46 72 48 73 50 74 47 75 69 76 70 77
REMARK SMILES IDX 75 78 71 79 72 80 74 81 76 82 73 83 57 84 58 85 63 86 59 87
REMARK SMILES IDX 60 88 62 89 64 90 61 91
REMARK H PARENT 23 10 6 18 81 53 55 64
REMARK Flexibility Score: inf
ROOT
ATOM      1  C   UNL A   1      33.748  30.076  27.257  1.00  0.00     0.274 C 
ENDROOT
BRANCH   1   2
ATOM      2  O   UNL A   1      32.664  29.291  26.690  1.00  0.00    -0.461 OA
BRANCH   2   3
ATOM      3  C   UNL A   1      32.964  28.522  25.614  1.00  0.00     0.328 C 
ATOM      4  O   UNL A   1      33.884  27.741  25.576  1.00  0.00    -0.250 OA
BRANCH   3   5
ATOM      5  C   UNL A   1      32.131  28.839  24.367  1.00  0.00     0.189 C 
ATOM      6  C   UNL A   1      32.929  28.933  23.079  1.00  0.00     0.043 C 
BRANCH   5   7
ATOM      7  N   UNL A   1      30.781  28.240  24.214  1.00  0.00    -0.341 N 
ATOM      8  C   UNL A   1      30.204  27.018  24.010  1.00  0.00     0.243 C 
ATOM      9  O   UNL A   1      28.978  27.050  23.837  1.00  0.00    -0.273 OA
ATOM     10  H   UNL A   1      30.090  28.937  24.278  1.00  0.00     0.164 HD
BRANCH   8  11
ATOM     11  C   UNL A   1      30.907  25.647  24.222  1.00  0.00     0.176 C 
BRANCH  11  12
ATOM     12  C   UNL A   1      31.153  24.911  22.848  1.00  0.00     0.018 C 
ATOM     13  C   UNL A   1      32.083  23.694  22.869  1.00  0.00     0.010 C 
BRANCH  12  14
ATOM     14  C   UNL A   1      31.476  25.861  21.667  1.00  0.00     0.002 C 
ATOM     15  C   UNL A   1      32.766  25.555  20.902  1.00  0.00     0.004 C 
ENDBRANCH  12  14
ENDBRANCH  11  12
BRANCH  11  16
ATOM     16  N   UNL A   1      30.218  24.946  25.301  1.00  0.00    -0.326 N 
ATOM     17  C   UNL A   1      30.548  24.117  26.301  1.00  0.00     0.324 C 
ATOM     18  H   UNL A   1      29.251  25.131  25.290  1.00  0.00     0.166 HD
ATOM     19  O   UNL A   1      29.609  23.728  27.007  1.00  0.00    -0.248 OA
BRANCH  17  20
ATOM     20  N   UNL A   1      31.785  23.621  26.492  1.00  0.00    -0.262 N 
ATOM     21  C   UNL A   1      32.969  24.502  26.531  1.00  0.00     0.152 C 
ATOM     22  C   UNL A   1      32.172  22.360  26.125  1.00  0.00     0.214 A 
ATOM     23  C   UNL A   1      34.135  23.649  26.018  1.00  0.00     0.148 C 
ATOM     24  N   UNL A   1      33.519  22.345  25.909  1.00  0.00    -0.308 N 
ATOM     25  N   UNL A   1      31.620  21.229  25.784  1.00  0.00    -0.212 NA
ATOM     26  C   UNL A   1      33.898  21.145  25.422  1.00  0.00     0.070 A 
ATOM     27  C   UNL A   1      32.687  20.444  25.371  1.00  0.00     0.091 A 
ATOM     28  C   UNL A   1      35.120  20.609  25.019  1.00  0.00     0.028 A 
ATOM     29  C   UNL A   1      32.693  19.120  24.909  1.00  0.00     0.031 A 
ATOM     30  C   UNL A   1      35.101  19.284  24.571  1.00  0.00     0.002 A 
ATOM     31  C   UNL A   1      33.913  18.549  24.519  1.00  0.00     0.002 A 
ENDBRANCH  17  20
ENDBRANCH  11  16
ENDBRANCH   8  11
ENDBRANCH   5   7
ENDBRANCH   3   5
ENDBRANCH   2   3
ENDBRANCH   1   2
BRANCH   1  32
ATOM     32  C   UNL A   1      33.514  31.577  27.384  1.00  0.00     0.275 C 
BRANCH  32  33
ATOM     33  O   UNL A   1      34.272  32.084  28.492  1.00  0.00    -0.458 OA
BRANCH  33  34
ATOM     34  C   UNL A   1      35.429  32.720  28.195  1.00  0.00     0.338 C 
ATOM     35  O   UNL A   1      35.589  33.745  27.560  1.00  0.00    -0.246 OA
BRANCH  34  36
ATOM     36  C   UNL A   1      36.497  31.929  28.818  1.00  0.00     0.060 A 
ATOM     37  C   UNL A   1      36.898  32.223  30.118  1.00  0.00     0.016 A 
ATOM     38  C   UNL A   1      37.140  30.932  28.080  1.00  0.00     0.016 A 
ATOM     39  C   UNL A   1      37.955  31.506  30.671  1.00  0.00     0.010 A 
ATOM     40  C   UNL A   1      38.228  30.262  28.607  1.00  0.00     0.010 A 
ATOM     41  C   UNL A   1      38.622  30.522  29.916  1.00  0.00    -0.014 A 
BRANCH  41  42
ATOM     42  C   UNL A   1      39.644  29.692  30.569  1.00  0.00     0.031 A 
ATOM     43  C   UNL A   1      39.705  28.257  30.123  1.00  0.00     0.074 A 
ATOM     44  C   UNL A   1      40.766  30.279  31.024  1.00  0.00     0.049 A 
ATOM     45  N   UNL A   1      40.395  27.819  29.107  1.00  0.00    -0.248 NA
ATOM     46  C   UNL A   1      38.748  27.277  30.644  1.00  0.00     0.031 C 
ATOM     47  C   UNL A   1      41.512  31.305  30.288  1.00  0.00     0.029 A 
ATOM     48  N   UNL A   1      41.578  29.942  32.078  1.00  0.00    -0.354 N 
ATOM     49  C   UNL A   1      39.958  26.529  28.836  1.00  0.00     0.074 A 
ATOM     50  C   UNL A   1      38.942  26.236  29.820  1.00  0.00     0.031 C 
ATOM     51  C   UNL A   1      42.749  31.394  30.818  1.00  0.00     0.029 A 
ATOM     52  C   UNL A   1      42.835  30.532  31.997  1.00  0.00     0.049 A 
ATOM     53  H   UNL A   1      41.300  29.348  32.812  1.00  0.00     0.167 HD
ATOM     54  C   UNL A   1      40.444  25.761  27.823  1.00  0.00     0.037 A 
ATOM     55  C   UNL A   1      43.974  29.939  32.446  1.00  0.00     0.037 A 
ATOM     56  C   UNL A   1      41.465  26.353  27.015  1.00  0.00     0.049 A 
ATOM     57  C   UNL A   1      44.202  28.913  31.364  1.00  0.00     0.074 A 
ATOM     58  C   UNL A   1      41.578  26.964  25.785  1.00  0.00     0.029 A 
ATOM     59  N   UNL A   1      42.746  26.343  27.509  1.00  0.00    -0.354 N 
ATOM     60  N   UNL A   1      44.737  29.134  30.194  1.00  0.00    -0.248 NA
ATOM     61  C   UNL A   1      43.466  27.650  31.470  1.00  0.00     0.031 C 
ATOM     62  C   UNL A   1      42.805  27.700  25.839  1.00  0.00     0.029 A 
ATOM     63  C   UNL A   1      43.331  27.516  27.116  1.00  0.00     0.049 A 
ATOM     64  H   UNL A   1      43.164  25.629  28.044  1.00  0.00     0.167 HD
ATOM     65  C   UNL A   1      44.182  28.175  29.344  1.00  0.00     0.074 A 
ATOM     66  C   UNL A   1      43.437  27.273  30.199  1.00  0.00     0.031 C 
ATOM     67  C   UNL A   1      44.203  28.273  27.983  1.00  0.00     0.037 A 
BRANCH  54  68
ATOM     68  C   UNL A   1      40.153  24.325  27.627  1.00  0.00     0.057 A 
ATOM     69  C   UNL A   1      39.160  23.854  26.767  1.00  0.00     0.134 A 
ATOM     70  C   UNL A   1      41.084  23.398  28.121  1.00  0.00     0.134 A 
ATOM     71  F   UNL A   1      38.249  24.690  26.252  1.00  0.00    -0.206 F 
ATOM     72  C   UNL A   1      39.129  22.510  26.375  1.00  0.00     0.040 A 
ATOM     73  C   UNL A   1      41.073  22.063  27.727  1.00  0.00     0.040 A 
ATOM     74  F   UNL A   1      42.066  23.805  28.945  1.00  0.00    -0.206 F 
ATOM     75  C   UNL A   1      40.099  21.618  26.837  1.00  0.00     0.006 A 
ENDBRANCH  54  68
BRANCH  55  76
ATOM     76  C   UNL A   1      44.014  29.628  33.908  1.00  0.00     0.057 A 
ATOM     77  C   UNL A   1      44.635  28.518  34.493  1.00  0.00     0.134 A 
ATOM     78  C   UNL A   1      43.399  30.526  34.805  1.00  0.00     0.134 A 
ATOM     79  F   UNL A   1      45.355  27.657  33.763  1.00  0.00    -0.206 F 
ATOM     80  C   UNL A   1      44.534  28.244  35.862  1.00  0.00     0.040 A 
ATOM     81  C   UNL A   1      43.308  30.276  36.178  1.00  0.00     0.040 A 
ATOM     82  F   UNL A   1      42.867  31.676  34.360  1.00  0.00    -0.206 F 
ATOM     83  C   UNL A   1      43.855  29.115  36.707  1.00  0.00     0.006 A 
ENDBRANCH  55  76
BRANCH  67  84
ATOM     84  C   UNL A   1      44.989  29.414  27.437  1.00  0.00     0.057 A 
ATOM     85  C   UNL A   1      46.353  29.296  27.139  1.00  0.00     0.134 A 
ATOM     86  C   UNL A   1      44.382  30.653  27.213  1.00  0.00     0.134 A 
ATOM     87  F   UNL A   1      47.001  28.131  27.305  1.00  0.00    -0.206 F 
ATOM     88  C   UNL A   1      47.095  30.381  26.670  1.00  0.00     0.040 A 
ATOM     89  C   UNL A   1      45.105  31.737  26.714  1.00  0.00     0.040 A 
ATOM     90  F   UNL A   1      43.081  30.835  27.489  1.00  0.00    -0.206 F 
ATOM     91  C   UNL A   1      46.468  31.606  26.453  1.00  0.00     0.006 A 
ENDBRANCH  67  84
ENDBRANCH  41  42
ENDBRANCH  34  36
ENDBRANCH  33  34
ENDBRANCH  32  33
ENDBRANCH   1  32
TORSDOF 17
ENDMDL
MODEL 3
REMARK VINA RESULT:     -11.2      1.367      2.137
REMARK SMILES CC[C@@H](C)[C@H](NC(=O)N1CCn2c1nc1ccccc12)C(=O)N[C@H](C)C(=O)OCCOC(=O)c1ccc(-c2c3nc(c(-c4c(F)cccc4F)c4ccc([nH]4)c(-c4c(F)cccc4F)c4nc(c(-c5c(F)cccc5F)c5ccc2[nH]5)C=C4)C=C3)cc1
REMARK SMILES IDX 29 1 28 2 26 3 27 4 24 5 25 6 23 7 21 8 22 9 5 11 3 12 4 13
REMARK SMILES IDX 2 14 1 15 6 16 7 17 8 19 9 20 10 21 13 22 11 23 12 24 14 25
REMARK SMILES IDX 20 26 15 27 19 28 16 29 18 30 17 31 30 32 31 33 32 34 33 35
REMARK SMILES IDX 34 36 35 37 87 38 36 39 86 40 37 41 38 42 39 43 80 44 40 45
REMARK SMILES IDX 85 46 79 47 81 48 41 49 84 50 78 51 77 52 42 54 68 55 51 56
REMARK SMILES IDX 67 57 52 58 55 59 66 60 82 61 53 62 54 63 65 65 83 66 56 67
REMARK SMILES IDX 43 68 44 69 49 70 45 71 46 72 48 73 50 74 47 75 69 76 70 77
REMARK SMILES IDX 75 78 71 79 72 80 74 81 76 82 73 83 57 84 58 85 63 86 59 87
REMARK SMILES IDX 60 88 62 89 64 90 61 91
REMARK H PARENT 23 10 6 18 81 53 55 64
REMARK Flexibility Score: inf
ROOT
ATOM      1  C   UNL A   1      38.223  21.943  25.267  1.00  0.00     0.274 C 
ENDROOT
BRANCH   1   2
ATOM      2  O   UNL A   1      36.866  21.688  25.719  1.00  0.00    -0.461 OA
BRANCH   2   3
ATOM      3  C   UNL A   1      36.270  20.560  25.257  1.00  0.00     0.328 C 
ATOM      4  O   UNL A   1      36.859  19.661  24.707  1.00  0.00    -0.250 OA
BRANCH   3   5
ATOM      5  C   UNL A   1      34.740  20.581  25.344  1.00  0.00     0.189 C 
ATOM      6  C   UNL A   1      34.057  19.352  24.774  1.00  0.00     0.043 C 
BRANCH   5   7
ATOM      7  N   UNL A   1      34.080  21.152  26.545  1.00  0.00    -0.341 N 
ATOM      8  C   UNL A   1      33.345  22.246  26.905  1.00  0.00     0.243 C 
ATOM      9  O   UNL A   1      33.102  22.328  28.117  1.00  0.00    -0.273 OA
ATOM     10  H   UNL A   1      34.213  20.560  27.319  1.00  0.00     0.164 HD
BRANCH   8  11
ATOM     11  C   UNL A   1      32.620  23.204  25.917  1.00  0.00     0.176 C 
BRANCH  11  12
ATOM     12  C   UNL A   1      31.579  24.121  26.669  1.00  0.00     0.018 C 
ATOM     13  C   UNL A   1      30.096  23.793  26.475  1.00  0.00     0.010 C 
BRANCH  12  14
ATOM     14  C   UNL A   1      31.854  25.641  26.530  1.00  0.00     0.002 C 
ATOM     15  C   UNL A   1      33.248  26.020  26.023  1.00  0.00     0.004 C 
ENDBRANCH  12  14
ENDBRANCH  11  12
BRANCH  11  16
ATOM     16  N   UNL A   1      32.188  22.424  24.763  1.00  0.00    -0.326 N 
ATOM     17  C   UNL A   1      32.079  22.606  23.439  1.00  0.00     0.324 C 
ATOM     18  H   UNL A   1      31.897  21.521  25.027  1.00  0.00     0.166 HD
ATOM     19  O   UNL A   1      31.633  21.645  22.800  1.00  0.00    -0.248 OA
BRANCH  17  20
ATOM     20  N   UNL A   1      32.317  23.776  22.817  1.00  0.00    -0.262 N 
ATOM     21  C   UNL A   1      33.692  24.228  22.527  1.00  0.00     0.152 C 
ATOM     22  C   UNL A   1      31.490  24.865  22.888  1.00  0.00     0.214 A 
ATOM     23  C   UNL A   1      33.637  25.759  22.546  1.00  0.00     0.148 C 
ATOM     24  N   UNL A   1      32.216  26.000  22.677  1.00  0.00    -0.308 N 
ATOM     25  N   UNL A   1      30.264  25.139  23.239  1.00  0.00    -0.212 NA
ATOM     26  C   UNL A   1      31.443  27.089  22.871  1.00  0.00     0.070 A 
ATOM     27  C   UNL A   1      30.206  26.526  23.204  1.00  0.00     0.091 A 
ATOM     28  C   UNL A   1      31.678  28.462  22.809  1.00  0.00     0.028 A 
ATOM     29  C   UNL A   1      29.127  27.379  23.473  1.00  0.00     0.031 A 
ATOM     30  C   UNL A   1      30.584  29.292  23.073  1.00  0.00     0.002 A 
ATOM     31  C   UNL A   1      29.330  28.764  23.395  1.00  0.00     0.002 A 
ENDBRANCH  17  20
ENDBRANCH  11  16
ENDBRANCH   8  11
ENDBRANCH   5   7
ENDBRANCH   3   5
ENDBRANCH   2   3
ENDBRANCH   1   2
BRANCH   1  32
ATOM     32  C   UNL A   1      39.317  21.051  25.842  1.00  0.00     0.275 C 
BRANCH  32  33
ATOM     33  O   UNL A   1      40.468  21.849  26.152  1.00  0.00    -0.458 OA
BRANCH  33  34
ATOM     34  C   UNL A   1      40.755  22.018  27.464  1.00  0.00     0.338 C 
ATOM     35  O   UNL A   1      40.771  21.183  28.349  1.00  0.00    -0.246 OA
BRANCH  34  36
ATOM     36  C   UNL A   1      41.074  23.440  27.630  1.00  0.00     0.060 A 
ATOM     37  C   UNL A   1      42.386  23.873  27.456  1.00  0.00     0.016 A 
ATOM     38  C   UNL A   1      40.072  24.333  28.019  1.00  0.00     0.016 A 
ATOM     39  C   UNL A   1      42.683  25.214  27.680  1.00  0.00     0.010 A 
ATOM     40  C   UNL A   1      40.380  25.651  28.299  1.00  0.00     0.010 A 
ATOM     41  C   UNL A   1      41.679  26.107  28.101  1.00  0.00    -0.014 A 
BRANCH  41  42
ATOM     42  C   UNL A   1      41.994  27.539  28.201  1.00  0.00     0.031 A 
ATOM     43  C   UNL A   1      40.835  28.479  28.007  1.00  0.00     0.074 A 
ATOM     44  C   UNL A   1      43.023  27.927  28.977  1.00  0.00     0.049 A 
ATOM     45  N   UNL A   1      40.027  28.873  28.951  1.00  0.00    -0.248 NA
ATOM     46  C   UNL A   1      40.358  28.799  26.659  1.00  0.00     0.031 C 
ATOM     47  C   UNL A   1      43.301  27.376  30.307  1.00  0.00     0.029 A 
ATOM     48  N   UNL A   1      43.863  29.006  28.860  1.00  0.00    -0.354 N 
ATOM     49  C   UNL A   1      38.934  29.469  28.337  1.00  0.00     0.074 A 
ATOM     50  C   UNL A   1      39.189  29.405  26.916  1.00  0.00     0.031 C 
ATOM     51  C   UNL A   1      44.129  28.222  30.953  1.00  0.00     0.029 A 
ATOM     52  C   UNL A   1      44.532  29.295  30.044  1.00  0.00     0.049 A 
ATOM     53  H   UNL A   1      43.979  29.519  28.028  1.00  0.00     0.167 HD
ATOM     54  C   UNL A   1      37.872  29.985  29.014  1.00  0.00     0.037 A 
ATOM     55  C   UNL A   1      44.869  30.556  30.429  1.00  0.00     0.037 A 
ATOM     56  C   UNL A   1      37.926  29.892  30.440  1.00  0.00     0.049 A 
ATOM     57  C   UNL A   1      43.525  31.085  30.865  1.00  0.00     0.074 A 
ATOM     58  C   UNL A   1      37.398  29.103  31.440  1.00  0.00     0.029 A 
ATOM     59  N   UNL A   1      38.682  30.825  31.106  1.00  0.00    -0.354 N 
ATOM     60  N   UNL A   1      42.942  30.854  32.009  1.00  0.00    -0.248 NA
ATOM     61  C   UNL A   1      42.638  31.607  29.822  1.00  0.00     0.031 C 
ATOM     62  C   UNL A   1      38.245  29.313  32.575  1.00  0.00     0.029 A 
ATOM     63  C   UNL A   1      39.255  30.183  32.170  1.00  0.00     0.049 A 
ATOM     64  H   UNL A   1      38.791  31.773  30.864  1.00  0.00     0.167 HD
ATOM     65  C   UNL A   1      41.571  30.945  31.754  1.00  0.00     0.074 A 
ATOM     66  C   UNL A   1      41.455  31.445  30.398  1.00  0.00     0.031 C 
ATOM     67  C   UNL A   1      40.615  30.434  32.583  1.00  0.00     0.037 A 
BRANCH  54  68
ATOM     68  C   UNL A   1      36.792  30.799  28.415  1.00  0.00     0.057 A 
ATOM     69  C   UNL A   1      35.537  30.286  28.088  1.00  0.00     0.134 A 
ATOM     70  C   UNL A   1      36.948  32.193  28.422  1.00  0.00     0.134 A 
ATOM     71  F   UNL A   1      35.320  28.964  28.075  1.00  0.00    -0.206 F 
ATOM     72  C   UNL A   1      34.460  31.141  27.825  1.00  0.00     0.040 A 
ATOM     73  C   UNL A   1      35.882  33.053  28.177  1.00  0.00     0.040 A 
ATOM     74  F   UNL A   1      38.137  32.736  28.740  1.00  0.00    -0.206 F 
ATOM     75  C   UNL A   1      34.626  32.525  27.891  1.00  0.00     0.006 A 
ENDBRANCH  54  68
BRANCH  55  76
ATOM     76  C   UNL A   1      45.795  31.292  29.514  1.00  0.00     0.057 A 
ATOM     77  C   UNL A   1      45.451  31.852  28.278  1.00  0.00     0.134 A 
ATOM     78  C   UNL A   1      47.135  31.471  29.914  1.00  0.00     0.134 A 
ATOM     79  F   UNL A   1      44.186  31.854  27.841  1.00  0.00    -0.206 F 
ATOM     80  C   UNL A   1      46.405  32.431  27.432  1.00  0.00     0.040 A 
ATOM     81  C   UNL A   1      48.094  32.067  29.089  1.00  0.00     0.040 A 
ATOM     82  F   UNL A   1      47.544  31.067  31.128  1.00  0.00    -0.206 F 
ATOM     83  C   UNL A   1      47.734  32.526  27.829  1.00  0.00     0.006 A 
ENDBRANCH  55  76
BRANCH  67  84
ATOM     84  C   UNL A   1      41.116  29.886  33.874  1.00  0.00     0.057 A 
ATOM     85  C   UNL A   1      41.281  30.694  35.006  1.00  0.00     0.134 A 
ATOM     86  C   UNL A   1      41.450  28.533  33.989  1.00  0.00     0.134 A 
ATOM     87  F   UNL A   1      40.959  31.998  34.980  1.00  0.00    -0.206 F 
ATOM     88  C   UNL A   1      41.793  30.183  36.199  1.00  0.00     0.040 A 
ATOM     89  C   UNL A   1      41.933  28.004  35.186  1.00  0.00     0.040 A 
ATOM     90  F   UNL A   1      41.327  27.708  32.938  1.00  0.00    -0.206 F 
ATOM     91  C   UNL A   1      42.117  28.832  36.293  1.00  0.00     0.006 A 
ENDBRANCH  67  84
ENDBRANCH  41  42
ENDBRANCH  34  36
ENDBRANCH  33  34
ENDBRANCH  32  33
ENDBRANCH   1  32
TORSDOF 17
ENDMDL
