MODEL 1
REMARK VINA RESULT:     -11.6      0.000      0.000
REMARK SMILES O=C(OCCOC(=O)[C@H]1CSCN1C(=O)c1cnc2ccccn2c1=O)c1ccc(-c2c3nc(c(-c4c(F)cccc4F)c4ccc([nH]4)c(-c4c(F)cccc4F)c4nc(c(-c5c(F)cccc5F)c5ccc2[nH]5)C=C4)C=C3)cc1
REMARK SMILES IDX 4 1 3 2 2 3 1 4 27 5 28 6 80 7 29 8 79 9 30 10 31 11 32 12
REMARK SMILES IDX 73 13 33 14 78 15 72 16 74 17 34 18 77 19 71 20 70 21 35 23
REMARK SMILES IDX 61 24 44 25 60 26 45 27 48 28 59 29 75 30 46 31 47 32 58 34
REMARK SMILES IDX 76 35 49 36 36 37 37 38 42 39 38 40 39 41 41 42 43 43 40 44
REMARK SMILES IDX 62 45 63 46 68 47 64 48 65 49 67 50 69 51 66 52 50 53 51 54
REMARK SMILES IDX 56 55 52 56 53 57 55 58 57 59 54 60 5 61 6 62 7 63 8 64 9 65
REMARK SMILES IDX 10 66 13 67 11 68 12 69 14 70 15 71 16 72 17 73 25 74 18 75
REMARK SMILES IDX 24 76 26 77 19 78 23 79 20 80 22 81 21 82
REMARK H PARENT 74 22 48 33
REMARK Flexibility Score: inf
ROOT
ATOM      1  C   UNL A   1      31.465  32.066  26.907  1.00  0.00     0.275 C 
ENDROOT
BRANCH   1   2
ATOM      2  O   UNL A   1      32.565  32.991  26.829  1.00  0.00    -0.458 OA
BRANCH   2   3
ATOM      3  C   UNL A   1      32.913  33.734  27.911  1.00  0.00     0.338 C 
ATOM      4  O   UNL A   1      32.351  34.781  28.197  1.00  0.00    -0.246 OA
BRANCH   3   5
ATOM      5  C   UNL A   1      34.232  33.403  28.525  1.00  0.00     0.060 A 
ATOM      6  C   UNL A   1      35.458  33.617  27.885  1.00  0.00     0.016 A 
ATOM      7  C   UNL A   1      34.223  32.801  29.791  1.00  0.00     0.016 A 
ATOM      8  C   UNL A   1      36.662  33.273  28.511  1.00  0.00     0.010 A 
ATOM      9  C   UNL A   1      35.427  32.465  30.423  1.00  0.00     0.010 A 
ATOM     10  C   UNL A   1      36.658  32.689  29.779  1.00  0.00    -0.014 A 
BRANCH  10  11
ATOM     11  C   UNL A   1      37.913  32.169  30.378  1.00  0.00     0.031 A 
ATOM     12  C   UNL A   1      38.429  30.844  29.906  1.00  0.00     0.074 A 
ATOM     13  C   UNL A   1      38.587  32.843  31.330  1.00  0.00     0.049 A 
ATOM     14  N   UNL A   1      39.495  30.198  30.294  1.00  0.00    -0.248 NA
ATOM     15  C   UNL A   1      37.683  30.189  28.818  1.00  0.00     0.031 C 
ATOM     16  C   UNL A   1      38.304  34.202  31.766  1.00  0.00     0.029 A 
ATOM     17  N   UNL A   1      39.621  32.458  32.146  1.00  0.00    -0.354 N 
ATOM     18  C   UNL A   1      39.586  29.098  29.456  1.00  0.00     0.074 A 
ATOM     19  C   UNL A   1      38.427  29.117  28.591  1.00  0.00     0.031 C 
ATOM     20  C   UNL A   1      38.990  34.472  32.887  1.00  0.00     0.029 A 
ATOM     21  C   UNL A   1      39.844  33.333  33.186  1.00  0.00     0.049 A 
ATOM     22  H   UNL A   1      40.149  31.641  32.002  1.00  0.00     0.167 HD
ATOM     23  C   UNL A   1      40.580  28.185  29.390  1.00  0.00     0.037 A 
ATOM     24  C   UNL A   1      40.654  33.228  34.256  1.00  0.00     0.037 A 
ATOM     25  C   UNL A   1      41.711  28.167  30.276  1.00  0.00     0.049 A 
ATOM     26  C   UNL A   1      41.626  32.087  34.292  1.00  0.00     0.074 A 
ATOM     27  C   UNL A   1      42.803  27.319  30.264  1.00  0.00     0.029 A 
ATOM     28  N   UNL A   1      41.876  29.021  31.355  1.00  0.00    -0.354 N 
ATOM     29  N   UNL A   1      41.778  31.117  33.423  1.00  0.00    -0.248 NA
ATOM     30  C   UNL A   1      42.582  32.055  35.407  1.00  0.00     0.031 C 
ATOM     31  C   UNL A   1      43.594  27.617  31.378  1.00  0.00     0.029 A 
ATOM     32  C   UNL A   1      43.019  28.679  32.058  1.00  0.00     0.049 A 
ATOM     33  H   UNL A   1      41.270  29.762  31.589  1.00  0.00     0.167 HD
ATOM     34  C   UNL A   1      42.881  30.395  33.849  1.00  0.00     0.074 A 
ATOM     35  C   UNL A   1      43.352  31.031  35.064  1.00  0.00     0.031 C 
ATOM     36  C   UNL A   1      43.466  29.319  33.269  1.00  0.00     0.037 A 
BRANCH  23  37
ATOM     37  C   UNL A   1      40.472  27.137  28.328  1.00  0.00     0.057 A 
ATOM     38  C   UNL A   1      39.678  25.996  28.502  1.00  0.00     0.134 A 
ATOM     39  C   UNL A   1      41.157  27.275  27.117  1.00  0.00     0.134 A 
ATOM     40  F   UNL A   1      39.013  25.797  29.650  1.00  0.00    -0.206 F 
ATOM     41  C   UNL A   1      39.581  25.019  27.510  1.00  0.00     0.040 A 
ATOM     42  C   UNL A   1      41.055  26.314  26.112  1.00  0.00     0.040 A 
ATOM     43  F   UNL A   1      41.939  28.343  26.897  1.00  0.00    -0.206 F 
ATOM     44  C   UNL A   1      40.268  25.180  26.308  1.00  0.00     0.006 A 
ENDBRANCH  23  37
BRANCH  24  45
ATOM     45  C   UNL A   1      40.604  34.235  35.345  1.00  0.00     0.057 A 
ATOM     46  C   UNL A   1      39.776  34.077  36.461  1.00  0.00     0.134 A 
ATOM     47  C   UNL A   1      41.369  35.408  35.273  1.00  0.00     0.134 A 
ATOM     48  F   UNL A   1      39.009  32.983  36.581  1.00  0.00    -0.206 F 
ATOM     49  C   UNL A   1      39.686  35.058  37.451  1.00  0.00     0.040 A 
ATOM     50  C   UNL A   1      41.303  36.389  36.265  1.00  0.00     0.040 A 
ATOM     51  F   UNL A   1      42.186  35.621  34.231  1.00  0.00    -0.206 F 
ATOM     52  C   UNL A   1      40.452  36.219  37.355  1.00  0.00     0.006 A 
ENDBRANCH  24  45
BRANCH  36  53
ATOM     53  C   UNL A   1      44.686  28.766  33.937  1.00  0.00     0.057 A 
ATOM     54  C   UNL A   1      44.603  27.717  34.858  1.00  0.00     0.134 A 
ATOM     55  C   UNL A   1      45.959  29.253  33.613  1.00  0.00     0.134 A 
ATOM     56  F   UNL A   1      43.410  27.223  35.220  1.00  0.00    -0.206 F 
ATOM     57  C   UNL A   1      45.746  27.174  35.444  1.00  0.00     0.040 A 
ATOM     58  C   UNL A   1      47.111  28.702  34.174  1.00  0.00     0.040 A 
ATOM     59  F   UNL A   1      46.102  30.256  32.734  1.00  0.00    -0.206 F 
ATOM     60  C   UNL A   1      47.005  27.660  35.093  1.00  0.00     0.006 A 
ENDBRANCH  36  53
ENDBRANCH  10  11
ENDBRANCH   3   5
ENDBRANCH   2   3
ENDBRANCH   1   2
BRANCH   1  61
ATOM     61  C   UNL A   1      31.956  30.619  26.808  1.00  0.00     0.274 C 
BRANCH  61  62
ATOM     62  O   UNL A   1      32.930  30.499  25.761  1.00  0.00    -0.461 OA
BRANCH  62  63
ATOM     63  C   UNL A   1      32.729  29.474  24.867  1.00  0.00     0.329 C 
ATOM     64  O   UNL A   1      33.603  28.959  24.190  1.00  0.00    -0.250 OA
BRANCH  63  65
ATOM     65  C   UNL A   1      31.268  29.009  24.971  1.00  0.00     0.206 C 
ATOM     66  C   UNL A   1      30.472  29.512  23.780  1.00  0.00     0.108 C 
ATOM     67  N   UNL A   1      31.054  27.570  25.111  1.00  0.00    -0.314 N 
ATOM     68  S   UNL A   1      30.108  28.081  22.750  1.00  0.00    -0.138 SA
ATOM     69  C   UNL A   1      30.085  27.013  24.185  1.00  0.00     0.191 C 
BRANCH  67  70
ATOM     70  C   UNL A   1      31.499  26.938  26.253  1.00  0.00     0.262 C 
ATOM     71  O   UNL A   1      31.174  27.304  27.380  1.00  0.00    -0.269 OA
BRANCH  70  72
ATOM     72  C   UNL A   1      32.379  25.771  26.055  1.00  0.00     0.124 A 
ATOM     73  C   UNL A   1      33.500  25.901  25.339  1.00  0.00     0.133 A 
ATOM     74  C   UNL A   1      32.090  24.449  26.646  1.00  0.00     0.270 A 
ATOM     75  N   UNL A   1      34.452  24.926  25.194  1.00  0.00    -0.237 NA
ATOM     76  N   UNL A   1      33.138  23.544  26.614  1.00  0.00    -0.267 N 
ATOM     77  O   UNL A   1      31.001  24.218  27.173  1.00  0.00    -0.268 OA
ATOM     78  C   UNL A   1      34.265  23.818  25.847  1.00  0.00     0.139 A 
ATOM     79  C   UNL A   1      33.027  22.368  27.344  1.00  0.00     0.096 A 
ATOM     80  C   UNL A   1      35.310  22.759  25.798  1.00  0.00     0.048 A 
ATOM     81  C   UNL A   1      33.994  21.444  27.337  1.00  0.00     0.019 A 
ATOM     82  C   UNL A   1      35.164  21.644  26.525  1.00  0.00     0.005 A 
ENDBRANCH  70  72
ENDBRANCH  67  70
ENDBRANCH  63  65
ENDBRANCH  62  63
ENDBRANCH  61  62
ENDBRANCH   1  61
TORSDOF 13
ENDMDL
MODEL 2
REMARK VINA RESULT:     -11.6      4.719      9.528
REMARK SMILES O=C(OCCOC(=O)[C@H]1CSCN1C(=O)c1cnc2ccccn2c1=O)c1ccc(-c2c3nc(c(-c4c(F)cccc4F)c4ccc([nH]4)c(-c4c(F)cccc4F)c4nc(c(-c5c(F)cccc5F)c5ccc2[nH]5)C=C4)C=C3)cc1
REMARK SMILES IDX 4 1 3 2 2 3 1 4 27 5 28 6 80 7 29 8 79 9 30 10 31 11 32 12
REMARK SMILES IDX 73 13 33 14 78 15 72 16 74 17 34 18 77 19 71 20 70 21 35 23
REMARK SMILES IDX 61 24 44 25 60 26 45 27 48 28 59 29 75 30 46 31 47 32 58 34
REMARK SMILES IDX 76 35 49 36 36 37 37 38 42 39 38 40 39 41 41 42 43 43 40 44
REMARK SMILES IDX 62 45 63 46 68 47 64 48 65 49 67 50 69 51 66 52 50 53 51 54
REMARK SMILES IDX 56 55 52 56 53 57 55 58 57 59 54 60 5 61 6 62 7 63 8 64 9 65
REMARK SMILES IDX 10 66 13 67 11 68 12 69 14 70 15 71 16 72 17 73 25 74 18 75
REMARK SMILES IDX 24 76 26 77 19 78 23 79 20 80 22 81 21 82
REMARK H PARENT 74 22 48 33
REMARK Flexibility Score: inf
ROOT
ATOM      1  C   UNL A   1      39.009  20.788  25.472  1.00  0.00     0.275 C 
ENDROOT
BRANCH   1   2
ATOM      2  O   UNL A   1      39.692  19.569  25.816  1.00  0.00    -0.458 OA
BRANCH   2   3
ATOM      3  C   UNL A   1      41.042  19.557  25.955  1.00  0.00     0.338 C 
ATOM      4  O   UNL A   1      41.694  18.522  25.943  1.00  0.00    -0.246 OA
BRANCH   3   5
ATOM      5  C   UNL A   1      41.650  20.814  26.477  1.00  0.00     0.060 A 
ATOM      6  C   UNL A   1      41.593  21.202  27.820  1.00  0.00     0.016 A 
ATOM      7  C   UNL A   1      42.265  21.669  25.550  1.00  0.00     0.016 A 
ATOM      8  C   UNL A   1      42.173  22.404  28.244  1.00  0.00     0.010 A 
ATOM      9  C   UNL A   1      42.856  22.866  25.974  1.00  0.00     0.010 A 
ATOM     10  C   UNL A   1      42.802  23.248  27.328  1.00  0.00    -0.014 A 
BRANCH  10  11
ATOM     11  C   UNL A   1      43.270  24.595  27.736  1.00  0.00     0.031 A 
ATOM     12  C   UNL A   1      42.247  25.670  27.945  1.00  0.00     0.074 A 
ATOM     13  C   UNL A   1      44.576  24.879  27.911  1.00  0.00     0.049 A 
ATOM     14  N   UNL A   1      42.430  26.914  28.293  1.00  0.00    -0.248 NA
ATOM     15  C   UNL A   1      40.835  25.280  27.801  1.00  0.00     0.031 C 
ATOM     16  C   UNL A   1      45.660  23.910  27.908  1.00  0.00     0.029 A 
ATOM     17  N   UNL A   1      45.224  26.078  28.076  1.00  0.00    -0.354 N 
ATOM     18  C   UNL A   1      41.160  27.438  28.475  1.00  0.00     0.074 A 
ATOM     19  C   UNL A   1      40.213  26.404  28.123  1.00  0.00     0.031 C 
ATOM     20  C   UNL A   1      46.840  24.547  27.857  1.00  0.00     0.029 A 
ATOM     21  C   UNL A   1      46.590  25.978  27.933  1.00  0.00     0.049 A 
ATOM     22  H   UNL A   1      44.759  26.922  28.276  1.00  0.00     0.167 HD
ATOM     23  C   UNL A   1      40.825  28.661  28.942  1.00  0.00     0.037 A 
ATOM     24  C   UNL A   1      47.534  26.936  27.879  1.00  0.00     0.037 A 
ATOM     25  C   UNL A   1      41.781  29.686  29.262  1.00  0.00     0.049 A 
ATOM     26  C   UNL A   1      47.125  28.344  28.195  1.00  0.00     0.074 A 
ATOM     27  C   UNL A   1      41.553  30.942  29.793  1.00  0.00     0.029 A 
ATOM     28  N   UNL A   1      43.147  29.579  29.047  1.00  0.00    -0.354 N 
ATOM     29  N   UNL A   1      45.931  28.801  28.483  1.00  0.00    -0.248 NA
ATOM     30  C   UNL A   1      48.189  29.356  28.247  1.00  0.00     0.031 C 
ATOM     31  C   UNL A   1      42.776  31.621  29.835  1.00  0.00     0.029 A 
ATOM     32  C   UNL A   1      43.769  30.772  29.372  1.00  0.00     0.049 A 
ATOM     33  H   UNL A   1      43.606  28.775  28.712  1.00  0.00     0.167 HD
ATOM     34  C   UNL A   1      46.104  30.136  28.811  1.00  0.00     0.074 A 
ATOM     35  C   UNL A   1      47.520  30.419  28.671  1.00  0.00     0.031 C 
ATOM     36  C   UNL A   1      45.177  31.037  29.218  1.00  0.00     0.037 A 
BRANCH  23  37
ATOM     37  C   UNL A   1      39.368  28.945  29.124  1.00  0.00     0.057 A 
ATOM     38  C   UNL A   1      38.573  29.403  28.065  1.00  0.00     0.134 A 
ATOM     39  C   UNL A   1      38.752  28.747  30.364  1.00  0.00     0.134 A 
ATOM     40  F   UNL A   1      39.111  29.631  26.858  1.00  0.00    -0.206 F 
ATOM     41  C   UNL A   1      37.214  29.669  28.239  1.00  0.00     0.040 A 
ATOM     42  C   UNL A   1      37.391  28.993  30.545  1.00  0.00     0.040 A 
ATOM     43  F   UNL A   1      39.464  28.317  31.416  1.00  0.00    -0.206 F 
ATOM     44  C   UNL A   1      36.619  29.458  29.482  1.00  0.00     0.006 A 
ENDBRANCH  23  37
BRANCH  24  45
ATOM     45  C   UNL A   1      48.941  26.595  27.551  1.00  0.00     0.057 A 
ATOM     46  C   UNL A   1      49.403  26.554  26.231  1.00  0.00     0.134 A 
ATOM     47  C   UNL A   1      49.854  26.267  28.563  1.00  0.00     0.134 A 
ATOM     48  F   UNL A   1      48.573  26.843  25.218  1.00  0.00    -0.206 F 
ATOM     49  C   UNL A   1      50.711  26.171  25.925  1.00  0.00     0.040 A 
ATOM     50  C   UNL A   1      51.170  25.900  28.272  1.00  0.00     0.040 A 
ATOM     51  F   UNL A   1      49.477  26.289  29.850  1.00  0.00    -0.206 F 
ATOM     52  C   UNL A   1      51.599  25.842  26.948  1.00  0.00     0.006 A 
ENDBRANCH  24  45
BRANCH  36  53
ATOM     53  C   UNL A   1      45.666  32.412  29.549  1.00  0.00     0.057 A 
ATOM     54  C   UNL A   1      46.144  32.730  30.825  1.00  0.00     0.134 A 
ATOM     55  C   UNL A   1      45.709  33.410  28.567  1.00  0.00     0.134 A 
ATOM     56  F   UNL A   1      46.110  31.820  31.810  1.00  0.00    -0.206 F 
ATOM     57  C   UNL A   1      46.642  33.999  31.117  1.00  0.00     0.040 A 
ATOM     58  C   UNL A   1      46.228  34.675  28.841  1.00  0.00     0.040 A 
ATOM     59  F   UNL A   1      45.268  33.164  27.325  1.00  0.00    -0.206 F 
ATOM     60  C   UNL A   1      46.694  34.973  30.120  1.00  0.00     0.006 A 
ENDBRANCH  36  53
ENDBRANCH  10  11
ENDBRANCH   3   5
ENDBRANCH   2   3
ENDBRANCH   1   2
BRANCH   1  61
ATOM     61  C   UNL A   1      37.516  20.535  25.240  1.00  0.00     0.274 C 
BRANCH  61  62
ATOM     62  O   UNL A   1      36.741  21.598  25.815  1.00  0.00    -0.461 OA
BRANCH  62  63
ATOM     63  C   UNL A   1      35.396  21.348  25.963  1.00  0.00     0.329 C 
ATOM     64  O   UNL A   1      34.771  21.501  26.998  1.00  0.00    -0.250 OA
BRANCH  63  65
ATOM     65  C   UNL A   1      34.809  20.985  24.590  1.00  0.00     0.206 C 
ATOM     66  C   UNL A   1      33.882  19.788  24.718  1.00  0.00     0.108 C 
ATOM     67  N   UNL A   1      34.107  22.053  23.882  1.00  0.00    -0.314 N 
ATOM     68  S   UNL A   1      32.204  20.395  24.482  1.00  0.00    -0.138 SA
ATOM     69  C   UNL A   1      32.791  21.688  23.393  1.00  0.00     0.191 C 
BRANCH  67  70
ATOM     70  C   UNL A   1      34.824  23.152  23.458  1.00  0.00     0.262 C 
ATOM     71  O   UNL A   1      35.827  23.056  22.754  1.00  0.00    -0.269 OA
BRANCH  70  72
ATOM     72  C   UNL A   1      34.309  24.470  23.874  1.00  0.00     0.124 A 
ATOM     73  C   UNL A   1      34.382  24.833  25.158  1.00  0.00     0.133 A 
ATOM     74  C   UNL A   1      33.735  25.438  22.917  1.00  0.00     0.270 A 
ATOM     75  N   UNL A   1      34.055  26.074  25.639  1.00  0.00    -0.237 NA
ATOM     76  N   UNL A   1      33.565  26.723  23.405  1.00  0.00    -0.267 N 
ATOM     77  O   UNL A   1      33.488  25.107  21.757  1.00  0.00    -0.268 OA
ATOM     78  C   UNL A   1      33.698  26.969  24.767  1.00  0.00     0.139 A 
ATOM     79  C   UNL A   1      33.247  27.739  22.513  1.00  0.00     0.096 A 
ATOM     80  C   UNL A   1      33.418  28.358  25.222  1.00  0.00     0.048 A 
ATOM     81  C   UNL A   1      33.048  28.996  22.923  1.00  0.00     0.019 A 
ATOM     82  C   UNL A   1      33.122  29.308  24.325  1.00  0.00     0.005 A 
ENDBRANCH  70  72
ENDBRANCH  67  70
ENDBRANCH  63  65
ENDBRANCH  62  63
ENDBRANCH  61  62
ENDBRANCH   1  61
TORSDOF 13
ENDMDL
MODEL 3
REMARK VINA RESULT:     -11.5      0.781      1.546
REMARK SMILES O=C(OCCOC(=O)[C@H]1CSCN1C(=O)c1cnc2ccccn2c1=O)c1ccc(-c2c3nc(c(-c4c(F)cccc4F)c4ccc([nH]4)c(-c4c(F)cccc4F)c4nc(c(-c5c(F)cccc5F)c5ccc2[nH]5)C=C4)C=C3)cc1
REMARK SMILES IDX 4 1 3 2 2 3 1 4 27 5 28 6 80 7 29 8 79 9 30 10 31 11 32 12
REMARK SMILES IDX 73 13 33 14 78 15 72 16 74 17 34 18 77 19 71 20 70 21 35 23
REMARK SMILES IDX 61 24 44 25 60 26 45 27 48 28 59 29 75 30 46 31 47 32 58 34
REMARK SMILES IDX 76 35 49 36 36 37 37 38 42 39 38 40 39 41 41 42 43 43 40 44
REMARK SMILES IDX 62 45 63 46 68 47 64 48 65 49 67 50 69 51 66 52 50 53 51 54
REMARK SMILES IDX 56 55 52 56 53 57 55 58 57 59 54 60 5 61 6 62 7 63 8 64 9 65
REMARK SMILES IDX 10 66 13 67 11 68 12 69 14 70 15 71 16 72 17 73 25 74 18 75
REMARK SMILES IDX 24 76 26 77 19 78 23 79 20 80 22 81 21 82
REMARK H PARENT 74 22 48 33
REMARK Flexibility Score: inf
ROOT
ATOM      1  C   UNL A   1      32.828  31.922  27.516  1.00  0.00     0.275 C 
ENDROOT
BRANCH   1   2
ATOM      2  O   UNL A   1      32.384  33.291  27.486  1.00  0.00    -0.458 OA
BRANCH   2   3
ATOM      3  C   UNL A   1      32.903  34.198  28.353  1.00  0.00     0.338 C 
ATOM      4  O   UNL A   1      32.542  35.366  28.376  1.00  0.00    -0.246 OA
BRANCH   3   5
ATOM      5  C   UNL A   1      34.172  33.797  29.025  1.00  0.00     0.060 A 
ATOM      6  C   UNL A   1      35.438  33.973  28.456  1.00  0.00     0.016 A 
ATOM      7  C   UNL A   1      34.072  33.165  30.273  1.00  0.00     0.016 A 
ATOM      8  C   UNL A   1      36.592  33.563  29.134  1.00  0.00     0.010 A 
ATOM      9  C   UNL A   1      35.226  32.764  30.958  1.00  0.00     0.010 A 
ATOM     10  C   UNL A   1      36.498  32.950  30.385  1.00  0.00    -0.014 A 
BRANCH  10  11
ATOM     11  C   UNL A   1      37.696  32.363  31.033  1.00  0.00     0.031 A 
ATOM     12  C   UNL A   1      38.252  31.087  30.477  1.00  0.00     0.074 A 
ATOM     13  C   UNL A   1      38.285  32.932  32.103  1.00  0.00     0.049 A 
ATOM     14  N   UNL A   1      39.281  30.397  30.888  1.00  0.00    -0.248 NA
ATOM     15  C   UNL A   1      37.603  30.551  29.269  1.00  0.00     0.031 C 
ATOM     16  C   UNL A   1      37.965  34.243  32.647  1.00  0.00     0.029 A 
ATOM     17  N   UNL A   1      39.245  32.459  32.962  1.00  0.00    -0.354 N 
ATOM     18  C   UNL A   1      39.445  29.386  29.955  1.00  0.00     0.074 A 
ATOM     19  C   UNL A   1      38.365  29.501  29.000  1.00  0.00     0.031 C 
ATOM     20  C   UNL A   1      38.551  34.393  33.845  1.00  0.00     0.029 A 
ATOM     21  C   UNL A   1      39.377  33.223  34.100  1.00  0.00     0.049 A 
ATOM     22  H   UNL A   1      39.784  31.656  32.782  1.00  0.00     0.167 HD
ATOM     23  C   UNL A   1      40.441  28.476  29.884  1.00  0.00     0.037 A 
ATOM     24  C   UNL A   1      40.092  33.005  35.220  1.00  0.00     0.037 A 
ATOM     25  C   UNL A   1      41.492  28.360  30.857  1.00  0.00     0.049 A 
ATOM     26  C   UNL A   1      41.058  31.859  35.224  1.00  0.00     0.074 A 
ATOM     27  C   UNL A   1      42.580  27.508  30.854  1.00  0.00     0.029 A 
ATOM     28  N   UNL A   1      41.562  29.101  32.027  1.00  0.00    -0.354 N 
ATOM     29  N   UNL A   1      41.284  30.979  34.279  1.00  0.00    -0.248 NA
ATOM     30  C   UNL A   1      41.914  31.708  36.408  1.00  0.00     0.031 C 
ATOM     31  C   UNL A   1      43.273  27.687  32.056  1.00  0.00     0.029 A 
ATOM     32  C   UNL A   1      42.640  28.680  32.787  1.00  0.00     0.049 A 
ATOM     33  H   UNL A   1      40.937  29.819  32.281  1.00  0.00     0.167 HD
ATOM     34  C   UNL A   1      42.347  30.210  34.723  1.00  0.00     0.074 A 
ATOM     35  C   UNL A   1      42.711  30.717  36.032  1.00  0.00     0.031 C 
ATOM     36  C   UNL A   1      42.980  29.192  34.091  1.00  0.00     0.037 A 
BRANCH  23  37
ATOM     37  C   UNL A   1      40.426  27.540  28.717  1.00  0.00     0.057 A 
ATOM     38  C   UNL A   1      41.177  27.797  27.562  1.00  0.00     0.134 A 
ATOM     39  C   UNL A   1      39.666  26.367  28.752  1.00  0.00     0.134 A 
ATOM     40  F   UNL A   1      41.911  28.916  27.461  1.00  0.00    -0.206 F 
ATOM     41  C   UNL A   1      41.160  26.923  26.475  1.00  0.00     0.040 A 
ATOM     42  C   UNL A   1      39.654  25.477  27.678  1.00  0.00     0.040 A 
ATOM     43  F   UNL A   1      38.920  26.072  29.827  1.00  0.00    -0.206 F 
ATOM     44  C   UNL A   1      40.400  25.756  26.533  1.00  0.00     0.006 A 
ENDBRANCH  23  37
BRANCH  24  45
ATOM     45  C   UNL A   1      39.947  33.899  36.396  1.00  0.00     0.057 A 
ATOM     46  C   UNL A   1      40.738  35.041  36.559  1.00  0.00     0.134 A 
ATOM     47  C   UNL A   1      39.024  33.606  37.410  1.00  0.00     0.134 A 
ATOM     48  F   UNL A   1      41.649  35.368  35.630  1.00  0.00    -0.206 F 
ATOM     49  C   UNL A   1      40.640  35.843  37.698  1.00  0.00     0.040 A 
ATOM     50  C   UNL A   1      38.903  34.408  38.546  1.00  0.00     0.040 A 
ATOM     51  F   UNL A   1      38.233  32.526  37.315  1.00  0.00    -0.206 F 
ATOM     52  C   UNL A   1      39.719  35.527  38.697  1.00  0.00     0.006 A 
ENDBRANCH  24  45
BRANCH  36  53
ATOM     53  C   UNL A   1      44.138  28.566  34.802  1.00  0.00     0.057 A 
ATOM     54  C   UNL A   1      43.975  27.436  35.611  1.00  0.00     0.134 A 
ATOM     55  C   UNL A   1      45.436  29.066  34.632  1.00  0.00     0.134 A 
ATOM     56  F   UNL A   1      42.754  26.924  35.825  1.00  0.00    -0.206 F 
ATOM     57  C   UNL A   1      45.064  26.828  36.235  1.00  0.00     0.040 A 
ATOM     58  C   UNL A   1      46.535  28.452  35.231  1.00  0.00     0.040 A 
ATOM     59  F   UNL A   1      45.655  30.145  33.866  1.00  0.00    -0.206 F 
ATOM     60  C   UNL A   1      46.349  27.330  36.037  1.00  0.00     0.006 A 
ENDBRANCH  36  53
ENDBRANCH  10  11
ENDBRANCH   3   5
ENDBRANCH   2   3
ENDBRANCH   1   2
BRANCH   1  61
ATOM     61  C   UNL A   1      32.090  31.083  26.468  1.00  0.00     0.274 C 
BRANCH  61  62
ATOM     62  O   UNL A   1      32.966  30.079  25.934  1.00  0.00    -0.461 OA
BRANCH  62  63
ATOM     63  C   UNL A   1      32.567  29.501  24.752  1.00  0.00     0.329 C 
ATOM     64  O   UNL A   1      33.287  29.328  23.784  1.00  0.00    -0.250 OA
BRANCH  63  65
ATOM     65  C   UNL A   1      31.123  28.997  24.913  1.00  0.00     0.206 C 
ATOM     66  C   UNL A   1      30.278  29.447  23.734  1.00  0.00     0.108 C 
ATOM     67  N   UNL A   1      30.956  27.558  25.094  1.00  0.00    -0.314 N 
ATOM     68  S   UNL A   1      29.925  27.981  22.751  1.00  0.00    -0.138 SA
ATOM     69  C   UNL A   1      29.976  26.950  24.213  1.00  0.00     0.191 C 
BRANCH  67  70
ATOM     70  C   UNL A   1      31.454  26.968  26.237  1.00  0.00     0.262 C 
ATOM     71  O   UNL A   1      31.158  27.358  27.364  1.00  0.00    -0.269 OA
BRANCH  70  72
ATOM     72  C   UNL A   1      32.352  25.815  26.041  1.00  0.00     0.124 A 
ATOM     73  C   UNL A   1      33.504  25.979  25.383  1.00  0.00     0.133 A 
ATOM     74  C   UNL A   1      32.049  24.471  26.573  1.00  0.00     0.270 A 
ATOM     75  N   UNL A   1      34.472  25.017  25.250  1.00  0.00    -0.237 NA
ATOM     76  N   UNL A   1      33.106  23.577  26.560  1.00  0.00    -0.267 N 
ATOM     77  O   UNL A   1      30.940  24.214  27.041  1.00  0.00    -0.268 OA
ATOM     78  C   UNL A   1      34.265  23.886  25.855  1.00  0.00     0.139 A 
ATOM     79  C   UNL A   1      32.974  22.375  27.244  1.00  0.00     0.096 A 
ATOM     80  C   UNL A   1      35.321  22.838  25.820  1.00  0.00     0.048 A 
ATOM     81  C   UNL A   1      33.948  21.460  27.251  1.00  0.00     0.019 A 
ATOM     82  C   UNL A   1      35.153  21.697  26.501  1.00  0.00     0.005 A 
ENDBRANCH  70  72
ENDBRANCH  67  70
ENDBRANCH  63  65
ENDBRANCH  62  63
ENDBRANCH  61  62
ENDBRANCH   1  61
TORSDOF 13
ENDMDL
