MODEL 1
REMARK VINA RESULT:     -11.5      0.000      0.000
REMARK SMILES Cc1cc(C)c(C(N)=O)c(N[C@H]2C=C[C@H](C(=O)OCCOC(=O)c3ccc(-c4c5nc(c(-c6c(F)cccc6F)c6ccc([nH]6)c(-c6c(F)cccc6F)c6nc(c(-c7c(F)cccc7F)c7ccc4[nH]7)C=C6)C=C5)cc3)C2)n1
REMARK SMILES IDX 19 1 18 2 16 3 17 4 15 5 12 6 13 7 78 8 14 9 11 10 10 12
REMARK SMILES IDX 1 13 2 14 3 15 79 16 4 17 5 18 6 19 7 20 8 21 9 22 20 25
REMARK SMILES IDX 21 26 22 27 23 28 24 29 25 30 77 31 26 32 76 33 27 34 28 35
REMARK SMILES IDX 29 36 70 37 30 38 75 39 69 40 71 41 31 42 74 43 68 44 67 45
REMARK SMILES IDX 32 47 58 48 41 49 57 50 42 51 45 52 56 53 72 54 43 55 44 56
REMARK SMILES IDX 55 58 73 59 46 60 33 61 34 62 39 63 35 64 36 65 38 66 40 67
REMARK SMILES IDX 37 68 59 69 60 70 65 71 61 72 62 73 64 74 66 75 63 76 47 77
REMARK SMILES IDX 48 78 53 79 49 80 50 81 52 82 54 83 51 84
REMARK H PARENT 11 11 8 23 8 24 71 46 45 57
REMARK Flexibility Score: inf
ROOT
ATOM      1  C   UNL A   1      34.862  20.801  24.804  1.00  0.00     0.274 C 
ENDROOT
BRANCH   1   2
ATOM      2  O   UNL A   1      34.202  21.002  26.068  1.00  0.00    -0.462 OA
BRANCH   2   3
ATOM      3  C   UNL A   1      33.849  22.283  26.365  1.00  0.00     0.312 C 
ATOM      4  O   UNL A   1      34.311  22.938  27.292  1.00  0.00    -0.252 OA
BRANCH   3   5
ATOM      5  C   UNL A   1      32.822  22.811  25.367  1.00  0.00     0.124 C 
ATOM      6  C   UNL A   1      31.480  24.414  26.583  1.00  0.00     0.104 C 
ATOM      7  C   UNL A   1      30.698  23.168  26.321  1.00  0.00    -0.006 C 
ATOM      8  C   UNL A   1      32.619  24.321  25.560  1.00  0.00     0.048 C 
ATOM      9  C   UNL A   1      31.449  22.270  25.666  1.00  0.00    -0.014 C 
BRANCH   6  10
ATOM     10  N   UNL A   1      30.675  25.615  26.559  1.00  0.00    -0.363 N 
ATOM     11  H   UNL A   1      29.783  25.564  26.973  1.00  0.00     0.162 HD
BRANCH  10  12
ATOM     12  C   UNL A   1      31.042  26.833  26.008  1.00  0.00     0.139 A 
ATOM     13  C   UNL A   1      32.827  29.800  27.252  1.00  0.00     0.067 C 
ATOM     14  C   UNL A   1      32.097  28.894  26.308  1.00  0.00     0.040 A 
ATOM     15  C   UNL A   1      31.722  29.334  25.049  1.00  0.00     0.028 A 
ATOM     16  N   UNL A   1      31.790  27.662  26.765  1.00  0.00    -0.236 NA
ATOM     17  C   UNL A   1      31.011  28.471  24.211  1.00  0.00    -0.033 A 
ATOM     18  C   UNL A   1      30.619  28.956  22.842  1.00  0.00     0.045 C 
ATOM     19  C   UNL A   1      30.660  27.196  24.702  1.00  0.00     0.084 A 
BRANCH  19  20
ATOM     20  C   UNL A   1      29.862  26.272  23.847  1.00  0.00     0.252 C 
ATOM     21  N   UNL A   1      30.555  25.445  23.007  1.00  0.00    -0.365 N 
ATOM     22  O   UNL A   1      28.639  26.251  23.868  1.00  0.00    -0.269 OA
ATOM     23  H   UNL A   1      31.540  25.468  22.995  1.00  0.00     0.159 HD
ATOM     24  H   UNL A   1      30.070  24.826  22.414  1.00  0.00     0.159 HD
ENDBRANCH  19  20
ENDBRANCH  10  12
ENDBRANCH   6  10
ENDBRANCH   3   5
ENDBRANCH   2   3
ENDBRANCH   1   2
BRANCH   1  25
ATOM     25  C   UNL A   1      36.304  20.335  24.995  1.00  0.00     0.275 C 
BRANCH  25  26
ATOM     26  O   UNL A   1      37.191  21.449  25.207  1.00  0.00    -0.458 OA
BRANCH  26  27
ATOM     27  C   UNL A   1      38.416  21.127  25.674  1.00  0.00     0.338 C 
ATOM     28  O   UNL A   1      39.000  20.063  25.564  1.00  0.00    -0.246 OA
BRANCH  27  29
ATOM     29  C   UNL A   1      39.018  22.287  26.345  1.00  0.00     0.060 A 
ATOM     30  C   UNL A   1      38.471  23.549  26.127  1.00  0.00     0.016 A 
ATOM     31  C   UNL A   1      40.221  22.148  27.037  1.00  0.00     0.016 A 
ATOM     32  C   UNL A   1      39.182  24.687  26.497  1.00  0.00     0.010 A 
ATOM     33  C   UNL A   1      40.884  23.293  27.497  1.00  0.00     0.010 A 
ATOM     34  C   UNL A   1      40.395  24.577  27.194  1.00  0.00    -0.014 A 
BRANCH  34  35
ATOM     35  C   UNL A   1      41.170  25.793  27.563  1.00  0.00     0.031 A 
ATOM     36  C   UNL A   1      40.555  26.844  28.451  1.00  0.00     0.074 A 
ATOM     37  C   UNL A   1      42.434  25.962  27.128  1.00  0.00     0.049 A 
ATOM     38  N   UNL A   1      40.973  28.058  28.707  1.00  0.00    -0.248 NA
ATOM     39  C   UNL A   1      39.297  26.488  29.126  1.00  0.00     0.031 C 
ATOM     40  C   UNL A   1      43.186  25.012  26.306  1.00  0.00     0.029 A 
ATOM     41  N   UNL A   1      43.317  26.994  27.330  1.00  0.00    -0.354 N 
ATOM     42  C   UNL A   1      39.998  28.634  29.512  1.00  0.00     0.074 A 
ATOM     43  C   UNL A   1      38.975  27.630  29.720  1.00  0.00     0.031 C 
ATOM     44  C   UNL A   1      44.429  25.481  26.117  1.00  0.00     0.029 A 
ATOM     45  C   UNL A   1      44.537  26.800  26.731  1.00  0.00     0.049 A 
ATOM     46  H   UNL A   1      43.096  27.797  27.855  1.00  0.00     0.167 HD
ATOM     47  C   UNL A   1      39.954  29.889  30.019  1.00  0.00     0.037 A 
ATOM     48  C   UNL A   1      45.612  27.606  26.650  1.00  0.00     0.037 A 
ATOM     49  C   UNL A   1      41.003  30.863  29.877  1.00  0.00     0.049 A 
ATOM     50  C   UNL A   1      45.555  28.981  27.246  1.00  0.00     0.074 A 
ATOM     51  C   UNL A   1      41.037  32.172  30.330  1.00  0.00     0.029 A 
ATOM     52  N   UNL A   1      42.223  30.620  29.266  1.00  0.00    -0.354 N 
ATOM     53  N   UNL A   1      44.574  29.557  27.893  1.00  0.00    -0.248 NA
ATOM     54  C   UNL A   1      46.744  29.829  27.071  1.00  0.00     0.031 C 
ATOM     55  C   UNL A   1      42.278  32.721  29.990  1.00  0.00     0.029 A 
ATOM     56  C   UNL A   1      43.022  31.748  29.341  1.00  0.00     0.049 A 
ATOM     57  H   UNL A   1      42.483  29.771  28.842  1.00  0.00     0.167 HD
ATOM     58  C   UNL A   1      45.021  30.835  28.199  1.00  0.00     0.074 A 
ATOM     59  C   UNL A   1      46.371  30.943  27.687  1.00  0.00     0.031 C 
ATOM     60  C   UNL A   1      44.364  31.835  28.833  1.00  0.00     0.037 A 
BRANCH  47  61
ATOM     61  C   UNL A   1      38.710  30.296  30.747  1.00  0.00     0.057 A 
ATOM     62  C   UNL A   1      37.628  30.895  30.094  1.00  0.00     0.134 A 
ATOM     63  C   UNL A   1      38.582  30.041  32.119  1.00  0.00     0.134 A 
ATOM     64  F   UNL A   1      37.697  31.177  28.784  1.00  0.00    -0.206 F 
ATOM     65  C   UNL A   1      36.464  31.240  30.783  1.00  0.00     0.040 A 
ATOM     66  C   UNL A   1      37.417  30.367  32.816  1.00  0.00     0.040 A 
ATOM     67  F   UNL A   1      39.583  29.466  32.801  1.00  0.00    -0.206 F 
ATOM     68  C   UNL A   1      36.355  30.971  32.147  1.00  0.00     0.006 A 
ENDBRANCH  47  61
BRANCH  48  69
ATOM     69  C   UNL A   1      46.826  27.139  25.937  1.00  0.00     0.057 A 
ATOM     70  C   UNL A   1      47.003  27.399  24.575  1.00  0.00     0.134 A 
ATOM     71  C   UNL A   1      47.840  26.441  26.604  1.00  0.00     0.134 A 
ATOM     72  F   UNL A   1      46.054  28.045  23.881  1.00  0.00    -0.206 F 
ATOM     73  C   UNL A   1      48.148  26.979  23.897  1.00  0.00     0.040 A 
ATOM     74  C   UNL A   1      48.998  26.034  25.943  1.00  0.00     0.040 A 
ATOM     75  F   UNL A   1      47.725  26.166  27.911  1.00  0.00    -0.206 F 
ATOM     76  C   UNL A   1      49.153  26.301  24.584  1.00  0.00     0.006 A 
ENDBRANCH  48  69
BRANCH  60  77
ATOM     77  C   UNL A   1      45.102  33.122  29.018  1.00  0.00     0.057 A 
ATOM     78  C   UNL A   1      45.011  34.155  28.077  1.00  0.00     0.134 A 
ATOM     79  C   UNL A   1      45.883  33.344  30.157  1.00  0.00     0.134 A 
ATOM     80  F   UNL A   1      44.286  33.995  26.959  1.00  0.00    -0.206 F 
ATOM     81  C   UNL A   1      45.682  35.364  28.259  1.00  0.00     0.040 A 
ATOM     82  C   UNL A   1      46.550  34.553  30.356  1.00  0.00     0.040 A 
ATOM     83  F   UNL A   1      46.006  32.390  31.094  1.00  0.00    -0.206 F 
ATOM     84  C   UNL A   1      46.451  35.566  29.405  1.00  0.00     0.006 A 
ENDBRANCH  60  77
ENDBRANCH  34  35
ENDBRANCH  27  29
ENDBRANCH  26  27
ENDBRANCH  25  26
ENDBRANCH   1  25
TORSDOF 14
ENDMDL
MODEL 2
REMARK VINA RESULT:     -11.5      3.798      8.901
REMARK SMILES Cc1cc(C)c(C(N)=O)c(N[C@H]2C=C[C@H](C(=O)OCCOC(=O)c3ccc(-c4c5nc(c(-c6c(F)cccc6F)c6ccc([nH]6)c(-c6c(F)cccc6F)c6nc(c(-c7c(F)cccc7F)c7ccc4[nH]7)C=C6)C=C5)cc3)C2)n1
REMARK SMILES IDX 19 1 18 2 16 3 17 4 15 5 12 6 13 7 78 8 14 9 11 10 10 12
REMARK SMILES IDX 1 13 2 14 3 15 79 16 4 17 5 18 6 19 7 20 8 21 9 22 20 25
REMARK SMILES IDX 21 26 22 27 23 28 24 29 25 30 77 31 26 32 76 33 27 34 28 35
REMARK SMILES IDX 29 36 70 37 30 38 75 39 69 40 71 41 31 42 74 43 68 44 67 45
REMARK SMILES IDX 32 47 58 48 41 49 57 50 42 51 45 52 56 53 72 54 43 55 44 56
REMARK SMILES IDX 55 58 73 59 46 60 33 61 34 62 39 63 35 64 36 65 38 66 40 67
REMARK SMILES IDX 37 68 59 69 60 70 65 71 61 72 62 73 64 74 66 75 63 76 47 77
REMARK SMILES IDX 48 78 53 79 49 80 50 81 52 82 54 83 51 84
REMARK H PARENT 11 11 8 23 8 24 71 46 45 57
REMARK Flexibility Score: inf
ROOT
ATOM      1  C   UNL A   1      32.011  29.119  25.143  1.00  0.00     0.274 C 
ENDROOT
BRANCH   1   2
ATOM      2  O   UNL A   1      30.990  28.139  25.409  1.00  0.00    -0.462 OA
BRANCH   2   3
ATOM      3  C   UNL A   1      31.241  27.273  26.429  1.00  0.00     0.312 C 
ATOM      4  O   UNL A   1      31.430  27.601  27.595  1.00  0.00    -0.252 OA
BRANCH   3   5
ATOM      5  C   UNL A   1      31.222  25.828  25.936  1.00  0.00     0.124 C 
ATOM      6  C   UNL A   1      33.069  25.634  24.385  1.00  0.00     0.104 C 
ATOM      7  C   UNL A   1      31.767  25.621  23.653  1.00  0.00    -0.006 C 
ATOM      8  C   UNL A   1      32.654  25.286  25.821  1.00  0.00     0.048 C 
ATOM      9  C   UNL A   1      30.743  25.750  24.510  1.00  0.00    -0.014 C 
BRANCH   6  10
ATOM     10  N   UNL A   1      34.082  24.801  23.776  1.00  0.00    -0.363 N 
ATOM     11  H   UNL A   1      34.300  24.980  22.833  1.00  0.00     0.162 HD
BRANCH  10  12
ATOM     12  C   UNL A   1      34.775  23.774  24.396  1.00  0.00     0.139 A 
ATOM     13  C   UNL A   1      38.012  23.516  26.126  1.00  0.00     0.067 C 
ATOM     14  C   UNL A   1      36.687  23.108  25.559  1.00  0.00     0.040 A 
ATOM     15  C   UNL A   1      36.296  21.779  25.557  1.00  0.00     0.028 A 
ATOM     16  N   UNL A   1      35.931  24.085  25.019  1.00  0.00    -0.236 NA
ATOM     17  C   UNL A   1      35.067  21.433  24.988  1.00  0.00    -0.033 A 
ATOM     18  C   UNL A   1      34.648  19.989  25.000  1.00  0.00     0.045 C 
ATOM     19  C   UNL A   1      34.294  22.450  24.391  1.00  0.00     0.084 A 
BRANCH  19  20
ATOM     20  C   UNL A   1      33.001  22.103  23.735  1.00  0.00     0.252 C 
ATOM     21  N   UNL A   1      31.921  21.905  24.551  1.00  0.00    -0.365 N 
ATOM     22  O   UNL A   1      32.893  21.980  22.523  1.00  0.00    -0.269 OA
ATOM     23  H   UNL A   1      32.016  22.005  25.525  1.00  0.00     0.159 HD
ATOM     24  H   UNL A   1      31.050  21.662  24.163  1.00  0.00     0.159 HD
ENDBRANCH  19  20
ENDBRANCH  10  12
ENDBRANCH   6  10
ENDBRANCH   3   5
ENDBRANCH   2   3
ENDBRANCH   1   2
BRANCH   1  25
ATOM     25  C   UNL A   1      31.580  30.513  25.598  1.00  0.00     0.275 C 
BRANCH  25  26
ATOM     26  O   UNL A   1      31.920  30.741  26.979  1.00  0.00    -0.458 OA
BRANCH  26  27
ATOM     27  C   UNL A   1      32.616  31.872  27.219  1.00  0.00     0.338 C 
ATOM     28  O   UNL A   1      32.223  33.022  27.130  1.00  0.00    -0.246 OA
BRANCH  27  29
ATOM     29  C   UNL A   1      33.978  31.539  27.659  1.00  0.00     0.060 A 
ATOM     30  C   UNL A   1      34.299  30.206  27.902  1.00  0.00     0.016 A 
ATOM     31  C   UNL A   1      34.870  32.555  28.001  1.00  0.00     0.016 A 
ATOM     32  C   UNL A   1      35.464  29.888  28.594  1.00  0.00     0.010 A 
ATOM     33  C   UNL A   1      36.087  32.223  28.609  1.00  0.00     0.010 A 
ATOM     34  C   UNL A   1      36.379  30.890  28.952  1.00  0.00    -0.014 A 
BRANCH  34  35
ATOM     35  C   UNL A   1      37.609  30.554  29.719  1.00  0.00     0.031 A 
ATOM     36  C   UNL A   1      38.702  29.735  29.080  1.00  0.00     0.074 A 
ATOM     37  C   UNL A   1      37.774  30.992  30.983  1.00  0.00     0.049 A 
ATOM     38  N   UNL A   1      39.737  29.158  29.638  1.00  0.00    -0.248 NA
ATOM     39  C   UNL A   1      38.609  29.525  27.627  1.00  0.00     0.031 C 
ATOM     40  C   UNL A   1      36.832  31.836  31.720  1.00  0.00     0.029 A 
ATOM     41  N   UNL A   1      38.805  30.795  31.869  1.00  0.00    -0.354 N 
ATOM     42  C   UNL A   1      40.376  28.460  28.621  1.00  0.00     0.074 A 
ATOM     43  C   UNL A   1      39.626  28.701  27.406  1.00  0.00     0.031 C 
ATOM     44  C   UNL A   1      37.351  32.125  32.924  1.00  0.00     0.029 A 
ATOM     45  C   UNL A   1      38.619  31.420  33.077  1.00  0.00     0.049 A 
ATOM     46  H   UNL A   1      39.602  30.257  31.657  1.00  0.00     0.167 HD
ATOM     47  C   UNL A   1      41.480  27.679  28.697  1.00  0.00     0.037 A 
ATOM     48  C   UNL A   1      39.364  31.401  34.197  1.00  0.00     0.037 A 
ATOM     49  C   UNL A   1      42.271  27.499  29.886  1.00  0.00     0.049 A 
ATOM     50  C   UNL A   1      40.601  30.555  34.251  1.00  0.00     0.074 A 
ATOM     51  C   UNL A   1      43.390  26.703  30.069  1.00  0.00     0.029 A 
ATOM     52  N   UNL A   1      42.047  28.156  31.085  1.00  0.00    -0.354 N 
ATOM     53  N   UNL A   1      41.121  29.797  33.319  1.00  0.00    -0.248 NA
ATOM     54  C   UNL A   1      41.337  30.536  35.525  1.00  0.00     0.031 C 
ATOM     55  C   UNL A   1      43.841  26.877  31.382  1.00  0.00     0.029 A 
ATOM     56  C   UNL A   1      43.013  27.795  32.008  1.00  0.00     0.049 A 
ATOM     57  H   UNL A   1      41.311  28.786  31.255  1.00  0.00     0.167 HD
ATOM     58  C   UNL A   1      42.239  29.207  33.891  1.00  0.00     0.074 A 
ATOM     59  C   UNL A   1      42.337  29.712  35.245  1.00  0.00     0.031 C 
ATOM     60  C   UNL A   1      43.099  28.312  33.347  1.00  0.00     0.037 A 
BRANCH  47  61
ATOM     61  C   UNL A   1      41.879  26.927  27.465  1.00  0.00     0.057 A 
ATOM     62  C   UNL A   1      42.749  27.467  26.513  1.00  0.00     0.134 A 
ATOM     63  C   UNL A   1      41.414  25.621  27.256  1.00  0.00     0.134 A 
ATOM     64  F   UNL A   1      43.217  28.716  26.651  1.00  0.00    -0.206 F 
ATOM     65  C   UNL A   1      43.134  26.739  25.386  1.00  0.00     0.040 A 
ATOM     66  C   UNL A   1      41.805  24.878  26.141  1.00  0.00     0.040 A 
ATOM     67  F   UNL A   1      40.579  25.047  28.134  1.00  0.00    -0.206 F 
ATOM     68  C   UNL A   1      42.666  25.439  25.201  1.00  0.00     0.006 A 
ENDBRANCH  47  61
BRANCH  48  69
ATOM     69  C   UNL A   1      38.932  32.186  35.379  1.00  0.00     0.057 A 
ATOM     70  C   UNL A   1      38.177  31.594  36.396  1.00  0.00     0.134 A 
ATOM     71  C   UNL A   1      39.278  33.534  35.525  1.00  0.00     0.134 A 
ATOM     72  F   UNL A   1      37.798  30.312  36.298  1.00  0.00    -0.206 F 
ATOM     73  C   UNL A   1      37.777  32.318  37.521  1.00  0.00     0.040 A 
ATOM     74  C   UNL A   1      38.902  34.264  36.653  1.00  0.00     0.040 A 
ATOM     75  F   UNL A   1      40.003  34.153  34.582  1.00  0.00    -0.206 F 
ATOM     76  C   UNL A   1      38.147  33.655  37.654  1.00  0.00     0.006 A 
ENDBRANCH  48  69
BRANCH  60  77
ATOM     77  C   UNL A   1      44.222  27.837  34.213  1.00  0.00     0.057 A 
ATOM     78  C   UNL A   1      44.097  26.686  35.000  1.00  0.00     0.134 A 
ATOM     79  C   UNL A   1      45.446  28.516  34.236  1.00  0.00     0.134 A 
ATOM     80  F   UNL A   1      42.944  26.002  35.026  1.00  0.00    -0.206 F 
ATOM     81  C   UNL A   1      45.152  26.231  35.791  1.00  0.00     0.040 A 
ATOM     82  C   UNL A   1      46.512  28.063  35.014  1.00  0.00     0.040 A 
ATOM     83  F   UNL A   1      45.623  29.624  33.500  1.00  0.00    -0.206 F 
ATOM     84  C   UNL A   1      46.365  26.919  35.795  1.00  0.00     0.006 A 
ENDBRANCH  60  77
ENDBRANCH  34  35
ENDBRANCH  27  29
ENDBRANCH  26  27
ENDBRANCH  25  26
ENDBRANCH   1  25
TORSDOF 14
ENDMDL
MODEL 3
REMARK VINA RESULT:     -11.4      4.229      7.743
REMARK SMILES Cc1cc(C)c(C(N)=O)c(N[C@H]2C=C[C@H](C(=O)OCCOC(=O)c3ccc(-c4c5nc(c(-c6c(F)cccc6F)c6ccc([nH]6)c(-c6c(F)cccc6F)c6nc(c(-c7c(F)cccc7F)c7ccc4[nH]7)C=C6)C=C5)cc3)C2)n1
REMARK SMILES IDX 19 1 18 2 16 3 17 4 15 5 12 6 13 7 78 8 14 9 11 10 10 12
REMARK SMILES IDX 1 13 2 14 3 15 79 16 4 17 5 18 6 19 7 20 8 21 9 22 20 25
REMARK SMILES IDX 21 26 22 27 23 28 24 29 25 30 77 31 26 32 76 33 27 34 28 35
REMARK SMILES IDX 29 36 70 37 30 38 75 39 69 40 71 41 31 42 74 43 68 44 67 45
REMARK SMILES IDX 32 47 58 48 41 49 57 50 42 51 45 52 56 53 72 54 43 55 44 56
REMARK SMILES IDX 55 58 73 59 46 60 33 61 34 62 39 63 35 64 36 65 38 66 40 67
REMARK SMILES IDX 37 68 59 69 60 70 65 71 61 72 62 73 64 74 66 75 63 76 47 77
REMARK SMILES IDX 48 78 53 79 49 80 50 81 52 82 54 83 51 84
REMARK H PARENT 11 11 8 23 8 24 71 46 45 57
REMARK Flexibility Score: inf
ROOT
ATOM      1  C   UNL A   1      31.511  32.081  26.857  1.00  0.00     0.274 C 
ENDROOT
BRANCH   1   2
ATOM      2  O   UNL A   1      32.446  30.998  26.685  1.00  0.00    -0.462 OA
BRANCH   2   3
ATOM      3  C   UNL A   1      31.938  29.841  26.178  1.00  0.00     0.312 C 
ATOM      4  O   UNL A   1      31.243  29.764  25.172  1.00  0.00    -0.252 OA
BRANCH   3   5
ATOM      5  C   UNL A   1      32.378  28.641  27.012  1.00  0.00     0.124 C 
ATOM      6  C   UNL A   1      33.148  26.981  25.430  1.00  0.00     0.104 C 
ATOM      7  C   UNL A   1      31.837  26.574  26.020  1.00  0.00    -0.006 C 
ATOM      8  C   UNL A   1      33.659  28.027  26.429  1.00  0.00     0.048 C 
ATOM      9  C   UNL A   1      31.398  27.504  26.881  1.00  0.00    -0.014 C 
BRANCH   6  10
ATOM     10  N   UNL A   1      34.023  25.866  25.144  1.00  0.00    -0.363 N 
ATOM     11  H   UNL A   1      34.959  26.078  24.923  1.00  0.00     0.162 HD
BRANCH  10  12
ATOM     12  C   UNL A   1      33.668  24.526  25.152  1.00  0.00     0.139 A 
ATOM     13  C   UNL A   1      33.880  21.812  27.626  1.00  0.00     0.067 C 
ATOM     14  C   UNL A   1      33.574  22.520  26.342  1.00  0.00     0.040 A 
ATOM     15  C   UNL A   1      33.107  21.821  25.241  1.00  0.00     0.028 A 
ATOM     16  N   UNL A   1      33.820  23.845  26.307  1.00  0.00    -0.236 NA
ATOM     17  C   UNL A   1      32.866  22.512  24.050  1.00  0.00    -0.033 A 
ATOM     18  C   UNL A   1      32.350  21.745  22.864  1.00  0.00     0.045 C 
ATOM     19  C   UNL A   1      33.157  23.891  24.003  1.00  0.00     0.084 A 
BRANCH  19  20
ATOM     20  C   UNL A   1      32.955  24.643  22.733  1.00  0.00     0.252 C 
ATOM     21  N   UNL A   1      31.671  24.988  22.410  1.00  0.00    -0.365 N 
ATOM     22  O   UNL A   1      33.881  24.936  21.989  1.00  0.00    -0.269 OA
ATOM     23  H   UNL A   1      30.931  24.749  23.013  1.00  0.00     0.159 HD
ATOM     24  H   UNL A   1      31.488  25.475  21.574  1.00  0.00     0.159 HD
ENDBRANCH  19  20
ENDBRANCH  10  12
ENDBRANCH   6  10
ENDBRANCH   3   5
ENDBRANCH   2   3
ENDBRANCH   1   2
BRANCH   1  25
ATOM     25  C   UNL A   1      32.221  33.434  26.870  1.00  0.00     0.275 C 
BRANCH  25  26
ATOM     26  O   UNL A   1      32.155  34.047  28.171  1.00  0.00    -0.458 OA
BRANCH  26  27
ATOM     27  C   UNL A   1      33.253  34.744  28.533  1.00  0.00     0.338 C 
ATOM     28  O   UNL A   1      33.368  35.953  28.637  1.00  0.00    -0.246 OA
BRANCH  27  29
ATOM     29  C   UNL A   1      34.355  33.822  28.839  1.00  0.00     0.060 A 
ATOM     30  C   UNL A   1      34.062  32.602  29.445  1.00  0.00     0.016 A 
ATOM     31  C   UNL A   1      35.677  34.240  28.694  1.00  0.00     0.016 A 
ATOM     32  C   UNL A   1      35.084  31.846  30.013  1.00  0.00     0.010 A 
ATOM     33  C   UNL A   1      36.711  33.428  29.178  1.00  0.00     0.010 A 
ATOM     34  C   UNL A   1      36.424  32.244  29.882  1.00  0.00    -0.014 A 
BRANCH  34  35
ATOM     35  C   UNL A   1      37.514  31.452  30.516  1.00  0.00     0.031 A 
ATOM     36  C   UNL A   1      37.800  31.598  31.988  1.00  0.00     0.074 A 
ATOM     37  C   UNL A   1      38.243  30.581  29.791  1.00  0.00     0.049 A 
ATOM     38  N   UNL A   1      38.829  31.172  32.677  1.00  0.00    -0.248 NA
ATOM     39  C   UNL A   1      36.807  32.335  32.787  1.00  0.00     0.031 C 
ATOM     40  C   UNL A   1      38.053  30.289  28.369  1.00  0.00     0.029 A 
ATOM     41  N   UNL A   1      39.288  29.769  30.158  1.00  0.00    -0.354 N 
ATOM     42  C   UNL A   1      38.643  31.647  33.969  1.00  0.00     0.074 A 
ATOM     43  C   UNL A   1      37.394  32.378  33.976  1.00  0.00     0.031 C 
ATOM     44  C   UNL A   1      38.915  29.330  27.998  1.00  0.00     0.029 A 
ATOM     45  C   UNL A   1      39.774  29.000  29.131  1.00  0.00     0.049 A 
ATOM     46  H   UNL A   1      39.653  29.741  31.072  1.00  0.00     0.167 HD
ATOM     47  C   UNL A   1      39.450  31.498  35.048  1.00  0.00     0.037 A 
ATOM     48  C   UNL A   1      40.817  28.150  29.089  1.00  0.00     0.037 A 
ATOM     49  C   UNL A   1      40.653  30.709  35.063  1.00  0.00     0.049 A 
ATOM     50  C   UNL A   1      41.679  27.974  30.304  1.00  0.00     0.074 A 
ATOM     51  C   UNL A   1      41.553  30.523  36.100  1.00  0.00     0.029 A 
ATOM     52  N   UNL A   1      41.104  29.944  34.001  1.00  0.00    -0.354 N 
ATOM     53  N   UNL A   1      41.565  28.533  31.482  1.00  0.00    -0.248 NA
ATOM     54  C   UNL A   1      42.835  27.075  30.172  1.00  0.00     0.031 C 
ATOM     55  C   UNL A   1      42.551  29.645  35.662  1.00  0.00     0.029 A 
ATOM     56  C   UNL A   1      42.260  29.272  34.359  1.00  0.00     0.049 A 
ATOM     57  H   UNL A   1      40.666  29.885  33.121  1.00  0.00     0.167 HD
ATOM     58  C   UNL A   1      42.633  28.060  32.231  1.00  0.00     0.074 A 
ATOM     59  C   UNL A   1      43.372  27.150  31.382  1.00  0.00     0.031 C 
ATOM     60  C   UNL A   1      42.978  28.366  33.505  1.00  0.00     0.037 A 
BRANCH  47  61
ATOM     61  C   UNL A   1      39.075  32.236  36.296  1.00  0.00     0.057 A 
ATOM     62  C   UNL A   1      39.560  33.517  36.577  1.00  0.00     0.134 A 
ATOM     63  C   UNL A   1      38.179  31.664  37.210  1.00  0.00     0.134 A 
ATOM     64  F   UNL A   1      40.432  34.110  35.748  1.00  0.00    -0.206 F 
ATOM     65  C   UNL A   1      39.177  34.202  37.731  1.00  0.00     0.040 A 
ATOM     66  C   UNL A   1      37.776  32.346  38.359  1.00  0.00     0.040 A 
ATOM     67  F   UNL A   1      37.677  30.439  36.995  1.00  0.00    -0.206 F 
ATOM     68  C   UNL A   1      38.278  33.618  38.623  1.00  0.00     0.006 A 
ENDBRANCH  47  61
BRANCH  48  69
ATOM     69  C   UNL A   1      41.125  27.428  27.832  1.00  0.00     0.057 A 
ATOM     70  C   UNL A   1      40.597  26.157  27.586  1.00  0.00     0.134 A 
ATOM     71  C   UNL A   1      41.937  27.997  26.844  1.00  0.00     0.134 A 
ATOM     72  F   UNL A   1      39.831  25.554  28.507  1.00  0.00    -0.206 F 
ATOM     73  C   UNL A   1      40.867  25.473  26.400  1.00  0.00     0.040 A 
ATOM     74  C   UNL A   1      42.198  27.334  25.645  1.00  0.00     0.040 A 
ATOM     75  F   UNL A   1      42.469  29.214  27.023  1.00  0.00    -0.206 F 
ATOM     76  C   UNL A   1      41.664  26.065  25.422  1.00  0.00     0.006 A 
ENDBRANCH  48  69
BRANCH  60  77
ATOM     77  C   UNL A   1      44.200  27.701  34.055  1.00  0.00     0.057 A 
ATOM     78  C   UNL A   1      45.459  28.305  33.965  1.00  0.00     0.134 A 
ATOM     79  C   UNL A   1      44.111  26.466  34.706  1.00  0.00     0.134 A 
ATOM     80  F   UNL A   1      45.606  29.484  33.342  1.00  0.00    -0.206 F 
ATOM     81  C   UNL A   1      46.595  27.695  34.498  1.00  0.00     0.040 A 
ATOM     82  C   UNL A   1      45.238  25.852  35.252  1.00  0.00     0.040 A 
ATOM     83  F   UNL A   1      42.930  25.841  34.823  1.00  0.00    -0.206 F 
ATOM     84  C   UNL A   1      46.485  26.466  35.147  1.00  0.00     0.006 A 
ENDBRANCH  60  77
ENDBRANCH  34  35
ENDBRANCH  27  29
ENDBRANCH  26  27
ENDBRANCH  25  26
ENDBRANCH   1  25
TORSDOF 14
ENDMDL
