MODEL 1
REMARK VINA RESULT:     -11.0      0.000      0.000
REMARK SMILES C[C@@H](C(=O)OCCOC(=O)c1ccc(-c2c3nc(c(-c4c(F)cccc4F)c4ccc([nH]4)c(-c4c(F)cccc4F)c4nc(c(-c5c(F)cccc5F)c5ccc2[nH]5)C=C4)C=C3)cc1)c1ccc(C[C@H]2CCC[C@@H]2O)cc1Br
REMARK SMILES IDX 6 1 5 2 3 3 4 4 2 5 1 6 65 7 66 8 77 9 67 10 76 11 78 12
REMARK SMILES IDX 68 13 69 14 70 15 71 16 74 17 72 18 73 19 75 20 7 22 8 23
REMARK SMILES IDX 9 24 10 25 11 26 12 27 64 28 13 29 63 30 14 31 15 32 16 33
REMARK SMILES IDX 57 34 17 35 62 36 56 37 58 38 18 39 61 40 55 41 54 42 19 44
REMARK SMILES IDX 45 45 28 46 44 47 29 48 32 49 43 50 59 51 30 52 31 53 42 55
REMARK SMILES IDX 60 56 33 57 20 58 21 59 26 60 22 61 23 62 25 63 27 64 24 65
REMARK SMILES IDX 46 66 47 67 52 68 48 69 49 70 51 71 53 72 50 73 34 74 35 75
REMARK SMILES IDX 40 76 36 77 37 78 39 79 41 80 38 81
REMARK H PARENT 75 21 58 43 32 54
REMARK Flexibility Score: inf
ROOT
ATOM      1  C   UNL A   1      37.348  20.362  25.004  1.00  0.00     0.274 C 
ENDROOT
BRANCH   1   2
ATOM      2  O   UNL A   1      37.391  21.433  25.971  1.00  0.00    -0.462 OA
BRANCH   2   3
ATOM      3  C   UNL A   1      37.050  22.676  25.522  1.00  0.00     0.313 C 
ATOM      4  O   UNL A   1      37.521  23.697  26.006  1.00  0.00    -0.252 OA
BRANCH   3   5
ATOM      5  C   UNL A   1      35.961  22.623  24.418  1.00  0.00     0.127 C 
ATOM      6  C   UNL A   1      36.610  22.952  23.057  1.00  0.00     0.025 C 
BRANCH   5   7
ATOM      7  C   UNL A   1      34.737  23.512  24.729  1.00  0.00    -0.020 A 
ATOM      8  C   UNL A   1      34.490  24.674  23.976  1.00  0.00     0.006 A 
ATOM      9  C   UNL A   1      33.831  23.256  25.776  1.00  0.00     0.022 A 
ATOM     10  C   UNL A   1      33.534  25.618  24.355  1.00  0.00     0.004 A 
ATOM     11  C   UNL A   1      32.929  24.249  26.208  1.00  0.00     0.019 A 
ATOM     12  Br  UNL A   1      33.702  21.568  26.648  1.00  0.00    -0.050 Br
ATOM     13  C   UNL A   1      32.841  25.484  25.551  1.00  0.00    -0.047 A 
BRANCH  13  14
ATOM     14  C   UNL A   1      32.029  26.618  26.141  1.00  0.00     0.041 C 
BRANCH  14  15
ATOM     15  C   UNL A   1      30.728  27.047  25.418  1.00  0.00     0.022 C 
ATOM     16  C   UNL A   1      30.839  28.046  24.256  1.00  0.00     0.007 C 
ATOM     17  C   UNL A   1      29.875  25.916  24.840  1.00  0.00     0.117 C 
ATOM     18  C   UNL A   1      29.707  27.725  23.282  1.00  0.00     0.003 C 
ATOM     19  C   UNL A   1      28.868  26.672  23.982  1.00  0.00     0.032 C 
BRANCH  17  20
ATOM     20  O   UNL A   1      29.243  25.177  25.866  1.00  0.00    -0.393 OA
ATOM     21  H   UNL A   1      29.815  25.156  26.649  1.00  0.00     0.210 HD
ENDBRANCH  17  20
ENDBRANCH  14  15
ENDBRANCH  13  14
ENDBRANCH   5   7
ENDBRANCH   3   5
ENDBRANCH   2   3
ENDBRANCH   1   2
BRANCH   1  22
ATOM     22  C   UNL A   1      38.669  19.589  24.920  1.00  0.00     0.275 C 
BRANCH  22  23
ATOM     23  O   UNL A   1      39.370  19.613  26.177  1.00  0.00    -0.458 OA
BRANCH  23  24
ATOM     24  C   UNL A   1      40.691  19.903  26.111  1.00  0.00     0.338 C 
ATOM     25  O   UNL A   1      41.556  19.283  25.516  1.00  0.00    -0.246 OA
BRANCH  24  26
ATOM     26  C   UNL A   1      40.941  21.206  26.749  1.00  0.00     0.060 A 
ATOM     27  C   UNL A   1      40.610  22.333  26.011  1.00  0.00     0.016 A 
ATOM     28  C   UNL A   1      41.589  21.344  27.978  1.00  0.00     0.016 A 
ATOM     29  C   UNL A   1      40.931  23.597  26.485  1.00  0.00     0.010 A 
ATOM     30  C   UNL A   1      41.927  22.629  28.449  1.00  0.00     0.010 A 
ATOM     31  C   UNL A   1      41.633  23.770  27.685  1.00  0.00    -0.014 A 
BRANCH  31  32
ATOM     32  C   UNL A   1      42.129  25.145  28.001  1.00  0.00     0.031 A 
ATOM     33  C   UNL A   1      43.492  25.599  27.526  1.00  0.00     0.074 A 
ATOM     34  C   UNL A   1      41.281  26.069  28.502  1.00  0.00     0.049 A 
ATOM     35  N   UNL A   1      44.006  26.806  27.524  1.00  0.00    -0.248 NA
ATOM     36  C   UNL A   1      44.364  24.583  26.914  1.00  0.00     0.031 C 
ATOM     37  C   UNL A   1      39.891  25.817  28.886  1.00  0.00     0.029 A 
ATOM     38  N   UNL A   1      41.450  27.414  28.729  1.00  0.00    -0.354 N 
ATOM     39  C   UNL A   1      45.225  26.704  26.865  1.00  0.00     0.074 A 
ATOM     40  C   UNL A   1      45.400  25.310  26.518  1.00  0.00     0.031 C 
ATOM     41  C   UNL A   1      39.325  26.975  29.265  1.00  0.00     0.029 A 
ATOM     42  C   UNL A   1      40.328  28.035  29.221  1.00  0.00     0.049 A 
ATOM     43  H   UNL A   1      42.296  27.887  28.554  1.00  0.00     0.167 HD
ATOM     44  C   UNL A   1      46.115  27.678  26.555  1.00  0.00     0.037 A 
ATOM     45  C   UNL A   1      40.131  29.305  29.628  1.00  0.00     0.037 A 
ATOM     46  C   UNL A   1      45.998  29.057  26.943  1.00  0.00     0.049 A 
ATOM     47  C   UNL A   1      41.261  30.294  29.548  1.00  0.00     0.074 A 
ATOM     48  C   UNL A   1      46.889  30.094  26.724  1.00  0.00     0.029 A 
ATOM     49  N   UNL A   1      44.939  29.586  27.661  1.00  0.00    -0.354 N 
ATOM     50  N   UNL A   1      42.416  30.180  28.941  1.00  0.00    -0.248 NA
ATOM     51  C   UNL A   1      41.071  31.578  30.239  1.00  0.00     0.031 C 
ATOM     52  C   UNL A   1      46.401  31.236  27.371  1.00  0.00     0.029 A 
ATOM     53  C   UNL A   1      45.188  30.917  27.957  1.00  0.00     0.049 A 
ATOM     54  H   UNL A   1      44.130  29.090  27.923  1.00  0.00     0.167 HD
ATOM     55  C   UNL A   1      43.083  31.377  29.164  1.00  0.00     0.074 A 
ATOM     56  C   UNL A   1      42.200  32.212  29.950  1.00  0.00     0.031 C 
ATOM     57  C   UNL A   1      44.321  31.745  28.755  1.00  0.00     0.037 A 
BRANCH  44  58
ATOM     58  C   UNL A   1      47.333  27.275  25.783  1.00  0.00     0.057 A 
ATOM     59  C   UNL A   1      47.404  27.431  24.394  1.00  0.00     0.134 A 
ATOM     60  C   UNL A   1      48.462  26.772  26.438  1.00  0.00     0.134 A 
ATOM     61  F   UNL A   1      46.357  27.914  23.709  1.00  0.00    -0.206 F 
ATOM     62  C   UNL A   1      48.553  27.088  23.679  1.00  0.00     0.040 A 
ATOM     63  C   UNL A   1      49.621  26.438  25.736  1.00  0.00     0.040 A 
ATOM     64  F   UNL A   1      48.458  26.606  27.768  1.00  0.00    -0.206 F 
ATOM     65  C   UNL A   1      49.668  26.594  24.352  1.00  0.00     0.006 A 
ENDBRANCH  44  58
BRANCH  45  66
ATOM     66  C   UNL A   1      38.837  29.702  30.239  1.00  0.00     0.057 A 
ATOM     67  C   UNL A   1      38.576  29.504  31.600  1.00  0.00     0.134 A 
ATOM     68  C   UNL A   1      37.809  30.248  29.459  1.00  0.00     0.134 A 
ATOM     69  F   UNL A   1      39.504  28.951  32.393  1.00  0.00    -0.206 F 
ATOM     70  C   UNL A   1      37.339  29.833  32.160  1.00  0.00     0.040 A 
ATOM     71  C   UNL A   1      36.579  30.607  30.010  1.00  0.00     0.040 A 
ATOM     72  F   UNL A   1      37.988  30.443  28.144  1.00  0.00    -0.206 F 
ATOM     73  C   UNL A   1      36.340  30.392  31.365  1.00  0.00     0.006 A 
ENDBRANCH  45  66
BRANCH  57  74
ATOM     74  C   UNL A   1      44.807  33.107  29.154  1.00  0.00     0.057 A 
ATOM     75  C   UNL A   1      44.498  34.243  28.394  1.00  0.00     0.134 A 
ATOM     76  C   UNL A   1      45.556  33.294  30.321  1.00  0.00     0.134 A 
ATOM     77  F   UNL A   1      43.797  34.129  27.256  1.00  0.00    -0.206 F 
ATOM     78  C   UNL A   1      44.930  35.515  28.774  1.00  0.00     0.040 A 
ATOM     79  C   UNL A   1      45.974  34.565  30.724  1.00  0.00     0.040 A 
ATOM     80  F   UNL A   1      45.881  32.251  31.099  1.00  0.00    -0.206 F 
ATOM     81  C   UNL A   1      45.664  35.679  29.946  1.00  0.00     0.006 A 
ENDBRANCH  57  74
ENDBRANCH  31  32
ENDBRANCH  24  26
ENDBRANCH  23  24
ENDBRANCH  22  23
ENDBRANCH   1  22
TORSDOF 15
ENDMDL
MODEL 2
REMARK VINA RESULT:     -11.0      3.537      8.524
REMARK SMILES C[C@@H](C(=O)OCCOC(=O)c1ccc(-c2c3nc(c(-c4c(F)cccc4F)c4ccc([nH]4)c(-c4c(F)cccc4F)c4nc(c(-c5c(F)cccc5F)c5ccc2[nH]5)C=C4)C=C3)cc1)c1ccc(C[C@H]2CCC[C@@H]2O)cc1Br
REMARK SMILES IDX 6 1 5 2 3 3 4 4 2 5 1 6 65 7 66 8 77 9 67 10 76 11 78 12
REMARK SMILES IDX 68 13 69 14 70 15 71 16 74 17 72 18 73 19 75 20 7 22 8 23
REMARK SMILES IDX 9 24 10 25 11 26 12 27 64 28 13 29 63 30 14 31 15 32 16 33
REMARK SMILES IDX 57 34 17 35 62 36 56 37 58 38 18 39 61 40 55 41 54 42 19 44
REMARK SMILES IDX 45 45 28 46 44 47 29 48 32 49 43 50 59 51 30 52 31 53 42 55
REMARK SMILES IDX 60 56 33 57 20 58 21 59 26 60 22 61 23 62 25 63 27 64 24 65
REMARK SMILES IDX 46 66 47 67 52 68 48 69 49 70 51 71 53 72 50 73 34 74 35 75
REMARK SMILES IDX 40 76 36 77 37 78 39 79 41 80 38 81
REMARK H PARENT 75 21 58 43 32 54
REMARK Flexibility Score: inf
ROOT
ATOM      1  C   UNL A   1      34.780  34.212  31.504  1.00  0.00     0.274 C 
ENDROOT
BRANCH   1   2
ATOM      2  O   UNL A   1      33.975  33.356  30.664  1.00  0.00    -0.462 OA
BRANCH   2   3
ATOM      3  C   UNL A   1      34.178  33.457  29.317  1.00  0.00     0.313 C 
ATOM      4  O   UNL A   1      33.643  34.325  28.640  1.00  0.00    -0.252 OA
BRANCH   3   5
ATOM      5  C   UNL A   1      35.071  32.312  28.771  1.00  0.00     0.127 C 
ATOM      6  C   UNL A   1      36.253  32.928  27.992  1.00  0.00     0.025 C 
BRANCH   5   7
ATOM      7  C   UNL A   1      34.287  31.270  27.945  1.00  0.00    -0.020 A 
ATOM      8  C   UNL A   1      33.026  31.589  27.408  1.00  0.00     0.006 A 
ATOM      9  C   UNL A   1      34.739  29.958  27.709  1.00  0.00     0.022 A 
ATOM     10  C   UNL A   1      32.189  30.621  26.849  1.00  0.00     0.004 A 
ATOM     11  C   UNL A   1      33.861  28.968  27.226  1.00  0.00     0.019 A 
ATOM     12  Br  UNL A   1      36.551  29.425  27.958  1.00  0.00    -0.050 Br
ATOM     13  C   UNL A   1      32.539  29.278  26.879  1.00  0.00    -0.047 A 
BRANCH  13  14
ATOM     14  C   UNL A   1      31.544  28.181  26.563  1.00  0.00     0.041 C 
BRANCH  14  15
ATOM     15  C   UNL A   1      31.481  27.637  25.114  1.00  0.00     0.022 C 
ATOM     16  C   UNL A   1      30.978  26.201  24.900  1.00  0.00     0.007 C 
ATOM     17  C   UNL A   1      30.654  28.460  24.124  1.00  0.00     0.117 C 
ATOM     18  C   UNL A   1      30.292  26.169  23.536  1.00  0.00     0.003 C 
ATOM     19  C   UNL A   1      30.565  27.529  22.921  1.00  0.00     0.032 C 
BRANCH  17  20
ATOM     20  O   UNL A   1      31.302  29.674  23.802  1.00  0.00    -0.393 OA
ATOM     21  H   UNL A   1      30.821  30.414  24.207  1.00  0.00     0.210 HD
ENDBRANCH  17  20
ENDBRANCH  14  15
ENDBRANCH  13  14
ENDBRANCH   5   7
ENDBRANCH   3   5
ENDBRANCH   2   3
ENDBRANCH   1   2
BRANCH   1  22
ATOM     22  C   UNL A   1      34.963  33.647  32.917  1.00  0.00     0.275 C 
BRANCH  22  23
ATOM     23  O   UNL A   1      35.473  32.302  32.881  1.00  0.00    -0.458 OA
BRANCH  23  24
ATOM     24  C   UNL A   1      36.653  32.101  33.514  1.00  0.00     0.338 C 
ATOM     25  O   UNL A   1      36.912  32.322  34.685  1.00  0.00    -0.246 OA
BRANCH  24  26
ATOM     26  C   UNL A   1      37.585  31.407  32.611  1.00  0.00     0.060 A 
ATOM     27  C   UNL A   1      38.715  30.849  33.192  1.00  0.00     0.016 A 
ATOM     28  C   UNL A   1      37.438  31.394  31.223  1.00  0.00     0.016 A 
ATOM     29  C   UNL A   1      39.705  30.290  32.397  1.00  0.00     0.010 A 
ATOM     30  C   UNL A   1      38.453  30.838  30.418  1.00  0.00     0.010 A 
ATOM     31  C   UNL A   1      39.619  30.313  30.999  1.00  0.00    -0.014 A 
BRANCH  31  32
ATOM     32  C   UNL A   1      40.829  29.892  30.227  1.00  0.00     0.031 A 
ATOM     33  C   UNL A   1      40.934  28.491  29.666  1.00  0.00     0.074 A 
ATOM     34  C   UNL A   1      41.725  30.817  29.822  1.00  0.00     0.049 A 
ATOM     35  N   UNL A   1      41.800  28.009  28.806  1.00  0.00    -0.248 NA
ATOM     36  C   UNL A   1      39.898  27.526  30.067  1.00  0.00     0.031 C 
ATOM     37  C   UNL A   1      41.686  32.239  30.171  1.00  0.00     0.029 A 
ATOM     38  N   UNL A   1      42.814  30.709  28.990  1.00  0.00    -0.354 N 
ATOM     39  C   UNL A   1      41.381  26.715  28.524  1.00  0.00     0.074 A 
ATOM     40  C   UNL A   1      40.209  26.466  29.334  1.00  0.00     0.031 C 
ATOM     41  C   UNL A   1      42.680  32.874  29.530  1.00  0.00     0.029 A 
ATOM     42  C   UNL A   1      43.470  31.898  28.784  1.00  0.00     0.049 A 
ATOM     43  H   UNL A   1      43.095  29.860  28.580  1.00  0.00     0.167 HD
ATOM     44  C   UNL A   1      41.905  25.816  27.655  1.00  0.00     0.037 A 
ATOM     45  C   UNL A   1      44.601  32.174  28.103  1.00  0.00     0.037 A 
ATOM     46  C   UNL A   1      43.104  26.012  26.887  1.00  0.00     0.049 A 
ATOM     47  C   UNL A   1      45.329  31.066  27.395  1.00  0.00     0.074 A 
ATOM     48  C   UNL A   1      43.737  25.125  26.033  1.00  0.00     0.029 A 
ATOM     49  N   UNL A   1      43.871  27.165  26.904  1.00  0.00    -0.354 N 
ATOM     50  N   UNL A   1      44.933  29.841  27.151  1.00  0.00    -0.248 NA
ATOM     51  C   UNL A   1      46.678  31.371  26.894  1.00  0.00     0.031 C 
ATOM     52  C   UNL A   1      44.926  25.716  25.589  1.00  0.00     0.029 A 
ATOM     53  C   UNL A   1      45.009  26.986  26.134  1.00  0.00     0.049 A 
ATOM     54  H   UNL A   1      43.641  27.989  27.391  1.00  0.00     0.167 HD
ATOM     55  C   UNL A   1      45.974  29.235  26.460  1.00  0.00     0.074 A 
ATOM     56  C   UNL A   1      47.015  30.230  26.308  1.00  0.00     0.031 C 
ATOM     57  C   UNL A   1      46.057  27.965  25.997  1.00  0.00     0.037 A 
BRANCH  44  58
ATOM     58  C   UNL A   1      41.201  24.501  27.519  1.00  0.00     0.057 A 
ATOM     59  C   UNL A   1      40.073  24.356  26.703  1.00  0.00     0.134 A 
ATOM     60  C   UNL A   1      41.682  23.360  28.170  1.00  0.00     0.134 A 
ATOM     61  F   UNL A   1      39.567  25.411  26.048  1.00  0.00    -0.206 F 
ATOM     62  C   UNL A   1      39.438  23.123  26.549  1.00  0.00     0.040 A 
ATOM     63  C   UNL A   1      41.064  22.119  28.014  1.00  0.00     0.040 A 
ATOM     64  F   UNL A   1      42.763  23.434  28.960  1.00  0.00    -0.206 F 
ATOM     65  C   UNL A   1      39.937  21.998  27.203  1.00  0.00     0.006 A 
ENDBRANCH  44  58
BRANCH  45  66
ATOM     66  C   UNL A   1      45.175  33.544  28.131  1.00  0.00     0.057 A 
ATOM     67  C   UNL A   1      44.871  34.488  27.144  1.00  0.00     0.134 A 
ATOM     68  C   UNL A   1      46.082  33.924  29.129  1.00  0.00     0.134 A 
ATOM     69  F   UNL A   1      44.040  34.174  26.140  1.00  0.00    -0.206 F 
ATOM     70  C   UNL A   1      45.452  35.758  27.146  1.00  0.00     0.040 A 
ATOM     71  C   UNL A   1      46.647  35.199  29.161  1.00  0.00     0.040 A 
ATOM     72  F   UNL A   1      46.430  33.060  30.093  1.00  0.00    -0.206 F 
ATOM     73  C   UNL A   1      46.337  36.118  28.162  1.00  0.00     0.006 A 
ENDBRANCH  45  66
BRANCH  57  74
ATOM     74  C   UNL A   1      47.317  27.565  25.289  1.00  0.00     0.057 A 
ATOM     75  C   UNL A   1      48.401  27.016  25.986  1.00  0.00     0.134 A 
ATOM     76  C   UNL A   1      47.438  27.693  23.900  1.00  0.00     0.134 A 
ATOM     77  F   UNL A   1      48.354  26.881  27.320  1.00  0.00    -0.206 F 
ATOM     78  C   UNL A   1      49.567  26.622  25.327  1.00  0.00     0.040 A 
ATOM     79  C   UNL A   1      48.591  27.280  23.228  1.00  0.00     0.040 A 
ATOM     80  F   UNL A   1      46.434  28.203  23.172  1.00  0.00    -0.206 F 
ATOM     81  C   UNL A   1      49.661  26.747  23.943  1.00  0.00     0.006 A 
ENDBRANCH  57  74
ENDBRANCH  31  32
ENDBRANCH  24  26
ENDBRANCH  23  24
ENDBRANCH  22  23
ENDBRANCH   1  22
TORSDOF 15
ENDMDL
MODEL 3
REMARK VINA RESULT:     -11.0      4.102      9.432
REMARK SMILES C[C@@H](C(=O)OCCOC(=O)c1ccc(-c2c3nc(c(-c4c(F)cccc4F)c4ccc([nH]4)c(-c4c(F)cccc4F)c4nc(c(-c5c(F)cccc5F)c5ccc2[nH]5)C=C4)C=C3)cc1)c1ccc(C[C@H]2CCC[C@@H]2O)cc1Br
REMARK SMILES IDX 6 1 5 2 3 3 4 4 2 5 1 6 65 7 66 8 77 9 67 10 76 11 78 12
REMARK SMILES IDX 68 13 69 14 70 15 71 16 74 17 72 18 73 19 75 20 7 22 8 23
REMARK SMILES IDX 9 24 10 25 11 26 12 27 64 28 13 29 63 30 14 31 15 32 16 33
REMARK SMILES IDX 57 34 17 35 62 36 56 37 58 38 18 39 61 40 55 41 54 42 19 44
REMARK SMILES IDX 45 45 28 46 44 47 29 48 32 49 43 50 59 51 30 52 31 53 42 55
REMARK SMILES IDX 60 56 33 57 20 58 21 59 26 60 22 61 23 62 25 63 27 64 24 65
REMARK SMILES IDX 46 66 47 67 52 68 48 69 49 70 51 71 53 72 50 73 34 74 35 75
REMARK SMILES IDX 40 76 36 77 37 78 39 79 41 80 38 81
REMARK H PARENT 75 21 58 43 32 54
REMARK Flexibility Score: inf
ROOT
ATOM      1  C   UNL A   1      31.264  30.672  25.378  1.00  0.00     0.274 C 
ENDROOT
BRANCH   1   2
ATOM      2  O   UNL A   1      32.428  29.829  25.517  1.00  0.00    -0.462 OA
BRANCH   2   3
ATOM      3  C   UNL A   1      32.283  28.522  25.150  1.00  0.00     0.313 C 
ATOM      4  O   UNL A   1      32.756  28.079  24.112  1.00  0.00    -0.252 OA
BRANCH   3   5
ATOM      5  C   UNL A   1      31.397  27.728  26.146  1.00  0.00     0.127 C 
ATOM      6  C   UNL A   1      31.828  28.074  27.587  1.00  0.00     0.025 C 
BRANCH   5   7
ATOM      7  C   UNL A   1      31.386  26.208  25.872  1.00  0.00    -0.020 A 
ATOM      8  C   UNL A   1      32.181  25.339  26.642  1.00  0.00     0.006 A 
ATOM      9  C   UNL A   1      30.638  25.604  24.843  1.00  0.00     0.022 A 
ATOM     10  C   UNL A   1      32.373  24.001  26.294  1.00  0.00     0.004 A 
ATOM     11  C   UNL A   1      30.902  24.280  24.442  1.00  0.00     0.019 A 
ATOM     12  Br  UNL A   1      29.196  26.479  23.958  1.00  0.00    -0.050 Br
ATOM     13  C   UNL A   1      31.848  23.493  25.113  1.00  0.00    -0.047 A 
BRANCH  13  14
ATOM     14  C   UNL A   1      32.277  22.154  24.554  1.00  0.00     0.041 C 
BRANCH  14  15
ATOM     15  C   UNL A   1      33.725  22.004  24.023  1.00  0.00     0.022 C 
ATOM     16  C   UNL A   1      34.318  23.158  23.201  1.00  0.00     0.007 C 
ATOM     17  C   UNL A   1      34.800  21.722  25.075  1.00  0.00     0.117 C 
ATOM     18  C   UNL A   1      35.823  23.164  23.463  1.00  0.00     0.003 C 
ATOM     19  C   UNL A   1      36.088  21.916  24.285  1.00  0.00     0.032 C 
BRANCH  17  20
ATOM     20  O   UNL A   1      34.687  20.407  25.581  1.00  0.00    -0.393 OA
ATOM     21  H   UNL A   1      34.215  20.426  26.428  1.00  0.00     0.210 HD
ENDBRANCH  17  20
ENDBRANCH  14  15
ENDBRANCH  13  14
ENDBRANCH   5   7
ENDBRANCH   3   5
ENDBRANCH   2   3
ENDBRANCH   1   2
BRANCH   1  22
ATOM     22  C   UNL A   1      31.307  31.892  26.304  1.00  0.00     0.275 C 
BRANCH  22  23
ATOM     23  O   UNL A   1      32.286  31.726  27.346  1.00  0.00    -0.458 OA
BRANCH  23  24
ATOM     24  C   UNL A   1      33.003  32.830  27.664  1.00  0.00     0.338 C 
ATOM     25  O   UNL A   1      32.588  33.968  27.802  1.00  0.00    -0.246 OA
BRANCH  24  26
ATOM     26  C   UNL A   1      34.387  32.443  27.985  1.00  0.00     0.060 A 
ATOM     27  C   UNL A   1      34.589  31.127  28.377  1.00  0.00     0.016 A 
ATOM     28  C   UNL A   1      35.446  33.351  28.024  1.00  0.00     0.016 A 
ATOM     29  C   UNL A   1      35.837  30.714  28.820  1.00  0.00     0.010 A 
ATOM     30  C   UNL A   1      36.709  32.932  28.489  1.00  0.00     0.010 A 
ATOM     31  C   UNL A   1      36.907  31.612  28.928  1.00  0.00    -0.014 A 
BRANCH  31  32
ATOM     32  C   UNL A   1      38.142  31.133  29.623  1.00  0.00     0.031 A 
ATOM     33  C   UNL A   1      38.414  31.517  31.061  1.00  0.00     0.074 A 
ATOM     34  C   UNL A   1      38.900  30.168  29.059  1.00  0.00     0.049 A 
ATOM     35  N   UNL A   1      39.314  31.038  31.887  1.00  0.00    -0.248 NA
ATOM     36  C   UNL A   1      37.522  32.516  31.670  1.00  0.00     0.031 C 
ATOM     37  C   UNL A   1      38.685  29.596  27.729  1.00  0.00     0.029 A 
ATOM     38  N   UNL A   1      39.973  29.465  29.554  1.00  0.00    -0.354 N 
ATOM     39  C   UNL A   1      39.059  31.632  33.117  1.00  0.00     0.074 A 
ATOM     40  C   UNL A   1      37.950  32.540  32.925  1.00  0.00     0.031 C 
ATOM     41  C   UNL A   1      39.573  28.608  27.528  1.00  0.00     0.029 A 
ATOM     42  C   UNL A   1      40.464  28.524  28.682  1.00  0.00     0.049 A 
ATOM     43  H   UNL A   1      40.352  29.622  30.448  1.00  0.00     0.167 HD
ATOM     44  C   UNL A   1      39.674  31.430  34.308  1.00  0.00     0.037 A 
ATOM     45  C   UNL A   1      41.532  27.707  28.778  1.00  0.00     0.037 A 
ATOM     46  C   UNL A   1      40.819  30.584  34.514  1.00  0.00     0.049 A 
ATOM     47  C   UNL A   1      42.381  27.738  30.019  1.00  0.00     0.074 A 
ATOM     48  C   UNL A   1      41.540  30.377  35.677  1.00  0.00     0.029 A 
ATOM     49  N   UNL A   1      41.430  29.831  33.525  1.00  0.00    -0.354 N 
ATOM     50  N   UNL A   1      42.141  28.317  31.169  1.00  0.00    -0.248 NA
ATOM     51  C   UNL A   1      43.666  27.024  29.963  1.00  0.00     0.031 C 
ATOM     52  C   UNL A   1      42.632  29.552  35.375  1.00  0.00     0.029 A 
ATOM     53  C   UNL A   1      42.562  29.215  34.034  1.00  0.00     0.049 A 
ATOM     54  H   UNL A   1      41.107  29.747  32.599  1.00  0.00     0.167 HD
ATOM     55  C   UNL A   1      43.235  28.030  31.975  1.00  0.00     0.074 A 
ATOM     56  C   UNL A   1      44.134  27.211  31.190  1.00  0.00     0.031 C 
ATOM     57  C   UNL A   1      43.470  28.417  33.252  1.00  0.00     0.037 A 
BRANCH  44  58
ATOM     58  C   UNL A   1      39.143  32.180  35.491  1.00  0.00     0.057 A 
ATOM     59  C   UNL A   1      38.297  31.570  36.424  1.00  0.00     0.134 A 
ATOM     60  C   UNL A   1      39.520  33.506  35.726  1.00  0.00     0.134 A 
ATOM     61  F   UNL A   1      37.905  30.299  36.258  1.00  0.00    -0.206 F 
ATOM     62  C   UNL A   1      37.831  32.259  37.545  1.00  0.00     0.040 A 
ATOM     63  C   UNL A   1      39.072  34.202  36.849  1.00  0.00     0.040 A 
ATOM     64  F   UNL A   1      40.335  34.143  34.871  1.00  0.00    -0.206 F 
ATOM     65  C   UNL A   1      38.223  33.578  37.762  1.00  0.00     0.006 A 
ENDBRANCH  44  58
BRANCH  45  66
ATOM     66  C   UNL A   1      41.924  26.851  27.629  1.00  0.00     0.057 A 
ATOM     67  C   UNL A   1      42.662  27.358  26.554  1.00  0.00     0.134 A 
ATOM     68  C   UNL A   1      41.524  25.510  27.560  1.00  0.00     0.134 A 
ATOM     69  F   UNL A   1      43.042  28.643  26.541  1.00  0.00    -0.206 F 
ATOM     70  C   UNL A   1      42.985  26.563  25.452  1.00  0.00     0.040 A 
ATOM     71  C   UNL A   1      41.864  24.696  26.480  1.00  0.00     0.040 A 
ATOM     72  F   UNL A   1      40.797  24.968  28.549  1.00  0.00    -0.206 F 
ATOM     73  C   UNL A   1      42.591  25.226  25.418  1.00  0.00     0.006 A 
ENDBRANCH  45  66
BRANCH  57  74
ATOM     74  C   UNL A   1      44.754  27.971  33.886  1.00  0.00     0.057 A 
ATOM     75  C   UNL A   1      44.860  26.726  34.520  1.00  0.00     0.134 A 
ATOM     76  C   UNL A   1      45.902  28.771  33.834  1.00  0.00     0.134 A 
ATOM     77  F   UNL A   1      43.793  25.920  34.617  1.00  0.00    -0.206 F 
ATOM     78  C   UNL A   1      46.060  26.299  35.092  1.00  0.00     0.040 A 
ATOM     79  C   UNL A   1      47.114  28.344  34.383  1.00  0.00     0.040 A 
ATOM     80  F   UNL A   1      45.871  29.971  33.236  1.00  0.00    -0.206 F 
ATOM     81  C   UNL A   1      47.193  27.106  35.018  1.00  0.00     0.006 A 
ENDBRANCH  57  74
ENDBRANCH  31  32
ENDBRANCH  24  26
ENDBRANCH  23  24
ENDBRANCH  22  23
ENDBRANCH   1  22
TORSDOF 15
ENDMDL
