MODEL 1
REMARK VINA RESULT:     -11.7      0.000      0.000
REMARK SMILES COc1ccc(OC)c(NC(=O)[C@@H]2[C@@H](C(=O)OCCOC(=O)c3ccc(-c4c5nc(c(-c6c(F)cccc6F)c6ccc([nH]6)c(-c6c(F)cccc6F)c6nc(c(-c7c(F)cccc7F)c7ccc4[nH]7)C=C6)C=C5)cc3)[C@H]3C=C[C@@H]2C3)c1
REMARK SMILES IDX 18 1 17 2 15 3 16 4 14 5 13 6 80 7 77 8 79 9 81 10 78 11
REMARK SMILES IDX 11 12 10 13 12 15 9 16 3 17 4 18 82 19 5 20 6 21 2 22 1 23
REMARK SMILES IDX 7 24 8 25 19 26 20 27 21 28 22 29 23 30 24 31 76 32 25 33
REMARK SMILES IDX 75 34 26 35 27 36 28 37 69 38 29 39 74 40 68 41 70 42 30 43
REMARK SMILES IDX 73 44 67 45 66 46 31 48 57 49 40 50 56 51 41 52 44 53 55 54
REMARK SMILES IDX 71 55 42 56 43 57 54 59 72 60 45 61 32 62 33 63 38 64 34 65
REMARK SMILES IDX 35 66 37 67 39 68 36 69 58 70 59 71 64 72 60 73 61 74 63 75
REMARK SMILES IDX 65 76 62 77 46 78 47 79 52 80 48 81 49 82 51 83 53 84 50 85
REMARK H PARENT 10 14 70 47 44 58
REMARK Flexibility Score: inf
ROOT
ATOM      1  C   UNL A   1      31.832  32.021  27.227  1.00  0.00     0.274 C 
ENDROOT
BRANCH   1   2
ATOM      2  O   UNL A   1      32.301  31.149  26.180  1.00  0.00    -0.462 OA
BRANCH   2   3
ATOM      3  C   UNL A   1      33.434  30.463  26.470  1.00  0.00     0.310 C 
ATOM      4  O   UNL A   1      34.275  30.838  27.280  1.00  0.00    -0.252 OA
BRANCH   3   5
ATOM      5  C   UNL A   1      33.522  29.115  25.795  1.00  0.00     0.119 C 
ATOM      6  C   UNL A   1      32.258  28.882  24.914  1.00  0.00     0.100 C 
ATOM      7  C   UNL A   1      31.888  27.415  25.254  1.00  0.00     0.025 C 
ATOM      8  C   UNL A   1      33.547  27.856  26.691  1.00  0.00     0.027 C 
ATOM      9  C   UNL A   1      31.279  27.451  26.639  1.00  0.00    -0.027 C 
ATOM     10  C   UNL A   1      33.241  26.793  25.628  1.00  0.00     0.017 C 
ATOM     11  C   UNL A   1      32.271  27.736  27.496  1.00  0.00    -0.027 C 
BRANCH   6  12
ATOM     12  C   UNL A   1      32.507  29.068  23.432  1.00  0.00     0.229 C 
ATOM     13  N   UNL A   1      31.535  29.345  22.519  1.00  0.00    -0.323 N 
ATOM     14  H   UNL A   1      31.906  29.497  21.620  1.00  0.00     0.170 HD
ATOM     15  O   UNL A   1      33.667  29.057  22.997  1.00  0.00    -0.274 OA
BRANCH  13  16
ATOM     16  C   UNL A   1      30.127  29.467  22.540  1.00  0.00     0.087 A 
ATOM     17  C   UNL A   1      28.286  31.038  22.229  1.00  0.00     0.121 A 
ATOM     18  C   UNL A   1      27.388  30.137  22.783  1.00  0.00     0.050 A 
ATOM     19  C   UNL A   1      29.643  30.725  22.133  1.00  0.00     0.076 A 
ATOM     20  C   UNL A   1      27.833  28.859  23.100  1.00  0.00     0.052 A 
ATOM     21  C   UNL A   1      29.176  28.502  22.901  1.00  0.00     0.142 A 
BRANCH  17  22
ATOM     22  O   UNL A   1      27.830  32.265  21.833  1.00  0.00    -0.497 OA
ATOM     23  C   UNL A   1      27.888  32.361  20.407  1.00  0.00     0.278 C 
ENDBRANCH  17  22
BRANCH  21  24
ATOM     24  O   UNL A   1      29.409  27.158  23.028  1.00  0.00    -0.495 OA
ATOM     25  C   UNL A   1      28.483  26.539  23.919  1.00  0.00     0.278 C 
ENDBRANCH  21  24
ENDBRANCH  13  16
ENDBRANCH   6  12
ENDBRANCH   3   5
ENDBRANCH   2   3
ENDBRANCH   1   2
BRANCH   1  26
ATOM     26  C   UNL A   1      32.372  33.448  27.078  1.00  0.00     0.275 C 
BRANCH  26  27
ATOM     27  O   UNL A   1      32.262  34.219  28.291  1.00  0.00    -0.458 OA
BRANCH  27  28
ATOM     28  C   UNL A   1      33.355  34.949  28.606  1.00  0.00     0.338 C 
ATOM     29  O   UNL A   1      33.433  36.172  28.674  1.00  0.00    -0.246 OA
BRANCH  28  30
ATOM     30  C   UNL A   1      34.468  34.072  28.994  1.00  0.00     0.060 A 
ATOM     31  C   UNL A   1      34.206  33.045  29.904  1.00  0.00     0.016 A 
ATOM     32  C   UNL A   1      35.772  34.321  28.567  1.00  0.00     0.016 A 
ATOM     33  C   UNL A   1      35.241  32.276  30.419  1.00  0.00     0.010 A 
ATOM     34  C   UNL A   1      36.816  33.541  29.078  1.00  0.00     0.010 A 
ATOM     35  C   UNL A   1      36.555  32.529  30.017  1.00  0.00    -0.014 A 
BRANCH  35  36
ATOM     36  C   UNL A   1      37.654  31.760  30.638  1.00  0.00     0.031 A 
ATOM     37  C   UNL A   1      38.036  32.028  32.062  1.00  0.00     0.074 A 
ATOM     38  C   UNL A   1      38.269  30.793  29.937  1.00  0.00     0.049 A 
ATOM     39  N   UNL A   1      39.028  31.535  32.757  1.00  0.00    -0.248 NA
ATOM     40  C   UNL A   1      37.191  32.978  32.803  1.00  0.00     0.031 C 
ATOM     41  C   UNL A   1      37.938  30.409  28.566  1.00  0.00     0.029 A 
ATOM     42  N   UNL A   1      39.301  29.958  30.282  1.00  0.00    -0.354 N 
ATOM     43  C   UNL A   1      38.946  32.134  34.006  1.00  0.00     0.074 A 
ATOM     44  C   UNL A   1      37.808  33.029  33.974  1.00  0.00     0.031 C 
ATOM     45  C   UNL A   1      38.750  29.409  28.188  1.00  0.00     0.029 A 
ATOM     46  C   UNL A   1      39.688  29.121  29.267  1.00  0.00     0.049 A 
ATOM     47  H   UNL A   1      39.723  29.961  31.172  1.00  0.00     0.167 HD
ATOM     48  C   UNL A   1      39.753  31.955  35.078  1.00  0.00     0.037 A 
ATOM     49  C   UNL A   1      40.710  28.248  29.202  1.00  0.00     0.037 A 
ATOM     50  C   UNL A   1      40.873  31.052  35.103  1.00  0.00     0.049 A 
ATOM     51  C   UNL A   1      41.628  28.112  30.384  1.00  0.00     0.074 A 
ATOM     52  C   UNL A   1      41.759  30.802  36.138  1.00  0.00     0.029 A 
ATOM     53  N   UNL A   1      41.259  30.246  34.043  1.00  0.00    -0.354 N 
ATOM     54  N   UNL A   1      41.569  28.711  31.549  1.00  0.00    -0.248 NA
ATOM     55  C   UNL A   1      42.767  27.196  30.235  1.00  0.00     0.031 C 
ATOM     56  C   UNL A   1      42.700  29.868  35.690  1.00  0.00     0.029 A 
ATOM     57  C   UNL A   1      42.379  29.509  34.390  1.00  0.00     0.049 A 
ATOM     58  H   UNL A   1      40.804  30.203  33.171  1.00  0.00     0.167 HD
ATOM     59  C   UNL A   1      42.654  28.241  32.274  1.00  0.00     0.074 A 
ATOM     60  C   UNL A   1      43.344  27.290  31.426  1.00  0.00     0.031 C 
ATOM     61  C   UNL A   1      43.048  28.569  33.528  1.00  0.00     0.037 A 
BRANCH  48  62
ATOM     62  C   UNL A   1      39.473  32.784  36.293  1.00  0.00     0.057 A 
ATOM     63  C   UNL A   1      40.090  34.023  36.505  1.00  0.00     0.134 A 
ATOM     64  C   UNL A   1      38.560  32.341  37.259  1.00  0.00     0.134 A 
ATOM     65  F   UNL A   1      40.987  34.494  35.626  1.00  0.00    -0.206 F 
ATOM     66  C   UNL A   1      39.822  34.784  37.645  1.00  0.00     0.040 A 
ATOM     67  C   UNL A   1      38.269  33.102  38.392  1.00  0.00     0.040 A 
ATOM     68  F   UNL A   1      37.935  31.163  37.115  1.00  0.00    -0.206 F 
ATOM     69  C   UNL A   1      38.905  34.326  38.589  1.00  0.00     0.006 A 
ENDBRANCH  48  62
BRANCH  49  70
ATOM     70  C   UNL A   1      40.940  27.467  27.963  1.00  0.00     0.057 A 
ATOM     71  C   UNL A   1      41.745  27.964  26.933  1.00  0.00     0.134 A 
ATOM     72  C   UNL A   1      40.360  26.205  27.778  1.00  0.00     0.134 A 
ATOM     73  F   UNL A   1      42.311  29.175  27.044  1.00  0.00    -0.206 F 
ATOM     74  C   UNL A   1      41.959  27.241  25.759  1.00  0.00     0.040 A 
ATOM     75  C   UNL A   1      40.586  25.460  26.619  1.00  0.00     0.040 A 
ATOM     76  F   UNL A   1      39.577  25.674  28.728  1.00  0.00    -0.206 F 
ATOM     77  C   UNL A   1      41.383  25.981  25.603  1.00  0.00     0.006 A 
ENDBRANCH  49  70
BRANCH  61  78
ATOM     78  C   UNL A   1      44.268  27.880  34.059  1.00  0.00     0.057 A 
ATOM     79  C   UNL A   1      45.543  28.449  33.940  1.00  0.00     0.134 A 
ATOM     80  C   UNL A   1      44.163  26.654  34.726  1.00  0.00     0.134 A 
ATOM     81  F   UNL A   1      45.710  29.615  33.297  1.00  0.00    -0.206 F 
ATOM     82  C   UNL A   1      46.673  27.811  34.452  1.00  0.00     0.040 A 
ATOM     83  C   UNL A   1      45.283  26.018  35.260  1.00  0.00     0.040 A 
ATOM     84  F   UNL A   1      42.969  26.062  34.877  1.00  0.00    -0.206 F 
ATOM     85  C   UNL A   1      46.544  26.595  35.120  1.00  0.00     0.006 A 
ENDBRANCH  61  78
ENDBRANCH  35  36
ENDBRANCH  28  30
ENDBRANCH  27  28
ENDBRANCH  26  27
ENDBRANCH   1  26
TORSDOF 15
ENDMDL
MODEL 2
REMARK VINA RESULT:     -11.6      5.955      9.759
REMARK SMILES COc1ccc(OC)c(NC(=O)[C@@H]2[C@@H](C(=O)OCCOC(=O)c3ccc(-c4c5nc(c(-c6c(F)cccc6F)c6ccc([nH]6)c(-c6c(F)cccc6F)c6nc(c(-c7c(F)cccc7F)c7ccc4[nH]7)C=C6)C=C5)cc3)[C@H]3C=C[C@@H]2C3)c1
REMARK SMILES IDX 18 1 17 2 15 3 16 4 14 5 13 6 80 7 77 8 79 9 81 10 78 11
REMARK SMILES IDX 11 12 10 13 12 15 9 16 3 17 4 18 82 19 5 20 6 21 2 22 1 23
REMARK SMILES IDX 7 24 8 25 19 26 20 27 21 28 22 29 23 30 24 31 76 32 25 33
REMARK SMILES IDX 75 34 26 35 27 36 28 37 69 38 29 39 74 40 68 41 70 42 30 43
REMARK SMILES IDX 73 44 67 45 66 46 31 48 57 49 40 50 56 51 41 52 44 53 55 54
REMARK SMILES IDX 71 55 42 56 43 57 54 59 72 60 45 61 32 62 33 63 38 64 34 65
REMARK SMILES IDX 35 66 37 67 39 68 36 69 58 70 59 71 64 72 60 73 61 74 63 75
REMARK SMILES IDX 65 76 62 77 46 78 47 79 52 80 48 81 49 82 51 83 53 84 50 85
REMARK H PARENT 10 14 70 47 44 58
REMARK Flexibility Score: inf
ROOT
ATOM      1  C   UNL A   1      37.462  19.869  25.143  1.00  0.00     0.274 C 
ENDROOT
BRANCH   1   2
ATOM      2  O   UNL A   1      36.936  21.138  24.709  1.00  0.00    -0.462 OA
BRANCH   2   3
ATOM      3  C   UNL A   1      37.065  22.148  25.606  1.00  0.00     0.310 C 
ATOM      4  O   UNL A   1      38.141  22.552  26.034  1.00  0.00    -0.252 OA
BRANCH   3   5
ATOM      5  C   UNL A   1      35.763  22.831  25.948  1.00  0.00     0.119 C 
ATOM      6  C   UNL A   1      34.567  21.984  25.418  1.00  0.00     0.100 C 
ATOM      7  C   UNL A   1      33.652  23.068  24.789  1.00  0.00     0.025 C 
ATOM      8  C   UNL A   1      35.491  24.223  25.335  1.00  0.00     0.027 C 
ATOM      9  C   UNL A   1      34.322  23.475  23.495  1.00  0.00    -0.027 C 
ATOM     10  C   UNL A   1      33.985  24.322  25.610  1.00  0.00     0.017 C 
ATOM     11  C   UNL A   1      35.434  24.150  23.824  1.00  0.00    -0.027 C 
BRANCH   6  12
ATOM     12  C   UNL A   1      33.849  21.202  26.498  1.00  0.00     0.229 C 
ATOM     13  N   UNL A   1      33.273  19.982  26.308  1.00  0.00    -0.323 N 
ATOM     14  H   UNL A   1      32.917  19.608  27.146  1.00  0.00     0.170 HD
ATOM     15  O   UNL A   1      33.834  21.630  27.660  1.00  0.00    -0.274 OA
BRANCH  13  16
ATOM     16  C   UNL A   1      33.059  19.120  25.209  1.00  0.00     0.087 A 
ATOM     17  C   UNL A   1      33.385  16.837  24.409  1.00  0.00     0.121 A 
ATOM     18  C   UNL A   1      33.062  17.217  23.114  1.00  0.00     0.050 A 
ATOM     19  C   UNL A   1      33.414  17.778  25.441  1.00  0.00     0.076 A 
ATOM     20  C   UNL A   1      32.618  18.515  22.888  1.00  0.00     0.052 A 
ATOM     21  C   UNL A   1      32.538  19.435  23.945  1.00  0.00     0.142 A 
BRANCH  17  22
ATOM     22  O   UNL A   1      33.735  15.537  24.648  1.00  0.00    -0.497 OA
ATOM     23  C   UNL A   1      32.697  14.890  25.389  1.00  0.00     0.278 C 
ENDBRANCH  17  22
BRANCH  21  24
ATOM     24  O   UNL A   1      31.864  20.582  23.622  1.00  0.00    -0.495 OA
ATOM     25  C   UNL A   1      31.978  20.893  22.235  1.00  0.00     0.278 C 
ENDBRANCH  21  24
ENDBRANCH  13  16
ENDBRANCH   6  12
ENDBRANCH   3   5
ENDBRANCH   2   3
ENDBRANCH   1   2
BRANCH   1  26
ATOM     26  C   UNL A   1      38.967  19.744  24.883  1.00  0.00     0.275 C 
BRANCH  26  27
ATOM     27  O   UNL A   1      39.690  19.210  26.009  1.00  0.00    -0.458 OA
BRANCH  27  28
ATOM     28  C   UNL A   1      41.007  19.506  26.038  1.00  0.00     0.338 C 
ATOM     29  O   UNL A   1      41.928  18.828  25.591  1.00  0.00    -0.246 OA
BRANCH  28  30
ATOM     30  C   UNL A   1      41.223  20.852  26.586  1.00  0.00     0.060 A 
ATOM     31  C   UNL A   1      41.675  21.849  25.717  1.00  0.00     0.016 A 
ATOM     32  C   UNL A   1      41.101  21.109  27.951  1.00  0.00     0.016 A 
ATOM     33  C   UNL A   1      42.035  23.098  26.202  1.00  0.00     0.010 A 
ATOM     34  C   UNL A   1      41.455  22.371  28.441  1.00  0.00     0.010 A 
ATOM     35  C   UNL A   1      41.939  23.363  27.570  1.00  0.00    -0.014 A 
BRANCH  35  36
ATOM     36  C   UNL A   1      42.406  24.669  28.082  1.00  0.00     0.031 A 
ATOM     37  C   UNL A   1      41.412  25.752  28.370  1.00  0.00     0.074 A 
ATOM     38  C   UNL A   1      43.712  24.858  28.330  1.00  0.00     0.049 A 
ATOM     39  N   UNL A   1      41.623  26.992  28.728  1.00  0.00    -0.248 NA
ATOM     40  C   UNL A   1      39.991  25.394  28.236  1.00  0.00     0.031 C 
ATOM     41  C   UNL A   1      44.758  23.853  28.142  1.00  0.00     0.029 A 
ATOM     42  N   UNL A   1      44.383  25.960  28.794  1.00  0.00    -0.354 N 
ATOM     43  C   UNL A   1      40.367  27.571  28.834  1.00  0.00     0.074 A 
ATOM     44  C   UNL A   1      39.398  26.548  28.501  1.00  0.00     0.031 C 
ATOM     45  C   UNL A   1      45.939  24.386  28.493  1.00  0.00     0.029 A 
ATOM     46  C   UNL A   1      45.740  25.779  28.877  1.00  0.00     0.049 A 
ATOM     47  H   UNL A   1      43.933  26.801  29.043  1.00  0.00     0.167 HD
ATOM     48  C   UNL A   1      40.055  28.844  29.174  1.00  0.00     0.037 A 
ATOM     49  C   UNL A   1      46.716  26.651  29.190  1.00  0.00     0.037 A 
ATOM     50  C   UNL A   1      41.026  29.849  29.517  1.00  0.00     0.049 A 
ATOM     51  C   UNL A   1      46.349  28.073  29.504  1.00  0.00     0.074 A 
ATOM     52  C   UNL A   1      40.815  31.171  29.869  1.00  0.00     0.029 A 
ATOM     53  N   UNL A   1      42.397  29.639  29.555  1.00  0.00    -0.354 N 
ATOM     54  N   UNL A   1      45.162  28.625  29.565  1.00  0.00    -0.248 NA
ATOM     55  C   UNL A   1      47.458  28.999  29.772  1.00  0.00     0.031 C 
ATOM     56  C   UNL A   1      42.061  31.769  30.088  1.00  0.00     0.029 A 
ATOM     57  C   UNL A   1      43.046  30.810  29.908  1.00  0.00     0.049 A 
ATOM     58  H   UNL A   1      42.843  28.784  29.359  1.00  0.00     0.167 HD
ATOM     59  C   UNL A   1      45.377  29.958  29.885  1.00  0.00     0.074 A 
ATOM     60  C   UNL A   1      46.810  30.128  30.026  1.00  0.00     0.031 C 
ATOM     61  C   UNL A   1      44.473  30.955  30.043  1.00  0.00     0.037 A 
BRANCH  48  62
ATOM     62  C   UNL A   1      38.607  29.226  29.150  1.00  0.00     0.057 A 
ATOM     63  C   UNL A   1      37.799  29.147  30.290  1.00  0.00     0.134 A 
ATOM     64  C   UNL A   1      38.018  29.695  27.969  1.00  0.00     0.134 A 
ATOM     65  F   UNL A   1      38.301  28.688  31.447  1.00  0.00    -0.206 F 
ATOM     66  C   UNL A   1      36.450  29.503  30.252  1.00  0.00     0.040 A 
ATOM     67  C   UNL A   1      36.675  30.074  27.924  1.00  0.00     0.040 A 
ATOM     68  F   UNL A   1      38.737  29.795  26.841  1.00  0.00    -0.206 F 
ATOM     69  C   UNL A   1      35.886  29.973  29.067  1.00  0.00     0.006 A 
ENDBRANCH  48  62
BRANCH  49  70
ATOM     70  C   UNL A   1      48.132  26.212  29.183  1.00  0.00     0.057 A 
ATOM     71  C   UNL A   1      48.728  25.671  30.327  1.00  0.00     0.134 A 
ATOM     72  C   UNL A   1      48.925  26.323  28.033  1.00  0.00     0.134 A 
ATOM     73  F   UNL A   1      48.027  25.559  31.465  1.00  0.00    -0.206 F 
ATOM     74  C   UNL A   1      50.064  25.265  30.333  1.00  0.00     0.040 A 
ATOM     75  C   UNL A   1      50.254  25.897  28.017  1.00  0.00     0.040 A 
ATOM     76  F   UNL A   1      48.412  26.834  26.904  1.00  0.00    -0.206 F 
ATOM     77  C   UNL A   1      50.828  25.372  29.172  1.00  0.00     0.006 A 
ENDBRANCH  49  70
BRANCH  61  78
ATOM     78  C   UNL A   1      45.007  32.306  30.403  1.00  0.00     0.057 A 
ATOM     79  C   UNL A   1      45.318  33.259  29.424  1.00  0.00     0.134 A 
ATOM     80  C   UNL A   1      45.181  32.672  31.744  1.00  0.00     0.134 A 
ATOM     81  F   UNL A   1      45.187  32.963  28.122  1.00  0.00    -0.206 F 
ATOM     82  C   UNL A   1      45.799  34.523  29.767  1.00  0.00     0.040 A 
ATOM     83  C   UNL A   1      45.641  33.939  32.099  1.00  0.00     0.040 A 
ATOM     84  F   UNL A   1      44.896  31.805  32.727  1.00  0.00    -0.206 F 
ATOM     85  C   UNL A   1      45.955  34.868  31.108  1.00  0.00     0.006 A 
ENDBRANCH  61  78
ENDBRANCH  35  36
ENDBRANCH  28  30
ENDBRANCH  27  28
ENDBRANCH  26  27
ENDBRANCH   1  26
TORSDOF 15
ENDMDL
MODEL 3
REMARK VINA RESULT:     -11.5      0.560      6.176
REMARK SMILES COc1ccc(OC)c(NC(=O)[C@@H]2[C@@H](C(=O)OCCOC(=O)c3ccc(-c4c5nc(c(-c6c(F)cccc6F)c6ccc([nH]6)c(-c6c(F)cccc6F)c6nc(c(-c7c(F)cccc7F)c7ccc4[nH]7)C=C6)C=C5)cc3)[C@H]3C=C[C@@H]2C3)c1
REMARK SMILES IDX 18 1 17 2 15 3 16 4 14 5 13 6 80 7 77 8 79 9 81 10 78 11
REMARK SMILES IDX 11 12 10 13 12 15 9 16 3 17 4 18 82 19 5 20 6 21 2 22 1 23
REMARK SMILES IDX 7 24 8 25 19 26 20 27 21 28 22 29 23 30 24 31 76 32 25 33
REMARK SMILES IDX 75 34 26 35 27 36 28 37 69 38 29 39 74 40 68 41 70 42 30 43
REMARK SMILES IDX 73 44 67 45 66 46 31 48 57 49 40 50 56 51 41 52 44 53 55 54
REMARK SMILES IDX 71 55 42 56 43 57 54 59 72 60 45 61 32 62 33 63 38 64 34 65
REMARK SMILES IDX 35 66 37 67 39 68 36 69 58 70 59 71 64 72 60 73 61 74 63 75
REMARK SMILES IDX 65 76 62 77 46 78 47 79 52 80 48 81 49 82 51 83 53 84 50 85
REMARK H PARENT 10 14 70 47 44 58
REMARK Flexibility Score: inf
ROOT
ATOM      1  C   UNL A   1      31.628  31.511  26.999  1.00  0.00     0.274 C 
ENDROOT
BRANCH   1   2
ATOM      2  O   UNL A   1      32.277  30.810  25.920  1.00  0.00    -0.462 OA
BRANCH   2   3
ATOM      3  C   UNL A   1      33.359  30.078  26.284  1.00  0.00     0.310 C 
ATOM      4  O   UNL A   1      34.068  30.333  27.251  1.00  0.00    -0.252 OA
BRANCH   3   5
ATOM      5  C   UNL A   1      33.554  28.827  25.460  1.00  0.00     0.119 C 
ATOM      6  C   UNL A   1      32.288  28.566  24.589  1.00  0.00     0.100 C 
ATOM      7  C   UNL A   1      32.076  27.040  24.771  1.00  0.00     0.025 C 
ATOM      8  C   UNL A   1      33.734  27.487  26.208  1.00  0.00     0.027 C 
ATOM      9  C   UNL A   1      31.516  26.863  26.166  1.00  0.00    -0.027 C 
ATOM     10  C   UNL A   1      33.496  26.521  25.040  1.00  0.00     0.017 C 
ATOM     11  C   UNL A   1      32.505  27.151  27.025  1.00  0.00    -0.027 C 
BRANCH   6  12
ATOM     12  C   UNL A   1      32.466  28.937  23.131  1.00  0.00     0.229 C 
ATOM     13  N   UNL A   1      31.452  29.335  22.313  1.00  0.00    -0.323 N 
ATOM     14  H   UNL A   1      31.780  29.598  21.422  1.00  0.00     0.170 HD
ATOM     15  O   UNL A   1      33.601  28.971  22.639  1.00  0.00    -0.274 OA
BRANCH  13  16
ATOM     16  C   UNL A   1      30.049  29.465  22.422  1.00  0.00     0.087 A 
ATOM     17  C   UNL A   1      28.197  31.036  22.187  1.00  0.00     0.121 A 
ATOM     18  C   UNL A   1      27.334  30.156  22.824  1.00  0.00     0.050 A 
ATOM     19  C   UNL A   1      29.544  30.713  22.012  1.00  0.00     0.076 A 
ATOM     20  C   UNL A   1      27.795  28.885  23.148  1.00  0.00     0.052 A 
ATOM     21  C   UNL A   1      29.121  28.516  22.872  1.00  0.00     0.142 A 
BRANCH  17  22
ATOM     22  O   UNL A   1      27.720  32.253  21.785  1.00  0.00    -0.497 OA
ATOM     23  C   UNL A   1      27.942  32.417  20.382  1.00  0.00     0.278 C 
ENDBRANCH  17  22
BRANCH  21  24
ATOM     24  O   UNL A   1      29.357  27.175  23.023  1.00  0.00    -0.495 OA
ATOM     25  C   UNL A   1      28.418  26.565  23.906  1.00  0.00     0.278 C 
ENDBRANCH  21  24
ENDBRANCH  13  16
ENDBRANCH   6  12
ENDBRANCH   3   5
ENDBRANCH   2   3
ENDBRANCH   1   2
BRANCH   1  26
ATOM     26  C   UNL A   1      31.784  33.031  26.881  1.00  0.00     0.275 C 
BRANCH  26  27
ATOM     27  O   UNL A   1      33.123  33.482  27.161  1.00  0.00    -0.458 OA
BRANCH  27  28
ATOM     28  C   UNL A   1      33.255  34.224  28.283  1.00  0.00     0.338 C 
ATOM     29  O   UNL A   1      32.523  35.134  28.658  1.00  0.00    -0.246 OA
BRANCH  28  30
ATOM     30  C   UNL A   1      34.361  33.720  29.108  1.00  0.00     0.060 A 
ATOM     31  C   UNL A   1      35.642  34.225  28.867  1.00  0.00     0.016 A 
ATOM     32  C   UNL A   1      34.173  32.684  30.023  1.00  0.00     0.016 A 
ATOM     33  C   UNL A   1      36.747  33.687  29.511  1.00  0.00     0.010 A 
ATOM     34  C   UNL A   1      35.285  32.146  30.681  1.00  0.00     0.010 A 
ATOM     35  C   UNL A   1      36.575  32.634  30.413  1.00  0.00    -0.014 A 
BRANCH  35  36
ATOM     36  C   UNL A   1      37.770  32.015  31.026  1.00  0.00     0.031 A 
ATOM     37  C   UNL A   1      38.550  30.989  30.262  1.00  0.00     0.074 A 
ATOM     38  C   UNL A   1      38.174  32.412  32.244  1.00  0.00     0.049 A 
ATOM     39  N   UNL A   1      39.562  30.262  30.655  1.00  0.00    -0.248 NA
ATOM     40  C   UNL A   1      38.135  30.750  28.870  1.00  0.00     0.031 C 
ATOM     41  C   UNL A   1      37.524  33.443  33.052  1.00  0.00     0.029 A 
ATOM     42  N   UNL A   1      39.229  31.994  33.015  1.00  0.00    -0.354 N 
ATOM     43  C   UNL A   1      39.889  29.457  29.572  1.00  0.00     0.074 A 
ATOM     44  C   UNL A   1      38.966  29.785  28.506  1.00  0.00     0.031 C 
ATOM     45  C   UNL A   1      38.199  33.581  34.204  1.00  0.00     0.029 A 
ATOM     46  C   UNL A   1      39.290  32.614  34.237  1.00  0.00     0.049 A 
ATOM     47  H   UNL A   1      39.877  31.314  32.720  1.00  0.00     0.167 HD
ATOM     48  C   UNL A   1      40.868  28.527  29.483  1.00  0.00     0.037 A 
ATOM     49  C   UNL A   1      40.112  32.398  35.281  1.00  0.00     0.037 A 
ATOM     50  C   UNL A   1      41.790  28.219  30.545  1.00  0.00     0.049 A 
ATOM     51  C   UNL A   1      41.151  31.318  35.179  1.00  0.00     0.074 A 
ATOM     52  C   UNL A   1      42.814  27.288  30.558  1.00  0.00     0.029 A 
ATOM     53  N   UNL A   1      41.799  28.843  31.783  1.00  0.00    -0.354 N 
ATOM     54  N   UNL A   1      41.430  30.534  34.166  1.00  0.00    -0.248 NA
ATOM     55  C   UNL A   1      41.976  31.078  36.371  1.00  0.00     0.031 C 
ATOM     56  C   UNL A   1      43.422  27.326  31.818  1.00  0.00     0.029 A 
ATOM     57  C   UNL A   1      42.800  28.306  32.576  1.00  0.00     0.049 A 
ATOM     58  H   UNL A   1      41.185  29.561  32.059  1.00  0.00     0.167 HD
ATOM     59  C   UNL A   1      42.464  29.713  34.593  1.00  0.00     0.074 A 
ATOM     60  C   UNL A   1      42.779  30.109  35.951  1.00  0.00     0.031 C 
ATOM     61  C   UNL A   1      43.095  28.717  33.925  1.00  0.00     0.037 A 
BRANCH  48  62
ATOM     62  C   UNL A   1      40.961  27.750  28.206  1.00  0.00     0.057 A 
ATOM     63  C   UNL A   1      41.722  28.196  27.118  1.00  0.00     0.134 A 
ATOM     64  C   UNL A   1      40.292  26.527  28.070  1.00  0.00     0.134 A 
ATOM     65  F   UNL A   1      42.372  29.368  27.181  1.00  0.00    -0.206 F 
ATOM     66  C   UNL A   1      41.797  27.462  25.933  1.00  0.00     0.040 A 
ATOM     67  C   UNL A   1      40.376  25.775  26.897  1.00  0.00     0.040 A 
ATOM     68  F   UNL A   1      39.547  26.043  29.075  1.00  0.00    -0.206 F 
ATOM     69  C   UNL A   1      41.127  26.245  25.822  1.00  0.00     0.006 A 
ENDBRANCH  48  62
BRANCH  49  70
ATOM     70  C   UNL A   1      39.958  33.194  36.522  1.00  0.00     0.057 A 
ATOM     71  C   UNL A   1      40.762  34.312  36.770  1.00  0.00     0.134 A 
ATOM     72  C   UNL A   1      39.005  32.857  37.492  1.00  0.00     0.134 A 
ATOM     73  F   UNL A   1      41.707  34.671  35.889  1.00  0.00    -0.206 F 
ATOM     74  C   UNL A   1      40.631  35.061  37.941  1.00  0.00     0.040 A 
ATOM     75  C   UNL A   1      38.846  33.612  38.655  1.00  0.00     0.040 A 
ATOM     76  F   UNL A   1      38.204  31.796  37.313  1.00  0.00    -0.206 F 
ATOM     77  C   UNL A   1      39.666  34.714  38.884  1.00  0.00     0.006 A 
ENDBRANCH  49  70
BRANCH  61  78
ATOM     78  C   UNL A   1      44.196  28.005  34.648  1.00  0.00     0.057 A 
ATOM     79  C   UNL A   1      43.959  26.832  35.376  1.00  0.00     0.134 A 
ATOM     80  C   UNL A   1      45.513  28.477  34.586  1.00  0.00     0.134 A 
ATOM     81  F   UNL A   1      42.716  26.339  35.484  1.00  0.00    -0.206 F 
ATOM     82  C   UNL A   1      44.992  26.163  36.032  1.00  0.00     0.040 A 
ATOM     83  C   UNL A   1      46.557  27.806  35.222  1.00  0.00     0.040 A 
ATOM     84  F   UNL A   1      45.804  29.593  33.901  1.00  0.00    -0.206 F 
ATOM     85  C   UNL A   1      46.296  26.646  35.951  1.00  0.00     0.006 A 
ENDBRANCH  61  78
ENDBRANCH  35  36
ENDBRANCH  28  30
ENDBRANCH  27  28
ENDBRANCH  26  27
ENDBRANCH   1  26
TORSDOF 15
ENDMDL
