MODEL 1
REMARK VINA RESULT:     -13.0      0.000      0.000
REMARK SMILES CCc1ccc(S(=O)(=O)c2nnn(-c3ccc(C(=O)OCCOC(=O)c4ccc(-c5c6nc(c(-c7c(F)cccc7F)c7ccc([nH]7)c(-c7c(F)cccc7F)c7nc(c(-c8c(F)cccc8F)c8ccc5[nH]8)C=C7)C=C6)cc4)cc3)c2C)cc1
REMARK SMILES IDX 21 1 20 2 18 3 19 4 17 5 14 6 15 7 81 8 16 9 80 10 13 11
REMARK SMILES IDX 10 12 11 13 82 14 12 15 83 16 7 17 8 18 9 19 6 20 3 21 4 22
REMARK SMILES IDX 85 23 5 24 84 25 2 26 1 27 22 28 23 29 24 30 25 31 26 32
REMARK SMILES IDX 27 33 79 34 28 35 78 36 29 37 30 38 31 39 72 40 32 41 77 42
REMARK SMILES IDX 71 43 73 44 33 45 76 46 70 47 69 48 34 50 60 51 43 52 59 53
REMARK SMILES IDX 44 54 47 55 58 56 74 57 45 58 46 59 57 61 75 62 48 63 35 64
REMARK SMILES IDX 36 65 41 66 37 67 38 68 40 69 42 70 39 71 61 72 62 73 67 74
REMARK SMILES IDX 63 75 64 76 66 77 68 78 65 79 49 80 50 81 55 82 51 83 52 84
REMARK SMILES IDX 54 85 56 86 53 87
REMARK H PARENT 73 49 47 60
REMARK Flexibility Score: inf
ROOT
ATOM      1  C   UNL A   1      42.476  18.277  26.267  1.00  0.00     0.275 C 
ENDROOT
BRANCH   1   2
ATOM      2  O   UNL A   1      41.490  19.173  25.735  1.00  0.00    -0.458 OA
BRANCH   2   3
ATOM      3  C   UNL A   1      41.127  20.210  26.531  1.00  0.00     0.338 C 
ATOM      4  O   UNL A   1      41.800  20.722  27.413  1.00  0.00    -0.246 OA
BRANCH   3   5
ATOM      5  C   UNL A   1      39.783  20.701  26.139  1.00  0.00     0.060 A 
ATOM      6  C   UNL A   1      37.405  21.683  25.095  1.00  0.00     0.067 A 
ATOM      7  C   UNL A   1      37.727  20.338  24.897  1.00  0.00     0.029 A 
ATOM      8  C   UNL A   1      38.181  22.488  25.938  1.00  0.00     0.029 A 
ATOM      9  C   UNL A   1      38.938  19.856  25.401  1.00  0.00     0.018 A 
ATOM     10  C   UNL A   1      39.368  21.996  26.463  1.00  0.00     0.018 A 
BRANCH   6  11
ATOM     11  N   UNL A   1      36.388  22.280  24.324  1.00  0.00    -0.216 N 
ATOM     12  C   UNL A   1      34.508  23.104  23.606  1.00  0.00     0.205 A 
ATOM     13  N   UNL A   1      35.479  23.357  22.676  1.00  0.00    -0.117 NA
ATOM     14  C   UNL A   1      35.073  22.489  24.710  1.00  0.00     0.081 A 
ATOM     15  N   UNL A   1      36.637  22.927  23.165  1.00  0.00    -0.061 NA
ATOM     16  C   UNL A   1      34.545  22.245  26.077  1.00  0.00     0.070 C 
BRANCH  12  17
ATOM     17  S   UNL A   1      32.880  23.648  23.428  1.00  0.00     0.227 S 
ATOM     18  O   UNL A   1      32.085  22.509  23.852  1.00  0.00    -0.217 OA
ATOM     19  O   UNL A   1      32.783  24.209  22.097  1.00  0.00    -0.217 OA
BRANCH  17  20
ATOM     20  C   UNL A   1      32.598  24.955  24.593  1.00  0.00     0.073 A 
ATOM     21  C   UNL A   1      32.045  26.938  26.498  1.00  0.00    -0.048 A 
ATOM     22  C   UNL A   1      31.027  26.090  26.038  1.00  0.00     0.005 A 
ATOM     23  C   UNL A   1      33.341  26.782  25.986  1.00  0.00     0.005 A 
ATOM     24  C   UNL A   1      31.302  25.095  25.100  1.00  0.00     0.021 A 
ATOM     25  C   UNL A   1      33.620  25.802  25.029  1.00  0.00     0.021 A 
BRANCH  21  26
ATOM     26  C   UNL A   1      31.743  28.035  27.491  1.00  0.00     0.032 C 
ATOM     27  C   UNL A   1      32.315  29.387  27.087  1.00  0.00     0.009 C 
ENDBRANCH  21  26
ENDBRANCH  17  20
ENDBRANCH  12  17
ENDBRANCH   6  11
ENDBRANCH   3   5
ENDBRANCH   2   3
ENDBRANCH   1   2
BRANCH   1  28
ATOM     28  C   UNL A   1      43.845  18.562  25.664  1.00  0.00     0.275 C 
BRANCH  28  29
ATOM     29  O   UNL A   1      43.723  19.289  24.443  1.00  0.00    -0.458 OA
BRANCH  29  30
ATOM     30  C   UNL A   1      44.883  19.705  23.887  1.00  0.00     0.338 C 
ATOM     31  O   UNL A   1      45.691  19.034  23.267  1.00  0.00    -0.246 OA
BRANCH  30  32
ATOM     32  C   UNL A   1      45.136  21.090  24.302  1.00  0.00     0.060 A 
ATOM     33  C   UNL A   1      45.972  21.296  25.401  1.00  0.00     0.016 A 
ATOM     34  C   UNL A   1      44.350  22.124  23.771  1.00  0.00     0.016 A 
ATOM     35  C   UNL A   1      45.884  22.494  26.080  1.00  0.00     0.010 A 
ATOM     36  C   UNL A   1      44.264  23.319  24.447  1.00  0.00     0.010 A 
ATOM     37  C   UNL A   1      44.964  23.457  25.641  1.00  0.00    -0.014 A 
BRANCH  37  38
ATOM     38  C   UNL A   1      44.762  24.627  26.468  1.00  0.00     0.031 A 
ATOM     39  C   UNL A   1      45.885  25.594  26.463  1.00  0.00     0.074 A 
ATOM     40  C   UNL A   1      43.603  24.868  27.109  1.00  0.00     0.049 A 
ATOM     41  N   UNL A   1      46.622  25.962  27.457  1.00  0.00    -0.248 NA
ATOM     42  C   UNL A   1      46.303  26.137  25.162  1.00  0.00     0.031 C 
ATOM     43  C   UNL A   1      42.318  24.171  26.983  1.00  0.00     0.029 A 
ATOM     44  N   UNL A   1      43.316  25.885  27.962  1.00  0.00    -0.354 N 
ATOM     45  C   UNL A   1      47.499  26.913  26.947  1.00  0.00     0.074 A 
ATOM     46  C   UNL A   1      47.345  26.890  25.514  1.00  0.00     0.031 C 
ATOM     47  C   UNL A   1      41.348  24.925  27.548  1.00  0.00     0.029 A 
ATOM     48  C   UNL A   1      41.964  26.071  28.196  1.00  0.00     0.049 A 
ATOM     49  H   UNL A   1      44.011  26.444  28.378  1.00  0.00     0.167 HD
ATOM     50  C   UNL A   1      48.148  27.793  27.753  1.00  0.00     0.037 A 
ATOM     51  C   UNL A   1      41.404  27.138  28.813  1.00  0.00     0.037 A 
ATOM     52  C   UNL A   1      48.173  27.350  29.121  1.00  0.00     0.049 A 
ATOM     53  C   UNL A   1      42.465  27.811  29.604  1.00  0.00     0.074 A 
ATOM     54  C   UNL A   1      48.688  26.246  29.773  1.00  0.00     0.029 A 
ATOM     55  N   UNL A   1      47.293  27.921  30.006  1.00  0.00    -0.354 N 
ATOM     56  N   UNL A   1      43.021  27.294  30.665  1.00  0.00    -0.248 NA
ATOM     57  C   UNL A   1      43.227  28.868  28.955  1.00  0.00     0.031 C 
ATOM     58  C   UNL A   1      47.733  25.936  30.785  1.00  0.00     0.029 A 
ATOM     59  C   UNL A   1      46.721  26.894  30.712  1.00  0.00     0.049 A 
ATOM     60  H   UNL A   1      47.109  28.883  30.114  1.00  0.00     0.167 HD
ATOM     61  C   UNL A   1      44.359  27.649  30.574  1.00  0.00     0.074 A 
ATOM     62  C   UNL A   1      44.408  28.691  29.551  1.00  0.00     0.031 C 
ATOM     63  C   UNL A   1      45.339  26.877  31.129  1.00  0.00     0.037 A 
BRANCH  50  64
ATOM     64  C   UNL A   1      48.458  29.210  27.356  1.00  0.00     0.057 A 
ATOM     65  C   UNL A   1      49.771  29.692  27.477  1.00  0.00     0.134 A 
ATOM     66  C   UNL A   1      47.468  30.190  27.143  1.00  0.00     0.134 A 
ATOM     67  F   UNL A   1      50.794  28.856  27.704  1.00  0.00    -0.206 F 
ATOM     68  C   UNL A   1      50.068  31.061  27.450  1.00  0.00     0.040 A 
ATOM     69  C   UNL A   1      47.760  31.553  27.064  1.00  0.00     0.040 A 
ATOM     70  F   UNL A   1      46.164  29.892  27.106  1.00  0.00    -0.206 F 
ATOM     71  C   UNL A   1      49.060  31.996  27.249  1.00  0.00     0.006 A 
ENDBRANCH  50  64
BRANCH  51  72
ATOM     72  C   UNL A   1      40.121  27.797  28.482  1.00  0.00     0.057 A 
ATOM     73  C   UNL A   1      39.080  27.873  29.415  1.00  0.00     0.134 A 
ATOM     74  C   UNL A   1      39.989  28.604  27.337  1.00  0.00     0.134 A 
ATOM     75  F   UNL A   1      39.140  27.173  30.557  1.00  0.00    -0.206 F 
ATOM     76  C   UNL A   1      37.978  28.718  29.231  1.00  0.00     0.040 A 
ATOM     77  C   UNL A   1      38.892  29.446  27.138  1.00  0.00     0.040 A 
ATOM     78  F   UNL A   1      40.963  28.671  26.418  1.00  0.00    -0.206 F 
ATOM     79  C   UNL A   1      37.886  29.516  28.093  1.00  0.00     0.006 A 
ENDBRANCH  51  72
BRANCH  63  80
ATOM     80  C   UNL A   1      44.919  25.753  32.034  1.00  0.00     0.057 A 
ATOM     81  C   UNL A   1      44.546  24.480  31.574  1.00  0.00     0.134 A 
ATOM     82  C   UNL A   1      45.048  25.911  33.417  1.00  0.00     0.134 A 
ATOM     83  F   UNL A   1      44.498  24.204  30.265  1.00  0.00    -0.206 F 
ATOM     84  C   UNL A   1      44.269  23.429  32.452  1.00  0.00     0.040 A 
ATOM     85  C   UNL A   1      44.806  24.860  34.305  1.00  0.00     0.040 A 
ATOM     86  F   UNL A   1      45.461  27.081  33.928  1.00  0.00    -0.206 F 
ATOM     87  C   UNL A   1      44.406  23.616  33.824  1.00  0.00     0.006 A 
ENDBRANCH  63  80
ENDBRANCH  37  38
ENDBRANCH  30  32
ENDBRANCH  29  30
ENDBRANCH  28  29
ENDBRANCH   1  28
TORSDOF 15
ENDMDL
MODEL 2
REMARK VINA RESULT:     -12.6      5.932     11.223
REMARK SMILES CCc1ccc(S(=O)(=O)c2nnn(-c3ccc(C(=O)OCCOC(=O)c4ccc(-c5c6nc(c(-c7c(F)cccc7F)c7ccc([nH]7)c(-c7c(F)cccc7F)c7nc(c(-c8c(F)cccc8F)c8ccc5[nH]8)C=C7)C=C6)cc4)cc3)c2C)cc1
REMARK SMILES IDX 21 1 20 2 18 3 19 4 17 5 14 6 15 7 81 8 16 9 80 10 13 11
REMARK SMILES IDX 10 12 11 13 82 14 12 15 83 16 7 17 8 18 9 19 6 20 3 21 4 22
REMARK SMILES IDX 85 23 5 24 84 25 2 26 1 27 22 28 23 29 24 30 25 31 26 32
REMARK SMILES IDX 27 33 79 34 28 35 78 36 29 37 30 38 31 39 72 40 32 41 77 42
REMARK SMILES IDX 71 43 73 44 33 45 76 46 70 47 69 48 34 50 60 51 43 52 59 53
REMARK SMILES IDX 44 54 47 55 58 56 74 57 45 58 46 59 57 61 75 62 48 63 35 64
REMARK SMILES IDX 36 65 41 66 37 67 38 68 40 69 42 70 39 71 61 72 62 73 67 74
REMARK SMILES IDX 63 75 64 76 66 77 68 78 65 79 49 80 50 81 55 82 51 83 52 84
REMARK SMILES IDX 54 85 56 86 53 87
REMARK H PARENT 73 49 47 60
REMARK Flexibility Score: inf
ROOT
ATOM      1  C   UNL A   1      32.909  36.008  28.797  1.00  0.00     0.275 C 
ENDROOT
BRANCH   1   2
ATOM      2  O   UNL A   1      32.773  34.582  28.710  1.00  0.00    -0.458 OA
BRANCH   2   3
ATOM      3  C   UNL A   1      33.878  33.894  28.328  1.00  0.00     0.338 C 
ATOM      4  O   UNL A   1      35.041  34.225  28.509  1.00  0.00    -0.246 OA
BRANCH   3   5
ATOM      5  C   UNL A   1      33.482  32.613  27.694  1.00  0.00     0.060 A 
ATOM      6  C   UNL A   1      32.574  30.145  26.802  1.00  0.00     0.067 A 
ATOM      7  C   UNL A   1      31.743  31.261  26.668  1.00  0.00     0.029 A 
ATOM      8  C   UNL A   1      33.900  30.287  27.229  1.00  0.00     0.029 A 
ATOM      9  C   UNL A   1      32.195  32.495  27.144  1.00  0.00     0.018 A 
ATOM     10  C   UNL A   1      34.355  31.522  27.672  1.00  0.00     0.018 A 
BRANCH   6  11
ATOM     11  N   UNL A   1      32.035  28.852  26.660  1.00  0.00    -0.216 N 
ATOM     12  C   UNL A   1      31.388  26.919  25.901  1.00  0.00     0.205 A 
ATOM     13  N   UNL A   1      31.179  26.949  27.252  1.00  0.00    -0.117 NA
ATOM     14  C   UNL A   1      32.011  28.089  25.502  1.00  0.00     0.081 A 
ATOM     15  N   UNL A   1      31.658  28.098  27.716  1.00  0.00    -0.061 NA
ATOM     16  C   UNL A   1      32.690  28.458  24.233  1.00  0.00     0.070 C 
BRANCH  12  17
ATOM     17  S   UNL A   1      31.051  25.530  24.934  1.00  0.00     0.227 S 
ATOM     18  O   UNL A   1      30.405  26.076  23.754  1.00  0.00    -0.217 OA
ATOM     19  O   UNL A   1      30.395  24.578  25.807  1.00  0.00    -0.217 OA
BRANCH  17  20
ATOM     20  C   UNL A   1      32.592  24.823  24.415  1.00  0.00     0.073 A 
ATOM     21  C   UNL A   1      35.065  23.685  23.737  1.00  0.00    -0.048 A 
ATOM     22  C   UNL A   1      34.922  24.423  24.921  1.00  0.00     0.005 A 
ATOM     23  C   UNL A   1      33.953  23.529  22.897  1.00  0.00     0.005 A 
ATOM     24  C   UNL A   1      33.690  24.980  25.266  1.00  0.00     0.021 A 
ATOM     25  C   UNL A   1      32.722  24.103  23.224  1.00  0.00     0.021 A 
BRANCH  21  26
ATOM     26  C   UNL A   1      36.404  23.108  23.347  1.00  0.00     0.032 C 
ATOM     27  C   UNL A   1      36.989  22.176  24.399  1.00  0.00     0.009 C 
ENDBRANCH  21  26
ENDBRANCH  17  20
ENDBRANCH  12  17
ENDBRANCH   6  11
ENDBRANCH   3   5
ENDBRANCH   2   3
ENDBRANCH   1   2
BRANCH   1  28
ATOM     28  C   UNL A   1      32.907  36.461  30.251  1.00  0.00     0.275 C 
BRANCH  28  29
ATOM     29  O   UNL A   1      32.558  35.386  31.120  1.00  0.00    -0.458 OA
BRANCH  29  30
ATOM     30  C   UNL A   1      32.777  35.597  32.437  1.00  0.00     0.338 C 
ATOM     31  O   UNL A   1      32.187  36.370  33.173  1.00  0.00    -0.246 OA
BRANCH  30  32
ATOM     32  C   UNL A   1      33.990  34.874  32.836  1.00  0.00     0.060 A 
ATOM     33  C   UNL A   1      35.175  35.605  32.946  1.00  0.00     0.016 A 
ATOM     34  C   UNL A   1      33.989  33.471  32.839  1.00  0.00     0.016 A 
ATOM     35  C   UNL A   1      36.375  34.927  32.878  1.00  0.00     0.010 A 
ATOM     36  C   UNL A   1      35.185  32.797  32.772  1.00  0.00     0.010 A 
ATOM     37  C   UNL A   1      36.361  33.537  32.704  1.00  0.00    -0.014 A 
BRANCH  37  38
ATOM     38  C   UNL A   1      37.623  32.872  32.456  1.00  0.00     0.031 A 
ATOM     39  C   UNL A   1      38.539  32.826  33.619  1.00  0.00     0.074 A 
ATOM     40  C   UNL A   1      37.898  32.254  31.292  1.00  0.00     0.049 A 
ATOM     41  N   UNL A   1      39.714  33.353  33.727  1.00  0.00    -0.248 NA
ATOM     42  C   UNL A   1      38.037  32.203  34.852  1.00  0.00     0.031 C 
ATOM     43  C   UNL A   1      37.000  31.961  30.169  1.00  0.00     0.029 A 
ATOM     44  N   UNL A   1      39.060  31.659  30.917  1.00  0.00    -0.354 N 
ATOM     45  C   UNL A   1      40.176  32.990  34.987  1.00  0.00     0.074 A 
ATOM     46  C   UNL A   1      39.062  32.394  35.681  1.00  0.00     0.031 C 
ATOM     47  C   UNL A   1      37.588  31.054  29.357  1.00  0.00     0.029 A 
ATOM     48  C   UNL A   1      38.945  30.819  29.822  1.00  0.00     0.049 A 
ATOM     49  H   UNL A   1      39.912  31.812  31.384  1.00  0.00     0.167 HD
ATOM     50  C   UNL A   1      41.498  33.026  35.301  1.00  0.00     0.037 A 
ATOM     51  C   UNL A   1      39.883  29.943  29.391  1.00  0.00     0.037 A 
ATOM     52  C   UNL A   1      42.243  33.860  34.397  1.00  0.00     0.049 A 
ATOM     53  C   UNL A   1      41.190  30.365  29.958  1.00  0.00     0.074 A 
ATOM     54  C   UNL A   1      42.202  35.199  34.058  1.00  0.00     0.029 A 
ATOM     55  N   UNL A   1      42.981  33.254  33.411  1.00  0.00    -0.354 N 
ATOM     56  N   UNL A   1      41.820  31.451  29.606  1.00  0.00    -0.248 NA
ATOM     57  C   UNL A   1      41.581  29.807  31.245  1.00  0.00     0.031 C 
ATOM     58  C   UNL A   1      42.475  35.234  32.659  1.00  0.00     0.029 A 
ATOM     59  C   UNL A   1      42.706  33.921  32.245  1.00  0.00     0.049 A 
ATOM     60  H   UNL A   1      43.591  32.489  33.521  1.00  0.00     0.167 HD
ATOM     61  C   UNL A   1      42.365  31.943  30.783  1.00  0.00     0.074 A 
ATOM     62  C   UNL A   1      42.261  30.844  31.740  1.00  0.00     0.031 C 
ATOM     63  C   UNL A   1      42.593  33.277  30.959  1.00  0.00     0.037 A 
BRANCH  50  64
ATOM     64  C   UNL A   1      42.160  32.036  36.219  1.00  0.00     0.057 A 
ATOM     65  C   UNL A   1      42.937  32.497  37.293  1.00  0.00     0.134 A 
ATOM     66  C   UNL A   1      42.302  30.667  35.912  1.00  0.00     0.134 A 
ATOM     67  F   UNL A   1      42.903  33.786  37.664  1.00  0.00    -0.206 F 
ATOM     68  C   UNL A   1      43.838  31.668  37.973  1.00  0.00     0.040 A 
ATOM     69  C   UNL A   1      43.160  29.820  36.616  1.00  0.00     0.040 A 
ATOM     70  F   UNL A   1      41.701  30.106  34.855  1.00  0.00    -0.206 F 
ATOM     71  C   UNL A   1      43.956  30.327  37.630  1.00  0.00     0.006 A 
ENDBRANCH  50  64
BRANCH  51  72
ATOM     72  C   UNL A   1      39.661  28.596  28.824  1.00  0.00     0.057 A 
ATOM     73  C   UNL A   1      40.140  28.254  27.553  1.00  0.00     0.134 A 
ATOM     74  C   UNL A   1      39.213  27.530  29.626  1.00  0.00     0.134 A 
ATOM     75  F   UNL A   1      40.628  29.196  26.735  1.00  0.00    -0.206 F 
ATOM     76  C   UNL A   1      40.187  26.925  27.110  1.00  0.00     0.040 A 
ATOM     77  C   UNL A   1      39.249  26.201  29.194  1.00  0.00     0.040 A 
ATOM     78  F   UNL A   1      38.810  27.733  30.888  1.00  0.00    -0.206 F 
ATOM     79  C   UNL A   1      39.750  25.892  27.936  1.00  0.00     0.006 A 
ENDBRANCH  51  72
BRANCH  63  80
ATOM     80  C   UNL A   1      42.450  34.177  29.762  1.00  0.00     0.057 A 
ATOM     81  C   UNL A   1      41.245  34.792  29.390  1.00  0.00     0.134 A 
ATOM     82  C   UNL A   1      43.598  34.559  29.060  1.00  0.00     0.134 A 
ATOM     83  F   UNL A   1      40.114  34.569  30.071  1.00  0.00    -0.206 F 
ATOM     84  C   UNL A   1      41.178  35.709  28.337  1.00  0.00     0.040 A 
ATOM     85  C   UNL A   1      43.551  35.498  28.027  1.00  0.00     0.040 A 
ATOM     86  F   UNL A   1      44.796  34.060  29.400  1.00  0.00    -0.206 F 
ATOM     87  C   UNL A   1      42.336  36.070  27.655  1.00  0.00     0.006 A 
ENDBRANCH  63  80
ENDBRANCH  37  38
ENDBRANCH  30  32
ENDBRANCH  29  30
ENDBRANCH  28  29
ENDBRANCH   1  28
TORSDOF 15
ENDMDL
MODEL 3
REMARK VINA RESULT:     -12.4      1.200      1.502
REMARK SMILES CCc1ccc(S(=O)(=O)c2nnn(-c3ccc(C(=O)OCCOC(=O)c4ccc(-c5c6nc(c(-c7c(F)cccc7F)c7ccc([nH]7)c(-c7c(F)cccc7F)c7nc(c(-c8c(F)cccc8F)c8ccc5[nH]8)C=C7)C=C6)cc4)cc3)c2C)cc1
REMARK SMILES IDX 21 1 20 2 18 3 19 4 17 5 14 6 15 7 81 8 16 9 80 10 13 11
REMARK SMILES IDX 10 12 11 13 82 14 12 15 83 16 7 17 8 18 9 19 6 20 3 21 4 22
REMARK SMILES IDX 85 23 5 24 84 25 2 26 1 27 22 28 23 29 24 30 25 31 26 32
REMARK SMILES IDX 27 33 79 34 28 35 78 36 29 37 30 38 31 39 72 40 32 41 77 42
REMARK SMILES IDX 71 43 73 44 33 45 76 46 70 47 69 48 34 50 60 51 43 52 59 53
REMARK SMILES IDX 44 54 47 55 58 56 74 57 45 58 46 59 57 61 75 62 48 63 35 64
REMARK SMILES IDX 36 65 41 66 37 67 38 68 40 69 42 70 39 71 61 72 62 73 67 74
REMARK SMILES IDX 63 75 64 76 66 77 68 78 65 79 49 80 50 81 55 82 51 83 52 84
REMARK SMILES IDX 54 85 56 86 53 87
REMARK H PARENT 73 49 47 60
REMARK Flexibility Score: inf
ROOT
ATOM      1  C   UNL A   1      41.897  19.111  26.497  1.00  0.00     0.275 C 
ENDROOT
BRANCH   1   2
ATOM      2  O   UNL A   1      41.050  20.045  25.813  1.00  0.00    -0.458 OA
BRANCH   2   3
ATOM      3  C   UNL A   1      40.720  21.171  26.494  1.00  0.00     0.338 C 
ATOM      4  O   UNL A   1      41.437  21.792  27.265  1.00  0.00    -0.246 OA
BRANCH   3   5
ATOM      5  C   UNL A   1      39.350  21.604  26.124  1.00  0.00     0.060 A 
ATOM      6  C   UNL A   1      36.910  22.455  25.112  1.00  0.00     0.067 A 
ATOM      7  C   UNL A   1      37.254  21.104  25.002  1.00  0.00     0.029 A 
ATOM      8  C   UNL A   1      37.701  23.337  25.857  1.00  0.00     0.029 A 
ATOM      9  C   UNL A   1      38.496  20.688  25.490  1.00  0.00     0.018 A 
ATOM     10  C   UNL A   1      38.920  22.911  26.366  1.00  0.00     0.018 A 
BRANCH   6  11
ATOM     11  N   UNL A   1      35.848  22.969  24.342  1.00  0.00    -0.216 N 
ATOM     12  C   UNL A   1      33.969  23.832  23.669  1.00  0.00     0.205 A 
ATOM     13  N   UNL A   1      34.803  23.710  22.592  1.00  0.00    -0.117 NA
ATOM     14  C   UNL A   1      34.635  23.444  24.818  1.00  0.00     0.081 A 
ATOM     15  N   UNL A   1      35.975  23.265  23.030  1.00  0.00    -0.061 NA
ATOM     16  C   UNL A   1      34.305  23.625  26.255  1.00  0.00     0.070 C 
BRANCH  12  17
ATOM     17  S   UNL A   1      32.393  24.528  23.556  1.00  0.00     0.227 S 
ATOM     18  O   UNL A   1      31.519  23.497  24.087  1.00  0.00    -0.217 OA
ATOM     19  O   UNL A   1      32.268  25.030  22.204  1.00  0.00    -0.217 OA
BRANCH  17  20
ATOM     20  C   UNL A   1      32.314  25.912  24.662  1.00  0.00     0.073 A 
ATOM     21  C   UNL A   1      32.237  28.187  26.301  1.00  0.00    -0.048 A 
ATOM     22  C   UNL A   1      33.195  28.075  25.283  1.00  0.00     0.005 A 
ATOM     23  C   UNL A   1      31.322  27.141  26.489  1.00  0.00     0.005 A 
ATOM     24  C   UNL A   1      33.228  26.950  24.459  1.00  0.00     0.021 A 
ATOM     25  C   UNL A   1      31.363  26.000  25.682  1.00  0.00     0.021 A 
BRANCH  21  26
ATOM     26  C   UNL A   1      32.219  29.390  27.213  1.00  0.00     0.032 C 
ATOM     27  C   UNL A   1      33.512  30.191  27.179  1.00  0.00     0.009 C 
ENDBRANCH  21  26
ENDBRANCH  17  20
ENDBRANCH  12  17
ENDBRANCH   6  11
ENDBRANCH   3   5
ENDBRANCH   2   3
ENDBRANCH   1   2
BRANCH   1  28
ATOM     28  C   UNL A   1      43.253  19.013  25.812  1.00  0.00     0.275 C 
BRANCH  28  29
ATOM     29  O   UNL A   1      43.434  20.080  24.883  1.00  0.00    -0.458 OA
BRANCH  29  30
ATOM     30  C   UNL A   1      44.704  20.519  24.731  1.00  0.00     0.338 C 
ATOM     31  O   UNL A   1      45.708  19.846  24.577  1.00  0.00    -0.246 OA
BRANCH  30  32
ATOM     32  C   UNL A   1      44.733  21.968  24.964  1.00  0.00     0.060 A 
ATOM     33  C   UNL A   1      45.713  22.466  25.826  1.00  0.00     0.016 A 
ATOM     34  C   UNL A   1      43.654  22.759  24.542  1.00  0.00     0.016 A 
ATOM     35  C   UNL A   1      45.511  23.701  26.408  1.00  0.00     0.010 A 
ATOM     36  C   UNL A   1      43.454  23.990  25.122  1.00  0.00     0.010 A 
ATOM     37  C   UNL A   1      44.338  24.407  26.112  1.00  0.00    -0.014 A 
BRANCH  37  38
ATOM     38  C   UNL A   1      44.063  25.612  26.867  1.00  0.00     0.031 A 
ATOM     39  C   UNL A   1      45.041  26.707  26.667  1.00  0.00     0.074 A 
ATOM     40  C   UNL A   1      42.951  25.761  27.610  1.00  0.00     0.049 A 
ATOM     41  N   UNL A   1      45.817  27.250  27.545  1.00  0.00    -0.248 NA
ATOM     42  C   UNL A   1      45.254  27.180  25.292  1.00  0.00     0.031 C 
ATOM     43  C   UNL A   1      41.764  24.902  27.677  1.00  0.00     0.029 A 
ATOM     44  N   UNL A   1      42.616  26.806  28.410  1.00  0.00    -0.354 N 
ATOM     45  C   UNL A   1      46.505  28.254  26.873  1.00  0.00     0.074 A 
ATOM     46  C   UNL A   1      46.215  28.086  25.471  1.00  0.00     0.031 C 
ATOM     47  C   UNL A   1      40.763  25.575  28.286  1.00  0.00     0.029 A 
ATOM     48  C   UNL A   1      41.281  26.842  28.775  1.00  0.00     0.049 A 
ATOM     49  H   UNL A   1      43.267  27.482  28.706  1.00  0.00     0.167 HD
ATOM     50  C   UNL A   1      47.107  29.276  27.536  1.00  0.00     0.037 A 
ATOM     51  C   UNL A   1      40.646  27.881  29.368  1.00  0.00     0.037 A 
ATOM     52  C   UNL A   1      47.325  28.963  28.922  1.00  0.00     0.049 A 
ATOM     53  C   UNL A   1      41.681  28.748  29.987  1.00  0.00     0.074 A 
ATOM     54  C   UNL A   1      48.043  27.992  29.595  1.00  0.00     0.029 A 
ATOM     55  N   UNL A   1      46.467  29.495  29.852  1.00  0.00    -0.354 N 
ATOM     56  N   UNL A   1      42.403  28.400  31.016  1.00  0.00    -0.248 NA
ATOM     57  C   UNL A   1      42.228  29.831  29.181  1.00  0.00     0.031 C 
ATOM     58  C   UNL A   1      47.242  27.656  30.725  1.00  0.00     0.029 A 
ATOM     59  C   UNL A   1      46.109  28.471  30.691  1.00  0.00     0.049 A 
ATOM     60  H   UNL A   1      46.168  30.432  29.907  1.00  0.00     0.167 HD
ATOM     61  C   UNL A   1      43.666  28.910  30.754  1.00  0.00     0.074 A 
ATOM     62  C   UNL A   1      43.475  29.856  29.657  1.00  0.00     0.031 C 
ATOM     63  C   UNL A   1      44.789  28.319  31.255  1.00  0.00     0.037 A 
BRANCH  50  64
ATOM     64  C   UNL A   1      47.185  30.680  27.003  1.00  0.00     0.057 A 
ATOM     65  C   UNL A   1      48.412  31.362  27.021  1.00  0.00     0.134 A 
ATOM     66  C   UNL A   1      46.051  31.478  26.749  1.00  0.00     0.134 A 
ATOM     67  F   UNL A   1      49.557  30.711  27.275  1.00  0.00    -0.206 F 
ATOM     68  C   UNL A   1      48.497  32.750  26.861  1.00  0.00     0.040 A 
ATOM     69  C   UNL A   1      46.130  32.856  26.538  1.00  0.00     0.040 A 
ATOM     70  F   UNL A   1      44.807  30.987  26.797  1.00  0.00    -0.206 F 
ATOM     71  C   UNL A   1      47.352  33.503  26.625  1.00  0.00     0.006 A 
ENDBRANCH  50  64
BRANCH  51  72
ATOM     72  C   UNL A   1      39.262  28.343  29.130  1.00  0.00     0.057 A 
ATOM     73  C   UNL A   1      38.323  28.394  30.168  1.00  0.00     0.134 A 
ATOM     74  C   UNL A   1      38.906  29.001  27.938  1.00  0.00     0.134 A 
ATOM     75  F   UNL A   1      38.593  27.834  31.356  1.00  0.00    -0.206 F 
ATOM     76  C   UNL A   1      37.107  29.077  30.036  1.00  0.00     0.040 A 
ATOM     77  C   UNL A   1      37.693  29.680  27.792  1.00  0.00     0.040 A 
ATOM     78  F   UNL A   1      39.761  29.084  26.909  1.00  0.00    -0.206 F 
ATOM     79  C   UNL A   1      36.793  29.732  28.848  1.00  0.00     0.006 A 
ENDBRANCH  51  72
BRANCH  63  80
ATOM     80  C   UNL A   1      44.614  27.235  32.283  1.00  0.00     0.057 A 
ATOM     81  C   UNL A   1      44.498  25.872  31.965  1.00  0.00     0.134 A 
ATOM     82  C   UNL A   1      44.724  27.560  33.638  1.00  0.00     0.134 A 
ATOM     83  F   UNL A   1      44.492  25.456  30.693  1.00  0.00    -0.206 F 
ATOM     84  C   UNL A   1      44.448  24.885  32.954  1.00  0.00     0.040 A 
ATOM     85  C   UNL A   1      44.708  26.582  34.634  1.00  0.00     0.040 A 
ATOM     86  F   UNL A   1      44.899  28.836  34.014  1.00  0.00    -0.206 F 
ATOM     87  C   UNL A   1      44.560  25.239  34.295  1.00  0.00     0.006 A 
ENDBRANCH  63  80
ENDBRANCH  37  38
ENDBRANCH  30  32
ENDBRANCH  29  30
ENDBRANCH  28  29
ENDBRANCH   1  28
TORSDOF 15
ENDMDL
