MODEL 1
REMARK VINA RESULT:     -14.0      0.000      0.000
REMARK SMILES O=C(OCCOC(=O)c1nccnc1C(=O)Nc1ccc2c(c1)OCO2)c1ccc(-c2c3nc(c(-c4c(F)cccc4F)c4ccc([nH]4)c(-c4c(F)cccc4F)c4nc(c(-c5c(F)cccc5F)c5ccc2[nH]5)C=C4)C=C3)cc1
REMARK SMILES IDX 4 1 3 2 2 3 1 4 27 5 28 6 80 7 29 8 79 9 30 10 31 11 32 12
REMARK SMILES IDX 73 13 33 14 78 15 72 16 74 17 34 18 77 19 71 20 70 21 35 23
REMARK SMILES IDX 61 24 44 25 60 26 45 27 48 28 59 29 75 30 46 31 47 32 58 34
REMARK SMILES IDX 76 35 49 36 36 37 37 38 42 39 38 40 39 41 41 42 43 43 40 44
REMARK SMILES IDX 62 45 63 46 68 47 64 48 65 49 67 50 69 51 66 52 50 53 51 54
REMARK SMILES IDX 56 55 52 56 53 57 55 58 57 59 54 60 5 61 6 62 7 63 8 64 9 65
REMARK SMILES IDX 10 66 14 67 11 68 13 69 12 70 15 71 16 72 17 73 18 75 19 76
REMARK SMILES IDX 23 77 20 78 22 79 21 80 24 81 26 82 25 83
REMARK H PARENT 74 22 48 33 17 74
REMARK Flexibility Score: inf
ROOT
ATOM      1  C   UNL A   1      31.463  32.343  26.813  1.00  0.00     0.275 C 
ENDROOT
BRANCH   1   2
ATOM      2  O   UNL A   1      32.314  33.530  27.248  1.00  0.00    -0.458 OA
BRANCH   2   3
ATOM      3  C   UNL A   1      33.055  33.872  28.395  1.00  0.00     0.338 C 
ATOM      4  O   UNL A   1      32.599  34.684  29.194  1.00  0.00    -0.246 OA
BRANCH   3   5
ATOM      5  C   UNL A   1      34.485  33.408  28.625  1.00  0.00     0.060 A 
ATOM      6  C   UNL A   1      34.696  32.098  28.404  1.00  0.00     0.016 A 
ATOM      7  C   UNL A   1      35.680  34.083  28.830  1.00  0.00     0.016 A 
ATOM      8  C   UNL A   1      35.762  31.317  28.812  1.00  0.00     0.010 A 
ATOM      9  C   UNL A   1      36.912  33.349  29.015  1.00  0.00     0.010 A 
ATOM     10  C   UNL A   1      36.932  31.932  29.124  1.00  0.00    -0.014 A 
BRANCH  10  11
ATOM     11  C   UNL A   1      37.990  31.095  29.777  1.00  0.00     0.031 A 
ATOM     12  C   UNL A   1      38.125  31.298  31.251  1.00  0.00     0.074 A 
ATOM     13  C   UNL A   1      38.630  30.021  29.245  1.00  0.00     0.049 A 
ATOM     14  N   UNL A   1      39.097  30.997  32.061  1.00  0.00    -0.248 NA
ATOM     15  C   UNL A   1      36.967  31.936  31.901  1.00  0.00     0.031 C 
ATOM     16  C   UNL A   1      38.349  29.386  27.959  1.00  0.00     0.029 A 
ATOM     17  N   UNL A   1      39.653  29.238  29.743  1.00  0.00    -0.354 N 
ATOM     18  C   UNL A   1      38.715  31.521  33.287  1.00  0.00     0.074 A 
ATOM     19  C   UNL A   1      37.428  32.150  33.116  1.00  0.00     0.031 C 
ATOM     20  C   UNL A   1      39.200  28.371  27.738  1.00  0.00     0.029 A 
ATOM     21  C   UNL A   1      40.145  28.319  28.837  1.00  0.00     0.049 A 
ATOM     22  H   UNL A   1      40.000  29.327  30.660  1.00  0.00     0.167 HD
ATOM     23  C   UNL A   1      39.395  31.482  34.452  1.00  0.00     0.037 A 
ATOM     24  C   UNL A   1      41.264  27.566  28.860  1.00  0.00     0.037 A 
ATOM     25  C   UNL A   1      40.626  30.764  34.600  1.00  0.00     0.049 A 
ATOM     26  C   UNL A   1      42.118  27.647  30.095  1.00  0.00     0.074 A 
ATOM     27  C   UNL A   1      41.471  30.702  35.688  1.00  0.00     0.029 A 
ATOM     28  N   UNL A   1      41.169  29.949  33.613  1.00  0.00    -0.354 N 
ATOM     29  N   UNL A   1      41.888  28.318  31.199  1.00  0.00    -0.248 NA
ATOM     30  C   UNL A   1      43.372  26.887  30.100  1.00  0.00     0.031 C 
ATOM     31  C   UNL A   1      42.552  29.883  35.341  1.00  0.00     0.029 A 
ATOM     32  C   UNL A   1      42.350  29.392  34.058  1.00  0.00     0.049 A 
ATOM     33  H   UNL A   1      40.770  29.793  32.727  1.00  0.00     0.167 HD
ATOM     34  C   UNL A   1      42.950  28.038  32.045  1.00  0.00     0.074 A 
ATOM     35  C   UNL A   1      43.824  27.132  31.323  1.00  0.00     0.031 C 
ATOM     36  C   UNL A   1      43.179  28.481  33.305  1.00  0.00     0.037 A 
BRANCH  23  37
ATOM     37  C   UNL A   1      38.859  32.346  35.550  1.00  0.00     0.057 A 
ATOM     38  C   UNL A   1      39.175  33.707  35.674  1.00  0.00     0.134 A 
ATOM     39  C   UNL A   1      38.140  31.752  36.596  1.00  0.00     0.134 A 
ATOM     40  F   UNL A   1      39.911  34.322  34.736  1.00  0.00    -0.206 F 
ATOM     41  C   UNL A   1      38.845  34.429  36.824  1.00  0.00     0.040 A 
ATOM     42  C   UNL A   1      37.775  32.472  37.732  1.00  0.00     0.040 A 
ATOM     43  F   UNL A   1      37.825  30.449  36.551  1.00  0.00    -0.206 F 
ATOM     44  C   UNL A   1      38.144  33.809  37.858  1.00  0.00     0.006 A 
ENDBRANCH  23  37
BRANCH  24  45
ATOM     45  C   UNL A   1      41.691  26.774  27.666  1.00  0.00     0.057 A 
ATOM     46  C   UNL A   1      42.407  27.342  26.604  1.00  0.00     0.134 A 
ATOM     47  C   UNL A   1      41.352  25.417  27.541  1.00  0.00     0.134 A 
ATOM     48  F   UNL A   1      42.748  28.637  26.639  1.00  0.00    -0.206 F 
ATOM     49  C   UNL A   1      42.754  26.602  25.467  1.00  0.00     0.040 A 
ATOM     50  C   UNL A   1      41.710  24.660  26.421  1.00  0.00     0.040 A 
ATOM     51  F   UNL A   1      40.666  24.798  28.514  1.00  0.00    -0.206 F 
ATOM     52  C   UNL A   1      42.408  25.255  25.375  1.00  0.00     0.006 A 
ENDBRANCH  24  45
BRANCH  36  53
ATOM     53  C   UNL A   1      44.395  27.953  33.997  1.00  0.00     0.057 A 
ATOM     54  C   UNL A   1      45.613  28.638  33.976  1.00  0.00     0.134 A 
ATOM     55  C   UNL A   1      44.312  26.783  34.763  1.00  0.00     0.134 A 
ATOM     56  F   UNL A   1      45.752  29.756  33.246  1.00  0.00    -0.206 F 
ATOM     57  C   UNL A   1      46.715  28.174  34.690  1.00  0.00     0.040 A 
ATOM     58  C   UNL A   1      45.399  26.325  35.503  1.00  0.00     0.040 A 
ATOM     59  F   UNL A   1      43.165  26.089  34.825  1.00  0.00    -0.206 F 
ATOM     60  C   UNL A   1      46.605  27.021  35.468  1.00  0.00     0.006 A 
ENDBRANCH  36  53
ENDBRANCH  10  11
ENDBRANCH   3   5
ENDBRANCH   2   3
ENDBRANCH   1   2
BRANCH   1  61
ATOM     61  C   UNL A   1      32.033  30.588  26.875  1.00  0.00     0.275 C 
BRANCH  61  62
ATOM     62  O   UNL A   1      33.125  29.614  25.458  1.00  0.00    -0.457 OA
BRANCH  62  63
ATOM     63  C   UNL A   1      33.563  28.469  24.625  1.00  0.00     0.359 C 
ATOM     64  O   UNL A   1      34.315  28.718  23.679  1.00  0.00    -0.244 OA
BRANCH  63  65
ATOM     65  C   UNL A   1      33.108  26.963  24.767  1.00  0.00     0.179 A 
ATOM     66  N   UNL A   1      32.944  26.603  26.087  1.00  0.00    -0.245 NA
ATOM     67  C   UNL A   1      32.765  26.012  23.788  1.00  0.00     0.161 A 
ATOM     68  C   UNL A   1      32.451  25.359  26.356  1.00  0.00     0.132 A 
ATOM     69  N   UNL A   1      32.356  24.731  24.095  1.00  0.00    -0.247 NA
ATOM     70  C   UNL A   1      32.194  24.424  25.382  1.00  0.00     0.132 A 
BRANCH  67  71
ATOM     71  C   UNL A   1      32.794  26.161  22.313  1.00  0.00     0.276 C 
ATOM     72  O   UNL A   1      33.643  25.602  21.622  1.00  0.00    -0.267 OA
ATOM     73  N   UNL A   1      31.877  26.940  21.701  1.00  0.00    -0.320 N 
ATOM     74  H   UNL A   1      31.971  27.082  20.732  1.00  0.00     0.170 HD
BRANCH  73  75
ATOM     75  C   UNL A   1      30.820  27.546  22.337  1.00  0.00     0.045 A 
ATOM     76  C   UNL A   1      29.320  26.749  23.130  1.00  0.00     0.030 A 
ATOM     77  C   UNL A   1      30.793  29.329  22.051  1.00  0.00     0.076 A 
ATOM     78  C   UNL A   1      27.917  27.747  23.598  1.00  0.00     0.053 A 
ATOM     79  C   UNL A   1      29.352  30.208  22.566  1.00  0.00     0.167 A 
ATOM     80  C   UNL A   1      27.996  29.443  23.286  1.00  0.00     0.165 A 
ATOM     81  O   UNL A   1      29.012  31.509  22.385  1.00  0.00    -0.454 OA
ATOM     82  O   UNL A   1      27.032  30.366  23.497  1.00  0.00    -0.454 OA
ATOM     83  C   UNL A   1      27.653  31.573  22.956  1.00  0.00     0.468 C 
ENDBRANCH  73  75
ENDBRANCH  67  71
ENDBRANCH  63  65
ENDBRANCH  62  63
ENDBRANCH  61  62
ENDBRANCH   1  61
TORSDOF 13
ENDMDL
MODEL 2
REMARK VINA RESULT:     -13.7      2.152      7.059
REMARK SMILES O=C(OCCOC(=O)c1nccnc1C(=O)Nc1ccc2c(c1)OCO2)c1ccc(-c2c3nc(c(-c4c(F)cccc4F)c4ccc([nH]4)c(-c4c(F)cccc4F)c4nc(c(-c5c(F)cccc5F)c5ccc2[nH]5)C=C4)C=C3)cc1
REMARK SMILES IDX 4 1 3 2 2 3 1 4 27 5 28 6 80 7 29 8 79 9 30 10 31 11 32 12
REMARK SMILES IDX 73 13 33 14 78 15 72 16 74 17 34 18 77 19 71 20 70 21 35 23
REMARK SMILES IDX 61 24 44 25 60 26 45 27 48 28 59 29 75 30 46 31 47 32 58 34
REMARK SMILES IDX 76 35 49 36 36 37 37 38 42 39 38 40 39 41 41 42 43 43 40 44
REMARK SMILES IDX 62 45 63 46 68 47 64 48 65 49 67 50 69 51 66 52 50 53 51 54
REMARK SMILES IDX 56 55 52 56 53 57 55 58 57 59 54 60 5 61 6 62 7 63 8 64 9 65
REMARK SMILES IDX 10 66 14 67 11 68 13 69 12 70 15 71 16 72 17 73 18 75 19 76
REMARK SMILES IDX 23 77 20 78 22 79 21 80 24 81 26 82 25 83
REMARK H PARENT 74 22 48 33 17 74
REMARK Flexibility Score: inf
ROOT
ATOM      1  C   UNL A   1      31.421  28.036  26.898  1.00  0.00     0.275 C 
ENDROOT
BRANCH   1   2
ATOM      2  O   UNL A   1      31.841  29.366  27.510  1.00  0.00    -0.458 OA
BRANCH   2   3
ATOM      3  C   UNL A   1      32.620  30.464  27.097  1.00  0.00     0.338 C 
ATOM      4  O   UNL A   1      32.190  31.227  26.237  1.00  0.00    -0.246 OA
BRANCH   3   5
ATOM      5  C   UNL A   1      34.058  30.673  27.544  1.00  0.00     0.060 A 
ATOM      6  C   UNL A   1      34.782  29.544  27.665  1.00  0.00     0.016 A 
ATOM      7  C   UNL A   1      34.859  31.800  27.672  1.00  0.00     0.016 A 
ATOM      8  C   UNL A   1      35.979  29.356  28.333  1.00  0.00     0.010 A 
ATOM      9  C   UNL A   1      36.226  31.678  28.126  1.00  0.00     0.010 A 
ATOM     10  C   UNL A   1      36.760  30.440  28.577  1.00  0.00    -0.014 A 
BRANCH  10  11
ATOM     11  C   UNL A   1      37.929  30.246  29.494  1.00  0.00     0.031 A 
ATOM     12  C   UNL A   1      39.065  29.474  28.904  1.00  0.00     0.074 A 
ATOM     13  C   UNL A   1      38.173  30.897  30.661  1.00  0.00     0.049 A 
ATOM     14  N   UNL A   1      40.063  28.868  29.475  1.00  0.00    -0.248 NA
ATOM     15  C   UNL A   1      39.063  29.390  27.433  1.00  0.00     0.031 C 
ATOM     16  C   UNL A   1      37.399  32.004  31.221  1.00  0.00     0.029 A 
ATOM     17  N   UNL A   1      39.179  30.740  31.594  1.00  0.00    -0.354 N 
ATOM     18  C   UNL A   1      40.733  28.230  28.441  1.00  0.00     0.074 A 
ATOM     19  C   UNL A   1      40.034  28.527  27.215  1.00  0.00     0.031 C 
ATOM     20  C   UNL A   1      37.905  32.381  32.406  1.00  0.00     0.029 A 
ATOM     21  C   UNL A   1      39.005  31.496  32.737  1.00  0.00     0.049 A 
ATOM     22  H   UNL A   1      39.950  30.144  31.456  1.00  0.00     0.167 HD
ATOM     23  C   UNL A   1      41.835  27.456  28.522  1.00  0.00     0.037 A 
ATOM     24  C   UNL A   1      39.618  31.438  33.937  1.00  0.00     0.037 A 
ATOM     25  C   UNL A   1      42.553  27.265  29.746  1.00  0.00     0.049 A 
ATOM     26  C   UNL A   1      40.744  30.453  34.083  1.00  0.00     0.074 A 
ATOM     27  C   UNL A   1      43.632  26.446  30.004  1.00  0.00     0.029 A 
ATOM     28  N   UNL A   1      42.264  27.944  30.926  1.00  0.00    -0.354 N 
ATOM     29  N   UNL A   1      41.260  29.666  33.168  1.00  0.00    -0.248 NA
ATOM     30  C   UNL A   1      41.370  30.334  35.405  1.00  0.00     0.031 C 
ATOM     31  C   UNL A   1      43.968  26.597  31.354  1.00  0.00     0.029 A 
ATOM     32  C   UNL A   1      43.133  27.550  31.922  1.00  0.00     0.049 A 
ATOM     33  H   UNL A   1      41.545  28.607  31.033  1.00  0.00     0.167 HD
ATOM     34  C   UNL A   1      42.293  28.982  33.790  1.00  0.00     0.074 A 
ATOM     35  C   UNL A   1      42.329  29.450  35.163  1.00  0.00     0.031 C 
ATOM     36  C   UNL A   1      43.139  28.057  33.273  1.00  0.00     0.037 A 
BRANCH  23  37
ATOM     37  C   UNL A   1      42.190  26.695  27.283  1.00  0.00     0.057 A 
ATOM     38  C   UNL A   1      41.756  25.384  27.041  1.00  0.00     0.134 A 
ATOM     39  C   UNL A   1      43.125  27.240  26.392  1.00  0.00     0.134 A 
ATOM     40  F   UNL A   1      40.907  24.782  27.888  1.00  0.00    -0.206 F 
ATOM     41  C   UNL A   1      42.282  24.624  25.993  1.00  0.00     0.040 A 
ATOM     42  C   UNL A   1      43.630  26.503  25.322  1.00  0.00     0.040 A 
ATOM     43  F   UNL A   1      43.598  28.481  26.578  1.00  0.00    -0.206 F 
ATOM     44  C   UNL A   1      43.223  25.185  25.131  1.00  0.00     0.006 A 
ENDBRANCH  23  37
BRANCH  24  45
ATOM     45  C   UNL A   1      39.126  32.241  35.099  1.00  0.00     0.057 A 
ATOM     46  C   UNL A   1      38.244  31.717  36.054  1.00  0.00     0.134 A 
ATOM     47  C   UNL A   1      39.504  33.584  35.260  1.00  0.00     0.134 A 
ATOM     48  F   UNL A   1      37.820  30.450  35.955  1.00  0.00    -0.206 F 
ATOM     49  C   UNL A   1      37.748  32.496  37.107  1.00  0.00     0.040 A 
ATOM     50  C   UNL A   1      39.033  34.367  36.319  1.00  0.00     0.040 A 
ATOM     51  F   UNL A   1      40.345  34.160  34.388  1.00  0.00    -0.206 F 
ATOM     52  C   UNL A   1      38.146  33.824  37.244  1.00  0.00     0.006 A 
ENDBRANCH  24  45
BRANCH  36  53
ATOM     53  C   UNL A   1      44.203  27.532  34.183  1.00  0.00     0.057 A 
ATOM     54  C   UNL A   1      45.411  28.208  34.374  1.00  0.00     0.134 A 
ATOM     55  C   UNL A   1      43.970  26.375  34.938  1.00  0.00     0.134 A 
ATOM     56  F   UNL A   1      45.691  29.313  33.666  1.00  0.00    -0.206 F 
ATOM     57  C   UNL A   1      46.360  27.748  35.285  1.00  0.00     0.040 A 
ATOM     58  C   UNL A   1      44.899  25.921  35.871  1.00  0.00     0.040 A 
ATOM     59  F   UNL A   1      42.824  25.690  34.800  1.00  0.00    -0.206 F 
ATOM     60  C   UNL A   1      46.098  26.608  36.046  1.00  0.00     0.006 A 
ENDBRANCH  36  53
ENDBRANCH  10  11
ENDBRANCH   3   5
ENDBRANCH   2   3
ENDBRANCH   1   2
BRANCH   1  61
ATOM     61  C   UNL A   1      32.608  26.718  26.382  1.00  0.00     0.275 C 
BRANCH  61  62
ATOM     62  O   UNL A   1      32.331  24.706  26.536  1.00  0.00    -0.457 OA
BRANCH  62  63
ATOM     63  C   UNL A   1      32.703  23.297  26.809  1.00  0.00     0.359 C 
ATOM     64  O   UNL A   1      32.102  22.725  27.721  1.00  0.00    -0.244 OA
BRANCH  63  65
ATOM     65  C   UNL A   1      33.848  22.464  26.108  1.00  0.00     0.179 A 
ATOM     66  N   UNL A   1      35.099  22.876  26.515  1.00  0.00    -0.245 NA
ATOM     67  C   UNL A   1      33.779  21.354  25.248  1.00  0.00     0.161 A 
ATOM     68  C   UNL A   1      36.181  22.174  26.069  1.00  0.00     0.132 A 
ATOM     69  N   UNL A   1      34.897  20.723  24.743  1.00  0.00    -0.247 NA
ATOM     70  C   UNL A   1      36.090  21.138  25.171  1.00  0.00     0.132 A 
BRANCH  67  71
ATOM     71  C   UNL A   1      32.572  20.681  24.710  1.00  0.00     0.276 C 
ATOM     72  O   UNL A   1      32.207  19.580  25.118  1.00  0.00    -0.267 OA
ATOM     73  N   UNL A   1      31.852  21.276  23.735  1.00  0.00    -0.320 N 
ATOM     74  H   UNL A   1      31.105  20.770  23.344  1.00  0.00     0.170 HD
BRANCH  73  75
ATOM     75  C   UNL A   1      32.090  22.541  23.253  1.00  0.00     0.045 A 
ATOM     76  C   UNL A   1      33.706  23.280  22.654  1.00  0.00     0.030 A 
ATOM     77  C   UNL A   1      30.702  23.654  23.562  1.00  0.00     0.076 A 
ATOM     78  C   UNL A   1      33.844  25.038  22.389  1.00  0.00     0.053 A 
ATOM     79  C   UNL A   1      30.960  25.372  23.254  1.00  0.00     0.167 A 
ATOM     80  C   UNL A   1      32.456  26.012  22.709  1.00  0.00     0.165 A 
ATOM     81  O   UNL A   1      30.149  26.434  23.495  1.00  0.00    -0.454 OA
ATOM     82  O   UNL A   1      32.358  27.357  22.639  1.00  0.00    -0.454 OA
ATOM     83  C   UNL A   1      30.992  27.582  23.109  1.00  0.00     0.468 C 
ENDBRANCH  73  75
ENDBRANCH  67  71
ENDBRANCH  63  65
ENDBRANCH  62  63
ENDBRANCH  61  62
ENDBRANCH   1  61
TORSDOF 13
ENDMDL
MODEL 3
REMARK VINA RESULT:     -13.7      3.688      5.722
REMARK SMILES O=C(OCCOC(=O)c1nccnc1C(=O)Nc1ccc2c(c1)OCO2)c1ccc(-c2c3nc(c(-c4c(F)cccc4F)c4ccc([nH]4)c(-c4c(F)cccc4F)c4nc(c(-c5c(F)cccc5F)c5ccc2[nH]5)C=C4)C=C3)cc1
REMARK SMILES IDX 4 1 3 2 2 3 1 4 27 5 28 6 80 7 29 8 79 9 30 10 31 11 32 12
REMARK SMILES IDX 73 13 33 14 78 15 72 16 74 17 34 18 77 19 71 20 70 21 35 23
REMARK SMILES IDX 61 24 44 25 60 26 45 27 48 28 59 29 75 30 46 31 47 32 58 34
REMARK SMILES IDX 76 35 49 36 36 37 37 38 42 39 38 40 39 41 41 42 43 43 40 44
REMARK SMILES IDX 62 45 63 46 68 47 64 48 65 49 67 50 69 51 66 52 50 53 51 54
REMARK SMILES IDX 56 55 52 56 53 57 55 58 57 59 54 60 5 61 6 62 7 63 8 64 9 65
REMARK SMILES IDX 10 66 14 67 11 68 13 69 12 70 15 71 16 72 17 73 18 75 19 76
REMARK SMILES IDX 23 77 20 78 22 79 21 80 24 81 26 82 25 83
REMARK H PARENT 74 22 48 33 17 74
REMARK Flexibility Score: inf
ROOT
ATOM      1  C   UNL A   1      34.109  31.594  27.838  1.00  0.00     0.275 C 
ENDROOT
BRANCH   1   2
ATOM      2  O   UNL A   1      34.297  32.386  29.126  1.00  0.00    -0.458 OA
BRANCH   2   3
ATOM      3  C   UNL A   1      34.927  32.160  30.364  1.00  0.00     0.338 C 
ATOM      4  O   UNL A   1      34.407  32.574  31.396  1.00  0.00    -0.246 OA
BRANCH   3   5
ATOM      5  C   UNL A   1      36.320  31.563  30.488  1.00  0.00     0.060 A 
ATOM      6  C   UNL A   1      37.225  32.059  29.624  1.00  0.00     0.016 A 
ATOM      7  C   UNL A   1      36.923  30.748  31.436  1.00  0.00     0.016 A 
ATOM      8  C   UNL A   1      38.452  31.531  29.266  1.00  0.00     0.010 A 
ATOM      9  C   UNL A   1      38.302  30.342  31.281  1.00  0.00     0.010 A 
ATOM     10  C   UNL A   1      39.046  30.647  30.109  1.00  0.00    -0.014 A 
BRANCH  10  11
ATOM     11  C   UNL A   1      40.254  29.921  29.597  1.00  0.00     0.031 A 
ATOM     12  C   UNL A   1      41.523  30.709  29.648  1.00  0.00     0.074 A 
ATOM     13  C   UNL A   1      40.368  28.590  29.354  1.00  0.00     0.049 A 
ATOM     14  N   UNL A   1      42.653  30.531  29.029  1.00  0.00    -0.248 NA
ATOM     15  C   UNL A   1      41.499  31.871  30.552  1.00  0.00     0.031 C 
ATOM     16  C   UNL A   1      39.368  27.561  29.638  1.00  0.00     0.029 A 
ATOM     17  N   UNL A   1      41.408  27.851  28.826  1.00  0.00    -0.354 N 
ATOM     18  C   UNL A   1      43.426  31.630  29.377  1.00  0.00     0.074 A 
ATOM     19  C   UNL A   1      42.642  32.459  30.259  1.00  0.00     0.031 C 
ATOM     20  C   UNL A   1      39.803  26.357  29.234  1.00  0.00     0.029 A 
ATOM     21  C   UNL A   1      41.091  26.527  28.591  1.00  0.00     0.049 A 
ATOM     22  H   UNL A   1      42.295  28.233  28.635  1.00  0.00     0.167 HD
ATOM     23  C   UNL A   1      44.683  31.917  28.978  1.00  0.00     0.037 A 
ATOM     24  C   UNL A   1      41.735  25.576  27.883  1.00  0.00     0.037 A 
ATOM     25  C   UNL A   1      45.460  31.019  28.177  1.00  0.00     0.049 A 
ATOM     26  C   UNL A   1      43.067  25.946  27.293  1.00  0.00     0.074 A 
ATOM     27  C   UNL A   1      46.710  31.205  27.626  1.00  0.00     0.029 A 
ATOM     28  N   UNL A   1      45.051  29.733  27.840  1.00  0.00    -0.354 N 
ATOM     29  N   UNL A   1      43.729  27.072  27.423  1.00  0.00    -0.248 NA
ATOM     30  C   UNL A   1      43.740  24.942  26.462  1.00  0.00     0.031 C 
ATOM     31  C   UNL A   1      47.039  30.044  26.916  1.00  0.00     0.029 A 
ATOM     32  C   UNL A   1      46.017  29.117  27.071  1.00  0.00     0.049 A 
ATOM     33  H   UNL A   1      44.198  29.323  28.110  1.00  0.00     0.167 HD
ATOM     34  C   UNL A   1      44.913  26.902  26.722  1.00  0.00     0.074 A 
ATOM     35  C   UNL A   1      44.875  25.562  26.167  1.00  0.00     0.031 C 
ATOM     36  C   UNL A   1      45.940  27.772  26.555  1.00  0.00     0.037 A 
BRANCH  23  37
ATOM     37  C   UNL A   1      45.174  33.292  29.308  1.00  0.00     0.057 A 
ATOM     38  C   UNL A   1      45.843  33.597  30.502  1.00  0.00     0.134 A 
ATOM     39  C   UNL A   1      44.819  34.361  28.475  1.00  0.00     0.134 A 
ATOM     40  F   UNL A   1      46.160  32.626  31.372  1.00  0.00    -0.206 F 
ATOM     41  C   UNL A   1      46.089  34.919  30.881  1.00  0.00     0.040 A 
ATOM     42  C   UNL A   1      45.091  35.682  28.826  1.00  0.00     0.040 A 
ATOM     43  F   UNL A   1      44.158  34.140  27.329  1.00  0.00    -0.206 F 
ATOM     44  C   UNL A   1      45.710  35.966  30.041  1.00  0.00     0.006 A 
ENDBRANCH  23  37
BRANCH  24  45
ATOM     45  C   UNL A   1      41.099  24.251  27.606  1.00  0.00     0.057 A 
ATOM     46  C   UNL A   1      41.521  23.070  28.230  1.00  0.00     0.134 A 
ATOM     47  C   UNL A   1      40.063  24.130  26.666  1.00  0.00     0.134 A 
ATOM     48  F   UNL A   1      42.520  23.101  29.123  1.00  0.00    -0.206 F 
ATOM     49  C   UNL A   1      40.953  21.828  27.922  1.00  0.00     0.040 A 
ATOM     50  C   UNL A   1      39.472  22.899  26.364  1.00  0.00     0.040 A 
ATOM     51  F   UNL A   1      39.601  25.214  26.024  1.00  0.00    -0.206 F 
ATOM     52  C   UNL A   1      39.922  21.740  26.989  1.00  0.00     0.006 A 
ENDBRANCH  24  45
BRANCH  36  53
ATOM     53  C   UNL A   1      47.124  27.279  25.786  1.00  0.00     0.057 A 
ATOM     54  C   UNL A   1      47.266  27.518  24.416  1.00  0.00     0.134 A 
ATOM     55  C   UNL A   1      48.172  26.631  26.452  1.00  0.00     0.134 A 
ATOM     56  F   UNL A   1      46.286  28.122  23.726  1.00  0.00    -0.206 F 
ATOM     57  C   UNL A   1      48.411  27.122  23.729  1.00  0.00     0.040 A 
ATOM     58  C   UNL A   1      49.333  26.256  25.782  1.00  0.00     0.040 A 
ATOM     59  F   UNL A   1      48.092  26.383  27.769  1.00  0.00    -0.206 F 
ATOM     60  C   UNL A   1      49.455  26.501  24.415  1.00  0.00     0.006 A 
ENDBRANCH  36  53
ENDBRANCH  10  11
ENDBRANCH   3   5
ENDBRANCH   2   3
ENDBRANCH   1   2
BRANCH   1  61
ATOM     61  C   UNL A   1      34.927  29.975  27.494  1.00  0.00     0.275 C 
BRANCH  61  62
ATOM     62  O   UNL A   1      34.214  28.479  26.310  1.00  0.00    -0.457 OA
BRANCH  62  63
ATOM     63  C   UNL A   1      33.726  27.845  25.063  1.00  0.00     0.359 C 
ATOM     64  O   UNL A   1      33.811  28.507  24.026  1.00  0.00    -0.244 OA
BRANCH  63  65
ATOM     65  C   UNL A   1      33.030  26.433  24.925  1.00  0.00     0.179 A 
ATOM     66  N   UNL A   1      32.687  25.913  26.154  1.00  0.00    -0.245 NA
ATOM     67  C   UNL A   1      32.639  25.711  23.783  1.00  0.00     0.161 A 
ATOM     68  C   UNL A   1      31.983  24.744  26.181  1.00  0.00     0.132 A 
ATOM     69  N   UNL A   1      32.008  24.486  23.847  1.00  0.00    -0.247 NA
ATOM     70  C   UNL A   1      31.678  24.021  25.052  1.00  0.00     0.132 A 
BRANCH  67  71
ATOM     71  C   UNL A   1      32.832  26.071  22.357  1.00  0.00     0.276 C 
ATOM     72  O   UNL A   1      33.721  25.565  21.675  1.00  0.00    -0.267 OA
ATOM     73  N   UNL A   1      32.026  26.990  21.784  1.00  0.00    -0.320 N 
ATOM     74  H   UNL A   1      32.230  27.266  20.862  1.00  0.00     0.170 HD
BRANCH  73  75
ATOM     75  C   UNL A   1      30.940  27.566  22.399  1.00  0.00     0.045 A 
ATOM     76  C   UNL A   1      29.442  26.727  23.152  1.00  0.00     0.030 A 
ATOM     77  C   UNL A   1      30.875  29.349  22.124  1.00  0.00     0.076 A 
ATOM     78  C   UNL A   1      28.004  27.686  23.593  1.00  0.00     0.053 A 
ATOM     79  C   UNL A   1      29.401  30.189  22.610  1.00  0.00     0.167 A 
ATOM     80  C   UNL A   1      28.048  29.385  23.294  1.00  0.00     0.165 A 
ATOM     81  O   UNL A   1      29.033  31.482  22.430  1.00  0.00    -0.454 OA
ATOM     82  O   UNL A   1      27.057  30.282  23.488  1.00  0.00    -0.454 OA
ATOM     83  C   UNL A   1      27.660  31.509  22.969  1.00  0.00     0.468 C 
ENDBRANCH  73  75
ENDBRANCH  67  71
ENDBRANCH  63  65
ENDBRANCH  62  63
ENDBRANCH  61  62
ENDBRANCH   1  61
TORSDOF 13
ENDMDL
