MODEL 1
REMARK VINA RESULT:     -10.7      0.000      0.000
REMARK SMILES CCOc1ccc(-c2nc(C(=O)OCCOC(=O)c3ccc(-c4c5nc(c(-c6c(F)cccc6F)c6ccc([nH]6)c(-c6c(F)cccc6F)c6nc(c(-c7c(F)cccc7F)c7ccc4[nH]7)C=C6)C=C5)cc3)cc(=O)[nH]2)cc1
REMARK SMILES IDX 14 1 13 2 11 3 12 4 10 5 8 6 9 7 76 8 74 9 73 11 75 12 7 13
REMARK SMILES IDX 4 14 5 15 78 16 6 17 77 18 3 19 2 20 1 21 15 22 16 23 17 24
REMARK SMILES IDX 18 25 19 26 20 27 72 28 21 29 71 30 22 31 23 32 24 33 65 34
REMARK SMILES IDX 25 35 70 36 64 37 66 38 26 39 69 40 63 41 62 42 27 44 53 45
REMARK SMILES IDX 36 46 52 47 37 48 40 49 51 50 67 51 38 52 39 53 50 55 68 56
REMARK SMILES IDX 41 57 28 58 29 59 34 60 30 61 31 62 33 63 35 64 32 65 54 66
REMARK SMILES IDX 55 67 60 68 56 69 57 70 59 71 61 72 58 73 42 74 43 75 48 76
REMARK SMILES IDX 44 77 45 78 47 79 49 80 46 81
REMARK H PARENT 76 10 66 43 40 54
REMARK Flexibility Score: inf
ROOT
ATOM      1  C   UNL A   1      33.365  33.922  28.003  1.00  0.00     0.275 C 
ENDROOT
BRANCH   1   2
ATOM      2  O   UNL A   1      32.823  34.151  29.319  1.00  0.00    -0.457 OA
BRANCH   2   3
ATOM      3  C   UNL A   1      32.884  35.436  29.763  1.00  0.00     0.357 C 
ATOM      4  O   UNL A   1      32.445  36.412  29.169  1.00  0.00    -0.244 OA
BRANCH   3   5
ATOM      5  C   UNL A   1      33.452  35.504  31.151  1.00  0.00     0.156 A 
ATOM      6  C   UNL A   1      34.703  34.464  32.757  1.00  0.00     0.141 A 
ATOM      7  N   UNL A   1      34.180  34.415  31.578  1.00  0.00    -0.223 NA
ATOM      8  N   UNL A   1      34.527  35.516  33.609  1.00  0.00    -0.306 N 
ATOM      9  C   UNL A   1      33.799  36.613  33.251  1.00  0.00     0.251 A 
ATOM     10  H   UNL A   1      34.935  35.482  34.504  1.00  0.00     0.171 HD
ATOM     11  C   UNL A   1      33.230  36.593  31.896  1.00  0.00     0.107 A 
ATOM     12  O   UNL A   1      33.627  37.568  34.000  1.00  0.00    -0.269 OA
BRANCH   6  13
ATOM     13  C   UNL A   1      35.575  33.372  33.217  1.00  0.00     0.018 A 
ATOM     14  C   UNL A   1      37.448  31.479  34.019  1.00  0.00     0.119 A 
ATOM     15  C   UNL A   1      36.733  31.297  32.832  1.00  0.00     0.047 A 
ATOM     16  C   UNL A   1      37.234  32.611  34.802  1.00  0.00     0.047 A 
ATOM     17  C   UNL A   1      35.783  32.241  32.428  1.00  0.00     0.016 A 
ATOM     18  C   UNL A   1      36.290  33.559  34.404  1.00  0.00     0.016 A 
BRANCH  14  19
ATOM     19  O   UNL A   1      38.444  30.584  34.294  1.00  0.00    -0.494 OA
BRANCH  19  20
ATOM     20  C   UNL A   1      38.654  29.601  33.275  1.00  0.00     0.226 C 
ATOM     21  C   UNL A   1      40.092  29.107  33.262  1.00  0.00     0.049 C 
ENDBRANCH  19  20
ENDBRANCH  14  19
ENDBRANCH   6  13
ENDBRANCH   3   5
ENDBRANCH   2   3
ENDBRANCH   1   2
BRANCH   1  22
ATOM     22  C   UNL A   1      34.712  33.202  28.084  1.00  0.00     0.275 C 
BRANCH  22  23
ATOM     23  O   UNL A   1      34.603  32.008  28.883  1.00  0.00    -0.458 OA
BRANCH  23  24
ATOM     24  C   UNL A   1      34.591  30.843  28.197  1.00  0.00     0.338 C 
ATOM     25  O   UNL A   1      33.676  30.366  27.547  1.00  0.00    -0.246 OA
BRANCH  24  26
ATOM     26  C   UNL A   1      35.908  30.199  28.302  1.00  0.00     0.060 A 
ATOM     27  C   UNL A   1      36.284  29.660  29.528  1.00  0.00     0.016 A 
ATOM     28  C   UNL A   1      36.818  30.253  27.247  1.00  0.00     0.016 A 
ATOM     29  C   UNL A   1      37.593  29.237  29.734  1.00  0.00     0.010 A 
ATOM     30  C   UNL A   1      38.119  29.768  27.437  1.00  0.00     0.010 A 
ATOM     31  C   UNL A   1      38.531  29.291  28.695  1.00  0.00    -0.014 A 
BRANCH  31  32
ATOM     32  C   UNL A   1      39.941  28.895  28.956  1.00  0.00     0.031 A 
ATOM     33  C   UNL A   1      40.867  29.822  29.694  1.00  0.00     0.074 A 
ATOM     34  C   UNL A   1      40.384  27.680  28.576  1.00  0.00     0.049 A 
ATOM     35  N   UNL A   1      42.150  29.697  29.930  1.00  0.00    -0.248 NA
ATOM     36  C   UNL A   1      40.277  31.055  30.240  1.00  0.00     0.031 C 
ATOM     37  C   UNL A   1      39.581  26.659  27.902  1.00  0.00     0.029 A 
ATOM     38  N   UNL A   1      41.616  27.094  28.720  1.00  0.00    -0.354 N 
ATOM     39  C   UNL A   1      42.530  30.854  30.597  1.00  0.00     0.074 A 
ATOM     40  C   UNL A   1      41.341  31.668  30.740  1.00  0.00     0.031 C 
ATOM     41  C   UNL A   1      40.328  25.557  27.730  1.00  0.00     0.029 A 
ATOM     42  C   UNL A   1      41.679  25.817  28.217  1.00  0.00     0.049 A 
ATOM     43  H   UNL A   1      42.382  27.544  29.145  1.00  0.00     0.167 HD
ATOM     44  C   UNL A   1      43.758  31.207  31.046  1.00  0.00     0.037 A 
ATOM     45  C   UNL A   1      42.712  24.960  28.130  1.00  0.00     0.037 A 
ATOM     46  C   UNL A   1      44.931  30.381  30.950  1.00  0.00     0.049 A 
ATOM     47  C   UNL A   1      44.066  25.380  28.623  1.00  0.00     0.074 A 
ATOM     48  C   UNL A   1      46.219  30.657  31.382  1.00  0.00     0.029 A 
ATOM     49  N   UNL A   1      44.960  29.111  30.397  1.00  0.00    -0.354 N 
ATOM     50  N   UNL A   1      44.424  26.501  29.198  1.00  0.00    -0.248 NA
ATOM     51  C   UNL A   1      45.167  24.425  28.431  1.00  0.00     0.031 C 
ATOM     52  C   UNL A   1      47.031  29.561  31.069  1.00  0.00     0.029 A 
ATOM     53  C   UNL A   1      46.243  28.594  30.468  1.00  0.00     0.049 A 
ATOM     54  H   UNL A   1      44.183  28.646  30.010  1.00  0.00     0.167 HD
ATOM     55  C   UNL A   1      45.785  26.387  29.438  1.00  0.00     0.074 A 
ATOM     56  C   UNL A   1      46.188  25.079  28.967  1.00  0.00     0.031 C 
ATOM     57  C   UNL A   1      46.629  27.292  29.991  1.00  0.00     0.037 A 
BRANCH  44  58
ATOM     58  C   UNL A   1      43.902  32.568  31.656  1.00  0.00     0.057 A 
ATOM     59  C   UNL A   1      43.750  32.785  33.030  1.00  0.00     0.134 A 
ATOM     60  C   UNL A   1      44.233  33.670  30.857  1.00  0.00     0.134 A 
ATOM     61  F   UNL A   1      43.417  31.773  33.846  1.00  0.00    -0.206 F 
ATOM     62  C   UNL A   1      43.910  34.057  33.587  1.00  0.00     0.040 A 
ATOM     63  C   UNL A   1      44.413  34.941  31.403  1.00  0.00     0.040 A 
ATOM     64  F   UNL A   1      44.396  33.526  29.532  1.00  0.00    -0.206 F 
ATOM     65  C   UNL A   1      44.248  35.137  32.772  1.00  0.00     0.006 A 
ENDBRANCH  44  58
BRANCH  45  66
ATOM     66  C   UNL A   1      42.510  23.624  27.519  1.00  0.00     0.057 A 
ATOM     67  C   UNL A   1      42.235  22.503  28.309  1.00  0.00     0.134 A 
ATOM     68  C   UNL A   1      42.581  23.439  26.134  1.00  0.00     0.134 A 
ATOM     69  F   UNL A   1      42.181  22.614  29.644  1.00  0.00    -0.206 F 
ATOM     70  C   UNL A   1      42.038  21.243  27.743  1.00  0.00     0.040 A 
ATOM     71  C   UNL A   1      42.365  22.189  25.552  1.00  0.00     0.040 A 
ATOM     72  F   UNL A   1      42.845  24.475  25.325  1.00  0.00    -0.206 F 
ATOM     73  C   UNL A   1      42.096  21.085  26.359  1.00  0.00     0.006 A 
ENDBRANCH  45  66
BRANCH  57  74
ATOM     74  C   UNL A   1      48.065  26.891  30.121  1.00  0.00     0.057 A 
ATOM     75  C   UNL A   1      48.531  26.194  31.243  1.00  0.00     0.134 A 
ATOM     76  C   UNL A   1      48.984  27.180  29.106  1.00  0.00     0.134 A 
ATOM     77  F   UNL A   1      47.699  25.901  32.254  1.00  0.00    -0.206 F 
ATOM     78  C   UNL A   1      49.869  25.813  31.358  1.00  0.00     0.040 A 
ATOM     79  C   UNL A   1      50.321  26.789  29.203  1.00  0.00     0.040 A 
ATOM     80  F   UNL A   1      48.597  27.841  28.005  1.00  0.00    -0.206 F 
ATOM     81  C   UNL A   1      50.766  26.106  30.333  1.00  0.00     0.006 A 
ENDBRANCH  57  74
ENDBRANCH  31  32
ENDBRANCH  24  26
ENDBRANCH  23  24
ENDBRANCH  22  23
ENDBRANCH   1  22
TORSDOF 14
ENDMDL
MODEL 2
REMARK VINA RESULT:     -10.4      5.673     10.964
REMARK SMILES CCOc1ccc(-c2nc(C(=O)OCCOC(=O)c3ccc(-c4c5nc(c(-c6c(F)cccc6F)c6ccc([nH]6)c(-c6c(F)cccc6F)c6nc(c(-c7c(F)cccc7F)c7ccc4[nH]7)C=C6)C=C5)cc3)cc(=O)[nH]2)cc1
REMARK SMILES IDX 14 1 13 2 11 3 12 4 10 5 8 6 9 7 76 8 74 9 73 11 75 12 7 13
REMARK SMILES IDX 4 14 5 15 78 16 6 17 77 18 3 19 2 20 1 21 15 22 16 23 17 24
REMARK SMILES IDX 18 25 19 26 20 27 72 28 21 29 71 30 22 31 23 32 24 33 65 34
REMARK SMILES IDX 25 35 70 36 64 37 66 38 26 39 69 40 63 41 62 42 27 44 53 45
REMARK SMILES IDX 36 46 52 47 37 48 40 49 51 50 67 51 38 52 39 53 50 55 68 56
REMARK SMILES IDX 41 57 28 58 29 59 34 60 30 61 31 62 33 63 35 64 32 65 54 66
REMARK SMILES IDX 55 67 60 68 56 69 57 70 59 71 61 72 58 73 42 74 43 75 48 76
REMARK SMILES IDX 44 77 45 78 47 79 49 80 46 81
REMARK H PARENT 76 10 66 43 40 54
REMARK Flexibility Score: inf
ROOT
ATOM      1  C   UNL A   1      42.346  19.355  26.799  1.00  0.00     0.275 C 
ENDROOT
BRANCH   1   2
ATOM      2  O   UNL A   1      41.683  20.435  26.113  1.00  0.00    -0.457 OA
BRANCH   2   3
ATOM      3  C   UNL A   1      40.336  20.304  25.976  1.00  0.00     0.357 C 
ATOM      4  O   UNL A   1      39.744  19.256  25.755  1.00  0.00    -0.244 OA
BRANCH   3   5
ATOM      5  C   UNL A   1      39.634  21.602  26.258  1.00  0.00     0.156 A 
ATOM      6  C   UNL A   1      37.862  22.961  25.769  1.00  0.00     0.141 A 
ATOM      7  N   UNL A   1      38.499  21.866  25.523  1.00  0.00    -0.223 NA
ATOM      8  N   UNL A   1      38.287  23.883  26.683  1.00  0.00    -0.306 N 
ATOM      9  C   UNL A   1      39.414  23.686  27.427  1.00  0.00     0.251 A 
ATOM     10  H   UNL A   1      37.767  24.709  26.808  1.00  0.00     0.171 HD
ATOM     11  C   UNL A   1      40.130  22.425  27.189  1.00  0.00     0.107 A 
ATOM     12  O   UNL A   1      39.814  24.500  28.252  1.00  0.00    -0.269 OA
BRANCH   6  13
ATOM     13  C   UNL A   1      36.591  23.239  25.084  1.00  0.00     0.018 A 
ATOM     14  C   UNL A   1      34.341  23.909  23.592  1.00  0.00     0.119 A 
ATOM     15  C   UNL A   1      34.583  24.540  24.816  1.00  0.00     0.047 A 
ATOM     16  C   UNL A   1      35.227  22.949  23.110  1.00  0.00     0.047 A 
ATOM     17  C   UNL A   1      35.708  24.201  25.575  1.00  0.00     0.016 A 
ATOM     18  C   UNL A   1      36.353  22.607  23.859  1.00  0.00     0.016 A 
BRANCH  14  19
ATOM     19  O   UNL A   1      33.293  24.371  22.846  1.00  0.00    -0.494 OA
BRANCH  19  20
ATOM     20  C   UNL A   1      32.133  24.722  23.607  1.00  0.00     0.226 C 
ATOM     21  C   UNL A   1      31.074  23.632  23.546  1.00  0.00     0.049 C 
ENDBRANCH  19  20
ENDBRANCH  14  19
ENDBRANCH   6  13
ENDBRANCH   3   5
ENDBRANCH   2   3
ENDBRANCH   1   2
BRANCH   1  22
ATOM     22  C   UNL A   1      43.137  18.488  25.819  1.00  0.00     0.275 C 
BRANCH  22  23
ATOM     23  O   UNL A   1      43.369  19.197  24.587  1.00  0.00    -0.458 OA
BRANCH  23  24
ATOM     24  C   UNL A   1      44.666  19.386  24.255  1.00  0.00     0.338 C 
ATOM     25  O   UNL A   1      45.439  18.580  23.767  1.00  0.00    -0.246 OA
BRANCH  24  26
ATOM     26  C   UNL A   1      45.044  20.779  24.531  1.00  0.00     0.060 A 
ATOM     27  C   UNL A   1      45.643  21.070  25.753  1.00  0.00     0.016 A 
ATOM     28  C   UNL A   1      44.685  21.806  23.660  1.00  0.00     0.016 A 
ATOM     29  C   UNL A   1      45.820  22.392  26.148  1.00  0.00     0.010 A 
ATOM     30  C   UNL A   1      44.922  23.136  24.031  1.00  0.00     0.010 A 
ATOM     31  C   UNL A   1      45.457  23.444  25.297  1.00  0.00    -0.014 A 
BRANCH  31  32
ATOM     32  C   UNL A   1      45.595  24.849  25.763  1.00  0.00     0.031 A 
ATOM     33  C   UNL A   1      46.907  25.573  25.619  1.00  0.00     0.074 A 
ATOM     34  C   UNL A   1      44.532  25.502  26.273  1.00  0.00     0.049 A 
ATOM     35  N   UNL A   1      47.250  26.760  26.052  1.00  0.00    -0.248 NA
ATOM     36  C   UNL A   1      47.977  24.870  24.893  1.00  0.00     0.031 C 
ATOM     37  C   UNL A   1      43.188  24.944  26.421  1.00  0.00     0.029 A 
ATOM     38  N   UNL A   1      44.414  26.785  26.745  1.00  0.00    -0.354 N 
ATOM     39  C   UNL A   1      48.584  26.923  25.703  1.00  0.00     0.074 A 
ATOM     40  C   UNL A   1      48.989  25.716  25.012  1.00  0.00     0.031 C 
ATOM     41  C   UNL A   1      42.371  25.891  26.907  1.00  0.00     0.029 A 
ATOM     42  C   UNL A   1      43.146  27.099  27.170  1.00  0.00     0.049 A 
ATOM     43  H   UNL A   1      45.165  27.421  26.776  1.00  0.00     0.167 HD
ATOM     44  C   UNL A   1      49.398  27.979  25.941  1.00  0.00     0.037 A 
ATOM     45  C   UNL A   1      42.664  28.222  27.733  1.00  0.00     0.037 A 
ATOM     46  C   UNL A   1      48.987  29.199  26.583  1.00  0.00     0.049 A 
ATOM     47  C   UNL A   1      43.589  29.373  27.998  1.00  0.00     0.074 A 
ATOM     48  C   UNL A   1      49.745  30.325  26.863  1.00  0.00     0.029 A 
ATOM     49  N   UNL A   1      47.703  29.460  27.034  1.00  0.00    -0.354 N 
ATOM     50  N   UNL A   1      44.863  29.490  27.716  1.00  0.00    -0.248 NA
ATOM     51  C   UNL A   1      43.014  30.541  28.683  1.00  0.00     0.031 C 
ATOM     52  C   UNL A   1      48.923  31.259  27.504  1.00  0.00     0.029 A 
ATOM     53  C   UNL A   1      47.649  30.724  27.597  1.00  0.00     0.049 A 
ATOM     54  H   UNL A   1      46.943  28.839  26.965  1.00  0.00     0.167 HD
ATOM     55  C   UNL A   1      45.242  30.739  28.186  1.00  0.00     0.074 A 
ATOM     56  C   UNL A   1      44.059  31.353  28.752  1.00  0.00     0.031 C 
ATOM     57  C   UNL A   1      46.466  31.320  28.159  1.00  0.00     0.037 A 
BRANCH  44  58
ATOM     58  C   UNL A   1      50.833  27.848  25.531  1.00  0.00     0.057 A 
ATOM     59  C   UNL A   1      51.250  28.061  24.212  1.00  0.00     0.134 A 
ATOM     60  C   UNL A   1      51.815  27.537  26.481  1.00  0.00     0.134 A 
ATOM     61  F   UNL A   1      50.356  28.344  23.253  1.00  0.00    -0.206 F 
ATOM     62  C   UNL A   1      52.595  27.956  23.850  1.00  0.00     0.040 A 
ATOM     63  C   UNL A   1      53.163  27.448  26.135  1.00  0.00     0.040 A 
ATOM     64  F   UNL A   1      51.478  27.325  27.763  1.00  0.00    -0.206 F 
ATOM     65  C   UNL A   1      53.556  27.654  24.814  1.00  0.00     0.006 A 
ENDBRANCH  44  58
BRANCH  45  66
ATOM     66  C   UNL A   1      41.233  28.297  28.116  1.00  0.00     0.057 A 
ATOM     67  C   UNL A   1      40.790  27.817  29.353  1.00  0.00     0.134 A 
ATOM     68  C   UNL A   1      40.279  28.855  27.258  1.00  0.00     0.134 A 
ATOM     69  F   UNL A   1      41.654  27.247  30.205  1.00  0.00    -0.206 F 
ATOM     70  C   UNL A   1      39.447  27.888  29.724  1.00  0.00     0.040 A 
ATOM     71  C   UNL A   1      38.936  28.953  27.625  1.00  0.00     0.040 A 
ATOM     72  F   UNL A   1      40.642  29.330  26.058  1.00  0.00    -0.206 F 
ATOM     73  C   UNL A   1      38.516  28.465  28.861  1.00  0.00     0.006 A 
ENDBRANCH  45  66
BRANCH  57  74
ATOM     74  C   UNL A   1      46.580  32.690  28.752  1.00  0.00     0.057 A 
ATOM     75  C   UNL A   1      46.342  33.839  27.988  1.00  0.00     0.134 A 
ATOM     76  C   UNL A   1      46.905  32.862  30.102  1.00  0.00     0.134 A 
ATOM     77  F   UNL A   1      46.040  33.739  26.685  1.00  0.00    -0.206 F 
ATOM     78  C   UNL A   1      46.440  35.116  28.545  1.00  0.00     0.040 A 
ATOM     79  C   UNL A   1      46.989  34.132  30.674  1.00  0.00     0.040 A 
ATOM     80  F   UNL A   1      47.140  31.799  30.887  1.00  0.00    -0.206 F 
ATOM     81  C   UNL A   1      46.760  35.264  29.893  1.00  0.00     0.006 A 
ENDBRANCH  57  74
ENDBRANCH  31  32
ENDBRANCH  24  26
ENDBRANCH  23  24
ENDBRANCH  22  23
ENDBRANCH   1  22
TORSDOF 14
ENDMDL
MODEL 3
REMARK VINA RESULT:     -10.4      5.172     11.213
REMARK SMILES CCOc1ccc(-c2nc(C(=O)OCCOC(=O)c3ccc(-c4c5nc(c(-c6c(F)cccc6F)c6ccc([nH]6)c(-c6c(F)cccc6F)c6nc(c(-c7c(F)cccc7F)c7ccc4[nH]7)C=C6)C=C5)cc3)cc(=O)[nH]2)cc1
REMARK SMILES IDX 14 1 13 2 11 3 12 4 10 5 8 6 9 7 76 8 74 9 73 11 75 12 7 13
REMARK SMILES IDX 4 14 5 15 78 16 6 17 77 18 3 19 2 20 1 21 15 22 16 23 17 24
REMARK SMILES IDX 18 25 19 26 20 27 72 28 21 29 71 30 22 31 23 32 24 33 65 34
REMARK SMILES IDX 25 35 70 36 64 37 66 38 26 39 69 40 63 41 62 42 27 44 53 45
REMARK SMILES IDX 36 46 52 47 37 48 40 49 51 50 67 51 38 52 39 53 50 55 68 56
REMARK SMILES IDX 41 57 28 58 29 59 34 60 30 61 31 62 33 63 35 64 32 65 54 66
REMARK SMILES IDX 55 67 60 68 56 69 57 70 59 71 61 72 58 73 42 74 43 75 48 76
REMARK SMILES IDX 44 77 45 78 47 79 49 80 46 81
REMARK H PARENT 76 10 66 43 40 54
REMARK Flexibility Score: inf
ROOT
ATOM      1  C   UNL A   1      43.117  21.092  25.951  1.00  0.00     0.275 C 
ENDROOT
BRANCH   1   2
ATOM      2  O   UNL A   1      41.734  21.241  25.573  1.00  0.00    -0.457 OA
BRANCH   2   3
ATOM      3  C   UNL A   1      40.827  20.956  26.546  1.00  0.00     0.357 C 
ATOM      4  O   UNL A   1      40.985  20.144  27.449  1.00  0.00    -0.244 OA
BRANCH   3   5
ATOM      5  C   UNL A   1      39.632  21.862  26.455  1.00  0.00     0.156 A 
ATOM      6  C   UNL A   1      37.428  22.066  25.885  1.00  0.00     0.141 A 
ATOM      7  N   UNL A   1      38.475  21.314  25.944  1.00  0.00    -0.223 NA
ATOM      8  N   UNL A   1      37.429  23.380  26.257  1.00  0.00    -0.306 N 
ATOM      9  C   UNL A   1      38.549  23.983  26.751  1.00  0.00     0.251 A 
ATOM     10  H   UNL A   1      36.601  23.905  26.166  1.00  0.00     0.171 HD
ATOM     11  C   UNL A   1      39.741  23.131  26.864  1.00  0.00     0.107 A 
ATOM     12  O   UNL A   1      38.573  25.160  27.090  1.00  0.00    -0.269 OA
BRANCH   6  13
ATOM     13  C   UNL A   1      36.144  21.498  25.445  1.00  0.00     0.018 A 
ATOM     14  C   UNL A   1      33.655  20.386  24.894  1.00  0.00     0.119 A 
ATOM     15  C   UNL A   1      34.820  19.653  24.647  1.00  0.00     0.047 A 
ATOM     16  C   UNL A   1      33.733  21.672  25.423  1.00  0.00     0.047 A 
ATOM     17  C   UNL A   1      36.075  20.211  24.915  1.00  0.00     0.016 A 
ATOM     18  C   UNL A   1      34.981  22.233  25.695  1.00  0.00     0.016 A 
BRANCH  14  19
ATOM     19  O   UNL A   1      32.462  19.741  24.726  1.00  0.00    -0.494 OA
BRANCH  19  20
ATOM     20  C   UNL A   1      32.574  18.419  24.189  1.00  0.00     0.226 C 
ATOM     21  C   UNL A   1      32.200  18.380  22.716  1.00  0.00     0.049 C 
ENDBRANCH  19  20
ENDBRANCH  14  19
ENDBRANCH   6  13
ENDBRANCH   3   5
ENDBRANCH   2   3
ENDBRANCH   1   2
BRANCH   1  22
ATOM     22  C   UNL A   1      44.015  21.999  25.108  1.00  0.00     0.275 C 
BRANCH  22  23
ATOM     23  O   UNL A   1      43.356  23.250  24.832  1.00  0.00    -0.458 OA
BRANCH  23  24
ATOM     24  C   UNL A   1      44.068  24.363  25.120  1.00  0.00     0.338 C 
ATOM     25  O   UNL A   1      45.132  24.717  24.641  1.00  0.00    -0.246 OA
BRANCH  24  26
ATOM     26  C   UNL A   1      43.341  25.166  26.113  1.00  0.00     0.060 A 
ATOM     27  C   UNL A   1      43.447  26.552  26.047  1.00  0.00     0.016 A 
ATOM     28  C   UNL A   1      42.680  24.561  27.180  1.00  0.00     0.016 A 
ATOM     29  C   UNL A   1      42.959  27.341  27.083  1.00  0.00     0.010 A 
ATOM     30  C   UNL A   1      42.133  25.361  28.193  1.00  0.00     0.010 A 
ATOM     31  C   UNL A   1      42.302  26.758  28.173  1.00  0.00    -0.014 A 
BRANCH  31  32
ATOM     32  C   UNL A   1      41.844  27.614  29.301  1.00  0.00     0.031 A 
ATOM     33  C   UNL A   1      42.621  27.653  30.589  1.00  0.00     0.074 A 
ATOM     34  C   UNL A   1      40.759  28.400  29.159  1.00  0.00     0.049 A 
ATOM     35  N   UNL A   1      42.329  28.257  31.714  1.00  0.00    -0.248 NA
ATOM     36  C   UNL A   1      43.893  26.912  30.621  1.00  0.00     0.031 C 
ATOM     37  C   UNL A   1      39.944  28.505  27.948  1.00  0.00     0.029 A 
ATOM     38  N   UNL A   1      40.167  29.273  30.036  1.00  0.00    -0.354 N 
ATOM     39  C   UNL A   1      43.347  27.927  32.600  1.00  0.00     0.074 A 
ATOM     40  C   UNL A   1      44.271  27.075  31.881  1.00  0.00     0.031 C 
ATOM     41  C   UNL A   1      38.984  29.423  28.144  1.00  0.00     0.029 A 
ATOM     42  C   UNL A   1      39.073  29.918  29.513  1.00  0.00     0.049 A 
ATOM     43  H   UNL A   1      40.494  29.423  30.953  1.00  0.00     0.167 HD
ATOM     44  C   UNL A   1      43.495  28.296  33.895  1.00  0.00     0.037 A 
ATOM     45  C   UNL A   1      38.219  30.791  30.078  1.00  0.00     0.037 A 
ATOM     46  C   UNL A   1      42.605  29.180  34.599  1.00  0.00     0.049 A 
ATOM     47  C   UNL A   1      38.396  31.175  31.518  1.00  0.00     0.074 A 
ATOM     48  C   UNL A   1      42.679  29.612  35.913  1.00  0.00     0.029 A 
ATOM     49  N   UNL A   1      41.487  29.781  34.044  1.00  0.00    -0.354 N 
ATOM     50  N   UNL A   1      39.330  30.807  32.361  1.00  0.00    -0.248 NA
ATOM     51  C   UNL A   1      37.386  32.074  32.094  1.00  0.00     0.031 C 
ATOM     52  C   UNL A   1      41.591  30.458  36.159  1.00  0.00     0.029 A 
ATOM     53  C   UNL A   1      40.858  30.573  34.990  1.00  0.00     0.049 A 
ATOM     54  H   UNL A   1      41.184  29.662  33.115  1.00  0.00     0.167 HD
ATOM     55  C   UNL A   1      39.023  31.429  33.562  1.00  0.00     0.074 A 
ATOM     56  C   UNL A   1      37.828  32.216  33.336  1.00  0.00     0.031 C 
ATOM     57  C   UNL A   1      39.668  31.347  34.751  1.00  0.00     0.037 A 
BRANCH  44  58
ATOM     58  C   UNL A   1      44.650  27.712  34.649  1.00  0.00     0.057 A 
ATOM     59  C   UNL A   1      44.556  26.487  35.318  1.00  0.00     0.134 A 
ATOM     60  C   UNL A   1      45.885  28.373  34.673  1.00  0.00     0.134 A 
ATOM     61  F   UNL A   1      43.395  25.814  35.345  1.00  0.00    -0.206 F 
ATOM     62  C   UNL A   1      45.649  25.945  35.998  1.00  0.00     0.040 A 
ATOM     63  C   UNL A   1      46.989  27.833  35.334  1.00  0.00     0.040 A 
ATOM     64  F   UNL A   1      46.040  29.550  34.047  1.00  0.00    -0.206 F 
ATOM     65  C   UNL A   1      46.871  26.616  36.002  1.00  0.00     0.006 A 
ENDBRANCH  44  58
BRANCH  45  66
ATOM     66  C   UNL A   1      37.094  31.339  29.283  1.00  0.00     0.057 A 
ATOM     67  C   UNL A   1      37.140  32.638  28.766  1.00  0.00     0.134 A 
ATOM     68  C   UNL A   1      35.952  30.576  29.015  1.00  0.00     0.134 A 
ATOM     69  F   UNL A   1      38.197  33.426  29.012  1.00  0.00    -0.206 F 
ATOM     70  C   UNL A   1      36.089  33.161  28.011  1.00  0.00     0.040 A 
ATOM     71  C   UNL A   1      34.903  31.077  28.244  1.00  0.00     0.040 A 
ATOM     72  F   UNL A   1      35.849  29.324  29.486  1.00  0.00    -0.206 F 
ATOM     73  C   UNL A   1      34.969  32.376  27.743  1.00  0.00     0.006 A 
ENDBRANCH  45  66
BRANCH  57  74
ATOM     74  C   UNL A   1      39.097  32.133  35.889  1.00  0.00     0.057 A 
ATOM     75  C   UNL A   1      38.196  31.560  36.795  1.00  0.00     0.134 A 
ATOM     76  C   UNL A   1      39.470  33.466  36.097  1.00  0.00     0.134 A 
ATOM     77  F   UNL A   1      37.791  30.291  36.639  1.00  0.00    -0.206 F 
ATOM     78  C   UNL A   1      37.672  32.292  37.861  1.00  0.00     0.040 A 
ATOM     79  C   UNL A   1      38.966  34.203  37.170  1.00  0.00     0.040 A 
ATOM     80  F   UNL A   1      40.334  34.069  35.266  1.00  0.00    -0.206 F 
ATOM     81  C   UNL A   1      38.061  33.617  38.054  1.00  0.00     0.006 A 
ENDBRANCH  57  74
ENDBRANCH  31  32
ENDBRANCH  24  26
ENDBRANCH  23  24
ENDBRANCH  22  23
ENDBRANCH   1  22
TORSDOF 14
ENDMDL
