MODEL 1
REMARK VINA RESULT:     -11.2      0.000      0.000
REMARK SMILES CCc1ccnc(C(=O)c2[nH]c3ccc(OC(F)(F)F)cc3c2CC(=O)OCCOC(=O)c2ccc(-c3c4nc(c(-c5c(F)cccc5F)c5ccc([nH]5)c(-c5c(F)cccc5F)c5nc(c(-c6c(F)cccc6F)c6ccc3[nH]6)C=C5)C=C4)cc2)c1
REMARK SMILES IDX 28 1 27 2 25 3 26 4 24 5 23 6 10 7 11 8 12 9 22 11 13 12
REMARK SMILES IDX 21 13 14 14 15 15 8 16 9 17 7 18 3 19 4 20 87 21 5 22 6 23
REMARK SMILES IDX 2 24 1 25 16 26 17 27 18 28 19 29 20 30 29 31 30 32 31 33
REMARK SMILES IDX 32 34 33 35 34 36 86 37 35 38 85 39 36 40 37 41 38 42 79 43
REMARK SMILES IDX 39 44 84 45 78 46 80 47 40 48 83 49 77 50 76 51 41 53 67 54
REMARK SMILES IDX 50 55 66 56 51 57 54 58 65 59 81 60 52 61 53 62 64 64 82 65
REMARK SMILES IDX 55 66 42 67 43 68 48 69 44 70 45 71 47 72 49 73 46 74 68 75
REMARK SMILES IDX 69 76 74 77 70 78 71 79 73 80 75 81 72 82 56 83 57 84 62 85
REMARK SMILES IDX 58 86 59 87 61 88 63 89 60 90
REMARK H PARENT 11 10 80 52 54 63
REMARK Flexibility Score: inf
ROOT
ATOM      1  C   UNL A   1      35.325  22.115  25.609  1.00  0.00     0.274 C 
ENDROOT
BRANCH   1   2
ATOM      2  O   UNL A   1      35.148  22.938  24.436  1.00  0.00    -0.462 OA
BRANCH   2   3
ATOM      3  C   UNL A   1      34.606  24.165  24.636  1.00  0.00     0.310 C 
ATOM      4  O   UNL A   1      34.240  24.912  23.730  1.00  0.00    -0.252 OA
BRANCH   3   5
ATOM      5  C   UNL A   1      34.308  24.492  26.085  1.00  0.00     0.161 C 
BRANCH   5   6
ATOM      6  C   UNL A   1      33.102  25.321  26.389  1.00  0.00     0.000 A 
ATOM      7  C   UNL A   1      31.777  24.903  26.520  1.00  0.00     0.093 A 
ATOM      8  N   UNL A   1      31.035  26.019  26.826  1.00  0.00    -0.352 N 
ATOM      9  C   UNL A   1      31.783  27.156  26.699  1.00  0.00     0.046 A 
ATOM     10  H   UNL A   1      30.090  26.001  27.102  1.00  0.00     0.167 HD
ATOM     11  C   UNL A   1      33.100  26.756  26.499  1.00  0.00     0.008 A 
ATOM     12  C   UNL A   1      31.391  28.493  26.761  1.00  0.00     0.030 A 
ATOM     13  C   UNL A   1      34.089  27.760  26.411  1.00  0.00     0.057 A 
ATOM     14  C   UNL A   1      32.385  29.467  26.637  1.00  0.00     0.049 A 
ATOM     15  C   UNL A   1      33.726  29.117  26.482  1.00  0.00     0.130 A 
BRANCH   7  16
ATOM     16  C   UNL A   1      31.106  23.614  26.454  1.00  0.00     0.227 C 
ATOM     17  O   UNL A   1      30.207  23.340  27.250  1.00  0.00    -0.285 OA
BRANCH  16  18
ATOM     18  C   UNL A   1      31.266  22.753  25.228  1.00  0.00     0.113 A 
ATOM     19  C   UNL A   1      32.238  20.789  24.203  1.00  0.00    -0.044 A 
ATOM     20  C   UNL A   1      32.150  21.452  22.978  1.00  0.00     0.024 A 
ATOM     21  C   UNL A   1      31.770  21.456  25.347  1.00  0.00     0.036 A 
ATOM     22  C   UNL A   1      31.597  22.723  22.942  1.00  0.00     0.112 A 
ATOM     23  N   UNL A   1      31.162  23.385  24.030  1.00  0.00    -0.253 NA
BRANCH  19  24
ATOM     24  C   UNL A   1      32.956  19.468  24.366  1.00  0.00     0.032 C 
ATOM     25  C   UNL A   1      32.547  18.352  23.412  1.00  0.00     0.009 C 
ENDBRANCH  19  24
ENDBRANCH  16  18
ENDBRANCH   7  16
BRANCH  15  26
ATOM     26  O   UNL A   1      34.776  29.987  26.383  1.00  0.00    -0.406 OA
BRANCH  26  27
ATOM     27  C   UNL A   1      35.555  30.212  27.547  1.00  0.00     0.573 C 
ATOM     28  F   UNL A   1      35.198  29.367  28.540  1.00  0.00    -0.132 F 
ATOM     29  F   UNL A   1      36.874  30.077  27.292  1.00  0.00    -0.132 F 
ATOM     30  F   UNL A   1      35.340  31.474  27.977  1.00  0.00    -0.132 F 
ENDBRANCH  26  27
ENDBRANCH  15  26
ENDBRANCH   5   6
ENDBRANCH   3   5
ENDBRANCH   2   3
ENDBRANCH   1   2
BRANCH   1  31
ATOM     31  C   UNL A   1      36.304  20.967  25.333  1.00  0.00     0.275 C 
BRANCH  31  32
ATOM     32  O   UNL A   1      37.590  21.458  24.898  1.00  0.00    -0.458 OA
BRANCH  32  33
ATOM     33  C   UNL A   1      38.588  21.185  25.762  1.00  0.00     0.338 C 
ATOM     34  O   UNL A   1      38.918  20.082  26.175  1.00  0.00    -0.246 OA
BRANCH  33  35
ATOM     35  C   UNL A   1      39.350  22.375  26.123  1.00  0.00     0.060 A 
ATOM     36  C   UNL A   1      40.474  22.237  26.939  1.00  0.00     0.016 A 
ATOM     37  C   UNL A   1      38.831  23.635  25.821  1.00  0.00     0.016 A 
ATOM     38  C   UNL A   1      41.063  23.367  27.494  1.00  0.00     0.010 A 
ATOM     39  C   UNL A   1      39.470  24.770  26.316  1.00  0.00     0.010 A 
ATOM     40  C   UNL A   1      40.586  24.642  27.160  1.00  0.00    -0.014 A 
BRANCH  40  41
ATOM     41  C   UNL A   1      41.316  25.846  27.611  1.00  0.00     0.031 A 
ATOM     42  C   UNL A   1      40.653  26.888  28.458  1.00  0.00     0.074 A 
ATOM     43  C   UNL A   1      42.592  25.998  27.215  1.00  0.00     0.049 A 
ATOM     44  N   UNL A   1      41.083  28.075  28.797  1.00  0.00    -0.248 NA
ATOM     45  C   UNL A   1      39.327  26.551  28.995  1.00  0.00     0.031 C 
ATOM     46  C   UNL A   1      43.350  25.024  26.426  1.00  0.00     0.029 A 
ATOM     47  N   UNL A   1      43.474  27.026  27.415  1.00  0.00    -0.354 N 
ATOM     48  C   UNL A   1      40.073  28.641  29.565  1.00  0.00     0.074 A 
ATOM     49  C   UNL A   1      39.004  27.666  29.640  1.00  0.00     0.031 C 
ATOM     50  C   UNL A   1      44.588  25.492  26.224  1.00  0.00     0.029 A 
ATOM     51  C   UNL A   1      44.683  26.828  26.798  1.00  0.00     0.049 A 
ATOM     52  H   UNL A   1      43.261  27.827  27.947  1.00  0.00     0.167 HD
ATOM     53  C   UNL A   1      40.050  29.863  30.146  1.00  0.00     0.037 A 
ATOM     54  C   UNL A   1      45.736  27.652  26.665  1.00  0.00     0.037 A 
ATOM     55  C   UNL A   1      41.132  30.813  30.071  1.00  0.00     0.049 A 
ATOM     56  C   UNL A   1      45.651  29.030  27.241  1.00  0.00     0.074 A 
ATOM     57  C   UNL A   1      41.221  32.073  30.636  1.00  0.00     0.029 A 
ATOM     58  N   UNL A   1      42.317  30.601  29.381  1.00  0.00    -0.354 N 
ATOM     59  N   UNL A   1      44.678  29.576  27.930  1.00  0.00    -0.248 NA
ATOM     60  C   UNL A   1      46.795  29.918  26.998  1.00  0.00     0.031 C 
ATOM     61  C   UNL A   1      42.446  32.636  30.260  1.00  0.00     0.029 A 
ATOM     62  C   UNL A   1      43.134  31.715  29.487  1.00  0.00     0.049 A 
ATOM     63  H   UNL A   1      42.545  29.780  28.887  1.00  0.00     0.167 HD
ATOM     64  C   UNL A   1      45.090  30.870  28.207  1.00  0.00     0.074 A 
ATOM     65  C   UNL A   1      46.409  31.022  27.622  1.00  0.00     0.031 C 
ATOM     66  C   UNL A   1      44.435  31.846  28.882  1.00  0.00     0.037 A 
BRANCH  53  67
ATOM     67  C   UNL A   1      38.806  30.257  30.886  1.00  0.00     0.057 A 
ATOM     68  C   UNL A   1      37.860  31.130  30.338  1.00  0.00     0.134 A 
ATOM     69  C   UNL A   1      38.537  29.727  32.156  1.00  0.00     0.134 A 
ATOM     70  F   UNL A   1      38.065  31.685  29.134  1.00  0.00    -0.206 F 
ATOM     71  C   UNL A   1      36.696  31.474  31.030  1.00  0.00     0.040 A 
ATOM     72  C   UNL A   1      37.369  30.049  32.849  1.00  0.00     0.040 A 
ATOM     73  F   UNL A   1      39.401  28.883  32.738  1.00  0.00    -0.206 F 
ATOM     74  C   UNL A   1      36.446  30.928  32.287  1.00  0.00     0.006 A 
ENDBRANCH  53  67
BRANCH  54  75
ATOM     75  C   UNL A   1      46.930  27.189  25.923  1.00  0.00     0.057 A 
ATOM     76  C   UNL A   1      47.061  27.434  24.554  1.00  0.00     0.134 A 
ATOM     77  C   UNL A   1      47.995  26.555  26.576  1.00  0.00     0.134 A 
ATOM     78  F   UNL A   1      46.067  28.027  23.875  1.00  0.00    -0.206 F 
ATOM     79  C   UNL A   1      48.214  27.069  23.857  1.00  0.00     0.040 A 
ATOM     80  C   UNL A   1      49.161  26.203  25.897  1.00  0.00     0.040 A 
ATOM     81  F   UNL A   1      47.929  26.304  27.892  1.00  0.00    -0.206 F 
ATOM     82  C   UNL A   1      49.271  26.461  24.532  1.00  0.00     0.006 A 
ENDBRANCH  54  75
BRANCH  66  83
ATOM     83  C   UNL A   1      45.150  33.152  29.024  1.00  0.00     0.057 A 
ATOM     84  C   UNL A   1      44.966  34.189  28.101  1.00  0.00     0.134 A 
ATOM     85  C   UNL A   1      46.020  33.379  30.097  1.00  0.00     0.134 A 
ATOM     86  F   UNL A   1      44.158  34.021  27.043  1.00  0.00    -0.206 F 
ATOM     87  C   UNL A   1      45.637  35.404  28.232  1.00  0.00     0.040 A 
ATOM     88  C   UNL A   1      46.684  34.596  30.247  1.00  0.00     0.040 A 
ATOM     89  F   UNL A   1      46.234  32.423  31.013  1.00  0.00    -0.206 F 
ATOM     90  C   UNL A   1      46.497  35.611  29.310  1.00  0.00     0.006 A 
ENDBRANCH  66  83
ENDBRANCH  40  41
ENDBRANCH  33  35
ENDBRANCH  32  33
ENDBRANCH  31  32
ENDBRANCH   1  31
TORSDOF 17
ENDMDL
MODEL 2
REMARK VINA RESULT:     -11.2      4.226      8.837
REMARK SMILES CCc1ccnc(C(=O)c2[nH]c3ccc(OC(F)(F)F)cc3c2CC(=O)OCCOC(=O)c2ccc(-c3c4nc(c(-c5c(F)cccc5F)c5ccc([nH]5)c(-c5c(F)cccc5F)c5nc(c(-c6c(F)cccc6F)c6ccc3[nH]6)C=C5)C=C4)cc2)c1
REMARK SMILES IDX 28 1 27 2 25 3 26 4 24 5 23 6 10 7 11 8 12 9 22 11 13 12
REMARK SMILES IDX 21 13 14 14 15 15 8 16 9 17 7 18 3 19 4 20 87 21 5 22 6 23
REMARK SMILES IDX 2 24 1 25 16 26 17 27 18 28 19 29 20 30 29 31 30 32 31 33
REMARK SMILES IDX 32 34 33 35 34 36 86 37 35 38 85 39 36 40 37 41 38 42 79 43
REMARK SMILES IDX 39 44 84 45 78 46 80 47 40 48 83 49 77 50 76 51 41 53 67 54
REMARK SMILES IDX 50 55 66 56 51 57 54 58 65 59 81 60 52 61 53 62 64 64 82 65
REMARK SMILES IDX 55 66 42 67 43 68 48 69 44 70 45 71 47 72 49 73 46 74 68 75
REMARK SMILES IDX 69 76 74 77 70 78 71 79 73 80 75 81 72 82 56 83 57 84 62 85
REMARK SMILES IDX 58 86 59 87 61 88 63 89 60 90
REMARK H PARENT 11 10 80 52 54 63
REMARK Flexibility Score: inf
ROOT
ATOM      1  C   UNL A   1      31.832  30.910  26.246  1.00  0.00     0.274 C 
ENDROOT
BRANCH   1   2
ATOM      2  O   UNL A   1      32.106  29.827  27.162  1.00  0.00    -0.462 OA
BRANCH   2   3
ATOM      3  C   UNL A   1      33.091  28.967  26.802  1.00  0.00     0.310 C 
ATOM      4  O   UNL A   1      33.985  28.589  27.557  1.00  0.00    -0.252 OA
BRANCH   3   5
ATOM      5  C   UNL A   1      32.913  28.347  25.431  1.00  0.00     0.161 C 
BRANCH   5   6
ATOM      6  C   UNL A   1      31.642  27.613  25.147  1.00  0.00     0.000 A 
ATOM      7  C   UNL A   1      31.315  26.295  25.466  1.00  0.00     0.093 A 
ATOM      8  N   UNL A   1      30.030  26.083  25.024  1.00  0.00    -0.352 N 
ATOM      9  C   UNL A   1      29.595  27.132  24.262  1.00  0.00     0.046 A 
ATOM     10  H   UNL A   1      29.494  25.284  25.230  1.00  0.00     0.167 HD
ATOM     11  C   UNL A   1      30.546  28.140  24.377  1.00  0.00     0.008 A 
ATOM     12  C   UNL A   1      28.433  27.260  23.502  1.00  0.00     0.030 A 
ATOM     13  C   UNL A   1      30.286  29.370  23.733  1.00  0.00     0.057 A 
ATOM     14  C   UNL A   1      28.216  28.475  22.846  1.00  0.00     0.049 A 
ATOM     15  C   UNL A   1      29.117  29.532  22.968  1.00  0.00     0.130 A 
BRANCH   7  16
ATOM     16  C   UNL A   1      31.999  25.218  26.166  1.00  0.00     0.227 C 
ATOM     17  O   UNL A   1      31.527  24.754  27.204  1.00  0.00    -0.285 OA
BRANCH  16  18
ATOM     18  C   UNL A   1      33.088  24.448  25.465  1.00  0.00     0.113 A 
ATOM     19  C   UNL A   1      34.013  22.305  24.832  1.00  0.00    -0.044 A 
ATOM     20  C   UNL A   1      35.267  22.918  24.795  1.00  0.00     0.024 A 
ATOM     21  C   UNL A   1      32.901  23.098  25.160  1.00  0.00     0.036 A 
ATOM     22  C   UNL A   1      35.357  24.275  25.070  1.00  0.00     0.112 A 
ATOM     23  N   UNL A   1      34.306  25.045  25.406  1.00  0.00    -0.253 NA
BRANCH  19  24
ATOM     24  C   UNL A   1      33.833  20.810  24.692  1.00  0.00     0.032 C 
ATOM     25  C   UNL A   1      32.587  20.344  23.950  1.00  0.00     0.009 C 
ENDBRANCH  19  24
ENDBRANCH  16  18
ENDBRANCH   7  16
BRANCH  15  26
ATOM     26  O   UNL A   1      28.984  30.768  22.397  1.00  0.00    -0.406 OA
BRANCH  26  27
ATOM     27  C   UNL A   1      28.414  31.799  23.186  1.00  0.00     0.573 C 
ATOM     28  F   UNL A   1      28.372  32.966  22.506  1.00  0.00    -0.132 F 
ATOM     29  F   UNL A   1      27.169  31.473  23.599  1.00  0.00    -0.132 F 
ATOM     30  F   UNL A   1      29.181  31.983  24.283  1.00  0.00    -0.132 F 
ENDBRANCH  26  27
ENDBRANCH  15  26
ENDBRANCH   5   6
ENDBRANCH   3   5
ENDBRANCH   2   3
ENDBRANCH   1   2
BRANCH   1  31
ATOM     31  C   UNL A   1      31.588  32.222  27.001  1.00  0.00     0.275 C 
BRANCH  31  32
ATOM     32  O   UNL A   1      32.670  33.157  26.805  1.00  0.00    -0.458 OA
BRANCH  32  33
ATOM     33  C   UNL A   1      33.078  33.750  27.945  1.00  0.00     0.338 C 
ATOM     34  O   UNL A   1      32.494  34.629  28.563  1.00  0.00    -0.246 OA
BRANCH  33  35
ATOM     35  C   UNL A   1      34.308  33.163  28.466  1.00  0.00     0.060 A 
ATOM     36  C   UNL A   1      34.246  31.927  29.112  1.00  0.00     0.016 A 
ATOM     37  C   UNL A   1      35.473  33.930  28.491  1.00  0.00     0.016 A 
ATOM     38  C   UNL A   1      35.347  31.470  29.826  1.00  0.00     0.010 A 
ATOM     39  C   UNL A   1      36.600  33.435  29.144  1.00  0.00     0.010 A 
ATOM     40  C   UNL A   1      36.541  32.205  29.820  1.00  0.00    -0.014 A 
BRANCH  40  41
ATOM     41  C   UNL A   1      37.761  31.638  30.435  1.00  0.00     0.031 A 
ATOM     42  C   UNL A   1      38.615  30.649  29.703  1.00  0.00     0.074 A 
ATOM     43  C   UNL A   1      38.072  32.014  31.688  1.00  0.00     0.049 A 
ATOM     44  N   UNL A   1      39.611  29.928  30.148  1.00  0.00    -0.248 NA
ATOM     45  C   UNL A   1      38.307  30.441  28.282  1.00  0.00     0.031 C 
ATOM     46  C   UNL A   1      37.335  33.005  32.476  1.00  0.00     0.029 A 
ATOM     47  N   UNL A   1      39.080  31.607  32.520  1.00  0.00    -0.354 N 
ATOM     48  C   UNL A   1      40.034  29.159  29.071  1.00  0.00     0.074 A 
ATOM     49  C   UNL A   1      39.183  29.500  27.949  1.00  0.00     0.031 C 
ATOM     50  C   UNL A   1      37.926  33.142  33.670  1.00  0.00     0.029 A 
ATOM     51  C   UNL A   1      39.029  32.195  33.758  1.00  0.00     0.049 A 
ATOM     52  H   UNL A   1      39.772  30.958  32.255  1.00  0.00     0.167 HD
ATOM     53  C   UNL A   1      41.039  28.254  29.035  1.00  0.00     0.037 A 
ATOM     54  C   UNL A   1      39.759  31.959  34.862  1.00  0.00     0.037 A 
ATOM     55  C   UNL A   1      41.884  27.940  30.160  1.00  0.00     0.049 A 
ATOM     56  C   UNL A   1      40.806  30.891  34.822  1.00  0.00     0.074 A 
ATOM     57  C   UNL A   1      42.943  27.051  30.228  1.00  0.00     0.029 A 
ATOM     58  N   UNL A   1      41.760  28.510  31.419  1.00  0.00    -0.354 N 
ATOM     59  N   UNL A   1      41.174  30.138  33.814  1.00  0.00    -0.248 NA
ATOM     60  C   UNL A   1      41.518  30.619  36.076  1.00  0.00     0.031 C 
ATOM     61  C   UNL A   1      43.437  27.060  31.538  1.00  0.00     0.029 A 
ATOM     62  C   UNL A   1      42.708  27.976  32.277  1.00  0.00     0.049 A 
ATOM     63  H   UNL A   1      41.096  29.193  31.667  1.00  0.00     0.167 HD
ATOM     64  C   UNL A   1      42.164  29.302  34.308  1.00  0.00     0.074 A 
ATOM     65  C   UNL A   1      42.347  29.653  35.704  1.00  0.00     0.031 C 
ATOM     66  C   UNL A   1      42.857  28.332  33.666  1.00  0.00     0.037 A 
BRANCH  53  67
ATOM     67  C   UNL A   1      41.261  27.514  27.748  1.00  0.00     0.057 A 
ATOM     68  C   UNL A   1      42.099  28.008  26.742  1.00  0.00     0.134 A 
ATOM     69  C   UNL A   1      40.650  26.272  27.528  1.00  0.00     0.134 A 
ATOM     70  F   UNL A   1      42.702  29.198  26.883  1.00  0.00    -0.206 F 
ATOM     71  C   UNL A   1      42.313  27.301  25.556  1.00  0.00     0.040 A 
ATOM     72  C   UNL A   1      40.869  25.548  26.354  1.00  0.00     0.040 A 
ATOM     73  F   UNL A   1      39.836  25.741  28.451  1.00  0.00    -0.206 F 
ATOM     74  C   UNL A   1      41.701  26.064  25.363  1.00  0.00     0.006 A 
ENDBRANCH  53  67
BRANCH  54  75
ATOM     75  C   UNL A   1      39.481  32.734  36.092  1.00  0.00     0.057 A 
ATOM     76  C   UNL A   1      40.151  33.933  36.350  1.00  0.00     0.134 A 
ATOM     77  C   UNL A   1      38.495  32.331  37.001  1.00  0.00     0.134 A 
ATOM     78  F   UNL A   1      41.114  34.361  35.519  1.00  0.00    -0.206 F 
ATOM     79  C   UNL A   1      39.845  34.710  37.468  1.00  0.00     0.040 A 
ATOM     80  C   UNL A   1      38.165  33.108  38.111  1.00  0.00     0.040 A 
ATOM     81  F   UNL A   1      37.812  31.193  36.800  1.00  0.00    -0.206 F 
ATOM     82  C   UNL A   1      38.842  34.303  38.346  1.00  0.00     0.006 A 
ENDBRANCH  54  75
BRANCH  66  83
ATOM     83  C   UNL A   1      43.878  27.595  34.474  1.00  0.00     0.057 A 
ATOM     84  C   UNL A   1      43.569  26.389  35.115  1.00  0.00     0.134 A 
ATOM     85  C   UNL A   1      45.180  28.091  34.606  1.00  0.00     0.134 A 
ATOM     86  F   UNL A   1      42.331  25.877  35.040  1.00  0.00    -0.206 F 
ATOM     87  C   UNL A   1      44.520  25.707  35.873  1.00  0.00     0.040 A 
ATOM     88  C   UNL A   1      46.144  27.409  35.347  1.00  0.00     0.040 A 
ATOM     89  F   UNL A   1      45.533  29.241  34.013  1.00  0.00    -0.206 F 
ATOM     90  C   UNL A   1      45.813  26.216  35.988  1.00  0.00     0.006 A 
ENDBRANCH  66  83
ENDBRANCH  40  41
ENDBRANCH  33  35
ENDBRANCH  32  33
ENDBRANCH  31  32
ENDBRANCH   1  31
TORSDOF 17
ENDMDL
MODEL 3
REMARK VINA RESULT:     -11.2      1.841      2.615
REMARK SMILES CCc1ccnc(C(=O)c2[nH]c3ccc(OC(F)(F)F)cc3c2CC(=O)OCCOC(=O)c2ccc(-c3c4nc(c(-c5c(F)cccc5F)c5ccc([nH]5)c(-c5c(F)cccc5F)c5nc(c(-c6c(F)cccc6F)c6ccc3[nH]6)C=C5)C=C4)cc2)c1
REMARK SMILES IDX 28 1 27 2 25 3 26 4 24 5 23 6 10 7 11 8 12 9 22 11 13 12
REMARK SMILES IDX 21 13 14 14 15 15 8 16 9 17 7 18 3 19 4 20 87 21 5 22 6 23
REMARK SMILES IDX 2 24 1 25 16 26 17 27 18 28 19 29 20 30 29 31 30 32 31 33
REMARK SMILES IDX 32 34 33 35 34 36 86 37 35 38 85 39 36 40 37 41 38 42 79 43
REMARK SMILES IDX 39 44 84 45 78 46 80 47 40 48 83 49 77 50 76 51 41 53 67 54
REMARK SMILES IDX 50 55 66 56 51 57 54 58 65 59 81 60 52 61 53 62 64 64 82 65
REMARK SMILES IDX 55 66 42 67 43 68 48 69 44 70 45 71 47 72 49 73 46 74 68 75
REMARK SMILES IDX 69 76 74 77 70 78 71 79 73 80 75 81 72 82 56 83 57 84 62 85
REMARK SMILES IDX 58 86 59 87 61 88 63 89 60 90
REMARK H PARENT 11 10 80 52 54 63
REMARK Flexibility Score: inf
ROOT
ATOM      1  C   UNL A   1      37.730  20.940  25.043  1.00  0.00     0.274 C 
ENDROOT
BRANCH   1   2
ATOM      2  O   UNL A   1      36.812  21.804  25.747  1.00  0.00    -0.462 OA
BRANCH   2   3
ATOM      3  C   UNL A   1      36.107  22.681  24.990  1.00  0.00     0.310 C 
ATOM      4  O   UNL A   1      35.803  22.487  23.814  1.00  0.00    -0.252 OA
BRANCH   3   5
ATOM      5  C   UNL A   1      35.551  23.865  25.753  1.00  0.00     0.161 C 
BRANCH   5   6
ATOM      6  C   UNL A   1      34.077  23.922  25.994  1.00  0.00     0.000 A 
ATOM      7  C   UNL A   1      33.187  22.861  26.164  1.00  0.00     0.093 A 
ATOM      8  N   UNL A   1      31.946  23.410  26.381  1.00  0.00    -0.352 N 
ATOM      9  C   UNL A   1      31.961  24.759  26.157  1.00  0.00     0.046 A 
ATOM     10  H   UNL A   1      31.152  22.901  26.662  1.00  0.00     0.167 HD
ATOM     11  C   UNL A   1      33.291  25.128  25.985  1.00  0.00     0.008 A 
ATOM     12  C   UNL A   1      30.903  25.667  26.111  1.00  0.00     0.030 A 
ATOM     13  C   UNL A   1      33.578  26.499  25.811  1.00  0.00     0.057 A 
ATOM     14  C   UNL A   1      31.213  27.014  25.902  1.00  0.00     0.049 A 
ATOM     15  C   UNL A   1      32.534  27.440  25.771  1.00  0.00     0.130 A 
BRANCH   7  16
ATOM     16  C   UNL A   1      33.328  21.413  26.208  1.00  0.00     0.227 C 
ATOM     17  O   UNL A   1      33.653  20.852  27.254  1.00  0.00    -0.285 OA
BRANCH  16  18
ATOM     18  C   UNL A   1      32.760  20.576  25.091  1.00  0.00     0.113 A 
ATOM     19  C   UNL A   1      32.691  18.448  23.942  1.00  0.00    -0.044 A 
ATOM     20  C   UNL A   1      32.314  19.143  22.792  1.00  0.00     0.024 A 
ATOM     21  C   UNL A   1      32.903  19.187  25.119  1.00  0.00     0.036 A 
ATOM     22  C   UNL A   1      32.154  20.519  22.862  1.00  0.00     0.112 A 
ATOM     23  N   UNL A   1      32.372  21.245  23.974  1.00  0.00    -0.253 NA
BRANCH  19  24
ATOM     24  C   UNL A   1      33.033  16.975  23.930  1.00  0.00     0.032 C 
ATOM     25  C   UNL A   1      34.300  16.579  23.183  1.00  0.00     0.009 C 
ENDBRANCH  19  24
ENDBRANCH  16  18
ENDBRANCH   7  16
BRANCH  15  26
ATOM     26  O   UNL A   1      32.946  28.733  25.596  1.00  0.00    -0.406 OA
BRANCH  26  27
ATOM     27  C   UNL A   1      33.015  29.561  26.745  1.00  0.00     0.573 C 
ATOM     28  F   UNL A   1      31.840  30.192  26.962  1.00  0.00    -0.132 F 
ATOM     29  F   UNL A   1      33.355  28.852  27.844  1.00  0.00    -0.132 F 
ATOM     30  F   UNL A   1      33.964  30.502  26.547  1.00  0.00    -0.132 F 
ENDBRANCH  26  27
ENDBRANCH  15  26
ENDBRANCH   5   6
ENDBRANCH   3   5
ENDBRANCH   2   3
ENDBRANCH   1   2
BRANCH   1  31
ATOM     31  C   UNL A   1      39.117  20.961  25.696  1.00  0.00     0.275 C 
BRANCH  31  32
ATOM     32  O   UNL A   1      39.642  19.628  25.874  1.00  0.00    -0.458 OA
BRANCH  32  33
ATOM     33  C   UNL A   1      40.978  19.598  26.051  1.00  0.00     0.338 C 
ATOM     34  O   UNL A   1      41.736  18.687  25.751  1.00  0.00    -0.246 OA
BRANCH  33  35
ATOM     35  C   UNL A   1      41.495  20.855  26.581  1.00  0.00     0.060 A 
ATOM     36  C   UNL A   1      41.331  21.134  27.939  1.00  0.00     0.016 A 
ATOM     37  C   UNL A   1      41.955  21.831  25.696  1.00  0.00     0.016 A 
ATOM     38  C   UNL A   1      41.589  22.415  28.413  1.00  0.00     0.010 A 
ATOM     39  C   UNL A   1      42.286  23.093  26.188  1.00  0.00     0.010 A 
ATOM     40  C   UNL A   1      42.099  23.393  27.547  1.00  0.00    -0.014 A 
BRANCH  40  41
ATOM     41  C   UNL A   1      42.535  24.701  28.084  1.00  0.00     0.031 A 
ATOM     42  C   UNL A   1      41.547  25.780  28.402  1.00  0.00     0.074 A 
ATOM     43  C   UNL A   1      43.853  24.908  28.253  1.00  0.00     0.049 A 
ATOM     44  N   UNL A   1      41.763  27.032  28.713  1.00  0.00    -0.248 NA
ATOM     45  C   UNL A   1      40.128  25.403  28.365  1.00  0.00     0.031 C 
ATOM     46  C   UNL A   1      44.899  23.910  28.016  1.00  0.00     0.029 A 
ATOM     47  N   UNL A   1      44.539  26.022  28.656  1.00  0.00    -0.354 N 
ATOM     48  C   UNL A   1      40.507  27.602  28.883  1.00  0.00     0.074 A 
ATOM     49  C   UNL A   1      39.533  26.558  28.637  1.00  0.00     0.031 C 
ATOM     50  C   UNL A   1      46.092  24.451  28.295  1.00  0.00     0.029 A 
ATOM     51  C   UNL A   1      45.899  25.851  28.652  1.00  0.00     0.049 A 
ATOM     52  H   UNL A   1      44.098  26.862  28.922  1.00  0.00     0.167 HD
ATOM     53  C   UNL A   1      40.208  28.881  29.211  1.00  0.00     0.037 A 
ATOM     54  C   UNL A   1      46.887  26.737  28.861  1.00  0.00     0.037 A 
ATOM     55  C   UNL A   1      41.195  29.900  29.466  1.00  0.00     0.049 A 
ATOM     56  C   UNL A   1      46.531  28.164  29.135  1.00  0.00     0.074 A 
ATOM     57  C   UNL A   1      41.001  31.224  29.823  1.00  0.00     0.029 A 
ATOM     58  N   UNL A   1      42.566  29.704  29.388  1.00  0.00    -0.354 N 
ATOM     59  N   UNL A   1      45.344  28.708  29.254  1.00  0.00    -0.248 NA
ATOM     60  C   UNL A   1      47.648  29.107  29.276  1.00  0.00     0.031 C 
ATOM     61  C   UNL A   1      42.256  31.836  29.928  1.00  0.00     0.029 A 
ATOM     62  C   UNL A   1      43.231  30.887  29.668  1.00  0.00     0.049 A 
ATOM     63  H   UNL A   1      43.003  28.850  29.167  1.00  0.00     0.167 HD
ATOM     64  C   UNL A   1      45.566  30.056  29.486  1.00  0.00     0.074 A 
ATOM     65  C   UNL A   1      47.005  30.244  29.505  1.00  0.00     0.031 C 
ATOM     66  C   UNL A   1      44.663  31.050  29.664  1.00  0.00     0.037 A 
BRANCH  53  67
ATOM     67  C   UNL A   1      38.757  29.258  29.282  1.00  0.00     0.057 A 
ATOM     68  C   UNL A   1      38.045  29.247  30.487  1.00  0.00     0.134 A 
ATOM     69  C   UNL A   1      38.073  29.668  28.130  1.00  0.00     0.134 A 
ATOM     70  F   UNL A   1      38.637  28.849  31.623  1.00  0.00    -0.206 F 
ATOM     71  C   UNL A   1      36.699  29.619  30.543  1.00  0.00     0.040 A 
ATOM     72  C   UNL A   1      36.733  30.058  28.176  1.00  0.00     0.040 A 
ATOM     73  F   UNL A   1      38.696  29.702  26.944  1.00  0.00    -0.206 F 
ATOM     74  C   UNL A   1      36.042  30.031  29.386  1.00  0.00     0.006 A 
ENDBRANCH  53  67
BRANCH  54  75
ATOM     75  C   UNL A   1      48.295  26.287  28.777  1.00  0.00     0.057 A 
ATOM     76  C   UNL A   1      49.000  26.363  27.574  1.00  0.00     0.134 A 
ATOM     77  C   UNL A   1      48.986  25.836  29.910  1.00  0.00     0.134 A 
ATOM     78  F   UNL A   1      48.385  26.775  26.455  1.00  0.00    -0.206 F 
ATOM     79  C   UNL A   1      50.349  26.011  27.498  1.00  0.00     0.040 A 
ATOM     80  C   UNL A   1      50.338  25.502  29.853  1.00  0.00     0.040 A 
ATOM     81  F   UNL A   1      48.362  25.753  31.094  1.00  0.00    -0.206 F 
ATOM     82  C   UNL A   1      51.023  25.590  28.643  1.00  0.00     0.006 A 
ENDBRANCH  54  75
BRANCH  66  83
ATOM     83  C   UNL A   1      45.216  32.419  29.904  1.00  0.00     0.057 A 
ATOM     84  C   UNL A   1      45.424  33.316  28.849  1.00  0.00     0.134 A 
ATOM     85  C   UNL A   1      45.534  32.846  31.198  1.00  0.00     0.134 A 
ATOM     86  F   UNL A   1      45.155  32.954  27.586  1.00  0.00    -0.206 F 
ATOM     87  C   UNL A   1      45.946  34.590  29.074  1.00  0.00     0.040 A 
ATOM     88  C   UNL A   1      46.041  34.123  31.436  1.00  0.00     0.040 A 
ATOM     89  F   UNL A   1      45.355  32.030  32.247  1.00  0.00    -0.206 F 
ATOM     90  C   UNL A   1      46.252  34.997  30.372  1.00  0.00     0.006 A 
ENDBRANCH  66  83
ENDBRANCH  40  41
ENDBRANCH  33  35
ENDBRANCH  32  33
ENDBRANCH  31  32
ENDBRANCH   1  31
TORSDOF 17
ENDMDL
