MODEL 1
REMARK VINA RESULT:     -14.4      0.000      0.000
REMARK SMILES O=C(OCCOC(=O)[C@@H]1[C@H](C(=O)Nc2ccccc2Cc2ccccc2)[C@H]2C=C[C@@H]1O2)c1ccc(-c2c3nc(c(-c4c(F)cccc4F)c4ccc([nH]4)c(-c4c(F)cccc4F)c4nc(c(-c5c(F)cccc5F)c5ccc2[nH]5)C=C4)C=C3)cc1
REMARK SMILES IDX 5 1 4 2 3 3 2 4 1 5 32 6 33 7 85 8 34 9 84 10 35 11 36 12
REMARK SMILES IDX 37 13 78 14 38 15 83 16 77 17 79 18 39 19 82 20 76 21 75 22
REMARK SMILES IDX 40 24 66 25 49 26 65 27 50 28 53 29 64 30 80 31 51 32 52 33
REMARK SMILES IDX 63 35 81 36 54 37 41 38 42 39 47 40 43 41 44 42 46 43 48 44
REMARK SMILES IDX 45 45 67 46 68 47 73 48 69 49 70 50 72 51 74 52 71 53 55 54
REMARK SMILES IDX 56 55 61 56 57 57 58 58 60 59 62 60 59 61 6 62 7 63 8 64
REMARK SMILES IDX 9 65 10 66 30 67 27 68 29 69 31 70 28 71 11 72 12 73 13 74
REMARK SMILES IDX 14 76 15 77 19 78 16 79 18 80 17 81 20 82 21 83 22 84 26 85
REMARK SMILES IDX 23 86 25 87 24 88
REMARK H PARENT 79 23 53 34 13 75
REMARK Flexibility Score: inf
ROOT
ATOM      1  C   UNL A   1      31.800  30.821  26.479  1.00  0.00     0.274 C 
ENDROOT
BRANCH   1   2
ATOM      2  C   UNL A   1      31.609  32.225  27.175  1.00  0.00     0.275 C 
BRANCH   2   3
ATOM      3  O   UNL A   1      32.578  33.267  26.956  1.00  0.00    -0.458 OA
BRANCH   3   4
ATOM      4  C   UNL A   1      33.089  33.905  28.041  1.00  0.00     0.338 C 
ATOM      5  O   UNL A   1      32.413  34.673  28.691  1.00  0.00    -0.246 OA
BRANCH   4   6
ATOM      6  C   UNL A   1      34.609  33.336  28.163  1.00  0.00     0.060 A 
ATOM      7  C   UNL A   1      34.499  32.060  29.451  1.00  0.00     0.016 A 
ATOM      8  C   UNL A   1      36.333  34.123  27.957  1.00  0.00     0.016 A 
ATOM      9  C   UNL A   1      35.762  31.513  30.364  1.00  0.00     0.010 A 
ATOM     10  C   UNL A   1      37.618  33.583  29.165  1.00  0.00     0.010 A 
ATOM     11  C   UNL A   1      37.296  32.197  30.205  1.00  0.00    -0.014 A 
BRANCH  11  12
ATOM     12  C   UNL A   1      38.340  31.238  30.663  1.00  0.00     0.031 A 
ATOM     13  C   UNL A   1      38.656  31.459  32.074  1.00  0.00     0.074 A 
ATOM     14  C   UNL A   1      38.887  30.224  29.930  1.00  0.00     0.049 A 
ATOM     15  N   UNL A   1      39.662  31.041  32.763  1.00  0.00    -0.248 NA
ATOM     16  C   UNL A   1      37.718  32.342  32.789  1.00  0.00     0.031 C 
ATOM     17  C   UNL A   1      38.482  29.728  28.606  1.00  0.00     0.029 A 
ATOM     18  N   UNL A   1      39.979  29.421  30.177  1.00  0.00    -0.354 N 
ATOM     19  C   UNL A   1      39.479  31.645  33.988  1.00  0.00     0.074 A 
ATOM     20  C   UNL A   1      38.410  32.602  33.875  1.00  0.00     0.031 C 
ATOM     21  C   UNL A   1      39.404  28.910  28.078  1.00  0.00     0.029 A 
ATOM     22  C   UNL A   1      40.411  28.685  29.081  1.00  0.00     0.049 A 
ATOM     23  H   UNL A   1      40.417  29.373  31.057  1.00  0.00     0.167 HD
ATOM     24  C   UNL A   1      40.090  31.327  35.139  1.00  0.00     0.037 A 
ATOM     25  C   UNL A   1      41.486  27.891  28.915  1.00  0.00     0.037 A 
ATOM     26  C   UNL A   1      41.125  30.345  35.169  1.00  0.00     0.049 A 
ATOM     27  C   UNL A   1      42.294  27.674  30.157  1.00  0.00     0.074 A 
ATOM     28  C   UNL A   1      41.910  29.950  36.224  1.00  0.00     0.029 A 
ATOM     29  N   UNL A   1      41.524  29.611  34.051  1.00  0.00    -0.354 N 
ATOM     30  N   UNL A   1      42.127  28.241  31.331  1.00  0.00    -0.248 NA
ATOM     31  C   UNL A   1      43.383  26.700  30.097  1.00  0.00     0.031 C 
ATOM     32  C   UNL A   1      42.853  29.052  35.718  1.00  0.00     0.029 A 
ATOM     33  C   UNL A   1      42.587  28.802  34.374  1.00  0.00     0.049 A 
ATOM     34  H   UNL A   1      41.105  29.667  33.161  1.00  0.00     0.167 HD
ATOM     35  C   UNL A   1      43.051  27.659  32.172  1.00  0.00     0.074 A 
ATOM     36  C   UNL A   1      43.792  26.704  31.361  1.00  0.00     0.031 C 
ATOM     37  C   UNL A   1      43.261  27.873  33.494  1.00  0.00     0.037 A 
BRANCH  24  38
ATOM     38  C   UNL A   1      39.662  32.132  36.320  1.00  0.00     0.057 A 
ATOM     39  C   UNL A   1      38.455  31.879  37.001  1.00  0.00     0.134 A 
ATOM     40  C   UNL A   1      40.331  33.324  36.606  1.00  0.00     0.134 A 
ATOM     41  F   UNL A   1      37.724  30.790  36.712  1.00  0.00    -0.206 F 
ATOM     42  C   UNL A   1      37.894  32.826  37.858  1.00  0.00     0.040 A 
ATOM     43  C   UNL A   1      39.801  34.254  37.499  1.00  0.00     0.040 A 
ATOM     44  F   UNL A   1      41.463  33.640  35.962  1.00  0.00    -0.206 F 
ATOM     45  C   UNL A   1      38.569  34.019  38.107  1.00  0.00     0.006 A 
ENDBRANCH  24  38
BRANCH  25  46
ATOM     46  C   UNL A   1      41.792  27.221  27.612  1.00  0.00     0.057 A 
ATOM     47  C   UNL A   1      41.435  25.890  27.354  1.00  0.00     0.134 A 
ATOM     48  C   UNL A   1      42.435  27.905  26.568  1.00  0.00     0.134 A 
ATOM     49  F   UNL A   1      40.818  25.164  28.298  1.00  0.00    -0.206 F 
ATOM     50  C   UNL A   1      41.718  25.264  26.132  1.00  0.00     0.040 A 
ATOM     51  C   UNL A   1      42.711  27.297  25.334  1.00  0.00     0.040 A 
ATOM     52  F   UNL A   1      42.797  29.187  26.722  1.00  0.00    -0.206 F 
ATOM     53  C   UNL A   1      42.357  25.969  25.115  1.00  0.00     0.006 A 
ENDBRANCH  25  46
BRANCH  37  54
ATOM     54  C   UNL A   1      44.302  27.031  34.146  1.00  0.00     0.057 A 
ATOM     55  C   UNL A   1      44.011  25.751  34.623  1.00  0.00     0.134 A 
ATOM     56  C   UNL A   1      45.636  27.453  34.128  1.00  0.00     0.134 A 
ATOM     57  F   UNL A   1      42.745  25.308  34.667  1.00  0.00    -0.206 F 
ATOM     58  C   UNL A   1      45.026  24.904  35.055  1.00  0.00     0.040 A 
ATOM     59  C   UNL A   1      46.661  26.600  34.517  1.00  0.00     0.040 A 
ATOM     60  F   UNL A   1      45.961  28.668  33.663  1.00  0.00    -0.206 F 
ATOM     61  C   UNL A   1      46.357  25.322  34.980  1.00  0.00     0.006 A 
ENDBRANCH  37  54
ENDBRANCH  11  12
ENDBRANCH   4   6
ENDBRANCH   3   4
ENDBRANCH   2   3
ENDBRANCH   1   2
BRANCH   1  62
ATOM     62  O   UNL A   1      32.358  29.669  27.285  1.00  0.00    -0.462 OA
BRANCH  62  63
ATOM     63  C   UNL A   1      31.788  28.458  26.971  1.00  0.00     0.312 C 
ATOM     64  O   UNL A   1      31.358  27.867  27.942  1.00  0.00    -0.252 OA
BRANCH  63  65
ATOM     65  C   UNL A   1      31.383  28.093  25.382  1.00  0.00     0.147 C 
ATOM     66  C   UNL A   1      30.621  26.520  25.031  1.00  0.00     0.129 C 
ATOM     67  C   UNL A   1      32.365  28.213  24.040  1.00  0.00     0.157 C 
ATOM     68  C   UNL A   1      31.459  26.379  23.386  1.00  0.00     0.155 C 
ATOM     69  C   UNL A   1      31.695  28.490  22.725  1.00  0.00     0.004 C 
ATOM     70  O   UNL A   1      32.752  26.867  23.724  1.00  0.00    -0.365 OA
ATOM     71  C   UNL A   1      31.113  27.356  22.339  1.00  0.00     0.004 C 
BRANCH  66  72
ATOM     72  C   UNL A   1      30.165  24.742  26.263  1.00  0.00     0.231 C 
ATOM     73  O   UNL A   1      29.266  24.446  27.080  1.00  0.00    -0.274 OA
ATOM     74  N   UNL A   1      31.249  23.378  26.244  1.00  0.00    -0.325 N 
ATOM     75  H   UNL A   1      30.970  22.668  26.866  1.00  0.00     0.169 HD
BRANCH  74  76
ATOM     76  C   UNL A   1      32.682  22.978  25.403  1.00  0.00     0.044 A 
ATOM     77  C   UNL A   1      33.598  23.986  25.746  1.00  0.00     0.026 A 
ATOM     78  C   UNL A   1      33.255  21.738  24.533  1.00  0.00    -0.020 A 
ATOM     79  C   UNL A   1      34.967  23.819  25.534  1.00  0.00     0.002 A 
ATOM     80  C   UNL A   1      34.657  21.679  24.404  1.00  0.00     0.006 A 
ATOM     81  C   UNL A   1      35.484  22.673  24.928  1.00  0.00     0.000 A 
BRANCH  78  82
ATOM     82  C   UNL A   1      32.683  20.255  23.893  1.00  0.00     0.073 C 
BRANCH  82  83
ATOM     83  C   UNL A   1      32.835  18.644  24.215  1.00  0.00    -0.044 A 
ATOM     84  C   UNL A   1      33.316  17.690  23.226  1.00  0.00     0.004 A 
ATOM     85  C   UNL A   1      32.568  17.992  25.398  1.00  0.00     0.004 A 
ATOM     86  C   UNL A   1      33.984  16.477  23.484  1.00  0.00     0.000 A 
ATOM     87  C   UNL A   1      33.102  16.680  25.648  1.00  0.00     0.000 A 
ATOM     88  C   UNL A   1      33.929  15.994  24.751  1.00  0.00     0.000 A 
ENDBRANCH  82  83
ENDBRANCH  78  82
ENDBRANCH  74  76
ENDBRANCH  66  72
ENDBRANCH  63  65
ENDBRANCH  62  63
ENDBRANCH   1  62
TORSDOF 15
ENDMDL
MODEL 2
REMARK VINA RESULT:     -14.1      3.310      8.125
REMARK SMILES O=C(OCCOC(=O)[C@@H]1[C@H](C(=O)Nc2ccccc2Cc2ccccc2)[C@H]2C=C[C@@H]1O2)c1ccc(-c2c3nc(c(-c4c(F)cccc4F)c4ccc([nH]4)c(-c4c(F)cccc4F)c4nc(c(-c5c(F)cccc5F)c5ccc2[nH]5)C=C4)C=C3)cc1
REMARK SMILES IDX 5 1 4 2 3 3 2 4 1 5 32 6 33 7 85 8 34 9 84 10 35 11 36 12
REMARK SMILES IDX 37 13 78 14 38 15 83 16 77 17 79 18 39 19 82 20 76 21 75 22
REMARK SMILES IDX 40 24 66 25 49 26 65 27 50 28 53 29 64 30 80 31 51 32 52 33
REMARK SMILES IDX 63 35 81 36 54 37 41 38 42 39 47 40 43 41 44 42 46 43 48 44
REMARK SMILES IDX 45 45 67 46 68 47 73 48 69 49 70 50 72 51 74 52 71 53 55 54
REMARK SMILES IDX 56 55 61 56 57 57 58 58 60 59 62 60 59 61 6 62 7 63 8 64
REMARK SMILES IDX 9 65 10 66 30 67 27 68 29 69 31 70 28 71 11 72 12 73 13 74
REMARK SMILES IDX 14 76 15 77 19 78 16 79 18 80 17 81 20 82 21 83 22 84 26 85
REMARK SMILES IDX 23 86 25 87 24 88
REMARK H PARENT 79 23 53 34 13 75
REMARK Flexibility Score: inf
ROOT
ATOM      1  C   UNL A   1      35.577  23.832  24.843  1.00  0.00     0.274 C 
ENDROOT
BRANCH   1   2
ATOM      2  C   UNL A   1      36.772  23.048  25.514  1.00  0.00     0.275 C 
BRANCH   2   3
ATOM      3  O   UNL A   1      38.104  23.590  25.454  1.00  0.00    -0.458 OA
BRANCH   3   4
ATOM      4  C   UNL A   1      39.069  23.002  26.208  1.00  0.00     0.338 C 
ATOM      5  O   UNL A   1      39.117  21.798  26.336  1.00  0.00    -0.246 OA
BRANCH   4   6
ATOM      6  C   UNL A   1      39.987  24.244  26.725  1.00  0.00     0.060 A 
ATOM      7  C   UNL A   1      39.251  24.699  28.322  1.00  0.00     0.016 A 
ATOM      8  C   UNL A   1      40.924  25.648  25.842  1.00  0.00     0.016 A 
ATOM      9  C   UNL A   1      39.401  26.170  29.057  1.00  0.00     0.010 A 
ATOM     10  C   UNL A   1      40.855  27.303  26.654  1.00  0.00     0.010 A 
ATOM     11  C   UNL A   1      40.220  27.432  28.293  1.00  0.00    -0.014 A 
BRANCH  11  12
ATOM     12  C   UNL A   1      40.705  28.417  29.301  1.00  0.00     0.031 A 
ATOM     13  C   UNL A   1      39.710  29.467  29.513  1.00  0.00     0.074 A 
ATOM     14  C   UNL A   1      41.868  28.342  30.013  1.00  0.00     0.049 A 
ATOM     15  N   UNL A   1      39.842  30.618  30.079  1.00  0.00    -0.248 NA
ATOM     16  C   UNL A   1      38.383  29.190  28.936  1.00  0.00     0.031 C 
ATOM     17  C   UNL A   1      42.824  27.226  30.093  1.00  0.00     0.029 A 
ATOM     18  N   UNL A   1      42.502  29.274  30.804  1.00  0.00    -0.354 N 
ATOM     19  C   UNL A   1      38.610  31.205  29.892  1.00  0.00     0.074 A 
ATOM     20  C   UNL A   1      37.840  30.385  28.994  1.00  0.00     0.031 C 
ATOM     21  C   UNL A   1      43.977  27.599  30.665  1.00  0.00     0.029 A 
ATOM     22  C   UNL A   1      43.808  28.945  31.145  1.00  0.00     0.049 A 
ATOM     23  H   UNL A   1      42.067  30.104  31.102  1.00  0.00     0.167 HD
ATOM     24  C   UNL A   1      38.133  32.289  30.523  1.00  0.00     0.037 A 
ATOM     25  C   UNL A   1      44.756  29.644  31.801  1.00  0.00     0.037 A 
ATOM     26  C   UNL A   1      38.956  33.033  31.420  1.00  0.00     0.049 A 
ATOM     27  C   UNL A   1      44.287  30.953  32.355  1.00  0.00     0.074 A 
ATOM     28  C   UNL A   1      38.672  34.199  32.086  1.00  0.00     0.029 A 
ATOM     29  N   UNL A   1      40.260  32.665  31.753  1.00  0.00    -0.354 N 
ATOM     30  N   UNL A   1      43.113  31.521  32.187  1.00  0.00    -0.248 NA
ATOM     31  C   UNL A   1      45.208  31.696  33.214  1.00  0.00     0.031 C 
ATOM     32  C   UNL A   1      39.842  34.591  32.741  1.00  0.00     0.029 A 
ATOM     33  C   UNL A   1      40.821  33.614  32.575  1.00  0.00     0.049 A 
ATOM     34  H   UNL A   1      40.713  31.847  31.444  1.00  0.00     0.167 HD
ATOM     35  C   UNL A   1      43.127  32.664  32.960  1.00  0.00     0.074 A 
ATOM     36  C   UNL A   1      44.441  32.715  33.583  1.00  0.00     0.031 C 
ATOM     37  C   UNL A   1      42.145  33.577  33.155  1.00  0.00     0.037 A 
BRANCH  24  38
ATOM     38  C   UNL A   1      36.742  32.676  30.142  1.00  0.00     0.057 A 
ATOM     39  C   UNL A   1      36.474  33.521  29.048  1.00  0.00     0.134 A 
ATOM     40  C   UNL A   1      35.699  32.413  31.032  1.00  0.00     0.134 A 
ATOM     41  F   UNL A   1      37.455  33.875  28.203  1.00  0.00    -0.206 F 
ATOM     42  C   UNL A   1      35.238  34.154  28.907  1.00  0.00     0.040 A 
ATOM     43  C   UNL A   1      34.446  33.003  30.871  1.00  0.00     0.040 A 
ATOM     44  F   UNL A   1      35.903  31.649  32.114  1.00  0.00    -0.206 F 
ATOM     45  C   UNL A   1      34.221  33.896  29.824  1.00  0.00     0.006 A 
ENDBRANCH  24  38
BRANCH  25  46
ATOM     46  C   UNL A   1      46.136  29.108  32.022  1.00  0.00     0.057 A 
ATOM     47  C   UNL A   1      47.190  29.371  31.136  1.00  0.00     0.134 A 
ATOM     48  C   UNL A   1      46.450  28.331  33.149  1.00  0.00     0.134 A 
ATOM     49  F   UNL A   1      46.977  30.105  30.035  1.00  0.00    -0.206 F 
ATOM     50  C   UNL A   1      48.484  28.873  31.346  1.00  0.00     0.040 A 
ATOM     51  C   UNL A   1      47.742  27.839  33.380  1.00  0.00     0.040 A 
ATOM     52  F   UNL A   1      45.505  28.045  34.056  1.00  0.00    -0.206 F 
ATOM     53  C   UNL A   1      48.765  28.104  32.473  1.00  0.00     0.006 A 
ENDBRANCH  25  46
BRANCH  37  54
ATOM     54  C   UNL A   1      42.445  34.678  34.112  1.00  0.00     0.057 A 
ATOM     55  C   UNL A   1      42.887  35.928  33.670  1.00  0.00     0.134 A 
ATOM     56  C   UNL A   1      42.114  34.522  35.463  1.00  0.00     0.134 A 
ATOM     57  F   UNL A   1      43.224  36.119  32.386  1.00  0.00    -0.206 F 
ATOM     58  C   UNL A   1      42.981  37.001  34.550  1.00  0.00     0.040 A 
ATOM     59  C   UNL A   1      42.163  35.598  36.340  1.00  0.00     0.040 A 
ATOM     60  F   UNL A   1      41.669  33.344  35.925  1.00  0.00    -0.206 F 
ATOM     61  C   UNL A   1      42.596  36.842  35.882  1.00  0.00     0.006 A 
ENDBRANCH  37  54
ENDBRANCH  11  12
ENDBRANCH   4   6
ENDBRANCH   3   4
ENDBRANCH   2   3
ENDBRANCH   1   2
BRANCH   1  62
ATOM     62  O   UNL A   1      34.840  23.200  23.683  1.00  0.00    -0.462 OA
BRANCH  62  63
ATOM     63  C   UNL A   1      33.711  22.514  24.065  1.00  0.00     0.312 C 
ATOM     64  O   UNL A   1      33.900  21.321  24.200  1.00  0.00    -0.252 OA
BRANCH  63  65
ATOM     65  C   UNL A   1      32.377  23.337  24.671  1.00  0.00     0.147 C 
ATOM     66  C   UNL A   1      32.132  25.038  24.193  1.00  0.00     0.129 C 
ATOM     67  C   UNL A   1      31.896  23.441  26.263  1.00  0.00     0.157 C 
ATOM     68  C   UNL A   1      31.413  25.489  25.839  1.00  0.00     0.155 C 
ATOM     69  C   UNL A   1      30.427  23.616  26.522  1.00  0.00     0.004 C 
ATOM     70  O   UNL A   1      32.277  24.754  26.698  1.00  0.00    -0.365 OA
ATOM     71  C   UNL A   1      30.130  24.882  26.232  1.00  0.00     0.004 C 
BRANCH  66  72
ATOM     72  C   UNL A   1      33.325  26.473  23.009  1.00  0.00     0.231 C 
ATOM     73  O   UNL A   1      33.838  26.459  21.869  1.00  0.00    -0.274 OA
ATOM     74  N   UNL A   1      33.788  27.999  23.713  1.00  0.00    -0.325 N 
ATOM     75  H   UNL A   1      34.356  28.531  23.112  1.00  0.00     0.169 HD
BRANCH  74  76
ATOM     76  C   UNL A   1      33.491  28.789  25.199  1.00  0.00     0.044 A 
ATOM     77  C   UNL A   1      34.566  28.424  26.026  1.00  0.00     0.026 A 
ATOM     78  C   UNL A   1      32.470  29.903  25.781  1.00  0.00    -0.020 A 
ATOM     79  C   UNL A   1      34.857  29.137  27.189  1.00  0.00     0.002 A 
ATOM     80  C   UNL A   1      32.888  30.559  26.956  1.00  0.00     0.006 A 
ATOM     81  C   UNL A   1      34.068  30.209  27.611  1.00  0.00     0.000 A 
BRANCH  78  82
ATOM     82  C   UNL A   1      31.082  30.760  25.257  1.00  0.00     0.073 C 
BRANCH  82  83
ATOM     83  C   UNL A   1      29.891  30.585  24.129  1.00  0.00    -0.044 A 
ATOM     84  C   UNL A   1      29.754  29.385  23.315  1.00  0.00     0.004 A 
ATOM     85  C   UNL A   1      28.893  31.479  23.810  1.00  0.00     0.004 A 
ATOM     86  C   UNL A   1      28.564  28.883  22.754  1.00  0.00     0.000 A 
ATOM     87  C   UNL A   1      27.721  31.045  23.098  1.00  0.00     0.000 A 
ATOM     88  C   UNL A   1      27.497  29.720  22.705  1.00  0.00     0.000 A 
ENDBRANCH  82  83
ENDBRANCH  78  82
ENDBRANCH  74  76
ENDBRANCH  66  72
ENDBRANCH  63  65
ENDBRANCH  62  63
ENDBRANCH   1  62
TORSDOF 15
ENDMDL
MODEL 3
REMARK VINA RESULT:     -14.0      5.853     11.909
REMARK SMILES O=C(OCCOC(=O)[C@@H]1[C@H](C(=O)Nc2ccccc2Cc2ccccc2)[C@H]2C=C[C@@H]1O2)c1ccc(-c2c3nc(c(-c4c(F)cccc4F)c4ccc([nH]4)c(-c4c(F)cccc4F)c4nc(c(-c5c(F)cccc5F)c5ccc2[nH]5)C=C4)C=C3)cc1
REMARK SMILES IDX 5 1 4 2 3 3 2 4 1 5 32 6 33 7 85 8 34 9 84 10 35 11 36 12
REMARK SMILES IDX 37 13 78 14 38 15 83 16 77 17 79 18 39 19 82 20 76 21 75 22
REMARK SMILES IDX 40 24 66 25 49 26 65 27 50 28 53 29 64 30 80 31 51 32 52 33
REMARK SMILES IDX 63 35 81 36 54 37 41 38 42 39 47 40 43 41 44 42 46 43 48 44
REMARK SMILES IDX 45 45 67 46 68 47 73 48 69 49 70 50 72 51 74 52 71 53 55 54
REMARK SMILES IDX 56 55 61 56 57 57 58 58 60 59 62 60 59 61 6 62 7 63 8 64
REMARK SMILES IDX 9 65 10 66 30 67 27 68 29 69 31 70 28 71 11 72 12 73 13 74
REMARK SMILES IDX 14 76 15 77 19 78 16 79 18 80 17 81 20 82 21 83 22 84 26 85
REMARK SMILES IDX 23 86 25 87 24 88
REMARK H PARENT 79 23 53 34 13 75
REMARK Flexibility Score: inf
ROOT
ATOM      1  C   UNL A   1      46.108  23.569  24.636  1.00  0.00     0.274 C 
ENDROOT
BRANCH   1   2
ATOM      2  C   UNL A   1      45.008  22.492  24.282  1.00  0.00     0.275 C 
BRANCH   2   3
ATOM      3  O   UNL A   1      43.621  22.874  24.249  1.00  0.00    -0.458 OA
BRANCH   3   4
ATOM      4  C   UNL A   1      42.876  22.677  25.367  1.00  0.00     0.338 C 
ATOM      5  O   UNL A   1      42.365  21.603  25.599  1.00  0.00    -0.246 OA
BRANCH   4   6
ATOM      6  C   UNL A   1      42.949  24.101  26.155  1.00  0.00     0.060 A 
ATOM      7  C   UNL A   1      41.506  24.069  27.256  1.00  0.00     0.016 A 
ATOM      8  C   UNL A   1      43.557  25.842  25.676  1.00  0.00     0.016 A 
ATOM      9  C   UNL A   1      40.766  25.398  27.899  1.00  0.00     0.010 A 
ATOM     10  C   UNL A   1      42.534  27.252  26.284  1.00  0.00     0.010 A 
ATOM     11  C   UNL A   1      41.280  26.951  27.486  1.00  0.00    -0.014 A 
BRANCH  11  12
ATOM     12  C   UNL A   1      40.890  27.923  28.546  1.00  0.00     0.031 A 
ATOM     13  C   UNL A   1      41.747  27.770  29.722  1.00  0.00     0.074 A 
ATOM     14  C   UNL A   1      39.935  28.893  28.445  1.00  0.00     0.049 A 
ATOM     15  N   UNL A   1      41.578  28.213  30.921  1.00  0.00    -0.248 NA
ATOM     16  C   UNL A   1      42.941  26.933  29.516  1.00  0.00     0.031 C 
ATOM     17  C   UNL A   1      39.190  29.325  27.252  1.00  0.00     0.029 A 
ATOM     18  N   UNL A   1      39.361  29.697  29.405  1.00  0.00    -0.354 N 
ATOM     19  C   UNL A   1      42.641  27.674  31.611  1.00  0.00     0.074 A 
ATOM     20  C   UNL A   1      43.306  26.722  30.760  1.00  0.00     0.031 C 
ATOM     21  C   UNL A   1      38.148  30.106  27.572  1.00  0.00     0.029 A 
ATOM     22  C   UNL A   1      38.223  30.373  28.984  1.00  0.00     0.049 A 
ATOM     23  H   UNL A   1      39.727  29.786  30.314  1.00  0.00     0.167 HD
ATOM     24  C   UNL A   1      43.084  28.044  32.821  1.00  0.00     0.037 A 
ATOM     25  C   UNL A   1      37.351  31.147  29.659  1.00  0.00     0.037 A 
ATOM     26  C   UNL A   1      42.378  29.017  33.591  1.00  0.00     0.049 A 
ATOM     27  C   UNL A   1      37.737  31.419  31.080  1.00  0.00     0.074 A 
ATOM     28  C   UNL A   1      42.630  29.457  34.867  1.00  0.00     0.029 A 
ATOM     29  N   UNL A   1      41.245  29.689  33.130  1.00  0.00    -0.354 N 
ATOM     30  N   UNL A   1      38.751  30.914  31.747  1.00  0.00    -0.248 NA
ATOM     31  C   UNL A   1      36.928  32.379  31.831  1.00  0.00     0.031 C 
ATOM     32  C   UNL A   1      41.588  30.319  35.215  1.00  0.00     0.029 A 
ATOM     33  C   UNL A   1      40.747  30.504  34.120  1.00  0.00     0.049 A 
ATOM     34  H   UNL A   1      40.859  29.593  32.230  1.00  0.00     0.167 HD
ATOM     35  C   UNL A   1      38.742  31.529  32.981  1.00  0.00     0.074 A 
ATOM     36  C   UNL A   1      37.603  32.435  32.974  1.00  0.00     0.031 C 
ATOM     37  C   UNL A   1      39.601  31.380  34.018  1.00  0.00     0.037 A 
BRANCH  24  38
ATOM     38  C   UNL A   1      44.287  27.304  33.303  1.00  0.00     0.057 A 
ATOM     39  C   UNL A   1      44.188  26.064  33.965  1.00  0.00     0.134 A 
ATOM     40  C   UNL A   1      45.518  27.961  33.337  1.00  0.00     0.134 A 
ATOM     41  F   UNL A   1      43.011  25.421  34.035  1.00  0.00    -0.206 F 
ATOM     42  C   UNL A   1      45.251  25.553  34.710  1.00  0.00     0.040 A 
ATOM     43  C   UNL A   1      46.600  27.434  34.041  1.00  0.00     0.040 A 
ATOM     44  F   UNL A   1      45.664  29.163  32.762  1.00  0.00    -0.206 F 
ATOM     45  C   UNL A   1      46.461  26.242  34.750  1.00  0.00     0.006 A 
ENDBRANCH  24  38
BRANCH  25  46
ATOM     46  C   UNL A   1      36.144  31.748  29.009  1.00  0.00     0.057 A 
ATOM     47  C   UNL A   1      36.045  33.121  28.741  1.00  0.00     0.134 A 
ATOM     48  C   UNL A   1      35.055  30.956  28.610  1.00  0.00     0.134 A 
ATOM     49  F   UNL A   1      37.041  33.948  29.089  1.00  0.00    -0.206 F 
ATOM     50  C   UNL A   1      34.916  33.682  28.128  1.00  0.00     0.040 A 
ATOM     51  C   UNL A   1      33.926  31.501  27.982  1.00  0.00     0.040 A 
ATOM     52  F   UNL A   1      35.073  29.631  28.813  1.00  0.00    -0.206 F 
ATOM     53  C   UNL A   1      33.851  32.871  27.743  1.00  0.00     0.006 A 
ENDBRANCH  25  46
BRANCH  37  54
ATOM     54  C   UNL A   1      39.363  32.245  35.207  1.00  0.00     0.057 A 
ATOM     55  C   UNL A   1      39.825  33.562  35.255  1.00  0.00     0.134 A 
ATOM     56  C   UNL A   1      38.515  31.793  36.225  1.00  0.00     0.134 A 
ATOM     57  F   UNL A   1      40.648  34.034  34.307  1.00  0.00    -0.206 F 
ATOM     58  C   UNL A   1      39.436  34.416  36.283  1.00  0.00     0.040 A 
ATOM     59  C   UNL A   1      38.086  32.649  37.231  1.00  0.00     0.040 A 
ATOM     60  F   UNL A   1      38.035  30.541  36.207  1.00  0.00    -0.206 F 
ATOM     61  C   UNL A   1      38.546  33.965  37.259  1.00  0.00     0.006 A 
ENDBRANCH  37  54
ENDBRANCH  11  12
ENDBRANCH   4   6
ENDBRANCH   3   4
ENDBRANCH   2   3
ENDBRANCH   1   2
BRANCH   1  62
ATOM     62  O   UNL A   1      47.021  23.328  25.817  1.00  0.00    -0.462 OA
BRANCH  62  63
ATOM     63  C   UNL A   1      46.832  24.223  26.844  1.00  0.00     0.312 C 
ATOM     64  O   UNL A   1      45.915  23.917  27.580  1.00  0.00    -0.252 OA
BRANCH  63  65
ATOM     65  C   UNL A   1      48.022  25.346  27.226  1.00  0.00     0.147 C 
ATOM     66  C   UNL A   1      47.877  27.001  26.579  1.00  0.00     0.129 C 
ATOM     67  C   UNL A   1      49.671  25.153  27.082  1.00  0.00     0.157 C 
ATOM     68  C   UNL A   1      49.711  27.189  26.403  1.00  0.00     0.155 C 
ATOM     69  C   UNL A   1      50.536  25.925  28.037  1.00  0.00     0.004 C 
ATOM     70  O   UNL A   1      50.048  25.897  25.914  1.00  0.00    -0.365 OA
ATOM     71  C   UNL A   1      50.534  27.192  27.625  1.00  0.00     0.004 C 
BRANCH  66  72
ATOM     72  C   UNL A   1      46.467  27.970  25.179  1.00  0.00     0.231 C 
ATOM     73  O   UNL A   1      46.230  27.862  23.956  1.00  0.00    -0.274 OA
ATOM     74  N   UNL A   1      45.416  29.237  25.751  1.00  0.00    -0.325 N 
ATOM     75  H   UNL A   1      44.870  29.624  25.030  1.00  0.00     0.169 HD
BRANCH  74  76
ATOM     76  C   UNL A   1      45.110  29.968  27.264  1.00  0.00     0.044 A 
ATOM     77  C   UNL A   1      43.826  30.526  27.146  1.00  0.00     0.026 A 
ATOM     78  C   UNL A   1      45.791  30.015  28.733  1.00  0.00    -0.020 A 
ATOM     79  C   UNL A   1      43.096  30.902  28.273  1.00  0.00     0.002 A 
ATOM     80  C   UNL A   1      44.941  30.401  29.788  1.00  0.00     0.006 A 
ATOM     81  C   UNL A   1      43.621  30.792  29.561  1.00  0.00     0.000 A 
BRANCH  78  82
ATOM     82  C   UNL A   1      47.231  29.476  29.490  1.00  0.00     0.073 C 
BRANCH  82  83
ATOM     83  C   UNL A   1      47.733  28.181  30.381  1.00  0.00    -0.044 A 
ATOM     84  C   UNL A   1      46.991  26.929  30.427  1.00  0.00     0.004 A 
ATOM     85  C   UNL A   1      48.866  28.079  31.156  1.00  0.00     0.004 A 
ATOM     86  C   UNL A   1      47.522  25.646  30.664  1.00  0.00     0.000 A 
ATOM     87  C   UNL A   1      49.365  26.790  31.556  1.00  0.00     0.000 A 
ATOM     88  C   UNL A   1      48.774  25.578  31.183  1.00  0.00     0.000 A 
ENDBRANCH  82  83
ENDBRANCH  78  82
ENDBRANCH  74  76
ENDBRANCH  66  72
ENDBRANCH  63  65
ENDBRANCH  62  63
ENDBRANCH   1  62
TORSDOF 15
ENDMDL
