MODEL 1
REMARK VINA RESULT:     -12.7      0.000      0.000
REMARK SMILES CN1C(=O)C[C@@H](C(=O)OCCOC(=O)c2ccc(-c3c4nc(c(-c5c(F)cccc5F)c5ccc([nH]5)c(-c5c(F)cccc5F)c5nc(c(-c6c(F)cccc6F)c6ccc3[nH]6)C=C5)C=C4)cc2)C12CCN(C(=O)c1ccccc1-n1cccn1)CC2
REMARK SMILES IDX 10 1 9 2 7 3 8 4 6 5 1 6 2 7 3 8 69 9 4 10 5 11 70 12 87 13
REMARK SMILES IDX 71 14 86 15 72 16 73 17 74 18 75 19 76 20 80 21 77 22 79 23
REMARK SMILES IDX 78 24 81 25 82 26 85 27 83 28 84 29 11 30 12 31 13 32 14 33
REMARK SMILES IDX 15 34 16 35 68 36 17 37 67 38 18 39 19 40 20 41 61 42 21 43
REMARK SMILES IDX 66 44 60 45 62 46 22 47 65 48 59 49 58 50 23 52 49 53 32 54
REMARK SMILES IDX 48 55 33 56 36 57 47 58 63 59 34 60 35 61 46 63 64 64 37 65
REMARK SMILES IDX 24 66 25 67 30 68 26 69 27 70 29 71 31 72 28 73 50 74 51 75
REMARK SMILES IDX 56 76 52 77 53 78 55 79 57 80 54 81 38 82 39 83 44 84 40 85
REMARK SMILES IDX 41 86 43 87 45 88 42 89
REMARK H PARENT 62 51 36 62
REMARK Flexibility Score: inf
ROOT
ATOM      1  C   UNL A   1      32.927  30.317  27.250  1.00  0.00     0.274 C 
ENDROOT
BRANCH   1   2
ATOM      2  O   UNL A   1      33.305  28.972  26.886  1.00  0.00    -0.462 OA
BRANCH   2   3
ATOM      3  C   UNL A   1      32.328  28.207  26.355  1.00  0.00     0.311 C 
ATOM      4  O   UNL A   1      31.448  27.661  27.015  1.00  0.00    -0.252 OA
BRANCH   3   5
ATOM      5  C   UNL A   1      32.361  28.069  24.841  1.00  0.00     0.134 C 
ATOM      6  C   UNL A   1      29.033  27.078  23.476  1.00  0.00     0.147 C 
ATOM      7  N   UNL A   1      30.274  27.717  23.865  1.00  0.00    -0.339 N 
ATOM      8  C   UNL A   1      30.409  29.095  23.952  1.00  0.00     0.223 C 
ATOM      9  C   UNL A   1      31.537  27.000  24.077  1.00  0.00     0.060 C 
ATOM     10  O   UNL A   1      29.542  29.931  23.758  1.00  0.00    -0.275 OA
ATOM     11  C   UNL A   1      31.842  29.403  24.286  1.00  0.00     0.118 C 
ATOM     12  C   UNL A   1      31.343  25.624  24.748  1.00  0.00     0.051 C 
ATOM     13  C   UNL A   1      32.197  26.724  22.683  1.00  0.00     0.051 C 
ATOM     14  C   UNL A   1      32.647  24.849  24.861  1.00  0.00     0.122 C 
ATOM     15  C   UNL A   1      33.448  25.841  22.750  1.00  0.00     0.122 C 
ATOM     16  N   UNL A   1      33.229  24.632  23.537  1.00  0.00    -0.338 N 
ATOM     17  C   UNL A   1      33.737  23.421  23.055  1.00  0.00     0.256 C 
ATOM     18  O   UNL A   1      34.365  23.326  22.002  1.00  0.00    -0.269 OA
BRANCH  17  19
ATOM     19  C   UNL A   1      33.564  22.174  23.836  1.00  0.00     0.065 A 
ATOM     20  C   UNL A   1      32.372  21.469  23.595  1.00  0.00     0.016 A 
ATOM     21  C   UNL A   1      34.514  21.645  24.724  1.00  0.00     0.077 A 
ATOM     22  C   UNL A   1      32.155  20.220  24.177  1.00  0.00     0.001 A 
ATOM     23  C   UNL A   1      34.311  20.358  25.257  1.00  0.00     0.029 A 
ATOM     24  C   UNL A   1      33.134  19.656  24.988  1.00  0.00     0.002 A 
BRANCH  21  25
ATOM     25  N   UNL A   1      35.674  22.355  25.124  1.00  0.00    -0.240 N 
ATOM     26  C   UNL A   1      35.812  23.292  26.126  1.00  0.00     0.115 A 
ATOM     27  N   UNL A   1      36.862  22.136  24.497  1.00  0.00    -0.177 NA
ATOM     28  C   UNL A   1      37.111  23.741  26.087  1.00  0.00     0.042 A 
ATOM     29  C   UNL A   1      37.706  23.004  25.054  1.00  0.00     0.135 A 
ENDBRANCH  21  25
ENDBRANCH  17  19
ENDBRANCH   3   5
ENDBRANCH   2   3
ENDBRANCH   1   2
BRANCH   1  30
ATOM     30  C   UNL A   1      34.157  31.118  27.686  1.00  0.00     0.275 C 
BRANCH  30  31
ATOM     31  O   UNL A   1      35.149  30.221  28.222  1.00  0.00    -0.458 OA
BRANCH  31  32
ATOM     32  C   UNL A   1      35.925  30.722  29.212  1.00  0.00     0.338 C 
ATOM     33  O   UNL A   1      35.547  31.373  30.172  1.00  0.00    -0.246 OA
BRANCH  32  34
ATOM     34  C   UNL A   1      37.336  30.305  29.027  1.00  0.00     0.060 A 
ATOM     35  C   UNL A   1      37.842  29.992  27.762  1.00  0.00     0.016 A 
ATOM     36  C   UNL A   1      38.139  30.112  30.152  1.00  0.00     0.016 A 
ATOM     37  C   UNL A   1      39.109  29.430  27.625  1.00  0.00     0.010 A 
ATOM     38  C   UNL A   1      39.449  29.645  30.003  1.00  0.00     0.010 A 
ATOM     39  C   UNL A   1      39.946  29.284  28.739  1.00  0.00    -0.014 A 
BRANCH  39  40
ATOM     40  C   UNL A   1      41.344  28.793  28.588  1.00  0.00     0.031 A 
ATOM     41  C   UNL A   1      42.505  29.746  28.672  1.00  0.00     0.074 A 
ATOM     42  C   UNL A   1      41.574  27.490  28.330  1.00  0.00     0.049 A 
ATOM     43  N   UNL A   1      43.759  29.553  28.345  1.00  0.00    -0.248 NA
ATOM     44  C   UNL A   1      42.218  31.097  29.175  1.00  0.00     0.031 C 
ATOM     45  C   UNL A   1      40.552  26.445  28.244  1.00  0.00     0.029 A 
ATOM     46  N   UNL A   1      42.749  26.822  28.080  1.00  0.00    -0.354 N 
ATOM     47  C   UNL A   1      44.396  30.771  28.548  1.00  0.00     0.074 A 
ATOM     48  C   UNL A   1      43.391  31.697  29.027  1.00  0.00     0.031 C 
ATOM     49  C   UNL A   1      41.143  25.269  27.989  1.00  0.00     0.029 A 
ATOM     50  C   UNL A   1      42.572  25.487  27.807  1.00  0.00     0.049 A 
ATOM     51  H   UNL A   1      43.631  27.257  28.097  1.00  0.00     0.167 HD
ATOM     52  C   UNL A   1      45.700  31.084  28.353  1.00  0.00     0.037 A 
ATOM     53  C   UNL A   1      43.448  24.549  27.405  1.00  0.00     0.037 A 
ATOM     54  C   UNL A   1      46.712  30.147  27.936  1.00  0.00     0.049 A 
ATOM     55  C   UNL A   1      44.881  24.926  27.175  1.00  0.00     0.074 A 
ATOM     56  C   UNL A   1      48.067  30.367  27.747  1.00  0.00     0.029 A 
ATOM     57  N   UNL A   1      46.485  28.807  27.659  1.00  0.00    -0.354 N 
ATOM     58  N   UNL A   1      45.462  26.090  27.325  1.00  0.00    -0.248 NA
ATOM     59  C   UNL A   1      45.776  23.862  26.700  1.00  0.00     0.031 C 
ATOM     60  C   UNL A   1      48.653  29.168  27.327  1.00  0.00     0.029 A 
ATOM     61  C   UNL A   1      47.670  28.192  27.289  1.00  0.00     0.049 A 
ATOM     62  H   UNL A   1      45.610  28.360  27.717  1.00  0.00     0.167 HD
ATOM     63  C   UNL A   1      46.791  25.898  26.974  1.00  0.00     0.074 A 
ATOM     64  C   UNL A   1      46.935  24.501  26.622  1.00  0.00     0.031 C 
ATOM     65  C   UNL A   1      47.800  26.802  26.940  1.00  0.00     0.037 A 
BRANCH  52  66
ATOM     66  C   UNL A   1      46.113  32.511  28.566  1.00  0.00     0.057 A 
ATOM     67  C   UNL A   1      46.067  33.461  27.540  1.00  0.00     0.134 A 
ATOM     68  C   UNL A   1      46.510  32.951  29.838  1.00  0.00     0.134 A 
ATOM     69  F   UNL A   1      45.703  33.104  26.299  1.00  0.00    -0.206 F 
ATOM     70  C   UNL A   1      46.418  34.795  27.765  1.00  0.00     0.040 A 
ATOM     71  C   UNL A   1      46.840  34.285  30.080  1.00  0.00     0.040 A 
ATOM     72  F   UNL A   1      46.568  32.093  30.867  1.00  0.00    -0.206 F 
ATOM     73  C   UNL A   1      46.798  35.211  29.040  1.00  0.00     0.006 A 
ENDBRANCH  52  66
BRANCH  53  74
ATOM     74  C   UNL A   1      42.979  23.163  27.158  1.00  0.00     0.057 A 
ATOM     75  C   UNL A   1      42.722  22.291  28.220  1.00  0.00     0.134 A 
ATOM     76  C   UNL A   1      42.766  22.684  25.859  1.00  0.00     0.134 A 
ATOM     77  F   UNL A   1      42.930  22.688  29.485  1.00  0.00    -0.206 F 
ATOM     78  C   UNL A   1      42.275  20.987  28.002  1.00  0.00     0.040 A 
ATOM     79  C   UNL A   1      42.295  21.391  25.627  1.00  0.00     0.040 A 
ATOM     80  F   UNL A   1      42.991  23.474  24.800  1.00  0.00    -0.206 F 
ATOM     81  C   UNL A   1      42.053  20.537  26.701  1.00  0.00     0.006 A 
ENDBRANCH  53  74
BRANCH  65  82
ATOM     82  C   UNL A   1      49.151  26.295  26.533  1.00  0.00     0.057 A 
ATOM     83  C   UNL A   1      49.624  26.437  25.223  1.00  0.00     0.134 A 
ATOM     84  C   UNL A   1      49.989  25.670  27.464  1.00  0.00     0.134 A 
ATOM     85  F   UNL A   1      48.861  27.011  24.282  1.00  0.00    -0.206 F 
ATOM     86  C   UNL A   1      50.879  25.953  24.847  1.00  0.00     0.040 A 
ATOM     87  C   UNL A   1      51.255  25.202  27.105  1.00  0.00     0.040 A 
ATOM     88  F   UNL A   1      49.595  25.507  28.735  1.00  0.00    -0.206 F 
ATOM     89  C   UNL A   1      51.700  25.337  25.791  1.00  0.00     0.006 A 
ENDBRANCH  65  82
ENDBRANCH  39  40
ENDBRANCH  32  34
ENDBRANCH  31  32
ENDBRANCH  30  31
ENDBRANCH   1  30
TORSDOF 13
ENDMDL
MODEL 2
REMARK VINA RESULT:     -12.6      5.125     10.068
REMARK SMILES CN1C(=O)C[C@@H](C(=O)OCCOC(=O)c2ccc(-c3c4nc(c(-c5c(F)cccc5F)c5ccc([nH]5)c(-c5c(F)cccc5F)c5nc(c(-c6c(F)cccc6F)c6ccc3[nH]6)C=C5)C=C4)cc2)C12CCN(C(=O)c1ccccc1-n1cccn1)CC2
REMARK SMILES IDX 10 1 9 2 7 3 8 4 6 5 1 6 2 7 3 8 69 9 4 10 5 11 70 12 87 13
REMARK SMILES IDX 71 14 86 15 72 16 73 17 74 18 75 19 76 20 80 21 77 22 79 23
REMARK SMILES IDX 78 24 81 25 82 26 85 27 83 28 84 29 11 30 12 31 13 32 14 33
REMARK SMILES IDX 15 34 16 35 68 36 17 37 67 38 18 39 19 40 20 41 61 42 21 43
REMARK SMILES IDX 66 44 60 45 62 46 22 47 65 48 59 49 58 50 23 52 49 53 32 54
REMARK SMILES IDX 48 55 33 56 36 57 47 58 63 59 34 60 35 61 46 63 64 64 37 65
REMARK SMILES IDX 24 66 25 67 30 68 26 69 27 70 29 71 31 72 28 73 50 74 51 75
REMARK SMILES IDX 56 76 52 77 53 78 55 79 57 80 54 81 38 82 39 83 44 84 40 85
REMARK SMILES IDX 41 86 43 87 45 88 42 89
REMARK H PARENT 62 51 36 62
REMARK Flexibility Score: inf
ROOT
ATOM      1  C   UNL A   1      37.888  22.026  25.602  1.00  0.00     0.274 C 
ENDROOT
BRANCH   1   2
ATOM      2  O   UNL A   1      36.836  23.012  25.684  1.00  0.00    -0.462 OA
BRANCH   2   3
ATOM      3  C   UNL A   1      35.788  22.827  24.855  1.00  0.00     0.311 C 
ATOM      4  O   UNL A   1      35.837  22.988  23.638  1.00  0.00    -0.252 OA
BRANCH   3   5
ATOM      5  C   UNL A   1      34.501  22.373  25.525  1.00  0.00     0.134 C 
ATOM      6  C   UNL A   1      32.175  20.763  23.093  1.00  0.00     0.147 C 
ATOM      7  N   UNL A   1      33.096  21.117  24.154  1.00  0.00    -0.339 N 
ATOM      8  C   UNL A   1      33.965  20.199  24.724  1.00  0.00     0.223 C 
ATOM      9  C   UNL A   1      33.121  22.425  24.819  1.00  0.00     0.060 C 
ATOM     10  O   UNL A   1      34.102  19.027  24.414  1.00  0.00    -0.275 OA
ATOM     11  C   UNL A   1      34.697  20.883  25.845  1.00  0.00     0.118 C 
ATOM     12  C   UNL A   1      32.850  23.598  23.853  1.00  0.00     0.051 C 
ATOM     13  C   UNL A   1      31.981  22.462  25.893  1.00  0.00     0.051 C 
ATOM     14  C   UNL A   1      32.771  24.933  24.577  1.00  0.00     0.122 C 
ATOM     15  C   UNL A   1      31.794  23.832  26.555  1.00  0.00     0.122 C 
ATOM     16  N   UNL A   1      31.705  24.911  25.577  1.00  0.00    -0.338 N 
ATOM     17  C   UNL A   1      30.742  25.908  25.769  1.00  0.00     0.256 C 
ATOM     18  O   UNL A   1      29.970  25.923  26.726  1.00  0.00    -0.269 OA
BRANCH  17  19
ATOM     19  C   UNL A   1      30.636  27.038  24.816  1.00  0.00     0.065 A 
ATOM     20  C   UNL A   1      29.719  26.860  23.766  1.00  0.00     0.016 A 
ATOM     21  C   UNL A   1      31.327  28.254  24.934  1.00  0.00     0.077 A 
ATOM     22  C   UNL A   1      29.442  27.902  22.880  1.00  0.00     0.001 A 
ATOM     23  C   UNL A   1      30.994  29.317  24.074  1.00  0.00     0.029 A 
ATOM     24  C   UNL A   1      30.062  29.136  23.050  1.00  0.00     0.002 A 
BRANCH  21  25
ATOM     25  N   UNL A   1      32.362  28.464  25.880  1.00  0.00    -0.240 N 
ATOM     26  C   UNL A   1      32.264  28.890  27.188  1.00  0.00     0.115 A 
ATOM     27  N   UNL A   1      33.658  28.223  25.542  1.00  0.00    -0.177 NA
ATOM     28  C   UNL A   1      33.545  28.999  27.676  1.00  0.00     0.042 A 
ATOM     29  C   UNL A   1      34.362  28.590  26.613  1.00  0.00     0.135 A 
ENDBRANCH  21  25
ENDBRANCH  17  19
ENDBRANCH   3   5
ENDBRANCH   2   3
ENDBRANCH   1   2
BRANCH   1  30
ATOM     30  C   UNL A   1      39.091  22.459  26.444  1.00  0.00     0.275 C 
BRANCH  30  31
ATOM     31  O   UNL A   1      39.282  23.881  26.315  1.00  0.00    -0.458 OA
BRANCH  31  32
ATOM     32  C   UNL A   1      40.534  24.334  26.557  1.00  0.00     0.338 C 
ATOM     33  O   UNL A   1      41.566  23.918  26.056  1.00  0.00    -0.246 OA
BRANCH  32  34
ATOM     34  C   UNL A   1      40.498  25.494  27.480  1.00  0.00     0.060 A 
ATOM     35  C   UNL A   1      41.423  26.537  27.373  1.00  0.00     0.016 A 
ATOM     36  C   UNL A   1      39.596  25.486  28.544  1.00  0.00     0.016 A 
ATOM     37  C   UNL A   1      41.493  27.525  28.353  1.00  0.00     0.010 A 
ATOM     38  C   UNL A   1      39.599  26.535  29.470  1.00  0.00     0.010 A 
ATOM     39  C   UNL A   1      40.557  27.560  29.395  1.00  0.00    -0.014 A 
BRANCH  39  40
ATOM     40  C   UNL A   1      40.550  28.676  30.381  1.00  0.00     0.031 A 
ATOM     41  C   UNL A   1      41.519  28.689  31.531  1.00  0.00     0.074 A 
ATOM     42  C   UNL A   1      39.639  29.664  30.271  1.00  0.00     0.049 A 
ATOM     43  N   UNL A   1      41.518  29.440  32.605  1.00  0.00    -0.248 NA
ATOM     44  C   UNL A   1      42.624  27.722  31.477  1.00  0.00     0.031 C 
ATOM     45  C   UNL A   1      38.652  29.798  29.197  1.00  0.00     0.029 A 
ATOM     46  N   UNL A   1      39.387  30.742  31.084  1.00  0.00    -0.354 N 
ATOM     47  C   UNL A   1      42.586  28.999  33.377  1.00  0.00     0.074 A 
ATOM     48  C   UNL A   1      43.212  27.915  32.650  1.00  0.00     0.031 C 
ATOM     49  C   UNL A   1      37.924  30.904  29.402  1.00  0.00     0.029 A 
ATOM     50  C   UNL A   1      38.329  31.511  30.663  1.00  0.00     0.049 A 
ATOM     51  H   UNL A   1      39.915  30.945  31.889  1.00  0.00     0.167 HD
ATOM     52  C   UNL A   1      43.004  29.459  34.582  1.00  0.00     0.037 A 
ATOM     53  C   UNL A   1      37.716  32.557  31.245  1.00  0.00     0.037 A 
ATOM     54  C   UNL A   1      42.418  30.578  35.276  1.00  0.00     0.049 A 
ATOM     55  C   UNL A   1      38.183  33.034  32.588  1.00  0.00     0.074 A 
ATOM     56  C   UNL A   1      42.799  31.138  36.485  1.00  0.00     0.029 A 
ATOM     57  N   UNL A   1      41.341  31.320  34.816  1.00  0.00    -0.354 N 
ATOM     58  N   UNL A   1      39.163  32.580  33.330  1.00  0.00    -0.248 NA
ATOM     59  C   UNL A   1      37.445  34.156  33.184  1.00  0.00     0.031 C 
ATOM     60  C   UNL A   1      41.932  32.199  36.771  1.00  0.00     0.029 A 
ATOM     61  C   UNL A   1      41.035  32.323  35.722  1.00  0.00     0.049 A 
ATOM     62  H   UNL A   1      40.863  31.157  33.971  1.00  0.00     0.167 HD
ATOM     63  C   UNL A   1      39.167  33.365  34.473  1.00  0.00     0.074 A 
ATOM     64  C   UNL A   1      38.105  34.337  34.319  1.00  0.00     0.031 C 
ATOM     65  C   UNL A   1      39.975  33.283  35.558  1.00  0.00     0.037 A 
BRANCH  52  66
ATOM     66  C   UNL A   1      44.140  28.740  35.247  1.00  0.00     0.057 A 
ATOM     67  C   UNL A   1      45.477  29.074  35.003  1.00  0.00     0.134 A 
ATOM     68  C   UNL A   1      43.886  27.734  36.190  1.00  0.00     0.134 A 
ATOM     69  F   UNL A   1      45.788  30.023  34.107  1.00  0.00    -0.206 F 
ATOM     70  C   UNL A   1      46.523  28.420  35.660  1.00  0.00     0.040 A 
ATOM     71  C   UNL A   1      44.921  27.090  36.869  1.00  0.00     0.040 A 
ATOM     72  F   UNL A   1      42.627  27.371  36.476  1.00  0.00    -0.206 F 
ATOM     73  C   UNL A   1      46.245  27.430  36.602  1.00  0.00     0.006 A 
ENDBRANCH  52  66
BRANCH  53  74
ATOM     74  C   UNL A   1      36.563  33.203  30.569  1.00  0.00     0.057 A 
ATOM     75  C   UNL A   1      36.757  34.071  29.491  1.00  0.00     0.134 A 
ATOM     76  C   UNL A   1      35.247  32.958  30.978  1.00  0.00     0.134 A 
ATOM     77  F   UNL A   1      37.997  34.361  29.070  1.00  0.00    -0.206 F 
ATOM     78  C   UNL A   1      35.681  34.680  28.843  1.00  0.00     0.040 A 
ATOM     79  C   UNL A   1      34.160  33.539  30.324  1.00  0.00     0.040 A 
ATOM     80  F   UNL A   1      34.998  32.131  32.003  1.00  0.00    -0.206 F 
ATOM     81  C   UNL A   1      34.377  34.407  29.255  1.00  0.00     0.006 A 
ENDBRANCH  53  74
BRANCH  65  82
ATOM     82  C   UNL A   1      39.754  34.290  36.646  1.00  0.00     0.057 A 
ATOM     83  C   UNL A   1      40.304  35.575  36.581  1.00  0.00     0.134 A 
ATOM     84  C   UNL A   1      38.972  33.973  37.764  1.00  0.00     0.134 A 
ATOM     85  F   UNL A   1      41.077  35.933  35.544  1.00  0.00    -0.206 F 
ATOM     86  C   UNL A   1      40.104  36.505  37.604  1.00  0.00     0.040 A 
ATOM     87  C   UNL A   1      38.746  34.902  38.781  1.00  0.00     0.040 A 
ATOM     88  F   UNL A   1      38.414  32.760  37.884  1.00  0.00    -0.206 F 
ATOM     89  C   UNL A   1      39.319  36.170  38.705  1.00  0.00     0.006 A 
ENDBRANCH  65  82
ENDBRANCH  39  40
ENDBRANCH  32  34
ENDBRANCH  31  32
ENDBRANCH  30  31
ENDBRANCH   1  30
TORSDOF 13
ENDMDL
MODEL 3
REMARK VINA RESULT:     -12.6      2.315      7.691
REMARK SMILES CN1C(=O)C[C@@H](C(=O)OCCOC(=O)c2ccc(-c3c4nc(c(-c5c(F)cccc5F)c5ccc([nH]5)c(-c5c(F)cccc5F)c5nc(c(-c6c(F)cccc6F)c6ccc3[nH]6)C=C5)C=C4)cc2)C12CCN(C(=O)c1ccccc1-n1cccn1)CC2
REMARK SMILES IDX 10 1 9 2 7 3 8 4 6 5 1 6 2 7 3 8 69 9 4 10 5 11 70 12 87 13
REMARK SMILES IDX 71 14 86 15 72 16 73 17 74 18 75 19 76 20 80 21 77 22 79 23
REMARK SMILES IDX 78 24 81 25 82 26 85 27 83 28 84 29 11 30 12 31 13 32 14 33
REMARK SMILES IDX 15 34 16 35 68 36 17 37 67 38 18 39 19 40 20 41 61 42 21 43
REMARK SMILES IDX 66 44 60 45 62 46 22 47 65 48 59 49 58 50 23 52 49 53 32 54
REMARK SMILES IDX 48 55 33 56 36 57 47 58 63 59 34 60 35 61 46 63 64 64 37 65
REMARK SMILES IDX 24 66 25 67 30 68 26 69 27 70 29 71 31 72 28 73 50 74 51 75
REMARK SMILES IDX 56 76 52 77 53 78 55 79 57 80 54 81 38 82 39 83 44 84 40 85
REMARK SMILES IDX 41 86 43 87 45 88 42 89
REMARK H PARENT 62 51 36 62
REMARK Flexibility Score: inf
ROOT
ATOM      1  C   UNL A   1      37.797  21.656  25.199  1.00  0.00     0.274 C 
ENDROOT
BRANCH   1   2
ATOM      2  O   UNL A   1      36.551  21.773  24.478  1.00  0.00    -0.462 OA
BRANCH   2   3
ATOM      3  C   UNL A   1      35.726  22.761  24.883  1.00  0.00     0.311 C 
ATOM      4  O   UNL A   1      35.961  23.958  24.733  1.00  0.00    -0.252 OA
BRANCH   3   5
ATOM      5  C   UNL A   1      34.434  22.301  25.538  1.00  0.00     0.134 C 
ATOM      6  C   UNL A   1      32.137  20.692  23.076  1.00  0.00     0.147 C 
ATOM      7  N   UNL A   1      33.047  21.046  24.148  1.00  0.00    -0.339 N 
ATOM      8  C   UNL A   1      33.913  20.128  24.724  1.00  0.00     0.223 C 
ATOM      9  C   UNL A   1      33.061  22.352  24.818  1.00  0.00     0.060 C 
ATOM     10  O   UNL A   1      34.056  18.957  24.412  1.00  0.00    -0.275 OA
ATOM     11  C   UNL A   1      34.631  20.811  25.855  1.00  0.00     0.118 C 
ATOM     12  C   UNL A   1      32.797  23.526  23.853  1.00  0.00     0.051 C 
ATOM     13  C   UNL A   1      31.910  22.382  25.880  1.00  0.00     0.051 C 
ATOM     14  C   UNL A   1      32.706  24.860  24.580  1.00  0.00     0.122 C 
ATOM     15  C   UNL A   1      31.712  23.749  26.544  1.00  0.00     0.122 C 
ATOM     16  N   UNL A   1      31.630  24.831  25.568  1.00  0.00    -0.338 N 
ATOM     17  C   UNL A   1      30.662  25.825  25.753  1.00  0.00     0.256 C 
ATOM     18  O   UNL A   1      29.880  25.834  26.703  1.00  0.00    -0.269 OA
BRANCH  17  19
ATOM     19  C   UNL A   1      30.563  26.957  24.804  1.00  0.00     0.065 A 
ATOM     20  C   UNL A   1      29.639  26.791  23.758  1.00  0.00     0.016 A 
ATOM     21  C   UNL A   1      31.267  28.166  24.920  1.00  0.00     0.077 A 
ATOM     22  C   UNL A   1      29.368  27.837  22.876  1.00  0.00     0.001 A 
ATOM     23  C   UNL A   1      30.941  29.234  24.063  1.00  0.00     0.029 A 
ATOM     24  C   UNL A   1      30.002  29.064  23.044  1.00  0.00     0.002 A 
BRANCH  21  25
ATOM     25  N   UNL A   1      32.309  28.363  25.860  1.00  0.00    -0.240 N 
ATOM     26  C   UNL A   1      32.221  28.764  27.177  1.00  0.00     0.115 A 
ATOM     27  N   UNL A   1      33.604  28.137  25.507  1.00  0.00    -0.177 NA
ATOM     28  C   UNL A   1      33.506  28.870  27.656  1.00  0.00     0.042 A 
ATOM     29  C   UNL A   1      34.315  28.486  26.579  1.00  0.00     0.135 A 
ENDBRANCH  21  25
ENDBRANCH  17  19
ENDBRANCH   3   5
ENDBRANCH   2   3
ENDBRANCH   1   2
BRANCH   1  30
ATOM     30  C   UNL A   1      38.411  20.270  24.981  1.00  0.00     0.275 C 
BRANCH  30  31
ATOM     31  O   UNL A   1      39.093  19.853  26.179  1.00  0.00    -0.458 OA
BRANCH  31  32
ATOM     32  C   UNL A   1      40.442  19.779  26.096  1.00  0.00     0.338 C 
ATOM     33  O   UNL A   1      41.092  18.867  25.613  1.00  0.00    -0.246 OA
BRANCH  32  34
ATOM     34  C   UNL A   1      41.063  21.023  26.613  1.00  0.00     0.060 A 
ATOM     35  C   UNL A   1      41.157  21.272  27.986  1.00  0.00     0.016 A 
ATOM     36  C   UNL A   1      41.457  22.010  25.710  1.00  0.00     0.016 A 
ATOM     37  C   UNL A   1      41.573  22.517  28.453  1.00  0.00     0.010 A 
ATOM     38  C   UNL A   1      41.973  23.222  26.181  1.00  0.00     0.010 A 
ATOM     39  C   UNL A   1      42.024  23.497  27.558  1.00  0.00    -0.014 A 
BRANCH  39  40
ATOM     40  C   UNL A   1      42.581  24.787  28.052  1.00  0.00     0.031 A 
ATOM     41  C   UNL A   1      41.668  25.898  28.492  1.00  0.00     0.074 A 
ATOM     42  C   UNL A   1      43.916  24.982  28.065  1.00  0.00     0.049 A 
ATOM     43  N   UNL A   1      41.951  27.155  28.732  1.00  0.00    -0.248 NA
ATOM     44  C   UNL A   1      40.249  25.558  28.671  1.00  0.00     0.031 C 
ATOM     45  C   UNL A   1      44.925  23.989  27.690  1.00  0.00     0.029 A 
ATOM     46  N   UNL A   1      44.654  26.091  28.399  1.00  0.00    -0.354 N 
ATOM     47  C   UNL A   1      40.739  27.765  29.035  1.00  0.00     0.074 A 
ATOM     48  C   UNL A   1      39.719  26.741  28.948  1.00  0.00     0.031 C 
ATOM     49  C   UNL A   1      46.146  24.523  27.839  1.00  0.00     0.029 A 
ATOM     50  C   UNL A   1      46.007  25.919  28.235  1.00  0.00     0.049 A 
ATOM     51  H   UNL A   1      44.252  26.928  28.724  1.00  0.00     0.167 HD
ATOM     52  C   UNL A   1      40.503  29.060  29.356  1.00  0.00     0.037 A 
ATOM     53  C   UNL A   1      47.024  26.793  28.340  1.00  0.00     0.037 A 
ATOM     54  C   UNL A   1      41.527  30.064  29.503  1.00  0.00     0.049 A 
ATOM     55  C   UNL A   1      46.735  28.225  28.676  1.00  0.00     0.074 A 
ATOM     56  C   UNL A   1      41.384  31.395  29.862  1.00  0.00     0.029 A 
ATOM     57  N   UNL A   1      42.883  29.846  29.317  1.00  0.00    -0.354 N 
ATOM     58  N   UNL A   1      45.582  28.801  28.914  1.00  0.00    -0.248 NA
ATOM     59  C   UNL A   1      47.887  29.135  28.737  1.00  0.00     0.031 C 
ATOM     60  C   UNL A   1      42.651  31.989  29.863  1.00  0.00     0.029 A 
ATOM     61  C   UNL A   1      43.587  31.019  29.540  1.00  0.00     0.049 A 
ATOM     62  H   UNL A   1      43.287  28.985  29.063  1.00  0.00     0.167 HD
ATOM     63  C   UNL A   1      45.869  30.135  29.163  1.00  0.00     0.074 A 
ATOM     64  C   UNL A   1      47.307  30.280  29.068  1.00  0.00     0.031 C 
ATOM     65  C   UNL A   1      45.017  31.150  29.441  1.00  0.00     0.037 A 
BRANCH  52  66
ATOM     66  C   UNL A   1      39.077  29.481  29.552  1.00  0.00     0.057 A 
ATOM     67  C   UNL A   1      38.240  29.801  28.476  1.00  0.00     0.134 A 
ATOM     68  C   UNL A   1      38.517  29.510  30.837  1.00  0.00     0.134 A 
ATOM     69  F   UNL A   1      38.716  29.799  27.222  1.00  0.00    -0.206 F 
ATOM     70  C   UNL A   1      36.903  30.153  28.672  1.00  0.00     0.040 A 
ATOM     71  C   UNL A   1      37.176  29.838  31.043  1.00  0.00     0.040 A 
ATOM     72  F   UNL A   1      39.261  29.207  31.911  1.00  0.00    -0.206 F 
ATOM     73  C   UNL A   1      36.365  30.164  29.959  1.00  0.00     0.006 A 
ENDBRANCH  52  66
BRANCH  53  74
ATOM     74  C   UNL A   1      48.413  26.338  28.087  1.00  0.00     0.057 A 
ATOM     75  C   UNL A   1      49.198  25.816  29.120  1.00  0.00     0.134 A 
ATOM     76  C   UNL A   1      48.982  26.404  26.809  1.00  0.00     0.134 A 
ATOM     77  F   UNL A   1      48.714  25.750  30.369  1.00  0.00    -0.206 F 
ATOM     78  C   UNL A   1      50.504  25.380  28.893  1.00  0.00     0.040 A 
ATOM     79  C   UNL A   1      50.277  25.947  26.563  1.00  0.00     0.040 A 
ATOM     80  F   UNL A   1      48.277  26.890  25.778  1.00  0.00    -0.206 F 
ATOM     81  C   UNL A   1      51.044  25.437  27.609  1.00  0.00     0.006 A 
ENDBRANCH  53  74
BRANCH  65  82
ATOM     82  C   UNL A   1      45.624  32.499  29.685  1.00  0.00     0.057 A 
ATOM     83  C   UNL A   1      46.071  32.884  30.955  1.00  0.00     0.134 A 
ATOM     84  C   UNL A   1      45.776  33.415  28.637  1.00  0.00     0.134 A 
ATOM     85  F   UNL A   1      45.938  32.058  32.002  1.00  0.00    -0.206 F 
ATOM     86  C   UNL A   1      46.626  34.146  31.178  1.00  0.00     0.040 A 
ATOM     87  C   UNL A   1      46.349  34.670  28.844  1.00  0.00     0.040 A 
ATOM     88  F   UNL A   1      45.371  33.104  27.397  1.00  0.00    -0.206 F 
ATOM     89  C   UNL A   1      46.770  35.041  30.120  1.00  0.00     0.006 A 
ENDBRANCH  65  82
ENDBRANCH  39  40
ENDBRANCH  32  34
ENDBRANCH  31  32
ENDBRANCH  30  31
ENDBRANCH   1  30
TORSDOF 13
ENDMDL
