MODEL 1
REMARK VINA RESULT:      -9.0      0.000      0.000
REMARK SMILES C[C@H]([NH2+]CCc1ccccc1)[C@@H](C)C(=O)OCCOC(=O)c1ccc(-c2c3nc(c(-c4c(F)cccc4F)c4ccc([nH]4)c(-c4c(F)cccc4F)c4nc(c(-c5c(F)cccc5F)c5ccc2[nH]5)C=C4)C=C3)cc1
REMARK SMILES IDX 16 1 14 2 15 3 12 4 13 5 2 6 1 7 3 8 4 11 5 12 6 13 7 14
REMARK SMILES IDX 11 15 8 16 10 17 9 18 17 19 18 20 19 21 20 22 21 23 22 24
REMARK SMILES IDX 23 25 75 26 24 27 74 28 25 29 26 30 27 31 68 32 28 33 73 34
REMARK SMILES IDX 67 35 69 36 29 37 72 38 66 39 65 40 30 42 56 43 39 44 55 45
REMARK SMILES IDX 40 46 43 47 54 48 70 49 41 50 42 51 53 53 71 54 44 55 31 56
REMARK SMILES IDX 32 57 37 58 33 59 34 60 36 61 38 62 35 63 57 64 58 65 63 66
REMARK SMILES IDX 59 67 60 68 62 69 64 70 61 71 45 72 46 73 51 74 47 75 48 76
REMARK SMILES IDX 50 77 52 78 49 79
REMARK H PARENT 3 9 3 10 69 41 43 52
REMARK Flexibility Score: inf
ROOT
ATOM      1  O   UNL A   1      32.686  34.740  29.664  1.00  0.00    -0.462 OA
ENDROOT
BRANCH   1   2
ATOM      2  C   UNL A   1      32.968  35.997  30.093  1.00  0.00     0.314 C 
ATOM      3  O   UNL A   1      33.272  36.931  29.357  1.00  0.00    -0.252 OA
BRANCH   2   4
ATOM      4  C   UNL A   1      32.910  36.158  31.601  1.00  0.00     0.154 C 
ATOM      5  C   UNL A   1      33.397  37.578  31.912  1.00  0.00     0.026 C 
BRANCH   4   6
ATOM      6  C   UNL A   1      33.646  35.077  32.433  1.00  0.00     0.193 C 
ATOM      7  C   UNL A   1      34.413  35.676  33.622  1.00  0.00     0.076 C 
BRANCH   6   8
ATOM      8  N   UNL A   1      34.604  34.399  31.538  1.00  0.00    -0.343 N 
ATOM      9  H   UNL A   1      35.465  34.946  31.519  1.00  0.00     0.346 HD
ATOM     10  H   UNL A   1      34.157  34.337  30.622  1.00  0.00     0.346 HD
BRANCH   8  11
ATOM     11  C   UNL A   1      34.934  33.032  31.942  1.00  0.00     0.265 C 
BRANCH  11  12
ATOM     12  C   UNL A   1      36.455  32.784  31.894  1.00  0.00     0.097 C 
BRANCH  12  13
ATOM     13  C   UNL A   1      37.266  33.231  33.096  1.00  0.00    -0.042 A 
ATOM     14  C   UNL A   1      38.305  34.155  32.904  1.00  0.00     0.004 A 
ATOM     15  C   UNL A   1      37.064  32.717  34.384  1.00  0.00     0.004 A 
ATOM     16  C   UNL A   1      39.097  34.577  33.974  1.00  0.00     0.000 A 
ATOM     17  C   UNL A   1      37.851  33.145  35.457  1.00  0.00     0.000 A 
ATOM     18  C   UNL A   1      38.866  34.076  35.252  1.00  0.00     0.000 A 
ENDBRANCH  12  13
ENDBRANCH  11  12
ENDBRANCH   8  11
ENDBRANCH   6   8
ENDBRANCH   4   6
ENDBRANCH   2   4
ENDBRANCH   1   2
BRANCH   1  19
ATOM     19  C   UNL A   1      32.912  34.508  28.257  1.00  0.00     0.274 C 
BRANCH  19  20
ATOM     20  C   UNL A   1      34.304  33.918  28.024  1.00  0.00     0.275 C 
BRANCH  20  21
ATOM     21  O   UNL A   1      34.467  32.729  28.817  1.00  0.00    -0.458 OA
BRANCH  21  22
ATOM     22  C   UNL A   1      34.710  31.589  28.132  1.00  0.00     0.338 C 
ATOM     23  O   UNL A   1      34.029  31.097  27.251  1.00  0.00    -0.246 OA
BRANCH  22  24
ATOM     24  C   UNL A   1      35.951  30.970  28.639  1.00  0.00     0.060 A 
ATOM     25  C   UNL A   1      37.205  31.506  28.335  1.00  0.00     0.016 A 
ATOM     26  C   UNL A   1      35.854  29.799  29.392  1.00  0.00     0.016 A 
ATOM     27  C   UNL A   1      38.366  30.866  28.768  1.00  0.00     0.010 A 
ATOM     28  C   UNL A   1      37.015  29.193  29.878  1.00  0.00     0.010 A 
ATOM     29  C   UNL A   1      38.280  29.717  29.566  1.00  0.00    -0.014 A 
BRANCH  29  30
ATOM     30  C   UNL A   1      39.499  29.067  30.111  1.00  0.00     0.031 A 
ATOM     31  C   UNL A   1      40.165  29.617  31.339  1.00  0.00     0.074 A 
ATOM     32  C   UNL A   1      40.041  28.018  29.463  1.00  0.00     0.049 A 
ATOM     33  N   UNL A   1      41.336  29.325  31.846  1.00  0.00    -0.248 NA
ATOM     34  C   UNL A   1      39.418  30.635  32.093  1.00  0.00     0.031 C 
ATOM     35  C   UNL A   1      39.479  27.372  28.276  1.00  0.00     0.029 A 
ATOM     36  N   UNL A   1      41.203  27.326  29.702  1.00  0.00    -0.354 N 
ATOM     37  C   UNL A   1      41.483  30.147  32.956  1.00  0.00     0.074 A 
ATOM     38  C   UNL A   1      40.283  30.953  33.046  1.00  0.00     0.031 C 
ATOM     39  C   UNL A   1      40.295  26.379  27.890  1.00  0.00     0.029 A 
ATOM     40  C   UNL A   1      41.467  26.363  28.758  1.00  0.00     0.049 A 
ATOM     41  H   UNL A   1      41.788  27.501  30.473  1.00  0.00     0.167 HD
ATOM     42  C   UNL A   1      42.525  30.220  33.817  1.00  0.00     0.037 A 
ATOM     43  C   UNL A   1      42.552  25.587  28.580  1.00  0.00     0.037 A 
ATOM     44  C   UNL A   1      43.705  29.399  33.738  1.00  0.00     0.049 A 
ATOM     45  C   UNL A   1      43.720  25.729  29.513  1.00  0.00     0.074 A 
ATOM     46  C   UNL A   1      44.800  29.376  34.585  1.00  0.00     0.029 A 
ATOM     47  N   UNL A   1      43.944  28.454  32.751  1.00  0.00    -0.354 N 
ATOM     48  N   UNL A   1      43.857  26.521  30.549  1.00  0.00    -0.248 NA
ATOM     49  C   UNL A   1      44.890  24.884  29.240  1.00  0.00     0.031 C 
ATOM     50  C   UNL A   1      45.718  28.443  34.089  1.00  0.00     0.029 A 
ATOM     51  C   UNL A   1      45.178  27.859  32.955  1.00  0.00     0.049 A 
ATOM     52  H   UNL A   1      43.327  28.238  32.015  1.00  0.00     0.167 HD
ATOM     53  C   UNL A   1      45.124  26.267  31.055  1.00  0.00     0.074 A 
ATOM     54  C   UNL A   1      45.707  25.233  30.226  1.00  0.00     0.031 C 
ATOM     55  C   UNL A   1      45.748  26.841  32.112  1.00  0.00     0.037 A 
BRANCH  42  56
ATOM     56  C   UNL A   1      42.448  31.244  34.912  1.00  0.00     0.057 A 
ATOM     57  C   UNL A   1      42.753  32.592  34.688  1.00  0.00     0.134 A 
ATOM     58  C   UNL A   1      42.021  30.879  36.195  1.00  0.00     0.134 A 
ATOM     59  F   UNL A   1      43.180  33.002  33.485  1.00  0.00    -0.206 F 
ATOM     60  C   UNL A   1      42.651  33.540  35.709  1.00  0.00     0.040 A 
ATOM     61  C   UNL A   1      41.896  31.821  37.217  1.00  0.00     0.040 A 
ATOM     62  F   UNL A   1      41.709  29.604  36.473  1.00  0.00    -0.206 F 
ATOM     63  C   UNL A   1      42.216  33.156  36.977  1.00  0.00     0.006 A 
ENDBRANCH  42  56
BRANCH  43  64
ATOM     64  C   UNL A   1      42.599  24.637  27.443  1.00  0.00     0.057 A 
ATOM     65  C   UNL A   1      42.117  23.330  27.576  1.00  0.00     0.134 A 
ATOM     66  C   UNL A   1      43.114  25.014  26.198  1.00  0.00     0.134 A 
ATOM     67  F   UNL A   1      41.635  22.905  28.752  1.00  0.00    -0.206 F 
ATOM     68  C   UNL A   1      42.150  22.430  26.510  1.00  0.00     0.040 A 
ATOM     69  C   UNL A   1      43.132  24.132  25.116  1.00  0.00     0.040 A 
ATOM     70  F   UNL A   1      43.591  26.254  26.009  1.00  0.00    -0.206 F 
ATOM     71  C   UNL A   1      42.653  22.834  25.273  1.00  0.00     0.006 A 
ENDBRANCH  43  64
BRANCH  55  72
ATOM     72  C   UNL A   1      47.129  26.353  32.428  1.00  0.00     0.057 A 
ATOM     73  C   UNL A   1      48.264  26.962  31.883  1.00  0.00     0.134 A 
ATOM     74  C   UNL A   1      47.324  25.278  33.304  1.00  0.00     0.134 A 
ATOM     75  F   UNL A   1      48.141  27.986  31.024  1.00  0.00    -0.206 F 
ATOM     76  C   UNL A   1      49.550  26.507  32.182  1.00  0.00     0.040 A 
ATOM     77  C   UNL A   1      48.605  24.826  33.626  1.00  0.00     0.040 A 
ATOM     78  F   UNL A   1      46.277  24.655  33.863  1.00  0.00    -0.206 F 
ATOM     79  C   UNL A   1      49.721  25.439  33.061  1.00  0.00     0.006 A 
ENDBRANCH  55  72
ENDBRANCH  29  30
ENDBRANCH  22  24
ENDBRANCH  21  22
ENDBRANCH  20  21
ENDBRANCH  19  20
ENDBRANCH   1  19
TORSDOF 16
ENDMDL
MODEL 2
REMARK VINA RESULT:      -8.9      3.674      8.918
REMARK SMILES C[C@H]([NH2+]CCc1ccccc1)[C@@H](C)C(=O)OCCOC(=O)c1ccc(-c2c3nc(c(-c4c(F)cccc4F)c4ccc([nH]4)c(-c4c(F)cccc4F)c4nc(c(-c5c(F)cccc5F)c5ccc2[nH]5)C=C4)C=C3)cc1
REMARK SMILES IDX 16 1 14 2 15 3 12 4 13 5 2 6 1 7 3 8 4 11 5 12 6 13 7 14
REMARK SMILES IDX 11 15 8 16 10 17 9 18 17 19 18 20 19 21 20 22 21 23 22 24
REMARK SMILES IDX 23 25 75 26 24 27 74 28 25 29 26 30 27 31 68 32 28 33 73 34
REMARK SMILES IDX 67 35 69 36 29 37 72 38 66 39 65 40 30 42 56 43 39 44 55 45
REMARK SMILES IDX 40 46 43 47 54 48 70 49 41 50 42 51 53 53 71 54 44 55 31 56
REMARK SMILES IDX 32 57 37 58 33 59 34 60 36 61 38 62 35 63 57 64 58 65 63 66
REMARK SMILES IDX 59 67 60 68 62 69 64 70 61 71 45 72 46 73 51 74 47 75 48 76
REMARK SMILES IDX 50 77 52 78 49 79
REMARK H PARENT 3 9 3 10 69 41 43 52
REMARK Flexibility Score: inf
ROOT
ATOM      1  O   UNL A   1      32.474  30.299  26.966  1.00  0.00    -0.462 OA
ENDROOT
BRANCH   1   2
ATOM      2  C   UNL A   1      32.178  29.006  27.258  1.00  0.00     0.314 C 
ATOM      3  O   UNL A   1      31.182  28.643  27.877  1.00  0.00    -0.252 OA
BRANCH   2   4
ATOM      4  C   UNL A   1      33.221  28.014  26.777  1.00  0.00     0.154 C 
ATOM      5  C   UNL A   1      34.484  28.823  26.460  1.00  0.00     0.026 C 
BRANCH   4   6
ATOM      6  C   UNL A   1      32.796  27.086  25.611  1.00  0.00     0.193 C 
ATOM      7  C   UNL A   1      33.941  26.832  24.618  1.00  0.00     0.076 C 
BRANCH   6   8
ATOM      8  N   UNL A   1      31.683  27.743  24.899  1.00  0.00    -0.343 N 
ATOM      9  H   UNL A   1      31.594  28.695  25.255  1.00  0.00     0.346 HD
ATOM     10  H   UNL A   1      30.849  27.180  25.071  1.00  0.00     0.346 HD
BRANCH   8  11
ATOM     11  C   UNL A   1      31.857  27.808  23.447  1.00  0.00     0.265 C 
BRANCH  11  12
ATOM     12  C   UNL A   1      30.512  27.647  22.712  1.00  0.00     0.097 C 
BRANCH  12  13
ATOM     13  C   UNL A   1      29.463  28.718  22.947  1.00  0.00    -0.042 A 
ATOM     14  C   UNL A   1      29.884  30.022  23.249  1.00  0.00     0.004 A 
ATOM     15  C   UNL A   1      28.087  28.450  22.934  1.00  0.00     0.004 A 
ATOM     16  C   UNL A   1      28.956  31.036  23.499  1.00  0.00     0.000 A 
ATOM     17  C   UNL A   1      27.158  29.466  23.176  1.00  0.00     0.000 A 
ATOM     18  C   UNL A   1      27.593  30.759  23.457  1.00  0.00     0.000 A 
ENDBRANCH  12  13
ENDBRANCH  11  12
ENDBRANCH   8  11
ENDBRANCH   6   8
ENDBRANCH   4   6
ENDBRANCH   2   4
ENDBRANCH   1   2
BRANCH   1  19
ATOM     19  C   UNL A   1      31.390  31.060  26.392  1.00  0.00     0.274 C 
BRANCH  19  20
ATOM     20  C   UNL A   1      31.434  32.511  26.873  1.00  0.00     0.275 C 
BRANCH  20  21
ATOM     21  O   UNL A   1      32.797  32.965  26.922  1.00  0.00    -0.458 OA
BRANCH  21  22
ATOM     22  C   UNL A   1      33.124  33.747  27.976  1.00  0.00     0.338 C 
ATOM     23  O   UNL A   1      32.538  34.738  28.370  1.00  0.00    -0.246 OA
BRANCH  22  24
ATOM     24  C   UNL A   1      34.363  33.237  28.597  1.00  0.00     0.060 A 
ATOM     25  C   UNL A   1      35.540  33.989  28.590  1.00  0.00     0.016 A 
ATOM     26  C   UNL A   1      34.353  31.957  29.153  1.00  0.00     0.016 A 
ATOM     27  C   UNL A   1      36.716  33.459  29.122  1.00  0.00     0.010 A 
ATOM     28  C   UNL A   1      35.514  31.452  29.742  1.00  0.00     0.010 A 
ATOM     29  C   UNL A   1      36.706  32.195  29.727  1.00  0.00    -0.014 A 
BRANCH  29  30
ATOM     30  C   UNL A   1      37.923  31.646  30.378  1.00  0.00     0.031 A 
ATOM     31  C   UNL A   1      38.773  30.635  29.664  1.00  0.00     0.074 A 
ATOM     32  C   UNL A   1      38.228  32.013  31.637  1.00  0.00     0.049 A 
ATOM     33  N   UNL A   1      39.743  29.892  30.132  1.00  0.00    -0.248 NA
ATOM     34  C   UNL A   1      38.488  30.427  28.237  1.00  0.00     0.031 C 
ATOM     35  C   UNL A   1      37.501  33.005  32.431  1.00  0.00     0.029 A 
ATOM     36  N   UNL A   1      39.220  31.574  32.479  1.00  0.00    -0.354 N 
ATOM     37  C   UNL A   1      40.161  29.103  29.069  1.00  0.00     0.074 A 
ATOM     38  C   UNL A   1      39.336  29.454  27.932  1.00  0.00     0.031 C 
ATOM     39  C   UNL A   1      38.069  33.099  33.643  1.00  0.00     0.029 A 
ATOM     40  C   UNL A   1      39.154  32.129  33.735  1.00  0.00     0.049 A 
ATOM     41  H   UNL A   1      39.910  30.927  32.210  1.00  0.00     0.167 HD
ATOM     42  C   UNL A   1      41.144  28.171  29.047  1.00  0.00     0.037 A 
ATOM     43  C   UNL A   1      39.856  31.854  34.850  1.00  0.00     0.037 A 
ATOM     44  C   UNL A   1      41.978  27.842  30.174  1.00  0.00     0.049 A 
ATOM     45  C   UNL A   1      40.899  30.775  34.816  1.00  0.00     0.074 A 
ATOM     46  C   UNL A   1      43.023  26.937  30.240  1.00  0.00     0.029 A 
ATOM     47  N   UNL A   1      41.862  28.410  31.434  1.00  0.00    -0.354 N 
ATOM     48  N   UNL A   1      41.275  30.022  33.811  1.00  0.00    -0.248 NA
ATOM     49  C   UNL A   1      41.600  30.494  36.077  1.00  0.00     0.031 C 
ATOM     50  C   UNL A   1      43.515  26.929  31.550  1.00  0.00     0.029 A 
ATOM     51  C   UNL A   1      42.800  27.857  32.290  1.00  0.00     0.049 A 
ATOM     52  H   UNL A   1      41.209  29.103  31.683  1.00  0.00     0.167 HD
ATOM     53  C   UNL A   1      42.260  29.183  34.314  1.00  0.00     0.074 A 
ATOM     54  C   UNL A   1      42.437  29.533  35.708  1.00  0.00     0.031 C 
ATOM     55  C   UNL A   1      42.954  28.209  33.677  1.00  0.00     0.037 A 
BRANCH  42  56
ATOM     56  C   UNL A   1      41.356  27.418  27.767  1.00  0.00     0.057 A 
ATOM     57  C   UNL A   1      42.168  27.916  26.741  1.00  0.00     0.134 A 
ATOM     58  C   UNL A   1      40.771  26.159  27.578  1.00  0.00     0.134 A 
ATOM     59  F   UNL A   1      42.746  29.121  26.855  1.00  0.00    -0.206 F 
ATOM     60  C   UNL A   1      42.380  27.194  25.564  1.00  0.00     0.040 A 
ATOM     61  C   UNL A   1      40.991  25.420  26.415  1.00  0.00     0.040 A 
ATOM     62  F   UNL A   1      39.986  25.625  28.525  1.00  0.00    -0.206 F 
ATOM     63  C   UNL A   1      41.794  25.939  25.401  1.00  0.00     0.006 A 
ENDBRANCH  42  56
BRANCH  43  64
ATOM     64  C   UNL A   1      39.560  32.586  36.104  1.00  0.00     0.057 A 
ATOM     65  C   UNL A   1      38.568  32.139  36.983  1.00  0.00     0.134 A 
ATOM     66  C   UNL A   1      40.266  33.743  36.458  1.00  0.00     0.134 A 
ATOM     67  F   UNL A   1      37.843  31.052  36.685  1.00  0.00    -0.206 F 
ATOM     68  C   UNL A   1      38.286  32.818  38.170  1.00  0.00     0.040 A 
ATOM     69  C   UNL A   1      40.011  34.418  37.652  1.00  0.00     0.040 A 
ATOM     70  F   UNL A   1      41.229  34.221  35.655  1.00  0.00    -0.206 F 
ATOM     71  C   UNL A   1      39.015  33.957  38.510  1.00  0.00     0.006 A 
ENDBRANCH  43  64
BRANCH  55  72
ATOM     72  C   UNL A   1      43.970  27.462  34.487  1.00  0.00     0.057 A 
ATOM     73  C   UNL A   1      45.273  27.944  34.652  1.00  0.00     0.134 A 
ATOM     74  C   UNL A   1      43.634  26.262  35.125  1.00  0.00     0.134 A 
ATOM     75  F   UNL A   1      45.659  29.081  34.052  1.00  0.00    -0.206 F 
ATOM     76  C   UNL A   1      46.216  27.247  35.410  1.00  0.00     0.040 A 
ATOM     77  C   UNL A   1      44.562  25.567  35.901  1.00  0.00     0.040 A 
ATOM     78  F   UNL A   1      42.399  25.750  35.009  1.00  0.00    -0.206 F 
ATOM     79  C   UNL A   1      45.858  26.057  36.041  1.00  0.00     0.006 A 
ENDBRANCH  55  72
ENDBRANCH  29  30
ENDBRANCH  22  24
ENDBRANCH  21  22
ENDBRANCH  20  21
ENDBRANCH  19  20
ENDBRANCH   1  19
TORSDOF 16
ENDMDL
MODEL 3
REMARK VINA RESULT:      -8.8      5.928     10.620
REMARK SMILES C[C@H]([NH2+]CCc1ccccc1)[C@@H](C)C(=O)OCCOC(=O)c1ccc(-c2c3nc(c(-c4c(F)cccc4F)c4ccc([nH]4)c(-c4c(F)cccc4F)c4nc(c(-c5c(F)cccc5F)c5ccc2[nH]5)C=C4)C=C3)cc1
REMARK SMILES IDX 16 1 14 2 15 3 12 4 13 5 2 6 1 7 3 8 4 11 5 12 6 13 7 14
REMARK SMILES IDX 11 15 8 16 10 17 9 18 17 19 18 20 19 21 20 22 21 23 22 24
REMARK SMILES IDX 23 25 75 26 24 27 74 28 25 29 26 30 27 31 68 32 28 33 73 34
REMARK SMILES IDX 67 35 69 36 29 37 72 38 66 39 65 40 30 42 56 43 39 44 55 45
REMARK SMILES IDX 40 46 43 47 54 48 70 49 41 50 42 51 53 53 71 54 44 55 31 56
REMARK SMILES IDX 32 57 37 58 33 59 34 60 36 61 38 62 35 63 57 64 58 65 63 66
REMARK SMILES IDX 59 67 60 68 62 69 64 70 61 71 45 72 46 73 51 74 47 75 48 76
REMARK SMILES IDX 50 77 52 78 49 79
REMARK H PARENT 3 9 3 10 69 41 43 52
REMARK Flexibility Score: inf
ROOT
ATOM      1  O   UNL A   1      37.295  21.488  25.365  1.00  0.00    -0.462 OA
ENDROOT
BRANCH   1   2
ATOM      2  C   UNL A   1      35.995  21.872  25.452  1.00  0.00     0.314 C 
ATOM      3  O   UNL A   1      35.295  21.736  26.451  1.00  0.00    -0.252 OA
BRANCH   2   4
ATOM      4  C   UNL A   1      35.445  22.469  24.169  1.00  0.00     0.154 C 
ATOM      5  C   UNL A   1      36.653  22.908  23.334  1.00  0.00     0.026 C 
BRANCH   4   6
ATOM      6  C   UNL A   1      34.391  23.593  24.335  1.00  0.00     0.193 C 
ATOM      7  C   UNL A   1      34.830  24.660  25.350  1.00  0.00     0.076 C 
BRANCH   6   8
ATOM      8  N   UNL A   1      33.141  22.967  24.809  1.00  0.00    -0.343 N 
ATOM      9  H   UNL A   1      32.440  23.700  24.924  1.00  0.00     0.346 HD
ATOM     10  H   UNL A   1      33.363  22.494  25.686  1.00  0.00     0.346 HD
BRANCH   8  11
ATOM     11  C   UNL A   1      32.601  21.951  23.904  1.00  0.00     0.265 C 
BRANCH  11  12
ATOM     12  C   UNL A   1      32.272  20.647  24.656  1.00  0.00     0.097 C 
BRANCH  12  13
ATOM     13  C   UNL A   1      32.925  19.374  24.152  1.00  0.00    -0.042 A 
ATOM     14  C   UNL A   1      32.324  18.680  23.090  1.00  0.00     0.004 A 
ATOM     15  C   UNL A   1      34.073  18.824  24.739  1.00  0.00     0.004 A 
ATOM     16  C   UNL A   1      32.874  17.490  22.608  1.00  0.00     0.000 A 
ATOM     17  C   UNL A   1      34.628  17.638  24.252  1.00  0.00     0.000 A 
ATOM     18  C   UNL A   1      34.029  16.972  23.186  1.00  0.00     0.000 A 
ENDBRANCH  12  13
ENDBRANCH  11  12
ENDBRANCH   8  11
ENDBRANCH   6   8
ENDBRANCH   4   6
ENDBRANCH   2   4
ENDBRANCH   1   2
BRANCH   1  19
ATOM     19  C   UNL A   1      37.504  20.070  25.198  1.00  0.00     0.274 C 
BRANCH  19  20
ATOM     20  C   UNL A   1      38.978  19.770  24.919  1.00  0.00     0.275 C 
BRANCH  20  21
ATOM     21  O   UNL A   1      39.657  19.485  26.154  1.00  0.00    -0.458 OA
BRANCH  21  22
ATOM     22  C   UNL A   1      41.008  19.479  26.099  1.00  0.00     0.338 C 
ATOM     23  O   UNL A   1      41.729  18.562  25.751  1.00  0.00    -0.246 OA
BRANCH  22  24
ATOM     24  C   UNL A   1      41.522  20.780  26.571  1.00  0.00     0.060 A 
ATOM     25  C   UNL A   1      41.768  21.014  27.926  1.00  0.00     0.016 A 
ATOM     26  C   UNL A   1      41.714  21.800  25.638  1.00  0.00     0.016 A 
ATOM     27  C   UNL A   1      42.188  22.273  28.357  1.00  0.00     0.010 A 
ATOM     28  C   UNL A   1      42.195  23.041  26.062  1.00  0.00     0.010 A 
ATOM     29  C   UNL A   1      42.431  23.290  27.424  1.00  0.00    -0.014 A 
BRANCH  29  30
ATOM     30  C   UNL A   1      42.962  24.610  27.848  1.00  0.00     0.031 A 
ATOM     31  C   UNL A   1      42.025  25.701  28.278  1.00  0.00     0.074 A 
ATOM     32  C   UNL A   1      44.287  24.846  27.787  1.00  0.00     0.049 A 
ATOM     33  N   UNL A   1      42.270  26.970  28.484  1.00  0.00    -0.248 NA
ATOM     34  C   UNL A   1      40.623  25.315  28.498  1.00  0.00     0.031 C 
ATOM     35  C   UNL A   1      45.306  23.865  27.413  1.00  0.00     0.029 A 
ATOM     36  N   UNL A   1      45.000  25.996  28.019  1.00  0.00    -0.354 N 
ATOM     37  C   UNL A   1      41.051  27.541  28.822  1.00  0.00     0.074 A 
ATOM     38  C   UNL A   1      40.065  26.481  28.790  1.00  0.00     0.031 C 
ATOM     39  C   UNL A   1      46.512  24.454  27.439  1.00  0.00     0.029 A 
ATOM     40  C   UNL A   1      46.344  25.865  27.765  1.00  0.00     0.049 A 
ATOM     41  H   UNL A   1      44.589  26.832  28.336  1.00  0.00     0.167 HD
ATOM     42  C   UNL A   1      40.782  28.833  29.131  1.00  0.00     0.037 A 
ATOM     43  C   UNL A   1      47.324  26.787  27.748  1.00  0.00     0.037 A 
ATOM     44  C   UNL A   1      41.771  29.878  29.186  1.00  0.00     0.049 A 
ATOM     45  C   UNL A   1      46.991  28.222  28.034  1.00  0.00     0.074 A 
ATOM     46  C   UNL A   1      41.602  31.210  29.522  1.00  0.00     0.029 A 
ATOM     47  N   UNL A   1      43.117  29.707  28.897  1.00  0.00    -0.354 N 
ATOM     48  N   UNL A   1      45.833  28.756  28.336  1.00  0.00    -0.248 NA
ATOM     49  C   UNL A   1      48.098  29.185  27.958  1.00  0.00     0.031 C 
ATOM     50  C   UNL A   1      42.839  31.854  29.400  1.00  0.00     0.029 A 
ATOM     51  C   UNL A   1      43.785  30.914  29.024  1.00  0.00     0.049 A 
ATOM     52  H   UNL A   1      43.536  28.854  28.639  1.00  0.00     0.167 HD
ATOM     53  C   UNL A   1      46.070  30.114  28.491  1.00  0.00     0.074 A 
ATOM     54  C   UNL A   1      47.487  30.320  28.271  1.00  0.00     0.031 C 
ATOM     55  C   UNL A   1      45.192  31.103  28.789  1.00  0.00     0.037 A 
BRANCH  42  56
ATOM     56  C   UNL A   1      39.354  29.195  29.410  1.00  0.00     0.057 A 
ATOM     57  C   UNL A   1      38.477  29.588  28.392  1.00  0.00     0.134 A 
ATOM     58  C   UNL A   1      38.840  29.107  30.710  1.00  0.00     0.134 A 
ATOM     59  F   UNL A   1      38.910  29.704  27.128  1.00  0.00    -0.206 F 
ATOM     60  C   UNL A   1      37.141  29.897  28.660  1.00  0.00     0.040 A 
ATOM     61  C   UNL A   1      37.503  29.394  30.988  1.00  0.00     0.040 A 
ATOM     62  F   UNL A   1      39.628  28.732  31.729  1.00  0.00    -0.206 F 
ATOM     63  C   UNL A   1      36.650  29.794  29.961  1.00  0.00     0.006 A 
ENDBRANCH  42  56
BRANCH  43  64
ATOM     64  C   UNL A   1      48.708  26.382  27.403  1.00  0.00     0.057 A 
ATOM     65  C   UNL A   1      49.607  25.974  28.394  1.00  0.00     0.134 A 
ATOM     66  C   UNL A   1      49.161  26.382  26.078  1.00  0.00     0.134 A 
ATOM     67  F   UNL A   1      49.238  25.977  29.683  1.00  0.00    -0.206 F 
ATOM     68  C   UNL A   1      50.910  25.584  28.080  1.00  0.00     0.040 A 
ATOM     69  C   UNL A   1      50.453  25.973  25.747  1.00  0.00     0.040 A 
ATOM     70  F   UNL A   1      48.344  26.763  25.084  1.00  0.00    -0.206 F 
ATOM     71  C   UNL A   1      51.333  25.576  26.751  1.00  0.00     0.006 A 
ENDBRANCH  43  64
BRANCH  55  72
ATOM     72  C   UNL A   1      45.747  32.490  28.898  1.00  0.00     0.057 A 
ATOM     73  C   UNL A   1      45.769  33.359  27.801  1.00  0.00     0.134 A 
ATOM     74  C   UNL A   1      46.244  32.968  30.116  1.00  0.00     0.134 A 
ATOM     75  F   UNL A   1      45.321  32.953  26.603  1.00  0.00    -0.206 F 
ATOM     76  C   UNL A   1      46.283  34.652  27.907  1.00  0.00     0.040 A 
ATOM     77  C   UNL A   1      46.743  34.265  30.239  1.00  0.00     0.040 A 
ATOM     78  F   UNL A   1      46.247  32.185  31.205  1.00  0.00    -0.206 F 
ATOM     79  C   UNL A   1      46.768  35.109  29.131  1.00  0.00     0.006 A 
ENDBRANCH  55  72
ENDBRANCH  29  30
ENDBRANCH  22  24
ENDBRANCH  21  22
ENDBRANCH  20  21
ENDBRANCH  19  20
ENDBRANCH   1  19
TORSDOF 16
ENDMDL
