MODEL 1
REMARK VINA RESULT:     -10.8      0.000      0.000
REMARK SMILES CC(C)[C@@H](NC(N)=O)C(=O)N[C@H](C(=O)OCCOC(=O)c1ccc(-c2c3nc(c(-c4c(F)cccc4F)c4ccc([nH]4)c(-c4c(F)cccc4F)c4nc(c(-c5c(F)cccc5F)c5ccc2[nH]5)C=C4)C=C3)cc1)[C@@H](C)O
REMARK SMILES IDX 16 1 15 2 13 3 14 4 12 5 11 6 9 7 10 8 4 10 2 11 1 12 3 13
REMARK SMILES IDX 5 14 6 15 7 17 8 18 75 21 76 22 77 23 17 25 18 26 19 27
REMARK SMILES IDX 20 28 21 29 22 30 74 31 23 32 73 33 24 34 25 35 26 36 67 37
REMARK SMILES IDX 27 38 72 39 66 40 68 41 28 42 71 43 65 44 64 45 29 47 55 48
REMARK SMILES IDX 38 49 54 50 39 51 42 52 53 53 69 54 40 55 41 56 52 58 70 59
REMARK SMILES IDX 43 60 30 61 31 62 36 63 32 64 33 65 35 66 37 67 34 68 56 69
REMARK SMILES IDX 57 70 62 71 58 72 59 73 61 74 63 75 60 76 44 77 45 78 50 79
REMARK SMILES IDX 46 80 47 81 49 82 51 83 48 84
REMARK H PARENT 11 9 5 16 7 19 7 20 77 24 68 46 42 57
REMARK Flexibility Score: inf
ROOT
ATOM      1  C   UNL A   1      36.051  20.218  24.999  1.00  0.00     0.274 C 
ENDROOT
BRANCH   1   2
ATOM      2  O   UNL A   1      35.024  21.237  25.121  1.00  0.00    -0.460 OA
BRANCH   2   3
ATOM      3  C   UNL A   1      34.032  21.058  26.052  1.00  0.00     0.331 C 
ATOM      4  O   UNL A   1      34.172  21.254  27.253  1.00  0.00    -0.250 OA
BRANCH   3   5
ATOM      5  C   UNL A   1      32.736  20.559  25.378  1.00  0.00     0.221 C 
BRANCH   5   6
ATOM      6  N   UNL A   1      32.419  21.213  24.090  1.00  0.00    -0.339 N 
ATOM      7  C   UNL A   1      32.361  22.512  23.675  1.00  0.00     0.243 C 
ATOM      8  O   UNL A   1      32.309  22.676  22.447  1.00  0.00    -0.273 OA
ATOM      9  H   UNL A   1      32.201  20.571  23.376  1.00  0.00     0.164 HD
BRANCH   7  10
ATOM     10  C   UNL A   1      32.047  23.707  24.618  1.00  0.00     0.175 C 
BRANCH  10  11
ATOM     11  C   UNL A   1      32.138  25.048  23.850  1.00  0.00     0.015 C 
ATOM     12  C   UNL A   1      30.786  25.664  23.490  1.00  0.00     0.010 C 
ATOM     13  C   UNL A   1      33.040  26.110  24.485  1.00  0.00     0.010 C 
ENDBRANCH  10  11
BRANCH  10  14
ATOM     14  N   UNL A   1      30.733  23.569  25.245  1.00  0.00    -0.326 N 
ATOM     15  C   UNL A   1      30.566  23.729  26.584  1.00  0.00     0.312 C 
ATOM     16  H   UNL A   1      29.952  23.356  24.684  1.00  0.00     0.166 HD
ATOM     17  N   UNL A   1      29.284  23.544  26.978  1.00  0.00    -0.352 N 
ATOM     18  O   UNL A   1      31.460  23.944  27.386  1.00  0.00    -0.249 OA
ATOM     19  H   UNL A   1      28.583  23.372  26.308  1.00  0.00     0.161 HD
ATOM     20  H   UNL A   1      29.051  23.582  27.934  1.00  0.00     0.161 HD
ENDBRANCH  10  14
ENDBRANCH   7  10
ENDBRANCH   5   6
BRANCH   5  21
ATOM     21  C   UNL A   1      32.523  19.026  25.303  1.00  0.00     0.145 C 
ATOM     22  C   UNL A   1      33.258  18.293  24.186  1.00  0.00     0.041 C 
BRANCH  21  23
ATOM     23  O   UNL A   1      32.960  18.430  26.543  1.00  0.00    -0.391 OA
ATOM     24  H   UNL A   1      33.071  19.123  27.213  1.00  0.00     0.211 HD
ENDBRANCH  21  23
ENDBRANCH   5  21
ENDBRANCH   3   5
ENDBRANCH   2   3
ENDBRANCH   1   2
BRANCH   1  25
ATOM     25  C   UNL A   1      37.393  20.831  24.603  1.00  0.00     0.275 C 
BRANCH  25  26
ATOM     26  O   UNL A   1      37.869  21.632  25.685  1.00  0.00    -0.458 OA
BRANCH  26  27
ATOM     27  C   UNL A   1      39.092  21.264  26.135  1.00  0.00     0.338 C 
ATOM     28  O   UNL A   1      39.705  20.248  25.887  1.00  0.00    -0.246 OA
BRANCH  27  29
ATOM     29  C   UNL A   1      39.696  22.454  26.749  1.00  0.00     0.060 A 
ATOM     30  C   UNL A   1      39.162  23.694  26.387  1.00  0.00     0.016 A 
ATOM     31  C   UNL A   1      40.739  22.354  27.670  1.00  0.00     0.016 A 
ATOM     32  C   UNL A   1      39.689  24.855  26.928  1.00  0.00     0.010 A 
ATOM     33  C   UNL A   1      41.282  23.519  28.198  1.00  0.00     0.010 A 
ATOM     34  C   UNL A   1      40.773  24.767  27.803  1.00  0.00    -0.014 A 
BRANCH  34  35
ATOM     35  C   UNL A   1      41.540  25.983  28.108  1.00  0.00     0.031 A 
ATOM     36  C   UNL A   1      40.833  27.064  28.864  1.00  0.00     0.074 A 
ATOM     37  C   UNL A   1      42.817  26.105  27.721  1.00  0.00     0.049 A 
ATOM     38  N   UNL A   1      41.206  28.291  29.100  1.00  0.00    -0.248 NA
ATOM     39  C   UNL A   1      39.515  26.712  29.423  1.00  0.00     0.031 C 
ATOM     40  C   UNL A   1      43.607  25.064  27.065  1.00  0.00     0.029 A 
ATOM     41  N   UNL A   1      43.663  27.177  27.802  1.00  0.00    -0.354 N 
ATOM     42  C   UNL A   1      40.158  28.866  29.805  1.00  0.00     0.074 A 
ATOM     43  C   UNL A   1      39.133  27.860  29.955  1.00  0.00     0.031 C 
ATOM     44  C   UNL A   1      44.817  25.564  26.767  1.00  0.00     0.029 A 
ATOM     45  C   UNL A   1      44.858  26.971  27.162  1.00  0.00     0.049 A 
ATOM     46  H   UNL A   1      43.437  28.012  28.274  1.00  0.00     0.167 HD
ATOM     47  C   UNL A   1      40.064  30.132  30.268  1.00  0.00     0.037 A 
ATOM     48  C   UNL A   1      45.841  27.847  26.882  1.00  0.00     0.037 A 
ATOM     49  C   UNL A   1      41.098  31.113  30.089  1.00  0.00     0.049 A 
ATOM     50  C   UNL A   1      45.678  29.277  27.327  1.00  0.00     0.074 A 
ATOM     51  C   UNL A   1      41.124  32.428  30.510  1.00  0.00     0.029 A 
ATOM     52  N   UNL A   1      42.292  30.878  29.419  1.00  0.00    -0.354 N 
ATOM     53  N   UNL A   1      44.683  29.830  27.980  1.00  0.00    -0.248 NA
ATOM     54  C   UNL A   1      46.765  30.204  26.991  1.00  0.00     0.031 C 
ATOM     55  C   UNL A   1      42.307  33.006  30.039  1.00  0.00     0.029 A 
ATOM     56  C   UNL A   1      43.049  32.033  29.386  1.00  0.00     0.049 A 
ATOM     57  H   UNL A   1      42.558  30.015  29.025  1.00  0.00     0.167 HD
ATOM     58  C   UNL A   1      45.036  31.162  28.160  1.00  0.00     0.074 A 
ATOM     59  C   UNL A   1      46.340  31.329  27.549  1.00  0.00     0.031 C 
ATOM     60  C   UNL A   1      44.351  32.157  28.777  1.00  0.00     0.037 A 
BRANCH  47  61
ATOM     61  C   UNL A   1      38.781  30.525  30.938  1.00  0.00     0.057 A 
ATOM     62  C   UNL A   1      38.572  30.366  32.313  1.00  0.00     0.134 A 
ATOM     63  C   UNL A   1      37.726  31.053  30.182  1.00  0.00     0.134 A 
ATOM     64  F   UNL A   1      39.530  29.838  33.091  1.00  0.00    -0.206 F 
ATOM     65  C   UNL A   1      37.351  30.691  32.909  1.00  0.00     0.040 A 
ATOM     66  C   UNL A   1      36.512  31.410  30.770  1.00  0.00     0.040 A 
ATOM     67  F   UNL A   1      37.855  31.224  28.857  1.00  0.00    -0.206 F 
ATOM     68  C   UNL A   1      36.320  31.221  32.136  1.00  0.00     0.006 A 
ENDBRANCH  47  61
BRANCH  48  69
ATOM     69  C   UNL A   1      47.028  27.405  26.108  1.00  0.00     0.057 A 
ATOM     70  C   UNL A   1      47.063  27.501  24.713  1.00  0.00     0.134 A 
ATOM     71  C   UNL A   1      48.162  26.884  26.746  1.00  0.00     0.134 A 
ATOM     72  F   UNL A   1      46.001  27.974  24.042  1.00  0.00    -0.206 F 
ATOM     73  C   UNL A   1      48.175  27.085  23.978  1.00  0.00     0.040 A 
ATOM     74  C   UNL A   1      49.291  26.490  26.026  1.00  0.00     0.040 A 
ATOM     75  F   UNL A   1      48.195  26.770  28.082  1.00  0.00    -0.206 F 
ATOM     76  C   UNL A   1      49.297  26.584  24.637  1.00  0.00     0.006 A 
ENDBRANCH  48  69
BRANCH  60  77
ATOM     77  C   UNL A   1      45.016  33.499  28.865  1.00  0.00     0.057 A 
ATOM     78  C   UNL A   1      45.909  33.819  29.893  1.00  0.00     0.134 A 
ATOM     79  C   UNL A   1      44.817  34.452  27.857  1.00  0.00     0.134 A 
ATOM     80  F   UNL A   1      46.135  32.953  30.893  1.00  0.00    -0.206 F 
ATOM     81  C   UNL A   1      46.573  35.047  29.923  1.00  0.00     0.040 A 
ATOM     82  C   UNL A   1      45.496  35.669  27.860  1.00  0.00     0.040 A 
ATOM     83  F   UNL A   1      43.982  34.199  26.837  1.00  0.00    -0.206 F 
ATOM     84  C   UNL A   1      46.375  35.971  28.898  1.00  0.00     0.006 A 
ENDBRANCH  60  77
ENDBRANCH  34  35
ENDBRANCH  27  29
ENDBRANCH  26  27
ENDBRANCH  25  26
ENDBRANCH   1  25
TORSDOF 17
ENDMDL
MODEL 2
REMARK VINA RESULT:     -10.6      5.005      9.905
REMARK SMILES CC(C)[C@@H](NC(N)=O)C(=O)N[C@H](C(=O)OCCOC(=O)c1ccc(-c2c3nc(c(-c4c(F)cccc4F)c4ccc([nH]4)c(-c4c(F)cccc4F)c4nc(c(-c5c(F)cccc5F)c5ccc2[nH]5)C=C4)C=C3)cc1)[C@@H](C)O
REMARK SMILES IDX 16 1 15 2 13 3 14 4 12 5 11 6 9 7 10 8 4 10 2 11 1 12 3 13
REMARK SMILES IDX 5 14 6 15 7 17 8 18 75 21 76 22 77 23 17 25 18 26 19 27
REMARK SMILES IDX 20 28 21 29 22 30 74 31 23 32 73 33 24 34 25 35 26 36 67 37
REMARK SMILES IDX 27 38 72 39 66 40 68 41 28 42 71 43 65 44 64 45 29 47 55 48
REMARK SMILES IDX 38 49 54 50 39 51 42 52 53 53 69 54 40 55 41 56 52 58 70 59
REMARK SMILES IDX 43 60 30 61 31 62 36 63 32 64 33 65 35 66 37 67 34 68 56 69
REMARK SMILES IDX 57 70 62 71 58 72 59 73 61 74 63 75 60 76 44 77 45 78 50 79
REMARK SMILES IDX 46 80 47 81 49 82 51 83 48 84
REMARK H PARENT 11 9 5 16 7 19 7 20 77 24 68 46 42 57
REMARK Flexibility Score: inf
ROOT
ATOM      1  C   UNL A   1      31.775  31.748  26.878  1.00  0.00     0.274 C 
ENDROOT
BRANCH   1   2
ATOM      2  O   UNL A   1      31.821  30.711  25.863  1.00  0.00    -0.460 OA
BRANCH   2   3
ATOM      3  C   UNL A   1      31.804  29.400  26.265  1.00  0.00     0.331 C 
ATOM      4  O   UNL A   1      31.524  29.032  27.401  1.00  0.00    -0.250 OA
BRANCH   3   5
ATOM      5  C   UNL A   1      32.203  28.467  25.102  1.00  0.00     0.221 C 
BRANCH   5   6
ATOM      6  N   UNL A   1      31.343  28.572  23.904  1.00  0.00    -0.339 N 
ATOM      7  C   UNL A   1      30.732  27.660  23.092  1.00  0.00     0.243 C 
ATOM      8  O   UNL A   1      29.873  28.121  22.327  1.00  0.00    -0.273 OA
ATOM      9  H   UNL A   1      31.173  29.503  23.633  1.00  0.00     0.164 HD
BRANCH   7  10
ATOM     10  C   UNL A   1      31.261  26.216  22.865  1.00  0.00     0.175 C 
BRANCH  10  11
ATOM     11  C   UNL A   1      30.366  25.185  23.594  1.00  0.00     0.015 C 
ATOM     12  C   UNL A   1      30.695  23.726  23.278  1.00  0.00     0.010 C 
ATOM     13  C   UNL A   1      30.243  25.374  25.109  1.00  0.00     0.010 C 
ENDBRANCH  10  11
BRANCH  10  14
ATOM     14  N   UNL A   1      31.353  25.892  21.443  1.00  0.00    -0.326 N 
ATOM     15  C   UNL A   1      32.554  25.706  20.834  1.00  0.00     0.312 C 
ATOM     16  H   UNL A   1      30.527  25.808  20.913  1.00  0.00     0.166 HD
ATOM     17  N   UNL A   1      32.435  25.433  19.513  1.00  0.00    -0.352 N 
ATOM     18  O   UNL A   1      33.643  25.831  21.368  1.00  0.00    -0.249 OA
ATOM     19  H   UNL A   1      31.542  25.336  19.109  1.00  0.00     0.161 HD
ATOM     20  H   UNL A   1      33.240  25.331  18.956  1.00  0.00     0.161 HD
ENDBRANCH  10  14
ENDBRANCH   7  10
ENDBRANCH   5   6
BRANCH   5  21
ATOM     21  C   UNL A   1      33.704  28.417  24.720  1.00  0.00     0.145 C 
ATOM     22  C   UNL A   1      34.049  28.787  23.282  1.00  0.00     0.041 C 
BRANCH  21  23
ATOM     23  O   UNL A   1      34.435  29.329  25.567  1.00  0.00    -0.391 OA
ATOM     24  H   UNL A   1      35.382  29.123  25.522  1.00  0.00     0.211 HD
ENDBRANCH  21  23
ENDBRANCH   5  21
ENDBRANCH   3   5
ENDBRANCH   2   3
ENDBRANCH   1   2
BRANCH   1  25
ATOM     25  C   UNL A   1      33.150  31.972  27.504  1.00  0.00     0.275 C 
BRANCH  25  26
ATOM     26  O   UNL A   1      33.555  33.318  27.251  1.00  0.00    -0.458 OA
BRANCH  26  27
ATOM     27  C   UNL A   1      33.427  34.132  28.325  1.00  0.00     0.338 C 
ATOM     28  O   UNL A   1      32.464  34.791  28.655  1.00  0.00    -0.246 OA
BRANCH  27  29
ATOM     29  C   UNL A   1      34.567  33.853  29.209  1.00  0.00     0.060 A 
ATOM     30  C   UNL A   1      35.831  34.241  28.756  1.00  0.00     0.016 A 
ATOM     31  C   UNL A   1      34.398  33.249  30.455  1.00  0.00     0.016 A 
ATOM     32  C   UNL A   1      36.948  34.003  29.540  1.00  0.00     0.010 A 
ATOM     33  C   UNL A   1      35.519  32.990  31.234  1.00  0.00     0.010 A 
ATOM     34  C   UNL A   1      36.794  33.343  30.760  1.00  0.00    -0.014 A 
BRANCH  34  35
ATOM     35  C   UNL A   1      37.983  32.794  31.426  1.00  0.00     0.031 A 
ATOM     36  C   UNL A   1      38.644  31.616  30.781  1.00  0.00     0.074 A 
ATOM     37  C   UNL A   1      38.446  33.335  32.561  1.00  0.00     0.049 A 
ATOM     38  N   UNL A   1      39.579  30.835  31.243  1.00  0.00    -0.248 NA
ATOM     39  C   UNL A   1      38.173  31.267  29.429  1.00  0.00     0.031 C 
ATOM     40  C   UNL A   1      37.919  34.539  33.203  1.00  0.00     0.029 A 
ATOM     41  N   UNL A   1      39.452  32.919  33.389  1.00  0.00    -0.354 N 
ATOM     42  C   UNL A   1      39.787  29.883  30.255  1.00  0.00     0.074 A 
ATOM     43  C   UNL A   1      38.880  30.180  29.170  1.00  0.00     0.031 C 
ATOM     44  C   UNL A   1      38.586  34.742  34.351  1.00  0.00     0.029 A 
ATOM     45  C   UNL A   1      39.540  33.652  34.544  1.00  0.00     0.049 A 
ATOM     46  H   UNL A   1      40.054  32.168  33.176  1.00  0.00     0.167 HD
ATOM     47  C   UNL A   1      40.653  28.846  30.267  1.00  0.00     0.037 A 
ATOM     48  C   UNL A   1      40.272  33.424  35.650  1.00  0.00     0.037 A 
ATOM     49  C   UNL A   1      41.533  28.572  31.369  1.00  0.00     0.049 A 
ATOM     50  C   UNL A   1      41.165  32.211  35.683  1.00  0.00     0.074 A 
ATOM     51  C   UNL A   1      42.455  27.553  31.506  1.00  0.00     0.029 A 
ATOM     52  N   UNL A   1      41.585  29.325  32.535  1.00  0.00    -0.354 N 
ATOM     53  N   UNL A   1      41.355  31.299  34.757  1.00  0.00    -0.248 NA
ATOM     54  C   UNL A   1      41.937  31.988  36.911  1.00  0.00     0.031 C 
ATOM     55  C   UNL A   1      43.021  27.654  32.780  1.00  0.00     0.029 A 
ATOM     56  C   UNL A   1      42.502  28.776  33.411  1.00  0.00     0.049 A 
ATOM     57  H   UNL A   1      41.048  30.132  32.712  1.00  0.00     0.167 HD
ATOM     58  C   UNL A   1      42.289  30.412  35.278  1.00  0.00     0.074 A 
ATOM     59  C   UNL A   1      42.628  30.900  36.600  1.00  0.00     0.031 C 
ATOM     60  C   UNL A   1      42.823  29.298  34.717  1.00  0.00     0.037 A 
BRANCH  47  61
ATOM     61  C   UNL A   1      40.626  27.913  29.094  1.00  0.00     0.057 A 
ATOM     62  C   UNL A   1      41.450  28.089  27.975  1.00  0.00     0.134 A 
ATOM     63  C   UNL A   1      39.739  26.829  29.077  1.00  0.00     0.134 A 
ATOM     64  F   UNL A   1      42.301  29.125  27.913  1.00  0.00    -0.206 F 
ATOM     65  C   UNL A   1      41.373  27.238  26.870  1.00  0.00     0.040 A 
ATOM     66  C   UNL A   1      39.674  25.954  27.992  1.00  0.00     0.040 A 
ATOM     67  F   UNL A   1      38.915  26.607  30.113  1.00  0.00    -0.206 F 
ATOM     68  C   UNL A   1      40.486  26.163  26.881  1.00  0.00     0.006 A 
ENDBRANCH  47  61
BRANCH  48  69
ATOM     69  C   UNL A   1      40.152  34.331  36.819  1.00  0.00     0.057 A 
ATOM     70  C   UNL A   1      39.213  34.094  37.828  1.00  0.00     0.134 A 
ATOM     71  C   UNL A   1      40.981  35.452  36.960  1.00  0.00     0.134 A 
ATOM     72  F   UNL A   1      38.378  33.048  37.741  1.00  0.00    -0.206 F 
ATOM     73  C   UNL A   1      39.092  34.945  38.928  1.00  0.00     0.040 A 
ATOM     74  C   UNL A   1      40.890  36.295  38.068  1.00  0.00     0.040 A 
ATOM     75  F   UNL A   1      41.906  35.732  36.030  1.00  0.00    -0.206 F 
ATOM     76  C   UNL A   1      39.939  36.046  39.054  1.00  0.00     0.006 A 
ENDBRANCH  48  69
BRANCH  60  77
ATOM     77  C   UNL A   1      43.863  28.560  35.506  1.00  0.00     0.057 A 
ATOM     78  C   UNL A   1      45.225  28.864  35.407  1.00  0.00     0.134 A 
ATOM     79  C   UNL A   1      43.480  27.587  36.439  1.00  0.00     0.134 A 
ATOM     80  F   UNL A   1      45.656  29.779  34.526  1.00  0.00    -0.206 F 
ATOM     81  C   UNL A   1      46.173  28.215  36.200  1.00  0.00     0.040 A 
ATOM     82  C   UNL A   1      44.414  26.954  37.257  1.00  0.00     0.040 A 
ATOM     83  F   UNL A   1      42.187  27.260  36.591  1.00  0.00    -0.206 F 
ATOM     84  C   UNL A   1      45.767  27.266  37.136  1.00  0.00     0.006 A 
ENDBRANCH  60  77
ENDBRANCH  34  35
ENDBRANCH  27  29
ENDBRANCH  26  27
ENDBRANCH  25  26
ENDBRANCH   1  25
TORSDOF 17
ENDMDL
MODEL 3
REMARK VINA RESULT:     -10.6      1.965      2.841
REMARK SMILES CC(C)[C@@H](NC(N)=O)C(=O)N[C@H](C(=O)OCCOC(=O)c1ccc(-c2c3nc(c(-c4c(F)cccc4F)c4ccc([nH]4)c(-c4c(F)cccc4F)c4nc(c(-c5c(F)cccc5F)c5ccc2[nH]5)C=C4)C=C3)cc1)[C@@H](C)O
REMARK SMILES IDX 16 1 15 2 13 3 14 4 12 5 11 6 9 7 10 8 4 10 2 11 1 12 3 13
REMARK SMILES IDX 5 14 6 15 7 17 8 18 75 21 76 22 77 23 17 25 18 26 19 27
REMARK SMILES IDX 20 28 21 29 22 30 74 31 23 32 73 33 24 34 25 35 26 36 67 37
REMARK SMILES IDX 27 38 72 39 66 40 68 41 28 42 71 43 65 44 64 45 29 47 55 48
REMARK SMILES IDX 38 49 54 50 39 51 42 52 53 53 69 54 40 55 41 56 52 58 70 59
REMARK SMILES IDX 43 60 30 61 31 62 36 63 32 64 33 65 35 66 37 67 34 68 56 69
REMARK SMILES IDX 57 70 62 71 58 72 59 73 61 74 63 75 60 76 44 77 45 78 50 79
REMARK SMILES IDX 46 80 47 81 49 82 51 83 48 84
REMARK H PARENT 11 9 5 16 7 19 7 20 77 24 68 46 42 57
REMARK Flexibility Score: inf
ROOT
ATOM      1  C   UNL A   1      34.776  22.447  25.614  1.00  0.00     0.274 C 
ENDROOT
BRANCH   1   2
ATOM      2  O   UNL A   1      34.928  23.281  24.436  1.00  0.00    -0.460 OA
BRANCH   2   3
ATOM      3  C   UNL A   1      34.328  24.515  24.426  1.00  0.00     0.331 C 
ATOM      4  O   UNL A   1      34.473  25.357  25.305  1.00  0.00    -0.250 OA
BRANCH   3   5
ATOM      5  C   UNL A   1      33.438  24.679  23.176  1.00  0.00     0.221 C 
BRANCH   5   6
ATOM      6  N   UNL A   1      33.775  25.842  22.327  1.00  0.00    -0.339 N 
ATOM      7  C   UNL A   1      33.476  27.173  22.378  1.00  0.00     0.243 C 
ATOM      8  O   UNL A   1      34.149  27.899  21.631  1.00  0.00    -0.273 OA
ATOM      9  H   UNL A   1      34.339  25.604  21.555  1.00  0.00     0.164 HD
BRANCH   7  10
ATOM     10  C   UNL A   1      32.192  27.744  23.042  1.00  0.00     0.175 C 
BRANCH  10  11
ATOM     11  C   UNL A   1      32.410  27.953  24.561  1.00  0.00     0.015 C 
ATOM     12  C   UNL A   1      32.745  29.391  24.960  1.00  0.00     0.010 C 
ATOM     13  C   UNL A   1      31.302  27.407  25.466  1.00  0.00     0.010 C 
ENDBRANCH  10  11
BRANCH  10  14
ATOM     14  N   UNL A   1      31.769  28.994  22.414  1.00  0.00    -0.326 N 
ATOM     15  C   UNL A   1      30.465  29.228  22.108  1.00  0.00     0.312 C 
ATOM     16  H   UNL A   1      32.442  29.681  22.206  1.00  0.00     0.166 HD
ATOM     17  N   UNL A   1      30.274  30.430  21.515  1.00  0.00    -0.352 N 
ATOM     18  O   UNL A   1      29.549  28.438  22.269  1.00  0.00    -0.249 OA
ATOM     19  H   UNL A   1      31.032  31.048  21.399  1.00  0.00     0.161 HD
ATOM     20  H   UNL A   1      29.377  30.687  21.200  1.00  0.00     0.161 HD
ENDBRANCH  10  14
ENDBRANCH   7  10
ENDBRANCH   5   6
BRANCH   5  21
ATOM     21  C   UNL A   1      33.175  23.413  22.323  1.00  0.00     0.145 C 
ATOM     22  C   UNL A   1      31.962  22.575  22.710  1.00  0.00     0.041 C 
BRANCH  21  23
ATOM     23  O   UNL A   1      32.982  23.805  20.947  1.00  0.00    -0.391 OA
ATOM     24  H   UNL A   1      32.800  24.757  20.906  1.00  0.00     0.211 HD
ENDBRANCH  21  23
ENDBRANCH   5  21
ENDBRANCH   3   5
ENDBRANCH   2   3
ENDBRANCH   1   2
BRANCH   1  25
ATOM     25  C   UNL A   1      35.970  21.509  25.785  1.00  0.00     0.275 C 
BRANCH  25  26
ATOM     26  O   UNL A   1      37.134  22.149  25.260  1.00  0.00    -0.458 OA
BRANCH  26  27
ATOM     27  C   UNL A   1      38.294  21.629  25.727  1.00  0.00     0.338 C 
ATOM     28  O   UNL A   1      38.804  20.566  25.445  1.00  0.00    -0.246 OA
BRANCH  27  29
ATOM     29  C   UNL A   1      38.998  22.715  26.421  1.00  0.00     0.060 A 
ATOM     30  C   UNL A   1      38.555  24.017  26.174  1.00  0.00     0.016 A 
ATOM     31  C   UNL A   1      40.047  22.462  27.306  1.00  0.00     0.016 A 
ATOM     32  C   UNL A   1      39.178  25.087  26.795  1.00  0.00     0.010 A 
ATOM     33  C   UNL A   1      40.687  23.535  27.913  1.00  0.00     0.010 A 
ATOM     34  C   UNL A   1      40.268  24.846  27.633  1.00  0.00    -0.014 A 
BRANCH  34  35
ATOM     35  C   UNL A   1      41.132  25.972  28.018  1.00  0.00     0.031 A 
ATOM     36  C   UNL A   1      40.504  27.072  28.815  1.00  0.00     0.074 A 
ATOM     37  C   UNL A   1      42.424  25.998  27.664  1.00  0.00     0.049 A 
ATOM     38  N   UNL A   1      40.978  28.247  29.122  1.00  0.00    -0.248 NA
ATOM     39  C   UNL A   1      39.147  26.811  29.327  1.00  0.00     0.031 C 
ATOM     40  C   UNL A   1      43.135  24.925  26.970  1.00  0.00     0.029 A 
ATOM     41  N   UNL A   1      43.359  26.985  27.818  1.00  0.00    -0.354 N 
ATOM     42  C   UNL A   1      39.968  28.878  29.834  1.00  0.00     0.074 A 
ATOM     43  C   UNL A   1      38.854  27.960  29.911  1.00  0.00     0.031 C 
ATOM     44  C   UNL A   1      44.392  25.330  26.724  1.00  0.00     0.029 A 
ATOM     45  C   UNL A   1      44.547  26.706  27.193  1.00  0.00     0.049 A 
ATOM     46  H   UNL A   1      43.196  27.812  28.328  1.00  0.00     0.167 HD
ATOM     47  C   UNL A   1      39.973  30.122  30.362  1.00  0.00     0.037 A 
ATOM     48  C   UNL A   1      45.610  27.503  26.979  1.00  0.00     0.037 A 
ATOM     49  C   UNL A   1      41.095  31.014  30.256  1.00  0.00     0.049 A 
ATOM     50  C   UNL A   1      45.563  28.917  27.495  1.00  0.00     0.074 A 
ATOM     51  C   UNL A   1      41.225  32.299  30.745  1.00  0.00     0.029 A 
ATOM     52  N   UNL A   1      42.279  30.707  29.599  1.00  0.00    -0.354 N 
ATOM     53  N   UNL A   1      44.604  29.524  28.156  1.00  0.00    -0.248 NA
ATOM     54  C   UNL A   1      46.735  29.760  27.230  1.00  0.00     0.031 C 
ATOM     55  C   UNL A   1      42.466  32.791  30.330  1.00  0.00     0.029 A 
ATOM     56  C   UNL A   1      43.136  31.790  29.642  1.00  0.00     0.049 A 
ATOM     57  H   UNL A   1      42.478  29.845  29.165  1.00  0.00     0.167 HD
ATOM     58  C   UNL A   1      45.069  30.809  28.413  1.00  0.00     0.074 A 
ATOM     59  C   UNL A   1      46.397  30.889  27.838  1.00  0.00     0.031 C 
ATOM     60  C   UNL A   1      44.459  31.828  29.067  1.00  0.00     0.037 A 
BRANCH  47  61
ATOM     61  C   UNL A   1      38.713  30.593  31.024  1.00  0.00     0.057 A 
ATOM     62  C   UNL A   1      38.456  30.381  32.385  1.00  0.00     0.134 A 
ATOM     63  C   UNL A   1      37.731  31.254  30.277  1.00  0.00     0.134 A 
ATOM     64  F   UNL A   1      39.342  29.728  33.152  1.00  0.00    -0.206 F 
ATOM     65  C   UNL A   1      37.254  30.784  32.972  1.00  0.00     0.040 A 
ATOM     66  C   UNL A   1      36.538  31.688  30.858  1.00  0.00     0.040 A 
ATOM     67  F   UNL A   1      37.909  31.483  28.966  1.00  0.00    -0.206 F 
ATOM     68  C   UNL A   1      36.294  31.445  32.207  1.00  0.00     0.006 A 
ENDBRANCH  47  61
BRANCH  48  69
ATOM     69  C   UNL A   1      46.773  26.997  26.207  1.00  0.00     0.057 A 
ATOM     70  C   UNL A   1      46.856  27.171  24.822  1.00  0.00     0.134 A 
ATOM     71  C   UNL A   1      47.834  26.334  26.838  1.00  0.00     0.134 A 
ATOM     72  F   UNL A   1      45.863  27.780  24.157  1.00  0.00    -0.206 F 
ATOM     73  C   UNL A   1      47.945  26.694  24.090  1.00  0.00     0.040 A 
ATOM     74  C   UNL A   1      48.941  25.877  26.123  1.00  0.00     0.040 A 
ATOM     75  F   UNL A   1      47.817  26.140  28.165  1.00  0.00    -0.206 F 
ATOM     76  C   UNL A   1      48.996  26.052  24.743  1.00  0.00     0.006 A 
ENDBRANCH  48  69
BRANCH  60  77
ATOM     77  C   UNL A   1      45.237  33.099  29.239  1.00  0.00     0.057 A 
ATOM     78  C   UNL A   1      45.124  34.166  28.341  1.00  0.00     0.134 A 
ATOM     79  C   UNL A   1      46.048  33.282  30.367  1.00  0.00     0.134 A 
ATOM     80  F   UNL A   1      44.371  34.050  27.237  1.00  0.00    -0.206 F 
ATOM     81  C   UNL A   1      45.801  35.368  28.553  1.00  0.00     0.040 A 
ATOM     82  C   UNL A   1      46.705  34.488  30.605  1.00  0.00     0.040 A 
ATOM     83  F   UNL A   1      46.186  32.300  31.272  1.00  0.00    -0.206 F 
ATOM     84  C   UNL A   1      46.585  35.535  29.694  1.00  0.00     0.006 A 
ENDBRANCH  60  77
ENDBRANCH  34  35
ENDBRANCH  27  29
ENDBRANCH  26  27
ENDBRANCH  25  26
ENDBRANCH   1  25
TORSDOF 17
ENDMDL
