MODEL 1
REMARK VINA RESULT:     -10.4      0.000      0.000
REMARK SMILES COc1ccc(OCc2nc(N)cc(SCC(=O)OCCOC(=O)c3ccc(-c4c5nc(c(-c6c(F)cccc6F)c6ccc([nH]6)c(-c6c(F)cccc6F)c6nc(c(-c7c(F)cccc7F)c7ccc4[nH]7)C=C6)C=C5)cc3)n2)cc1
REMARK SMILES IDX 17 1 18 2 16 3 15 4 14 5 9 6 10 7 79 8 11 9 13 10 8 11 7 12
REMARK SMILES IDX 6 13 3 14 4 15 81 16 5 17 80 18 2 19 1 20 12 21 19 24 20 25
REMARK SMILES IDX 21 26 22 27 23 28 24 29 25 30 26 31 78 32 27 33 77 34 28 35
REMARK SMILES IDX 29 36 30 37 71 38 31 39 76 40 70 41 72 42 32 43 75 44 69 45
REMARK SMILES IDX 68 46 33 48 59 49 42 50 58 51 43 52 46 53 57 54 73 55 44 56
REMARK SMILES IDX 45 57 56 59 74 60 47 61 34 62 35 63 40 64 36 65 37 66 39 67
REMARK SMILES IDX 41 68 38 69 60 70 61 71 66 72 62 73 63 74 65 75 67 76 64 77
REMARK SMILES IDX 48 78 49 79 54 80 50 81 51 82 53 83 55 84 52 85
REMARK H PARENT 12 22 12 23 72 47 46 58
REMARK Flexibility Score: inf
ROOT
ATOM      1  C   UNL A   1      33.129  29.738  26.152  1.00  0.00     0.316 C 
ATOM      2  O   UNL A   1      32.989  29.691  24.933  1.00  0.00    -0.251 OA
ENDROOT
BRANCH   1   3
ATOM      3  C   UNL A   1      33.385  28.487  26.960  1.00  0.00     0.199 C 
BRANCH   3   4
ATOM      4  S   UNL A   1      33.972  27.050  26.022  1.00  0.00    -0.094 SA
BRANCH   4   5
ATOM      5  C   UNL A   1      32.588  25.930  25.953  1.00  0.00     0.103 A 
ATOM      6  C   UNL A   1      30.470  25.641  25.099  1.00  0.00     0.169 A 
ATOM      7  N   UNL A   1      30.385  24.381  25.556  1.00  0.00    -0.213 NA
ATOM      8  N   UNL A   1      31.547  26.431  25.260  1.00  0.00    -0.223 NA
ATOM      9  C   UNL A   1      31.409  23.934  26.280  1.00  0.00     0.128 A 
ATOM     10  C   UNL A   1      32.556  24.664  26.489  1.00  0.00     0.082 A 
BRANCH   6  11
ATOM     11  C   UNL A   1      29.271  26.196  24.360  1.00  0.00     0.306 C 
BRANCH  11  12
ATOM     12  O   UNL A   1      29.612  27.050  23.260  1.00  0.00    -0.486 OA
BRANCH  12  13
ATOM     13  C   UNL A   1      29.060  28.300  23.201  1.00  0.00     0.120 A 
ATOM     14  C   UNL A   1      28.172  30.955  23.251  1.00  0.00     0.119 A 
ATOM     15  C   UNL A   1      29.503  30.665  23.530  1.00  0.00     0.050 A 
ATOM     16  C   UNL A   1      27.297  29.935  22.883  1.00  0.00     0.050 A 
ATOM     17  C   UNL A   1      29.941  29.339  23.514  1.00  0.00     0.050 A 
ATOM     18  C   UNL A   1      27.744  28.609  22.854  1.00  0.00     0.050 A 
BRANCH  14  19
ATOM     19  O   UNL A   1      27.791  32.269  23.295  1.00  0.00    -0.497 OA
ATOM     20  C   UNL A   1      28.872  33.142  22.971  1.00  0.00     0.278 C 
ENDBRANCH  14  19
ENDBRANCH  12  13
ENDBRANCH  11  12
ENDBRANCH   6  11
BRANCH   9  21
ATOM     21  N   UNL A   1      31.273  22.651  26.777  1.00  0.00    -0.384 N 
ATOM     22  H   UNL A   1      31.051  21.908  26.169  1.00  0.00     0.158 HD
ATOM     23  H   UNL A   1      31.398  22.479  27.739  1.00  0.00     0.158 HD
ENDBRANCH   9  21
ENDBRANCH   4   5
ENDBRANCH   3   4
ENDBRANCH   1   3
BRANCH   1  24
ATOM     24  O   UNL A   1      32.974  30.861  26.896  1.00  0.00    -0.461 OA
BRANCH  24  25
ATOM     25  C   UNL A   1      31.678  31.491  26.856  1.00  0.00     0.274 C 
BRANCH  25  26
ATOM     26  C   UNL A   1      31.790  33.012  26.890  1.00  0.00     0.275 C 
BRANCH  26  27
ATOM     27  O   UNL A   1      33.138  33.407  27.206  1.00  0.00    -0.458 OA
BRANCH  27  28
ATOM     28  C   UNL A   1      33.278  34.140  28.328  1.00  0.00     0.338 C 
ATOM     29  O   UNL A   1      32.588  35.073  28.704  1.00  0.00    -0.246 OA
BRANCH  28  30
ATOM     30  C   UNL A   1      34.446  33.684  29.095  1.00  0.00     0.060 A 
ATOM     31  C   UNL A   1      35.696  34.274  28.905  1.00  0.00     0.016 A 
ATOM     32  C   UNL A   1      34.313  32.545  29.893  1.00  0.00     0.016 A 
ATOM     33  C   UNL A   1      36.830  33.687  29.470  1.00  0.00     0.010 A 
ATOM     34  C   UNL A   1      35.439  31.996  30.506  1.00  0.00     0.010 A 
ATOM     35  C   UNL A   1      36.711  32.544  30.276  1.00  0.00    -0.014 A 
BRANCH  35  36
ATOM     36  C   UNL A   1      37.910  31.918  30.887  1.00  0.00     0.031 A 
ATOM     37  C   UNL A   1      38.671  30.843  30.163  1.00  0.00     0.074 A 
ATOM     38  C   UNL A   1      38.303  32.308  32.114  1.00  0.00     0.049 A 
ATOM     39  N   UNL A   1      39.679  30.119  30.580  1.00  0.00    -0.248 NA
ATOM     40  C   UNL A   1      38.246  30.542  28.788  1.00  0.00     0.031 C 
ATOM     41  C   UNL A   1      37.664  33.351  32.915  1.00  0.00     0.029 A 
ATOM     42  N   UNL A   1      39.329  31.857  32.904  1.00  0.00    -0.354 N 
ATOM     43  C   UNL A   1      40.008  29.280  29.522  1.00  0.00     0.074 A 
ATOM     44  C   UNL A   1      39.085  29.573  28.447  1.00  0.00     0.031 C 
ATOM     45  C   UNL A   1      38.312  33.461  34.085  1.00  0.00     0.029 A 
ATOM     46  C   UNL A   1      39.377  32.464  34.133  1.00  0.00     0.049 A 
ATOM     47  H   UNL A   1      39.969  31.166  32.617  1.00  0.00     0.167 HD
ATOM     48  C   UNL A   1      40.989  28.350  29.453  1.00  0.00     0.037 A 
ATOM     49  C   UNL A   1      40.167  32.223  35.195  1.00  0.00     0.037 A 
ATOM     50  C   UNL A   1      41.906  28.050  30.519  1.00  0.00     0.049 A 
ATOM     51  C   UNL A   1      41.196  31.136  35.123  1.00  0.00     0.074 A 
ATOM     52  C   UNL A   1      42.940  27.129  30.537  1.00  0.00     0.029 A 
ATOM     53  N   UNL A   1      41.893  28.661  31.762  1.00  0.00    -0.354 N 
ATOM     54  N   UNL A   1      41.488  30.344  34.120  1.00  0.00    -0.248 NA
ATOM     55  C   UNL A   1      41.994  30.899  36.333  1.00  0.00     0.031 C 
ATOM     56  C   UNL A   1      43.536  27.166  31.803  1.00  0.00     0.029 A 
ATOM     57  C   UNL A   1      42.887  28.125  32.562  1.00  0.00     0.049 A 
ATOM     58  H   UNL A   1      41.269  29.373  32.036  1.00  0.00     0.167 HD
ATOM     59  C   UNL A   1      42.505  29.517  34.575  1.00  0.00     0.074 A 
ATOM     60  C   UNL A   1      42.789  29.912  35.940  1.00  0.00     0.031 C 
ATOM     61  C   UNL A   1      43.147  28.521  33.920  1.00  0.00     0.037 A 
BRANCH  48  62
ATOM     62  C   UNL A   1      41.115  27.574  28.178  1.00  0.00     0.057 A 
ATOM     63  C   UNL A   1      40.433  26.368  27.987  1.00  0.00     0.134 A 
ATOM     64  C   UNL A   1      41.887  28.063  27.118  1.00  0.00     0.134 A 
ATOM     65  F   UNL A   1      39.688  25.844  28.971  1.00  0.00    -0.206 F 
ATOM     66  C   UNL A   1      40.518  25.669  26.781  1.00  0.00     0.040 A 
ATOM     67  C   UNL A   1      41.971  27.379  25.905  1.00  0.00     0.040 A 
ATOM     68  F   UNL A   1      42.567  29.213  27.244  1.00  0.00    -0.206 F 
ATOM     69  C   UNL A   1      41.284  26.178  25.733  1.00  0.00     0.006 A 
ENDBRANCH  48  62
BRANCH  49  70
ATOM     70  C   UNL A   1      39.977  33.010  36.434  1.00  0.00     0.057 A 
ATOM     71  C   UNL A   1      40.741  34.154  36.686  1.00  0.00     0.134 A 
ATOM     72  C   UNL A   1      39.008  32.653  37.378  1.00  0.00     0.134 A 
ATOM     73  F   UNL A   1      41.695  34.532  35.823  1.00  0.00    -0.206 F 
ATOM     74  C   UNL A   1      40.547  34.917  37.839  1.00  0.00     0.040 A 
ATOM     75  C   UNL A   1      38.792  33.415  38.525  1.00  0.00     0.040 A 
ATOM     76  F   UNL A   1      38.244  31.567  37.185  1.00  0.00    -0.206 F 
ATOM     77  C   UNL A   1      39.566  34.551  38.758  1.00  0.00     0.006 A 
ENDBRANCH  49  70
BRANCH  61  78
ATOM     78  C   UNL A   1      44.214  27.794  34.674  1.00  0.00     0.057 A 
ATOM     79  C   UNL A   1      45.529  28.271  34.717  1.00  0.00     0.134 A 
ATOM     80  C   UNL A   1      43.921  26.623  35.382  1.00  0.00     0.134 A 
ATOM     81  F   UNL A   1      45.871  29.382  34.046  1.00  0.00    -0.206 F 
ATOM     82  C   UNL A   1      46.522  27.599  35.429  1.00  0.00     0.040 A 
ATOM     83  C   UNL A   1      44.903  25.949  36.108  1.00  0.00     0.040 A 
ATOM     84  F   UNL A   1      42.677  26.119  35.379  1.00  0.00    -0.206 F 
ATOM     85  C   UNL A   1      46.208  26.436  36.131  1.00  0.00     0.006 A 
ENDBRANCH  61  78
ENDBRANCH  35  36
ENDBRANCH  28  30
ENDBRANCH  27  28
ENDBRANCH  26  27
ENDBRANCH  25  26
ENDBRANCH  24  25
ENDBRANCH   1  24
TORSDOF 18
ENDMDL
MODEL 2
REMARK VINA RESULT:     -10.4      7.109     12.926
REMARK SMILES COc1ccc(OCc2nc(N)cc(SCC(=O)OCCOC(=O)c3ccc(-c4c5nc(c(-c6c(F)cccc6F)c6ccc([nH]6)c(-c6c(F)cccc6F)c6nc(c(-c7c(F)cccc7F)c7ccc4[nH]7)C=C6)C=C5)cc3)n2)cc1
REMARK SMILES IDX 17 1 18 2 16 3 15 4 14 5 9 6 10 7 79 8 11 9 13 10 8 11 7 12
REMARK SMILES IDX 6 13 3 14 4 15 81 16 5 17 80 18 2 19 1 20 12 21 19 24 20 25
REMARK SMILES IDX 21 26 22 27 23 28 24 29 25 30 26 31 78 32 27 33 77 34 28 35
REMARK SMILES IDX 29 36 30 37 71 38 31 39 76 40 70 41 72 42 32 43 75 44 69 45
REMARK SMILES IDX 68 46 33 48 59 49 42 50 58 51 43 52 46 53 57 54 73 55 44 56
REMARK SMILES IDX 45 57 56 59 74 60 47 61 34 62 35 63 40 64 36 65 37 66 39 67
REMARK SMILES IDX 41 68 38 69 60 70 61 71 66 72 62 73 63 74 65 75 67 76 64 77
REMARK SMILES IDX 48 78 49 79 54 80 50 81 51 82 53 83 55 84 52 85
REMARK H PARENT 12 22 12 23 72 47 46 58
REMARK Flexibility Score: inf
ROOT
ATOM      1  C   UNL A   1      46.121  20.378  24.810  1.00  0.00     0.316 C 
ATOM      2  O   UNL A   1      46.991  19.526  24.978  1.00  0.00    -0.251 OA
ENDROOT
BRANCH   1   3
ATOM      3  C   UNL A   1      46.473  21.842  24.683  1.00  0.00     0.199 C 
BRANCH   3   4
ATOM      4  S   UNL A   1      45.096  22.949  24.273  1.00  0.00    -0.094 SA
BRANCH   4   5
ATOM      5  C   UNL A   1      45.655  24.584  24.708  1.00  0.00     0.103 A 
ATOM      6  C   UNL A   1      47.510  25.940  24.848  1.00  0.00     0.169 A 
ATOM      7  N   UNL A   1      46.779  27.020  25.168  1.00  0.00    -0.213 NA
ATOM      8  N   UNL A   1      46.990  24.725  24.597  1.00  0.00    -0.223 NA
ATOM      9  C   UNL A   1      45.469  26.837  25.319  1.00  0.00     0.128 A 
ATOM     10  C   UNL A   1      44.846  25.635  25.074  1.00  0.00     0.082 A 
BRANCH   6  11
ATOM     11  C   UNL A   1      49.012  26.113  24.772  1.00  0.00     0.306 C 
BRANCH  11  12
ATOM     12  O   UNL A   1      49.425  27.296  24.074  1.00  0.00    -0.486 OA
BRANCH  12  13
ATOM     13  C   UNL A   1      49.559  27.244  22.714  1.00  0.00     0.120 A 
ATOM     14  C   UNL A   1      50.129  27.227  19.973  1.00  0.00     0.119 A 
ATOM     15  C   UNL A   1      51.168  27.182  20.897  1.00  0.00     0.050 A 
ATOM     16  C   UNL A   1      48.806  27.215  20.409  1.00  0.00     0.050 A 
ATOM     17  C   UNL A   1      50.881  27.200  22.263  1.00  0.00     0.050 A 
ATOM     18  C   UNL A   1      48.522  27.218  21.780  1.00  0.00     0.050 A 
BRANCH  14  19
ATOM     19  O   UNL A   1      50.465  27.222  18.647  1.00  0.00    -0.497 OA
ATOM     20  C   UNL A   1      51.869  27.395  18.457  1.00  0.00     0.278 C 
ENDBRANCH  14  19
ENDBRANCH  12  13
ENDBRANCH  11  12
ENDBRANCH   6  11
BRANCH   9  21
ATOM     21  N   UNL A   1      44.749  27.956  25.695  1.00  0.00    -0.384 N 
ATOM     22  H   UNL A   1      44.894  28.360  26.581  1.00  0.00     0.158 HD
ATOM     23  H   UNL A   1      44.093  28.350  25.075  1.00  0.00     0.158 HD
ENDBRANCH   9  21
ENDBRANCH   4   5
ENDBRANCH   3   4
ENDBRANCH   1   3
BRANCH   1  24
ATOM     24  O   UNL A   1      44.790  20.122  24.821  1.00  0.00    -0.461 OA
BRANCH  24  25
ATOM     25  C   UNL A   1      44.397  18.741  24.939  1.00  0.00     0.274 C 
BRANCH  25  26
ATOM     26  C   UNL A   1      43.115  18.588  25.752  1.00  0.00     0.275 C 
BRANCH  26  27
ATOM     27  O   UNL A   1      42.054  19.361  25.163  1.00  0.00    -0.458 OA
BRANCH  27  28
ATOM     28  C   UNL A   1      41.179  19.903  26.034  1.00  0.00     0.338 C 
ATOM     29  O   UNL A   1      40.069  19.493  26.332  1.00  0.00    -0.246 OA
BRANCH  28  30
ATOM     30  C   UNL A   1      41.729  21.137  26.611  1.00  0.00     0.060 A 
ATOM     31  C   UNL A   1      41.908  21.259  27.990  1.00  0.00     0.016 A 
ATOM     32  C   UNL A   1      41.913  22.238  25.771  1.00  0.00     0.016 A 
ATOM     33  C   UNL A   1      42.216  22.505  28.539  1.00  0.00     0.010 A 
ATOM     34  C   UNL A   1      42.282  23.468  26.317  1.00  0.00     0.010 A 
ATOM     35  C   UNL A   1      42.407  23.620  27.706  1.00  0.00    -0.014 A 
BRANCH  35  36
ATOM     36  C   UNL A   1      42.744  24.946  28.281  1.00  0.00     0.031 A 
ATOM     37  C   UNL A   1      41.678  25.983  28.503  1.00  0.00     0.074 A 
ATOM     38  C   UNL A   1      44.025  25.226  28.584  1.00  0.00     0.049 A 
ATOM     39  N   UNL A   1      41.800  27.223  28.903  1.00  0.00    -0.248 NA
ATOM     40  C   UNL A   1      40.290  25.571  28.245  1.00  0.00     0.031 C 
ATOM     41  C   UNL A   1      45.150  24.305  28.435  1.00  0.00     0.029 A 
ATOM     42  N   UNL A   1      44.593  26.377  29.071  1.00  0.00    -0.354 N 
ATOM     43  C   UNL A   1      40.510  27.738  28.944  1.00  0.00     0.074 A 
ATOM     44  C   UNL A   1      39.619  26.682  28.516  1.00  0.00     0.031 C 
ATOM     45  C   UNL A   1      46.277  24.926  28.820  1.00  0.00     0.029 A 
ATOM     46  C   UNL A   1      45.957  26.299  29.195  1.00  0.00     0.049 A 
ATOM     47  H   UNL A   1      44.072  27.178  29.307  1.00  0.00     0.167 HD
ATOM     48  C   UNL A   1      40.105  28.978  29.305  1.00  0.00     0.037 A 
ATOM     49  C   UNL A   1      46.855  27.239  29.540  1.00  0.00     0.037 A 
ATOM     50  C   UNL A   1      40.986  30.035  29.725  1.00  0.00     0.049 A 
ATOM     51  C   UNL A   1      46.391  28.627  29.862  1.00  0.00     0.074 A 
ATOM     52  C   UNL A   1      40.664  31.323  30.119  1.00  0.00     0.029 A 
ATOM     53  N   UNL A   1      42.364  29.926  29.799  1.00  0.00    -0.354 N 
ATOM     54  N   UNL A   1      45.170  29.102  29.886  1.00  0.00    -0.248 NA
ATOM     55  C   UNL A   1      47.430  29.613  30.189  1.00  0.00     0.031 C 
ATOM     56  C   UNL A   1      41.855  32.001  30.406  1.00  0.00     0.029 A 
ATOM     57  C   UNL A   1      42.912  31.128  30.212  1.00  0.00     0.049 A 
ATOM     58  H   UNL A   1      42.879  29.112  29.589  1.00  0.00     0.167 HD
ATOM     59  C   UNL A   1      45.292  30.440  30.233  1.00  0.00     0.074 A 
ATOM     60  C   UNL A   1      46.705  30.698  30.423  1.00  0.00     0.031 C 
ATOM     61  C   UNL A   1      44.319  31.370  30.383  1.00  0.00     0.037 A 
BRANCH  48  62
ATOM     62  C   UNL A   1      38.637  29.268  29.248  1.00  0.00     0.057 A 
ATOM     63  C   UNL A   1      37.831  29.187  30.389  1.00  0.00     0.134 A 
ATOM     64  C   UNL A   1      38.036  29.678  28.052  1.00  0.00     0.134 A 
ATOM     65  F   UNL A   1      38.349  28.788  31.560  1.00  0.00    -0.206 F 
ATOM     66  C   UNL A   1      36.471  29.501  30.341  1.00  0.00     0.040 A 
ATOM     67  C   UNL A   1      36.681  30.004  27.995  1.00  0.00     0.040 A 
ATOM     68  F   UNL A   1      38.757  29.771  26.925  1.00  0.00    -0.206 F 
ATOM     69  C   UNL A   1      35.894  29.917  29.142  1.00  0.00     0.006 A 
ENDBRANCH  48  62
BRANCH  49  70
ATOM     70  C   UNL A   1      48.295  26.895  29.556  1.00  0.00     0.057 A 
ATOM     71  C   UNL A   1      49.137  27.269  28.505  1.00  0.00     0.134 A 
ATOM     72  C   UNL A   1      48.864  26.211  30.636  1.00  0.00     0.134 A 
ATOM     73  F   UNL A   1      48.640  27.910  27.437  1.00  0.00    -0.206 F 
ATOM     74  C   UNL A   1      50.501  26.972  28.527  1.00  0.00     0.040 A 
ATOM     75  C   UNL A   1      50.228  25.924  30.679  1.00  0.00     0.040 A 
ATOM     76  F   UNL A   1      48.104  25.831  31.673  1.00  0.00    -0.206 F 
ATOM     77  C   UNL A   1      51.050  26.304  29.619  1.00  0.00     0.006 A 
ENDBRANCH  49  70
BRANCH  61  78
ATOM     78  C   UNL A   1      44.755  32.748  30.770  1.00  0.00     0.057 A 
ATOM     79  C   UNL A   1      45.023  33.725  29.804  1.00  0.00     0.134 A 
ATOM     80  C   UNL A   1      44.883  33.107  32.116  1.00  0.00     0.134 A 
ATOM     81  F   UNL A   1      44.928  33.433  28.498  1.00  0.00    -0.206 F 
ATOM     82  C   UNL A   1      45.418  35.012  30.166  1.00  0.00     0.040 A 
ATOM     83  C   UNL A   1      45.266  34.395  32.491  1.00  0.00     0.040 A 
ATOM     84  F   UNL A   1      44.638  32.212  33.086  1.00  0.00    -0.206 F 
ATOM     85  C   UNL A   1      45.537  35.351  31.513  1.00  0.00     0.006 A 
ENDBRANCH  61  78
ENDBRANCH  35  36
ENDBRANCH  28  30
ENDBRANCH  27  28
ENDBRANCH  26  27
ENDBRANCH  25  26
ENDBRANCH  24  25
ENDBRANCH   1  24
TORSDOF 18
ENDMDL
MODEL 3
REMARK VINA RESULT:     -10.4      4.074      8.551
REMARK SMILES COc1ccc(OCc2nc(N)cc(SCC(=O)OCCOC(=O)c3ccc(-c4c5nc(c(-c6c(F)cccc6F)c6ccc([nH]6)c(-c6c(F)cccc6F)c6nc(c(-c7c(F)cccc7F)c7ccc4[nH]7)C=C6)C=C5)cc3)n2)cc1
REMARK SMILES IDX 17 1 18 2 16 3 15 4 14 5 9 6 10 7 79 8 11 9 13 10 8 11 7 12
REMARK SMILES IDX 6 13 3 14 4 15 81 16 5 17 80 18 2 19 1 20 12 21 19 24 20 25
REMARK SMILES IDX 21 26 22 27 23 28 24 29 25 30 26 31 78 32 27 33 77 34 28 35
REMARK SMILES IDX 29 36 30 37 71 38 31 39 76 40 70 41 72 42 32 43 75 44 69 45
REMARK SMILES IDX 68 46 33 48 59 49 42 50 58 51 43 52 46 53 57 54 73 55 44 56
REMARK SMILES IDX 45 57 56 59 74 60 47 61 34 62 35 63 40 64 36 65 37 66 39 67
REMARK SMILES IDX 41 68 38 69 60 70 61 71 66 72 62 73 63 74 65 75 67 76 64 77
REMARK SMILES IDX 48 78 49 79 54 80 50 81 51 82 53 83 55 84 52 85
REMARK H PARENT 12 22 12 23 72 47 46 58
REMARK Flexibility Score: inf
ROOT
ATOM      1  C   UNL A   1      43.141  20.771  25.968  1.00  0.00     0.316 C 
ATOM      2  O   UNL A   1      43.123  19.970  25.037  1.00  0.00    -0.251 OA
ENDROOT
BRANCH   1   3
ATOM      3  C   UNL A   1      42.045  20.786  27.009  1.00  0.00     0.199 C 
BRANCH   3   4
ATOM      4  S   UNL A   1      40.387  20.355  26.413  1.00  0.00    -0.094 SA
BRANCH   4   5
ATOM      5  C   UNL A   1      39.474  21.885  26.403  1.00  0.00     0.103 A 
ATOM      6  C   UNL A   1      37.578  22.915  25.601  1.00  0.00     0.169 A 
ATOM      7  N   UNL A   1      37.802  24.032  26.313  1.00  0.00    -0.213 NA
ATOM      8  N   UNL A   1      38.371  21.829  25.632  1.00  0.00    -0.223 NA
ATOM      9  C   UNL A   1      38.926  24.076  27.024  1.00  0.00     0.128 A 
ATOM     10  C   UNL A   1      39.793  23.012  27.125  1.00  0.00     0.082 A 
BRANCH   6  11
ATOM     11  C   UNL A   1      36.355  22.891  24.709  1.00  0.00     0.306 C 
BRANCH  11  12
ATOM     12  O   UNL A   1      35.143  22.550  25.396  1.00  0.00    -0.486 OA
BRANCH  12  13
ATOM     13  C   UNL A   1      34.231  23.538  25.651  1.00  0.00     0.120 A 
ATOM     14  C   UNL A   1      32.151  25.335  26.182  1.00  0.00     0.119 A 
ATOM     15  C   UNL A   1      31.986  23.982  26.459  1.00  0.00     0.050 A 
ATOM     16  C   UNL A   1      33.372  25.804  25.702  1.00  0.00     0.050 A 
ATOM     17  C   UNL A   1      33.021  23.087  26.185  1.00  0.00     0.050 A 
ATOM     18  C   UNL A   1      34.413  24.906  25.442  1.00  0.00     0.050 A 
BRANCH  14  19
ATOM     19  O   UNL A   1      31.100  26.167  26.456  1.00  0.00    -0.497 OA
ATOM     20  C   UNL A   1      29.851  25.575  26.103  1.00  0.00     0.278 C 
ENDBRANCH  14  19
ENDBRANCH  12  13
ENDBRANCH  11  12
ENDBRANCH   6  11
BRANCH   9  21
ATOM     21  N   UNL A   1      39.154  25.256  27.708  1.00  0.00    -0.384 N 
ATOM     22  H   UNL A   1      38.509  25.997  27.639  1.00  0.00     0.158 HD
ATOM     23  H   UNL A   1      39.960  25.355  28.264  1.00  0.00     0.158 HD
ENDBRANCH   9  21
ENDBRANCH   4   5
ENDBRANCH   3   4
ENDBRANCH   1   3
BRANCH   1  24
ATOM     24  O   UNL A   1      44.057  21.761  26.108  1.00  0.00    -0.461 OA
BRANCH  24  25
ATOM     25  C   UNL A   1      45.004  21.922  25.034  1.00  0.00     0.274 C 
BRANCH  25  26
ATOM     26  C   UNL A   1      44.608  23.063  24.101  1.00  0.00     0.275 C 
BRANCH  26  27
ATOM     27  O   UNL A   1      43.818  24.036  24.809  1.00  0.00    -0.458 OA
BRANCH  27  28
ATOM     28  C   UNL A   1      44.458  25.177  25.133  1.00  0.00     0.338 C 
ATOM     29  O   UNL A   1      45.510  25.599  24.684  1.00  0.00    -0.246 OA
BRANCH  28  30
ATOM     30  C   UNL A   1      43.717  25.900  26.176  1.00  0.00     0.060 A 
ATOM     31  C   UNL A   1      43.919  27.267  26.373  1.00  0.00     0.016 A 
ATOM     32  C   UNL A   1      42.934  25.163  27.067  1.00  0.00     0.016 A 
ATOM     33  C   UNL A   1      43.381  27.889  27.501  1.00  0.00     0.010 A 
ATOM     34  C   UNL A   1      42.347  25.800  28.161  1.00  0.00     0.010 A 
ATOM     35  C   UNL A   1      42.590  27.161  28.404  1.00  0.00    -0.014 A 
BRANCH  35  36
ATOM     36  C   UNL A   1      42.007  27.816  29.602  1.00  0.00     0.031 A 
ATOM     37  C   UNL A   1      40.758  28.647  29.495  1.00  0.00     0.074 A 
ATOM     38  C   UNL A   1      42.620  27.677  30.791  1.00  0.00     0.049 A 
ATOM     39  N   UNL A   1      40.164  29.368  30.410  1.00  0.00    -0.248 NA
ATOM     40  C   UNL A   1      40.087  28.668  28.186  1.00  0.00     0.031 C 
ATOM     41  C   UNL A   1      43.825  26.886  31.035  1.00  0.00     0.029 A 
ATOM     42  N   UNL A   1      42.316  28.214  32.017  1.00  0.00    -0.354 N 
ATOM     43  C   UNL A   1      39.053  29.927  29.792  1.00  0.00     0.074 A 
ATOM     44  C   UNL A   1      39.060  29.474  28.418  1.00  0.00     0.031 C 
ATOM     45  C   UNL A   1      44.161  26.988  32.331  1.00  0.00     0.029 A 
ATOM     46  C   UNL A   1      43.224  27.890  32.993  1.00  0.00     0.049 A 
ATOM     47  H   UNL A   1      41.524  28.777  32.179  1.00  0.00     0.167 HD
ATOM     48  C   UNL A   1      38.111  30.744  30.320  1.00  0.00     0.037 A 
ATOM     49  C   UNL A   1      43.313  28.300  34.271  1.00  0.00     0.037 A 
ATOM     50  C   UNL A   1      38.100  31.204  31.683  1.00  0.00     0.049 A 
ATOM     51  C   UNL A   1      42.303  29.266  34.813  1.00  0.00     0.074 A 
ATOM     52  C   UNL A   1      37.181  32.027  32.310  1.00  0.00     0.029 A 
ATOM     53  N   UNL A   1      39.061  30.883  32.627  1.00  0.00    -0.354 N 
ATOM     54  N   UNL A   1      41.265  29.795  34.213  1.00  0.00    -0.248 NA
ATOM     55  C   UNL A   1      42.487  29.704  36.204  1.00  0.00     0.031 C 
ATOM     56  C   UNL A   1      37.602  32.226  33.630  1.00  0.00     0.029 A 
ATOM     57  C   UNL A   1      38.770  31.508  33.828  1.00  0.00     0.049 A 
ATOM     58  H   UNL A   1      39.837  30.297  32.468  1.00  0.00     0.167 HD
ATOM     59  C   UNL A   1      40.668  30.624  35.152  1.00  0.00     0.074 A 
ATOM     60  C   UNL A   1      41.453  30.519  36.365  1.00  0.00     0.031 C 
ATOM     61  C   UNL A   1      39.568  31.402  35.020  1.00  0.00     0.037 A 
BRANCH  48  62
ATOM     62  C   UNL A   1      37.014  31.210  29.413  1.00  0.00     0.057 A 
ATOM     63  C   UNL A   1      37.043  32.478  28.822  1.00  0.00     0.134 A 
ATOM     64  C   UNL A   1      35.946  30.364  29.091  1.00  0.00     0.134 A 
ATOM     65  F   UNL A   1      38.034  33.336  29.103  1.00  0.00    -0.206 F 
ATOM     66  C   UNL A   1      36.041  32.892  27.942  1.00  0.00     0.040 A 
ATOM     67  C   UNL A   1      34.945  30.763  28.205  1.00  0.00     0.040 A 
ATOM     68  F   UNL A   1      35.864  29.137  29.629  1.00  0.00    -0.206 F 
ATOM     69  C   UNL A   1      34.991  32.030  27.627  1.00  0.00     0.006 A 
ENDBRANCH  48  62
BRANCH  49  70
ATOM     70  C   UNL A   1      44.435  27.821  35.110  1.00  0.00     0.057 A 
ATOM     71  C   UNL A   1      45.666  28.482  35.114  1.00  0.00     0.134 A 
ATOM     72  C   UNL A   1      44.289  26.709  35.947  1.00  0.00     0.134 A 
ATOM     73  F   UNL A   1      45.865  29.543  34.318  1.00  0.00    -0.206 F 
ATOM     74  C   UNL A   1      46.718  28.053  35.925  1.00  0.00     0.040 A 
ATOM     75  C   UNL A   1      45.326  26.278  36.774  1.00  0.00     0.040 A 
ATOM     76  F   UNL A   1      43.128  26.038  35.985  1.00  0.00    -0.206 F 
ATOM     77  C   UNL A   1      46.547  26.952  36.762  1.00  0.00     0.006 A 
ENDBRANCH  49  70
BRANCH  61  78
ATOM     78  C   UNL A   1      39.153  32.196  36.217  1.00  0.00     0.057 A 
ATOM     79  C   UNL A   1      39.630  33.494  36.431  1.00  0.00     0.134 A 
ATOM     80  C   UNL A   1      38.253  31.669  37.150  1.00  0.00     0.134 A 
ATOM     81  F   UNL A   1      40.505  34.047  35.577  1.00  0.00    -0.206 F 
ATOM     82  C   UNL A   1      39.234  34.238  37.542  1.00  0.00     0.040 A 
ATOM     83  C   UNL A   1      37.840  32.407  38.259  1.00  0.00     0.040 A 
ATOM     84  F   UNL A   1      37.761  30.429  36.996  1.00  0.00    -0.206 F 
ATOM     85  C   UNL A   1      38.333  33.696  38.458  1.00  0.00     0.006 A 
ENDBRANCH  61  78
ENDBRANCH  35  36
ENDBRANCH  28  30
ENDBRANCH  27  28
ENDBRANCH  26  27
ENDBRANCH  25  26
ENDBRANCH  24  25
ENDBRANCH   1  24
TORSDOF 18
ENDMDL
