MODEL 1
REMARK VINA RESULT:      -9.8      0.000      0.000
REMARK SMILES Cc1ccc(F)cc1S(=O)(=O)Nc1ccc(N(C)C)c(C(=O)OCCOC(=O)c2ccc(-c3c4nc(c(-c5c(F)cccc5F)c5ccc([nH]5)c(-c5c(F)cccc5F)c5nc(c(-c6c(F)cccc6F)c6ccc3[nH]6)C=C5)C=C4)cc2)c1
REMARK SMILES IDX 24 1 23 2 21 3 22 4 20 5 13 6 14 7 83 8 15 9 16 10 12 11
REMARK SMILES IDX 9 13 10 14 11 15 8 16 1 17 2 18 3 19 4 20 7 21 5 22 6 23
REMARK SMILES IDX 17 24 18 25 19 26 25 27 26 28 27 29 28 30 29 31 30 32 82 33
REMARK SMILES IDX 31 34 81 35 32 36 33 37 34 38 75 39 35 40 80 41 74 42 76 43
REMARK SMILES IDX 36 44 79 45 73 46 72 47 37 49 63 50 46 51 62 52 47 53 50 54
REMARK SMILES IDX 61 55 77 56 48 57 49 58 60 60 78 61 51 62 38 63 39 64 44 65
REMARK SMILES IDX 40 66 41 67 43 68 45 69 42 70 64 71 65 72 70 73 66 74 67 75
REMARK SMILES IDX 69 76 71 77 68 78 52 79 53 80 58 81 54 82 55 83 57 84 59 85
REMARK SMILES IDX 56 86
REMARK H PARENT 12 12 76 48 50 59
REMARK Flexibility Score: inf
ROOT
ATOM      1  C   UNL A   1      40.519  20.077  26.412  1.00  0.00     0.275 C 
ENDROOT
BRANCH   1   2
ATOM      2  O   UNL A   1      41.741  20.467  25.763  1.00  0.00    -0.458 OA
BRANCH   2   3
ATOM      3  C   UNL A   1      42.624  21.182  26.505  1.00  0.00     0.340 C 
ATOM      4  O   UNL A   1      42.571  21.386  27.704  1.00  0.00    -0.246 OA
BRANCH   3   5
ATOM      5  C   UNL A   1      43.592  21.804  25.572  1.00  0.00     0.085 A 
ATOM      6  C   UNL A   1      44.236  24.003  24.750  1.00  0.00     0.050 A 
ATOM      7  C   UNL A   1      45.251  23.422  24.014  1.00  0.00     0.029 A 
ATOM      8  C   UNL A   1      43.367  23.194  25.457  1.00  0.00     0.044 A 
ATOM      9  C   UNL A   1      45.450  22.033  24.091  1.00  0.00     0.029 A 
ATOM     10  C   UNL A   1      44.696  21.174  24.938  1.00  0.00     0.051 A 
BRANCH   6  11
ATOM     11  N   UNL A   1      44.121  25.418  24.906  1.00  0.00    -0.280 N 
ATOM     12  H   UNL A   1      43.308  25.892  24.618  1.00  0.00     0.180 HD
BRANCH  11  13
ATOM     13  S   UNL A   1      45.437  26.272  25.605  1.00  0.00     0.262 S 
ATOM     14  O   UNL A   1      46.322  26.563  24.493  1.00  0.00    -0.201 OA
ATOM     15  O   UNL A   1      45.932  25.481  26.711  1.00  0.00    -0.201 OA
BRANCH  13  16
ATOM     16  C   UNL A   1      44.826  27.836  26.237  1.00  0.00     0.093 A 
ATOM     17  C   UNL A   1      47.143  28.766  26.960  1.00  0.00     0.046 C 
ATOM     18  C   UNL A   1      45.647  28.818  26.836  1.00  0.00    -0.030 A 
ATOM     19  C   UNL A   1      45.041  29.989  27.339  1.00  0.00     0.008 A 
ATOM     20  C   UNL A   1      43.681  30.232  27.166  1.00  0.00     0.039 A 
ATOM     21  C   UNL A   1      43.459  28.105  26.042  1.00  0.00     0.061 A 
ATOM     22  C   UNL A   1      42.910  29.302  26.492  1.00  0.00     0.124 A 
ATOM     23  F   UNL A   1      41.617  29.563  26.263  1.00  0.00    -0.207 F 
ENDBRANCH  13  16
ENDBRANCH  11  13
ENDBRANCH   6  11
BRANCH  10  24
ATOM     24  N   UNL A   1      45.095  19.839  25.073  1.00  0.00    -0.377 N 
ATOM     25  C   UNL A   1      44.372  18.769  24.371  1.00  0.00     0.143 C 
ATOM     26  C   UNL A   1      46.427  19.460  25.541  1.00  0.00     0.143 C 
ENDBRANCH  10  24
ENDBRANCH   3   5
ENDBRANCH   2   3
ENDBRANCH   1   2
BRANCH   1  27
ATOM     27  C   UNL A   1      39.395  21.017  25.976  1.00  0.00     0.275 C 
BRANCH  27  28
ATOM     28  O   UNL A   1      39.411  22.204  26.791  1.00  0.00    -0.458 OA
BRANCH  28  29
ATOM     29  C   UNL A   1      38.894  23.305  26.192  1.00  0.00     0.338 C 
ATOM     30  O   UNL A   1      38.054  23.345  25.308  1.00  0.00    -0.246 OA
BRANCH  29  31
ATOM     31  C   UNL A   1      39.369  24.503  26.906  1.00  0.00     0.060 A 
ATOM     32  C   UNL A   1      39.009  24.634  28.248  1.00  0.00     0.016 A 
ATOM     33  C   UNL A   1      40.144  25.484  26.282  1.00  0.00     0.016 A 
ATOM     34  C   UNL A   1      39.450  25.730  28.984  1.00  0.00     0.010 A 
ATOM     35  C   UNL A   1      40.555  26.604  27.013  1.00  0.00     0.010 A 
ATOM     36  C   UNL A   1      40.211  26.729  28.369  1.00  0.00    -0.014 A 
BRANCH  36  37
ATOM     37  C   UNL A   1      40.505  27.967  29.125  1.00  0.00     0.031 A 
ATOM     38  C   UNL A   1      41.875  28.142  29.709  1.00  0.00     0.074 A 
ATOM     39  C   UNL A   1      39.601  28.958  29.219  1.00  0.00     0.049 A 
ATOM     40  N   UNL A   1      42.351  29.124  30.430  1.00  0.00    -0.248 NA
ATOM     41  C   UNL A   1      42.847  27.076  29.416  1.00  0.00     0.031 C 
ATOM     42  C   UNL A   1      38.284  28.967  28.588  1.00  0.00     0.029 A 
ATOM     43  N   UNL A   1      39.667  30.162  29.875  1.00  0.00    -0.354 N 
ATOM     44  C   UNL A   1      43.679  28.799  30.670  1.00  0.00     0.074 A 
ATOM     45  C   UNL A   1      43.933  27.531  30.020  1.00  0.00     0.031 C 
ATOM     46  C   UNL A   1      37.665  30.123  28.885  1.00  0.00     0.029 A 
ATOM     47  C   UNL A   1      38.522  30.912  29.769  1.00  0.00     0.049 A 
ATOM     48  H   UNL A   1      40.462  30.461  30.374  1.00  0.00     0.167 HD
ATOM     49  C   UNL A   1      44.602  29.487  31.380  1.00  0.00     0.037 A 
ATOM     50  C   UNL A   1      38.196  32.084  30.350  1.00  0.00     0.037 A 
ATOM     51  C   UNL A   1      44.335  30.717  32.074  1.00  0.00     0.049 A 
ATOM     52  C   UNL A   1      39.184  32.745  31.279  1.00  0.00     0.074 A 
ATOM     53  C   UNL A   1      45.177  31.446  32.896  1.00  0.00     0.029 A 
ATOM     54  N   UNL A   1      43.125  31.392  32.040  1.00  0.00    -0.354 N 
ATOM     55  N   UNL A   1      40.419  32.407  31.552  1.00  0.00    -0.248 NA
ATOM     56  C   UNL A   1      38.719  33.942  31.999  1.00  0.00     0.031 C 
ATOM     57  C   UNL A   1      44.459  32.539  33.395  1.00  0.00     0.029 A 
ATOM     58  C   UNL A   1      43.188  32.516  32.844  1.00  0.00     0.049 A 
ATOM     59  H   UNL A   1      42.337  31.112  31.519  1.00  0.00     0.167 HD
ATOM     60  C   UNL A   1      40.888  33.358  32.451  1.00  0.00     0.074 A 
ATOM     61  C   UNL A   1      39.806  34.294  32.672  1.00  0.00     0.031 C 
ATOM     62  C   UNL A   1      42.105  33.447  33.043  1.00  0.00     0.037 A 
BRANCH  49  63
ATOM     63  C   UNL A   1      45.959  28.866  31.495  1.00  0.00     0.057 A 
ATOM     64  C   UNL A   1      47.035  29.290  30.706  1.00  0.00     0.134 A 
ATOM     65  C   UNL A   1      46.179  27.804  32.380  1.00  0.00     0.134 A 
ATOM     66  F   UNL A   1      46.879  30.285  29.820  1.00  0.00    -0.206 F 
ATOM     67  C   UNL A   1      48.279  28.660  30.775  1.00  0.00     0.040 A 
ATOM     68  C   UNL A   1      47.423  27.181  32.473  1.00  0.00     0.040 A 
ATOM     69  F   UNL A   1      45.185  27.347  33.158  1.00  0.00    -0.206 F 
ATOM     70  C   UNL A   1      48.475  27.603  31.663  1.00  0.00     0.006 A 
ENDBRANCH  49  63
BRANCH  50  71
ATOM     71  C   UNL A   1      36.862  32.697  30.121  1.00  0.00     0.057 A 
ATOM     72  C   UNL A   1      36.661  33.635  29.101  1.00  0.00     0.134 A 
ATOM     73  C   UNL A   1      35.772  32.403  30.949  1.00  0.00     0.134 A 
ATOM     74  F   UNL A   1      37.674  33.982  28.294  1.00  0.00    -0.206 F 
ATOM     75  C   UNL A   1      35.430  34.269  28.922  1.00  0.00     0.040 A 
ATOM     76  C   UNL A   1      34.528  33.011  30.766  1.00  0.00     0.040 A 
ATOM     77  F   UNL A   1      35.900  31.521  31.951  1.00  0.00    -0.206 F 
ATOM     78  C   UNL A   1      34.357  33.954  29.754  1.00  0.00     0.006 A 
ENDBRANCH  50  71
BRANCH  62  79
ATOM     79  C   UNL A   1      42.352  34.615  33.952  1.00  0.00     0.057 A 
ATOM     80  C   UNL A   1      42.184  34.522  35.339  1.00  0.00     0.134 A 
ATOM     81  C   UNL A   1      42.829  35.828  33.437  1.00  0.00     0.134 A 
ATOM     82  F   UNL A   1      41.719  33.392  35.894  1.00  0.00    -0.206 F 
ATOM     83  C   UNL A   1      42.469  35.599  36.181  1.00  0.00     0.040 A 
ATOM     84  C   UNL A   1      43.141  36.902  34.271  1.00  0.00     0.040 A 
ATOM     85  F   UNL A   1      43.020  35.979  32.118  1.00  0.00    -0.206 F 
ATOM     86  C   UNL A   1      42.958  36.791  35.647  1.00  0.00     0.006 A 
ENDBRANCH  62  79
ENDBRANCH  36  37
ENDBRANCH  29  31
ENDBRANCH  28  29
ENDBRANCH  27  28
ENDBRANCH   1  27
TORSDOF 15
ENDMDL
MODEL 2
REMARK VINA RESULT:      -9.7      4.370     11.022
REMARK SMILES Cc1ccc(F)cc1S(=O)(=O)Nc1ccc(N(C)C)c(C(=O)OCCOC(=O)c2ccc(-c3c4nc(c(-c5c(F)cccc5F)c5ccc([nH]5)c(-c5c(F)cccc5F)c5nc(c(-c6c(F)cccc6F)c6ccc3[nH]6)C=C5)C=C4)cc2)c1
REMARK SMILES IDX 24 1 23 2 21 3 22 4 20 5 13 6 14 7 83 8 15 9 16 10 12 11
REMARK SMILES IDX 9 13 10 14 11 15 8 16 1 17 2 18 3 19 4 20 7 21 5 22 6 23
REMARK SMILES IDX 17 24 18 25 19 26 25 27 26 28 27 29 28 30 29 31 30 32 82 33
REMARK SMILES IDX 31 34 81 35 32 36 33 37 34 38 75 39 35 40 80 41 74 42 76 43
REMARK SMILES IDX 36 44 79 45 73 46 72 47 37 49 63 50 46 51 62 52 47 53 50 54
REMARK SMILES IDX 61 55 77 56 48 57 49 58 60 60 78 61 51 62 38 63 39 64 44 65
REMARK SMILES IDX 40 66 41 67 43 68 45 69 42 70 64 71 65 72 70 73 66 74 67 75
REMARK SMILES IDX 69 76 71 77 68 78 52 79 53 80 58 81 54 82 55 83 57 84 59 85
REMARK SMILES IDX 56 86
REMARK H PARENT 12 12 76 48 50 59
REMARK Flexibility Score: inf
ROOT
ATOM      1  C   UNL A   1      34.686  33.793  28.075  1.00  0.00     0.275 C 
ENDROOT
BRANCH   1   2
ATOM      2  O   UNL A   1      34.900  34.245  29.423  1.00  0.00    -0.458 OA
BRANCH   2   3
ATOM      3  C   UNL A   1      33.793  34.459  30.177  1.00  0.00     0.340 C 
ATOM      4  O   UNL A   1      32.714  34.868  29.788  1.00  0.00    -0.246 OA
BRANCH   3   5
ATOM      5  C   UNL A   1      34.169  34.251  31.594  1.00  0.00     0.085 A 
ATOM      6  C   UNL A   1      35.548  32.778  32.957  1.00  0.00     0.050 A 
ATOM      7  C   UNL A   1      35.220  33.519  34.076  1.00  0.00     0.029 A 
ATOM      8  C   UNL A   1      34.964  33.092  31.744  1.00  0.00     0.044 A 
ATOM      9  C   UNL A   1      34.394  34.647  33.937  1.00  0.00     0.029 A 
ATOM     10  C   UNL A   1      33.906  35.119  32.687  1.00  0.00     0.051 A 
BRANCH   6  11
ATOM     11  N   UNL A   1      36.560  31.771  32.979  1.00  0.00    -0.280 N 
ATOM     12  H   UNL A   1      36.476  30.959  32.428  1.00  0.00     0.180 HD
BRANCH  11  13
ATOM     13  S   UNL A   1      37.926  32.008  33.993  1.00  0.00     0.262 S 
ATOM     14  O   UNL A   1      37.404  31.917  35.343  1.00  0.00    -0.201 OA
ATOM     15  O   UNL A   1      38.577  33.228  33.570  1.00  0.00    -0.201 OA
BRANCH  13  16
ATOM     16  C   UNL A   1      39.055  30.634  33.753  1.00  0.00     0.093 A 
ATOM     17  C   UNL A   1      40.944  31.560  35.280  1.00  0.00     0.046 C 
ATOM     18  C   UNL A   1      40.346  30.567  34.325  1.00  0.00    -0.030 A 
ATOM     19  C   UNL A   1      41.160  29.454  34.022  1.00  0.00     0.008 A 
ATOM     20  C   UNL A   1      40.681  28.391  33.263  1.00  0.00     0.039 A 
ATOM     21  C   UNL A   1      38.571  29.541  33.011  1.00  0.00     0.061 A 
ATOM     22  C   UNL A   1      39.381  28.431  32.791  1.00  0.00     0.124 A 
ATOM     23  F   UNL A   1      38.894  27.380  32.119  1.00  0.00    -0.207 F 
ENDBRANCH  13  16
ENDBRANCH  11  13
ENDBRANCH   6  11
BRANCH  10  24
ATOM     24  N   UNL A   1      33.241  36.350  32.643  1.00  0.00    -0.377 N 
ATOM     25  C   UNL A   1      33.912  37.542  32.107  1.00  0.00     0.143 C 
ATOM     26  C   UNL A   1      31.785  36.460  32.717  1.00  0.00     0.143 C 
ENDBRANCH  10  24
ENDBRANCH   3   5
ENDBRANCH   2   3
ENDBRANCH   1   2
BRANCH   1  27
ATOM     27  C   UNL A   1      34.029  32.413  28.104  1.00  0.00     0.275 C 
BRANCH  27  28
ATOM     28  O   UNL A   1      34.764  31.508  27.259  1.00  0.00    -0.458 OA
BRANCH  28  29
ATOM     29  C   UNL A   1      34.771  30.220  27.685  1.00  0.00     0.338 C 
ATOM     30  O   UNL A   1      33.857  29.413  27.628  1.00  0.00    -0.246 OA
BRANCH  29  31
ATOM     31  C   UNL A   1      36.143  29.857  28.080  1.00  0.00     0.060 A 
ATOM     32  C   UNL A   1      37.152  30.044  27.135  1.00  0.00     0.016 A 
ATOM     33  C   UNL A   1      36.443  29.338  29.342  1.00  0.00     0.016 A 
ATOM     34  C   UNL A   1      38.473  29.745  27.457  1.00  0.00     0.010 A 
ATOM     35  C   UNL A   1      37.766  29.002  29.652  1.00  0.00     0.010 A 
ATOM     36  C   UNL A   1      38.786  29.208  28.709  1.00  0.00    -0.014 A 
BRANCH  36  37
ATOM     37  C   UNL A   1      40.164  28.727  28.953  1.00  0.00     0.031 A 
ATOM     38  C   UNL A   1      41.105  29.610  29.718  1.00  0.00     0.074 A 
ATOM     39  C   UNL A   1      40.551  27.495  28.579  1.00  0.00     0.049 A 
ATOM     40  N   UNL A   1      42.361  29.414  30.026  1.00  0.00    -0.248 NA
ATOM     41  C   UNL A   1      40.545  30.872  30.226  1.00  0.00     0.031 C 
ATOM     42  C   UNL A   1      39.695  26.495  27.947  1.00  0.00     0.029 A 
ATOM     43  N   UNL A   1      41.768  26.871  28.697  1.00  0.00    -0.354 N 
ATOM     44  C   UNL A   1      42.739  30.523  30.770  1.00  0.00     0.074 A 
ATOM     45  C   UNL A   1      41.582  31.387  30.867  1.00  0.00     0.031 C 
ATOM     46  C   UNL A   1      40.414  25.379  27.733  1.00  0.00     0.029 A 
ATOM     47  C   UNL A   1      41.791  25.604  28.167  1.00  0.00     0.049 A 
ATOM     48  H   UNL A   1      42.550  27.291  29.122  1.00  0.00     0.167 HD
ATOM     49  C   UNL A   1      43.945  30.805  31.314  1.00  0.00     0.037 A 
ATOM     50  C   UNL A   1      42.820  24.746  28.020  1.00  0.00     0.037 A 
ATOM     51  C   UNL A   1      45.110  29.977  31.170  1.00  0.00     0.049 A 
ATOM     52  C   UNL A   1      44.196  25.158  28.481  1.00  0.00     0.074 A 
ATOM     53  C   UNL A   1      46.402  30.217  31.605  1.00  0.00     0.029 A 
ATOM     54  N   UNL A   1      45.127  28.749  30.525  1.00  0.00    -0.354 N 
ATOM     55  N   UNL A   1      44.564  26.233  29.133  1.00  0.00    -0.248 NA
ATOM     56  C   UNL A   1      45.304  24.244  28.161  1.00  0.00     0.031 C 
ATOM     57  C   UNL A   1      47.209  29.155  31.182  1.00  0.00     0.029 A 
ATOM     58  C   UNL A   1      46.409  28.231  30.528  1.00  0.00     0.049 A 
ATOM     59  H   UNL A   1      44.340  28.312  30.124  1.00  0.00     0.167 HD
ATOM     60  C   UNL A   1      45.935  26.114  29.325  1.00  0.00     0.074 A 
ATOM     61  C   UNL A   1      46.335  24.858  28.728  1.00  0.00     0.031 C 
ATOM     62  C   UNL A   1      46.789  26.970  29.941  1.00  0.00     0.037 A 
BRANCH  49  63
ATOM     63  C   UNL A   1      44.063  32.106  32.044  1.00  0.00     0.057 A 
ATOM     64  C   UNL A   1      44.211  33.323  31.368  1.00  0.00     0.134 A 
ATOM     65  C   UNL A   1      44.068  32.134  33.444  1.00  0.00     0.134 A 
ATOM     66  F   UNL A   1      44.242  33.357  30.027  1.00  0.00    -0.206 F 
ATOM     67  C   UNL A   1      44.387  34.522  32.060  1.00  0.00     0.040 A 
ATOM     68  C   UNL A   1      44.221  33.330  34.147  1.00  0.00     0.040 A 
ATOM     69  F   UNL A   1      43.937  31.001  34.149  1.00  0.00    -0.206 F 
ATOM     70  C   UNL A   1      44.389  34.527  33.455  1.00  0.00     0.006 A 
ENDBRANCH  49  63
BRANCH  50  71
ATOM     71  C   UNL A   1      42.616  23.426  27.369  1.00  0.00     0.057 A 
ATOM     72  C   UNL A   1      42.303  22.287  28.120  1.00  0.00     0.134 A 
ATOM     73  C   UNL A   1      42.785  23.260  25.988  1.00  0.00     0.134 A 
ATOM     74  F   UNL A   1      42.159  22.374  29.449  1.00  0.00    -0.206 F 
ATOM     75  C   UNL A   1      42.179  21.029  27.525  1.00  0.00     0.040 A 
ATOM     76  C   UNL A   1      42.639  22.013  25.377  1.00  0.00     0.040 A 
ATOM     77  F   UNL A   1      43.096  24.308  25.212  1.00  0.00    -0.206 F 
ATOM     78  C   UNL A   1      42.344  20.891  26.148  1.00  0.00     0.006 A 
ENDBRANCH  50  71
BRANCH  62  79
ATOM     79  C   UNL A   1      48.229  26.565  30.039  1.00  0.00     0.057 A 
ATOM     80  C   UNL A   1      49.170  26.929  29.068  1.00  0.00     0.134 A 
ATOM     81  C   UNL A   1      48.694  25.856  31.155  1.00  0.00     0.134 A 
ATOM     82  F   UNL A   1      48.789  27.598  27.969  1.00  0.00    -0.206 F 
ATOM     83  C   UNL A   1      50.519  26.593  29.197  1.00  0.00     0.040 A 
ATOM     84  C   UNL A   1      50.043  25.535  31.308  1.00  0.00     0.040 A 
ATOM     85  F   UNL A   1      47.846  25.483  32.126  1.00  0.00    -0.206 F 
ATOM     86  C   UNL A   1      50.960  25.902  30.325  1.00  0.00     0.006 A 
ENDBRANCH  62  79
ENDBRANCH  36  37
ENDBRANCH  29  31
ENDBRANCH  28  29
ENDBRANCH  27  28
ENDBRANCH   1  27
TORSDOF 15
ENDMDL
MODEL 3
REMARK VINA RESULT:      -9.7      4.923     10.550
REMARK SMILES Cc1ccc(F)cc1S(=O)(=O)Nc1ccc(N(C)C)c(C(=O)OCCOC(=O)c2ccc(-c3c4nc(c(-c5c(F)cccc5F)c5ccc([nH]5)c(-c5c(F)cccc5F)c5nc(c(-c6c(F)cccc6F)c6ccc3[nH]6)C=C5)C=C4)cc2)c1
REMARK SMILES IDX 24 1 23 2 21 3 22 4 20 5 13 6 14 7 83 8 15 9 16 10 12 11
REMARK SMILES IDX 9 13 10 14 11 15 8 16 1 17 2 18 3 19 4 20 7 21 5 22 6 23
REMARK SMILES IDX 17 24 18 25 19 26 25 27 26 28 27 29 28 30 29 31 30 32 82 33
REMARK SMILES IDX 31 34 81 35 32 36 33 37 34 38 75 39 35 40 80 41 74 42 76 43
REMARK SMILES IDX 36 44 79 45 73 46 72 47 37 49 63 50 46 51 62 52 47 53 50 54
REMARK SMILES IDX 61 55 77 56 48 57 49 58 60 60 78 61 51 62 38 63 39 64 44 65
REMARK SMILES IDX 40 66 41 67 43 68 45 69 42 70 64 71 65 72 70 73 66 74 67 75
REMARK SMILES IDX 69 76 71 77 68 78 52 79 53 80 58 81 54 82 55 83 57 84 59 85
REMARK SMILES IDX 56 86
REMARK H PARENT 12 12 76 48 50 59
REMARK Flexibility Score: inf
ROOT
ATOM      1  C   UNL A   1      32.393  29.765  27.255  1.00  0.00     0.275 C 
ENDROOT
BRANCH   1   2
ATOM      2  O   UNL A   1      31.680  29.066  26.220  1.00  0.00    -0.458 OA
BRANCH   2   3
ATOM      3  C   UNL A   1      31.611  27.716  26.332  1.00  0.00     0.340 C 
ATOM      4  O   UNL A   1      31.279  27.083  27.318  1.00  0.00    -0.246 OA
BRANCH   3   5
ATOM      5  C   UNL A   1      32.157  27.135  25.084  1.00  0.00     0.085 A 
ATOM      6  C   UNL A   1      33.951  25.665  24.345  1.00  0.00     0.050 A 
ATOM      7  C   UNL A   1      33.481  25.757  23.048  1.00  0.00     0.029 A 
ATOM      8  C   UNL A   1      33.343  26.410  25.337  1.00  0.00     0.044 A 
ATOM      9  C   UNL A   1      32.326  26.513  22.786  1.00  0.00     0.029 A 
ATOM     10  C   UNL A   1      31.560  27.158  23.796  1.00  0.00     0.051 A 
BRANCH   6  11
ATOM     11  N   UNL A   1      34.968  24.737  24.723  1.00  0.00    -0.280 N 
ATOM     12  H   UNL A   1      35.919  24.939  24.567  1.00  0.00     0.180 HD
BRANCH  11  13
ATOM     13  S   UNL A   1      34.492  23.258  25.454  1.00  0.00     0.262 S 
ATOM     14  O   UNL A   1      33.392  22.779  24.639  1.00  0.00    -0.201 OA
ATOM     15  O   UNL A   1      34.266  23.518  26.859  1.00  0.00    -0.201 OA
BRANCH  13  16
ATOM     16  C   UNL A   1      35.840  22.084  25.291  1.00  0.00     0.093 A 
ATOM     17  C   UNL A   1      37.725  23.728  25.998  1.00  0.00     0.046 C 
ATOM     18  C   UNL A   1      37.197  22.408  25.512  1.00  0.00    -0.030 A 
ATOM     19  C   UNL A   1      38.172  21.408  25.304  1.00  0.00     0.008 A 
ATOM     20  C   UNL A   1      37.813  20.102  24.987  1.00  0.00     0.039 A 
ATOM     21  C   UNL A   1      35.486  20.754  25.000  1.00  0.00     0.061 A 
ATOM     22  C   UNL A   1      36.472  19.781  24.869  1.00  0.00     0.124 A 
ATOM     23  F   UNL A   1      36.120  18.510  24.633  1.00  0.00    -0.207 F 
ENDBRANCH  13  16
ENDBRANCH  11  13
ENDBRANCH   6  11
BRANCH  10  24
ATOM     24  N   UNL A   1      30.332  27.733  23.448  1.00  0.00    -0.377 N 
ATOM     25  C   UNL A   1      30.280  28.921  22.585  1.00  0.00     0.143 C 
ATOM     26  C   UNL A   1      29.067  27.005  23.546  1.00  0.00     0.143 C 
ENDBRANCH  10  24
ENDBRANCH   3   5
ENDBRANCH   2   3
ENDBRANCH   1   2
BRANCH   1  27
ATOM     27  C   UNL A   1      33.857  29.921  26.841  1.00  0.00     0.275 C 
BRANCH  27  28
ATOM     28  O   UNL A   1      34.711  29.357  27.853  1.00  0.00    -0.458 OA
BRANCH  28  29
ATOM     29  C   UNL A   1      35.416  30.270  28.567  1.00  0.00     0.338 C 
ATOM     30  O   UNL A   1      34.978  31.203  29.219  1.00  0.00    -0.246 OA
BRANCH  29  31
ATOM     31  C   UNL A   1      36.830  29.860  28.597  1.00  0.00     0.060 A 
ATOM     32  C   UNL A   1      37.575  30.039  27.431  1.00  0.00     0.016 A 
ATOM     33  C   UNL A   1      37.421  29.304  29.735  1.00  0.00     0.016 A 
ATOM     34  C   UNL A   1      38.923  29.697  27.405  1.00  0.00     0.010 A 
ATOM     35  C   UNL A   1      38.768  28.924  29.696  1.00  0.00     0.010 A 
ATOM     36  C   UNL A   1      39.524  29.122  28.529  1.00  0.00    -0.014 A 
BRANCH  36  37
ATOM     37  C   UNL A   1      40.903  28.598  28.411  1.00  0.00     0.031 A 
ATOM     38  C   UNL A   1      42.048  29.524  28.695  1.00  0.00     0.074 A 
ATOM     39  C   UNL A   1      41.136  27.302  28.141  1.00  0.00     0.049 A 
ATOM     40  N   UNL A   1      43.334  29.298  28.628  1.00  0.00    -0.248 NA
ATOM     41  C   UNL A   1      41.692  30.881  29.140  1.00  0.00     0.031 C 
ATOM     42  C   UNL A   1      40.112  26.274  27.973  1.00  0.00     0.029 A 
ATOM     43  N   UNL A   1      42.320  26.627  27.976  1.00  0.00    -0.354 N 
ATOM     44  C   UNL A   1      43.941  30.480  29.029  1.00  0.00     0.074 A 
ATOM     45  C   UNL A   1      42.885  31.420  29.337  1.00  0.00     0.031 C 
ATOM     46  C   UNL A   1      40.713  25.096  27.732  1.00  0.00     0.029 A 
ATOM     47  C   UNL A   1      42.160  25.296  27.677  1.00  0.00     0.049 A 
ATOM     48  H   UNL A   1      43.202  27.056  28.066  1.00  0.00     0.167 HD
ATOM     49  C   UNL A   1      45.261  30.764  29.121  1.00  0.00     0.037 A 
ATOM     50  C   UNL A   1      43.079  24.362  27.361  1.00  0.00     0.037 A 
ATOM     51  C   UNL A   1      46.311  29.851  28.761  1.00  0.00     0.049 A 
ATOM     52  C   UNL A   1      44.535  24.752  27.302  1.00  0.00     0.074 A 
ATOM     53  C   UNL A   1      47.677  30.073  28.732  1.00  0.00     0.029 A 
ATOM     54  N   UNL A   1      46.107  28.543  28.349  1.00  0.00    -0.354 N 
ATOM     55  N   UNL A   1      45.103  25.887  27.626  1.00  0.00    -0.248 NA
ATOM     56  C   UNL A   1      45.475  23.732  26.808  1.00  0.00     0.031 C 
ATOM     57  C   UNL A   1      48.296  28.910  28.258  1.00  0.00     0.029 A 
ATOM     58  C   UNL A   1      47.319  27.951  28.041  1.00  0.00     0.049 A 
ATOM     59  H   UNL A   1      45.230  28.100  28.287  1.00  0.00     0.167 HD
ATOM     60  C   UNL A   1      46.464  25.712  27.402  1.00  0.00     0.074 A 
ATOM     61  C   UNL A   1      46.639  24.358  26.923  1.00  0.00     0.031 C 
ATOM     62  C   UNL A   1      47.479  26.595  27.577  1.00  0.00     0.037 A 
BRANCH  49  63
ATOM     63  C   UNL A   1      45.620  32.149  29.559  1.00  0.00     0.057 A 
ATOM     64  C   UNL A   1      45.851  32.464  30.903  1.00  0.00     0.134 A 
ATOM     65  C   UNL A   1      45.696  33.189  28.624  1.00  0.00     0.134 A 
ATOM     66  F   UNL A   1      45.764  31.516  31.849  1.00  0.00    -0.206 F 
ATOM     67  C   UNL A   1      46.120  33.773  31.308  1.00  0.00     0.040 A 
ATOM     68  C   UNL A   1      45.986  34.497  29.013  1.00  0.00     0.040 A 
ATOM     69  F   UNL A   1      45.479  32.953  27.322  1.00  0.00    -0.206 F 
ATOM     70  C   UNL A   1      46.190  34.793  30.359  1.00  0.00     0.006 A 
ENDBRANCH  49  63
BRANCH  50  71
ATOM     71  C   UNL A   1      42.664  22.975  27.027  1.00  0.00     0.057 A 
ATOM     72  C   UNL A   1      42.569  22.547  25.697  1.00  0.00     0.134 A 
ATOM     73  C   UNL A   1      42.298  22.063  28.025  1.00  0.00     0.134 A 
ATOM     74  F   UNL A   1      42.876  23.383  24.696  1.00  0.00    -0.206 F 
ATOM     75  C   UNL A   1      42.113  21.268  25.372  1.00  0.00     0.040 A 
ATOM     76  C   UNL A   1      41.864  20.773  27.715  1.00  0.00     0.040 A 
ATOM     77  F   UNL A   1      42.356  22.413  29.318  1.00  0.00    -0.206 F 
ATOM     78  C   UNL A   1      41.762  20.375  26.383  1.00  0.00     0.006 A 
ENDBRANCH  50  71
BRANCH  62  79
ATOM     79  C   UNL A   1      48.872  26.119  27.291  1.00  0.00     0.057 A 
ATOM     80  C   UNL A   1      49.448  26.237  26.020  1.00  0.00     0.134 A 
ATOM     81  C   UNL A   1      49.670  25.596  28.317  1.00  0.00     0.134 A 
ATOM     82  F   UNL A   1      48.735  26.718  24.991  1.00  0.00    -0.206 F 
ATOM     83  C   UNL A   1      50.765  25.840  25.778  1.00  0.00     0.040 A 
ATOM     84  C   UNL A   1      50.994  25.219  28.093  1.00  0.00     0.040 A 
ATOM     85  F   UNL A   1      49.180  25.464  29.560  1.00  0.00    -0.206 F 
ATOM     86  C   UNL A   1      51.545  25.338  26.819  1.00  0.00     0.006 A 
ENDBRANCH  62  79
ENDBRANCH  36  37
ENDBRANCH  29  31
ENDBRANCH  28  29
ENDBRANCH  27  28
ENDBRANCH   1  27
TORSDOF 15
ENDMDL
