MODEL 1
REMARK VINA RESULT:     -11.8      0.000      0.000
REMARK SMILES Cc1c(Cl)cccc1NC(=O)C[C@](C)(C(=O)OCCOC(=O)c1ccc(-c2c3nc(c(-c4c(F)cccc4F)c4ccc([nH]4)c(-c4c(F)cccc4F)c4nc(c(-c5c(F)cccc5F)c5ccc2[nH]5)C=C4)C=C3)cc1)c1ccccc1
REMARK SMILES IDX 18 1 17 2 15 3 16 4 13 5 14 6 12 7 10 8 9 9 11 11 8 12 1 13
REMARK SMILES IDX 2 14 3 15 4 16 5 17 7 18 6 19 77 20 78 21 82 22 79 23 81 24
REMARK SMILES IDX 80 25 19 26 20 27 21 28 22 29 23 30 24 31 76 32 25 33 75 34
REMARK SMILES IDX 26 35 27 36 28 37 69 38 29 39 74 40 68 41 70 42 30 43 73 44
REMARK SMILES IDX 67 45 66 46 31 48 57 49 40 50 56 51 41 52 44 53 55 54 71 55
REMARK SMILES IDX 42 56 43 57 54 59 72 60 45 61 32 62 33 63 38 64 34 65 35 66
REMARK SMILES IDX 37 67 39 68 36 69 58 70 59 71 64 72 60 73 61 74 63 75 65 76
REMARK SMILES IDX 62 77 46 78 47 79 52 80 48 81 49 82 51 83 53 84 50 85
REMARK H PARENT 9 10 70 47 44 58
REMARK Flexibility Score: inf
ROOT
ATOM      1  C   UNL A   1      35.092  21.005  25.128  1.00  0.00     0.274 C 
ENDROOT
BRANCH   1   2
ATOM      2  O   UNL A   1      35.001  22.436  25.315  1.00  0.00    -0.461 OA
BRANCH   2   3
ATOM      3  C   UNL A   1      34.657  23.193  24.232  1.00  0.00     0.316 C 
ATOM      4  O   UNL A   1      35.330  23.207  23.208  1.00  0.00    -0.251 OA
BRANCH   3   5
ATOM      5  C   UNL A   1      33.395  24.091  24.489  1.00  0.00     0.099 C 
ATOM      6  C   UNL A   1      32.110  23.324  24.053  1.00  0.00     0.029 C 
BRANCH   5   7
ATOM      7  C   UNL A   1      33.267  24.448  26.001  1.00  0.00     0.123 C 
BRANCH   7   8
ATOM      8  C   UNL A   1      31.886  24.425  26.624  1.00  0.00     0.225 C 
ATOM      9  N   UNL A   1      30.984  25.442  26.564  1.00  0.00    -0.326 N 
ATOM     10  H   UNL A   1      30.129  25.206  26.992  1.00  0.00     0.169 HD
ATOM     11  O   UNL A   1      31.514  23.403  27.214  1.00  0.00    -0.275 OA
BRANCH   9  12
ATOM     12  C   UNL A   1      30.974  26.751  26.041  1.00  0.00     0.045 A 
ATOM     13  C   UNL A   1      29.620  25.942  23.998  1.00  0.00     0.048 C 
ATOM     14  C   UNL A   1      30.372  26.994  24.780  1.00  0.00    -0.009 A 
ATOM     15  C   UNL A   1      30.534  28.271  24.189  1.00  0.00     0.046 A 
ATOM     16  Cl  UNL A   1      29.931  28.628  22.605  1.00  0.00    -0.084 Cl
ATOM     17  C   UNL A   1      31.226  29.291  24.839  1.00  0.00     0.021 A 
ATOM     18  C   UNL A   1      31.565  27.822  26.716  1.00  0.00     0.026 A 
ATOM     19  C   UNL A   1      31.716  29.074  26.116  1.00  0.00     0.004 A 
ENDBRANCH   9  12
ENDBRANCH   7   8
ENDBRANCH   5   7
BRANCH   5  20
ATOM     20  C   UNL A   1      33.462  25.446  23.696  1.00  0.00    -0.030 A 
ATOM     21  C   UNL A   1      34.069  26.601  24.240  1.00  0.00     0.005 A 
ATOM     22  C   UNL A   1      32.961  25.563  22.385  1.00  0.00     0.005 A 
ATOM     23  C   UNL A   1      34.093  27.819  23.548  1.00  0.00     0.000 A 
ATOM     24  C   UNL A   1      32.976  26.783  21.697  1.00  0.00     0.000 A 
ATOM     25  C   UNL A   1      33.531  27.914  22.282  1.00  0.00     0.000 A 
ENDBRANCH   5  20
ENDBRANCH   3   5
ENDBRANCH   2   3
ENDBRANCH   1   2
BRANCH   1  26
ATOM     26  C   UNL A   1      36.552  20.577  24.975  1.00  0.00     0.275 C 
BRANCH  26  27
ATOM     27  O   UNL A   1      37.386  21.500  25.692  1.00  0.00    -0.458 OA
BRANCH  27  28
ATOM     28  C   UNL A   1      38.635  21.043  25.950  1.00  0.00     0.338 C 
ATOM     29  O   UNL A   1      39.108  19.965  25.656  1.00  0.00    -0.246 OA
BRANCH  28  30
ATOM     30  C   UNL A   1      39.435  22.201  26.387  1.00  0.00     0.060 A 
ATOM     31  C   UNL A   1      39.000  23.454  25.960  1.00  0.00     0.016 A 
ATOM     32  C   UNL A   1      40.536  22.083  27.235  1.00  0.00     0.016 A 
ATOM     33  C   UNL A   1      39.632  24.604  26.404  1.00  0.00     0.010 A 
ATOM     34  C   UNL A   1      41.195  23.242  27.659  1.00  0.00     0.010 A 
ATOM     35  C   UNL A   1      40.734  24.505  27.251  1.00  0.00    -0.014 A 
BRANCH  35  36
ATOM     36  C   UNL A   1      41.466  25.736  27.601  1.00  0.00     0.031 A 
ATOM     37  C   UNL A   1      40.781  26.756  28.452  1.00  0.00     0.074 A 
ATOM     38  C   UNL A   1      42.750  25.896  27.241  1.00  0.00     0.049 A 
ATOM     39  N   UNL A   1      41.168  27.960  28.776  1.00  0.00    -0.248 NA
ATOM     40  C   UNL A   1      39.490  26.354  29.032  1.00  0.00     0.031 C 
ATOM     41  C   UNL A   1      43.572  24.895  26.564  1.00  0.00     0.029 A 
ATOM     42  N   UNL A   1      43.589  26.968  27.405  1.00  0.00    -0.354 N 
ATOM     43  C   UNL A   1      40.162  28.468  29.585  1.00  0.00     0.074 A 
ATOM     44  C   UNL A   1      39.150  27.441  29.705  1.00  0.00     0.031 C 
ATOM     45  C   UNL A   1      44.798  25.406  26.358  1.00  0.00     0.029 A 
ATOM     46  C   UNL A   1      44.822  26.790  26.828  1.00  0.00     0.049 A 
ATOM     47  H   UNL A   1      43.332  27.785  27.890  1.00  0.00     0.167 HD
ATOM     48  C   UNL A   1      40.087  29.690  30.159  1.00  0.00     0.037 A 
ATOM     49  C   UNL A   1      45.828  27.670  26.658  1.00  0.00     0.037 A 
ATOM     50  C   UNL A   1      41.091  30.708  30.006  1.00  0.00     0.049 A 
ATOM     51  C   UNL A   1      45.642  29.085  27.142  1.00  0.00     0.074 A 
ATOM     52  C   UNL A   1      41.089  32.005  30.484  1.00  0.00     0.029 A 
ATOM     53  N   UNL A   1      42.278  30.539  29.306  1.00  0.00    -0.354 N 
ATOM     54  N   UNL A   1      44.657  29.601  27.837  1.00  0.00    -0.248 NA
ATOM     55  C   UNL A   1      46.693  30.050  26.786  1.00  0.00     0.031 C 
ATOM     56  C   UNL A   1      42.250  32.638  30.025  1.00  0.00     0.029 A 
ATOM     57  C   UNL A   1      43.001  31.719  29.309  1.00  0.00     0.049 A 
ATOM     58  H   UNL A   1      42.563  29.702  28.871  1.00  0.00     0.167 HD
ATOM     59  C   UNL A   1      44.977  30.941  28.020  1.00  0.00     0.074 A 
ATOM     60  C   UNL A   1      46.255  31.155  27.373  1.00  0.00     0.031 C 
ATOM     61  C   UNL A   1      44.276  31.908  28.663  1.00  0.00     0.037 A 
BRANCH  48  62
ATOM     62  C   UNL A   1      38.837  30.003  30.924  1.00  0.00     0.057 A 
ATOM     63  C   UNL A   1      37.725  30.604  30.322  1.00  0.00     0.134 A 
ATOM     64  C   UNL A   1      38.765  29.732  32.296  1.00  0.00     0.134 A 
ATOM     65  F   UNL A   1      37.740  30.914  29.017  1.00  0.00    -0.206 F 
ATOM     66  C   UNL A   1      36.595  30.952  31.067  1.00  0.00     0.040 A 
ATOM     67  C   UNL A   1      37.632  30.051  33.045  1.00  0.00     0.040 A 
ATOM     68  F   UNL A   1      39.799  29.161  32.934  1.00  0.00    -0.206 F 
ATOM     69  C   UNL A   1      36.547  30.673  32.431  1.00  0.00     0.006 A 
ENDBRANCH  48  62
BRANCH  49  70
ATOM     70  C   UNL A   1      47.068  27.270  25.945  1.00  0.00     0.057 A 
ATOM     71  C   UNL A   1      47.193  27.439  24.562  1.00  0.00     0.134 A 
ATOM     72  C   UNL A   1      48.140  26.671  26.618  1.00  0.00     0.134 A 
ATOM     73  F   UNL A   1      46.188  27.978  23.854  1.00  0.00    -0.206 F 
ATOM     74  C   UNL A   1      48.331  27.017  23.871  1.00  0.00     0.040 A 
ATOM     75  C   UNL A   1      49.295  26.269  25.946  1.00  0.00     0.040 A 
ATOM     76  F   UNL A   1      48.083  26.468  27.942  1.00  0.00    -0.206 F 
ATOM     77  C   UNL A   1      49.390  26.434  24.566  1.00  0.00     0.006 A 
ENDBRANCH  49  70
BRANCH  61  78
ATOM     78  C   UNL A   1      44.884  33.278  28.724  1.00  0.00     0.057 A 
ATOM     79  C   UNL A   1      45.794  33.637  29.727  1.00  0.00     0.134 A 
ATOM     80  C   UNL A   1      44.612  34.224  27.728  1.00  0.00     0.134 A 
ATOM     81  F   UNL A   1      46.086  32.782  30.718  1.00  0.00    -0.206 F 
ATOM     82  C   UNL A   1      46.404  34.893  29.741  1.00  0.00     0.040 A 
ATOM     83  C   UNL A   1      45.236  35.472  27.715  1.00  0.00     0.040 A 
ATOM     84  F   UNL A   1      43.757  33.940  26.734  1.00  0.00    -0.206 F 
ATOM     85  C   UNL A   1      46.134  35.810  28.727  1.00  0.00     0.006 A 
ENDBRANCH  61  78
ENDBRANCH  35  36
ENDBRANCH  28  30
ENDBRANCH  27  28
ENDBRANCH  26  27
ENDBRANCH   1  26
TORSDOF 15
ENDMDL
MODEL 2
REMARK VINA RESULT:     -11.7      1.054      2.426
REMARK SMILES Cc1c(Cl)cccc1NC(=O)C[C@](C)(C(=O)OCCOC(=O)c1ccc(-c2c3nc(c(-c4c(F)cccc4F)c4ccc([nH]4)c(-c4c(F)cccc4F)c4nc(c(-c5c(F)cccc5F)c5ccc2[nH]5)C=C4)C=C3)cc1)c1ccccc1
REMARK SMILES IDX 18 1 17 2 15 3 16 4 13 5 14 6 12 7 10 8 9 9 11 11 8 12 1 13
REMARK SMILES IDX 2 14 3 15 4 16 5 17 7 18 6 19 77 20 78 21 82 22 79 23 81 24
REMARK SMILES IDX 80 25 19 26 20 27 21 28 22 29 23 30 24 31 76 32 25 33 75 34
REMARK SMILES IDX 26 35 27 36 28 37 69 38 29 39 74 40 68 41 70 42 30 43 73 44
REMARK SMILES IDX 67 45 66 46 31 48 57 49 40 50 56 51 41 52 44 53 55 54 71 55
REMARK SMILES IDX 42 56 43 57 54 59 72 60 45 61 32 62 33 63 38 64 34 65 35 66
REMARK SMILES IDX 37 67 39 68 36 69 58 70 59 71 64 72 60 73 61 74 63 75 65 76
REMARK SMILES IDX 62 77 46 78 47 79 52 80 48 81 49 82 51 83 53 84 50 85
REMARK H PARENT 9 10 70 47 44 58
REMARK Flexibility Score: inf
ROOT
ATOM      1  C   UNL A   1      34.586  21.308  26.483  1.00  0.00     0.274 C 
ENDROOT
BRANCH   1   2
ATOM      2  O   UNL A   1      34.467  22.737  26.662  1.00  0.00    -0.461 OA
BRANCH   2   3
ATOM      3  C   UNL A   1      33.209  23.257  26.765  1.00  0.00     0.316 C 
ATOM      4  O   UNL A   1      32.452  22.955  27.679  1.00  0.00    -0.251 OA
BRANCH   3   5
ATOM      5  C   UNL A   1      32.827  24.180  25.553  1.00  0.00     0.099 C 
ATOM      6  C   UNL A   1      33.849  23.970  24.394  1.00  0.00     0.029 C 
BRANCH   5   7
ATOM      7  C   UNL A   1      31.402  23.834  25.022  1.00  0.00     0.123 C 
BRANCH   7   8
ATOM      8  C   UNL A   1      31.205  23.737  23.522  1.00  0.00     0.225 C 
ATOM      9  N   UNL A   1      31.089  24.797  22.678  1.00  0.00    -0.326 N 
ATOM     10  H   UNL A   1      31.016  24.517  21.737  1.00  0.00     0.169 HD
ATOM     11  O   UNL A   1      31.172  22.617  22.995  1.00  0.00    -0.275 OA
BRANCH   9  12
ATOM     12  C   UNL A   1      31.047  26.199  22.821  1.00  0.00     0.045 A 
ATOM     13  C   UNL A   1      33.503  26.369  22.048  1.00  0.00     0.048 C 
ATOM     14  C   UNL A   1      32.217  26.961  22.576  1.00  0.00    -0.009 A 
ATOM     15  C   UNL A   1      32.206  28.340  22.903  1.00  0.00     0.046 A 
ATOM     16  Cl  UNL A   1      33.621  29.328  22.744  1.00  0.00    -0.084 Cl
ATOM     17  C   UNL A   1      31.065  28.958  23.409  1.00  0.00     0.021 A 
ATOM     18  C   UNL A   1      29.887  26.867  23.223  1.00  0.00     0.026 A 
ATOM     19  C   UNL A   1      29.897  28.227  23.541  1.00  0.00     0.004 A 
ENDBRANCH   9  12
ENDBRANCH   7   8
ENDBRANCH   5   7
BRANCH   5  20
ATOM     20  C   UNL A   1      32.820  25.701  25.945  1.00  0.00    -0.030 A 
ATOM     21  C   UNL A   1      31.679  26.324  26.501  1.00  0.00     0.005 A 
ATOM     22  C   UNL A   1      33.966  26.507  25.805  1.00  0.00     0.005 A 
ATOM     23  C   UNL A   1      31.662  27.689  26.814  1.00  0.00     0.000 A 
ATOM     24  C   UNL A   1      33.945  27.875  26.108  1.00  0.00     0.000 A 
ATOM     25  C   UNL A   1      32.790  28.469  26.602  1.00  0.00     0.000 A 
ENDBRANCH   5  20
ENDBRANCH   3   5
ENDBRANCH   2   3
ENDBRANCH   1   2
BRANCH   1  26
ATOM     26  C   UNL A   1      35.696  20.984  25.482  1.00  0.00     0.275 C 
BRANCH  26  27
ATOM     27  O   UNL A   1      36.744  21.956  25.619  1.00  0.00    -0.458 OA
BRANCH  27  28
ATOM     28  C   UNL A   1      37.985  21.428  25.751  1.00  0.00     0.338 C 
ATOM     29  O   UNL A   1      38.382  20.354  25.349  1.00  0.00    -0.246 OA
BRANCH  28  30
ATOM     30  C   UNL A   1      38.868  22.514  26.209  1.00  0.00     0.060 A 
ATOM     31  C   UNL A   1      38.465  23.813  25.905  1.00  0.00     0.016 A 
ATOM     32  C   UNL A   1      40.021  22.287  26.961  1.00  0.00     0.016 A 
ATOM     33  C   UNL A   1      39.182  24.899  26.380  1.00  0.00     0.010 A 
ATOM     34  C   UNL A   1      40.763  23.382  27.415  1.00  0.00     0.010 A 
ATOM     35  C   UNL A   1      40.336  24.690  27.134  1.00  0.00    -0.014 A 
BRANCH  35  36
ATOM     36  C   UNL A   1      41.149  25.860  27.514  1.00  0.00     0.031 A 
ATOM     37  C   UNL A   1      40.525  26.916  28.368  1.00  0.00     0.074 A 
ATOM     38  C   UNL A   1      42.448  25.930  27.178  1.00  0.00     0.049 A 
ATOM     39  N   UNL A   1      40.993  28.084  28.716  1.00  0.00    -0.248 NA
ATOM     40  C   UNL A   1      39.198  26.602  28.920  1.00  0.00     0.031 C 
ATOM     41  C   UNL A   1      43.206  24.880  26.501  1.00  0.00     0.029 A 
ATOM     42  N   UNL A   1      43.359  26.935  27.373  1.00  0.00    -0.354 N 
ATOM     43  C   UNL A   1      40.013  28.654  29.515  1.00  0.00     0.074 A 
ATOM     44  C   UNL A   1      38.926  27.702  29.603  1.00  0.00     0.031 C 
ATOM     45  C   UNL A   1      44.471  25.303  26.324  1.00  0.00     0.029 A 
ATOM     46  C   UNL A   1      44.587  26.675  26.815  1.00  0.00     0.049 A 
ATOM     47  H   UNL A   1      43.155  27.763  27.865  1.00  0.00     0.167 HD
ATOM     48  C   UNL A   1      40.017  29.870  30.106  1.00  0.00     0.037 A 
ATOM     49  C   UNL A   1      45.658  27.480  26.675  1.00  0.00     0.037 A 
ATOM     50  C   UNL A   1      41.095  30.813  29.985  1.00  0.00     0.049 A 
ATOM     51  C   UNL A   1      45.567  28.899  27.176  1.00  0.00     0.074 A 
ATOM     52  C   UNL A   1      41.180  32.100  30.481  1.00  0.00     0.029 A 
ATOM     53  N   UNL A   1      42.279  30.567  29.303  1.00  0.00    -0.354 N 
ATOM     54  N   UNL A   1      44.609  29.477  27.861  1.00  0.00    -0.248 NA
ATOM     55  C   UNL A   1      46.691  29.789  26.852  1.00  0.00     0.031 C 
ATOM     56  C   UNL A   1      42.391  32.653  30.052  1.00  0.00     0.029 A 
ATOM     57  C   UNL A   1      43.086  31.690  29.336  1.00  0.00     0.049 A 
ATOM     58  H   UNL A   1      42.510  29.717  28.861  1.00  0.00     0.167 HD
ATOM     59  C   UNL A   1      45.024  30.787  28.070  1.00  0.00     0.074 A 
ATOM     60  C   UNL A   1      46.325  30.915  27.448  1.00  0.00     0.031 C 
ATOM     61  C   UNL A   1      44.383  31.794  28.714  1.00  0.00     0.037 A 
BRANCH  48  62
ATOM     62  C   UNL A   1      38.779  30.263  30.853  1.00  0.00     0.057 A 
ATOM     63  C   UNL A   1      38.600  29.967  32.210  1.00  0.00     0.134 A 
ATOM     64  C   UNL A   1      37.734  30.916  30.189  1.00  0.00     0.134 A 
ATOM     65  F   UNL A   1      39.553  29.319  32.897  1.00  0.00    -0.206 F 
ATOM     66  C   UNL A   1      37.410  30.279  32.872  1.00  0.00     0.040 A 
ATOM     67  C   UNL A   1      36.551  31.257  30.845  1.00  0.00     0.040 A 
ATOM     68  F   UNL A   1      37.840  31.225  28.887  1.00  0.00    -0.206 F 
ATOM     69  C   UNL A   1      36.383  30.928  32.189  1.00  0.00     0.006 A 
ENDBRANCH  48  62
BRANCH  49  70
ATOM     70  C   UNL A   1      46.878  27.001  25.977  1.00  0.00     0.057 A 
ATOM     71  C   UNL A   1      47.906  26.360  26.676  1.00  0.00     0.134 A 
ATOM     72  C   UNL A   1      47.067  27.209  24.605  1.00  0.00     0.134 A 
ATOM     73  F   UNL A   1      47.801  26.159  27.999  1.00  0.00    -0.206 F 
ATOM     74  C   UNL A   1      49.082  25.954  26.041  1.00  0.00     0.040 A 
ATOM     75  C   UNL A   1      48.224  26.785  23.951  1.00  0.00     0.040 A 
ATOM     76  F   UNL A   1      46.126  27.828  23.876  1.00  0.00    -0.206 F 
ATOM     77  C   UNL A   1      49.241  26.162  24.672  1.00  0.00     0.006 A 
ENDBRANCH  49  70
BRANCH  61  78
ATOM     78  C   UNL A   1      45.089  33.115  28.806  1.00  0.00     0.057 A 
ATOM     79  C   UNL A   1      44.886  34.128  27.860  1.00  0.00     0.134 A 
ATOM     80  C   UNL A   1      45.925  33.402  29.892  1.00  0.00     0.134 A 
ATOM     81  F   UNL A   1      44.109  33.911  26.788  1.00  0.00    -0.206 F 
ATOM     82  C   UNL A   1      45.499  35.376  27.986  1.00  0.00     0.040 A 
ATOM     83  C   UNL A   1      46.520  34.654  30.044  1.00  0.00     0.040 A 
ATOM     84  F   UNL A   1      46.153  32.479  30.838  1.00  0.00    -0.206 F 
ATOM     85  C   UNL A   1      46.309  35.645  29.087  1.00  0.00     0.006 A 
ENDBRANCH  61  78
ENDBRANCH  35  36
ENDBRANCH  28  30
ENDBRANCH  27  28
ENDBRANCH  26  27
ENDBRANCH   1  26
TORSDOF 15
ENDMDL
MODEL 3
REMARK VINA RESULT:     -11.6      4.036      8.907
REMARK SMILES Cc1c(Cl)cccc1NC(=O)C[C@](C)(C(=O)OCCOC(=O)c1ccc(-c2c3nc(c(-c4c(F)cccc4F)c4ccc([nH]4)c(-c4c(F)cccc4F)c4nc(c(-c5c(F)cccc5F)c5ccc2[nH]5)C=C4)C=C3)cc1)c1ccccc1
REMARK SMILES IDX 18 1 17 2 15 3 16 4 13 5 14 6 12 7 10 8 9 9 11 11 8 12 1 13
REMARK SMILES IDX 2 14 3 15 4 16 5 17 7 18 6 19 77 20 78 21 82 22 79 23 81 24
REMARK SMILES IDX 80 25 19 26 20 27 21 28 22 29 23 30 24 31 76 32 25 33 75 34
REMARK SMILES IDX 26 35 27 36 28 37 69 38 29 39 74 40 68 41 70 42 30 43 73 44
REMARK SMILES IDX 67 45 66 46 31 48 57 49 40 50 56 51 41 52 44 53 55 54 71 55
REMARK SMILES IDX 42 56 43 57 54 59 72 60 45 61 32 62 33 63 38 64 34 65 35 66
REMARK SMILES IDX 37 67 39 68 36 69 58 70 59 71 64 72 60 73 61 74 63 75 65 76
REMARK SMILES IDX 62 77 46 78 47 79 52 80 48 81 49 82 51 83 53 84 50 85
REMARK H PARENT 9 10 70 47 44 58
REMARK Flexibility Score: inf
ROOT
ATOM      1  C   UNL A   1      31.458  29.349  25.040  1.00  0.00     0.274 C 
ENDROOT
BRANCH   1   2
ATOM      2  O   UNL A   1      32.424  28.331  25.387  1.00  0.00    -0.461 OA
BRANCH   2   3
ATOM      3  C   UNL A   1      31.954  27.180  25.947  1.00  0.00     0.316 C 
ATOM      4  O   UNL A   1      31.418  27.164  27.049  1.00  0.00    -0.251 OA
BRANCH   3   5
ATOM      5  C   UNL A   1      32.265  25.905  25.084  1.00  0.00     0.099 C 
ATOM      6  C   UNL A   1      31.062  25.608  24.139  1.00  0.00     0.029 C 
BRANCH   5   7
ATOM      7  C   UNL A   1      33.536  26.127  24.209  1.00  0.00     0.123 C 
BRANCH   7   8
ATOM      8  C   UNL A   1      33.527  25.593  22.791  1.00  0.00     0.225 C 
ATOM      9  N   UNL A   1      33.820  24.313  22.434  1.00  0.00    -0.326 N 
ATOM     10  H   UNL A   1      33.708  24.161  21.468  1.00  0.00     0.169 HD
ATOM     11  O   UNL A   1      33.202  26.352  21.868  1.00  0.00    -0.275 OA
BRANCH   9  12
ATOM     12  C   UNL A   1      34.247  23.152  23.111  1.00  0.00     0.045 A 
ATOM     13  C   UNL A   1      31.862  22.174  22.972  1.00  0.00     0.048 C 
ATOM     14  C   UNL A   1      33.303  22.141  23.426  1.00  0.00    -0.009 A 
ATOM     15  C   UNL A   1      33.711  21.074  24.263  1.00  0.00     0.046 A 
ATOM     16  Cl  UNL A   1      32.602  19.853  24.793  1.00  0.00    -0.084 Cl
ATOM     17  C   UNL A   1      35.018  20.979  24.736  1.00  0.00     0.021 A 
ATOM     18  C   UNL A   1      35.575  22.972  23.507  1.00  0.00     0.026 A 
ATOM     19  C   UNL A   1      35.957  21.913  24.333  1.00  0.00     0.004 A 
ENDBRANCH   9  12
ENDBRANCH   7   8
ENDBRANCH   5   7
BRANCH   5  20
ATOM     20  C   UNL A   1      32.529  24.638  25.973  1.00  0.00    -0.030 A 
ATOM     21  C   UNL A   1      31.494  23.739  26.319  1.00  0.00     0.005 A 
ATOM     22  C   UNL A   1      33.820  24.309  26.430  1.00  0.00     0.005 A 
ATOM     23  C   UNL A   1      31.723  22.630  27.144  1.00  0.00     0.000 A 
ATOM     24  C   UNL A   1      34.047  23.206  27.264  1.00  0.00     0.000 A 
ATOM     25  C   UNL A   1      32.997  22.373  27.630  1.00  0.00     0.000 A 
ENDBRANCH   5  20
ENDBRANCH   3   5
ENDBRANCH   2   3
ENDBRANCH   1   2
BRANCH   1  26
ATOM     26  C   UNL A   1      31.608  30.564  25.957  1.00  0.00     0.275 C 
BRANCH  26  27
ATOM     27  O   UNL A   1      32.931  30.566  26.515  1.00  0.00    -0.458 OA
BRANCH  27  28
ATOM     28  C   UNL A   1      33.292  31.735  27.098  1.00  0.00     0.338 C 
ATOM     29  O   UNL A   1      32.623  32.739  27.225  1.00  0.00    -0.246 OA
BRANCH  28  30
ATOM     30  C   UNL A   1      34.543  31.481  27.833  1.00  0.00     0.060 A 
ATOM     31  C   UNL A   1      34.736  30.184  28.303  1.00  0.00     0.016 A 
ATOM     32  C   UNL A   1      35.529  32.453  28.008  1.00  0.00     0.016 A 
ATOM     33  C   UNL A   1      35.926  29.830  28.917  1.00  0.00     0.010 A 
ATOM     34  C   UNL A   1      36.719  32.105  28.655  1.00  0.00     0.010 A 
ATOM     35  C   UNL A   1      36.922  30.788  29.100  1.00  0.00    -0.014 A 
BRANCH  35  36
ATOM     36  C   UNL A   1      38.122  30.417  29.872  1.00  0.00     0.031 A 
ATOM     37  C   UNL A   1      39.145  29.541  29.224  1.00  0.00     0.074 A 
ATOM     38  C   UNL A   1      38.335  30.929  31.095  1.00  0.00     0.049 A 
ATOM     39  N   UNL A   1      40.204  28.981  29.742  1.00  0.00    -0.248 NA
ATOM     40  C   UNL A   1      38.956  29.277  27.789  1.00  0.00     0.031 C 
ATOM     41  C   UNL A   1      37.497  31.929  31.755  1.00  0.00     0.029 A 
ATOM     42  N   UNL A   1      39.336  30.678  31.998  1.00  0.00    -0.354 N 
ATOM     43  C   UNL A   1      40.802  28.284  28.702  1.00  0.00     0.074 A 
ATOM     44  C   UNL A   1      39.989  28.494  27.523  1.00  0.00     0.031 C 
ATOM     45  C   UNL A   1      38.012  32.197  32.967  1.00  0.00     0.029 A 
ATOM     46  C   UNL A   1      39.175  31.339  33.191  1.00  0.00     0.049 A 
ATOM     47  H   UNL A   1      40.096  30.082  31.810  1.00  0.00     0.167 HD
ATOM     48  C   UNL A   1      41.919  27.523  28.737  1.00  0.00     0.037 A 
ATOM     49  C   UNL A   1      39.863  31.218  34.342  1.00  0.00     0.037 A 
ATOM     50  C   UNL A   1      42.699  27.304  29.925  1.00  0.00     0.049 A 
ATOM     51  C   UNL A   1      40.989  30.219  34.411  1.00  0.00     0.074 A 
ATOM     52  C   UNL A   1      43.809  26.498  30.096  1.00  0.00     0.029 A 
ATOM     53  N   UNL A   1      42.435  27.891  31.155  1.00  0.00    -0.354 N 
ATOM     54  N   UNL A   1      41.511  29.490  33.454  1.00  0.00    -0.248 NA
ATOM     55  C   UNL A   1      41.600  29.999  35.730  1.00  0.00     0.031 C 
ATOM     56  C   UNL A   1      44.184  26.554  31.443  1.00  0.00     0.029 A 
ATOM     57  C   UNL A   1      43.341  27.439  32.099  1.00  0.00     0.049 A 
ATOM     58  H   UNL A   1      41.710  28.535  31.330  1.00  0.00     0.167 HD
ATOM     59  C   UNL A   1      42.522  28.744  34.048  1.00  0.00     0.074 A 
ATOM     60  C   UNL A   1      42.548  29.118  35.447  1.00  0.00     0.031 C 
ATOM     61  C   UNL A   1      43.352  27.829  33.487  1.00  0.00     0.037 A 
BRANCH  48  62
ATOM     62  C   UNL A   1      42.295  26.814  27.473  1.00  0.00     0.057 A 
ATOM     63  C   UNL A   1      41.891  25.500  27.205  1.00  0.00     0.134 A 
ATOM     64  C   UNL A   1      43.109  27.447  26.525  1.00  0.00     0.134 A 
ATOM     65  F   UNL A   1      41.133  24.827  28.084  1.00  0.00    -0.206 F 
ATOM     66  C   UNL A   1      42.310  24.830  26.052  1.00  0.00     0.040 A 
ATOM     67  C   UNL A   1      43.512  26.798  25.358  1.00  0.00     0.040 A 
ATOM     68  F   UNL A   1      43.534  28.705  26.724  1.00  0.00    -0.206 F 
ATOM     69  C   UNL A   1      43.121  25.482  25.125  1.00  0.00     0.006 A 
ENDBRANCH  48  62
BRANCH  49  70
ATOM     70  C   UNL A   1      39.472  32.003  35.542  1.00  0.00     0.057 A 
ATOM     71  C   UNL A   1      38.503  31.529  36.432  1.00  0.00     0.134 A 
ATOM     72  C   UNL A   1      40.024  33.263  35.805  1.00  0.00     0.134 A 
ATOM     73  F   UNL A   1      37.913  30.343  36.219  1.00  0.00    -0.206 F 
ATOM     74  C   UNL A   1      38.088  32.282  37.532  1.00  0.00     0.040 A 
ATOM     75  C   UNL A   1      39.639  34.015  36.915  1.00  0.00     0.040 A 
ATOM     76  F   UNL A   1      40.950  33.784  34.985  1.00  0.00    -0.206 F 
ATOM     77  C   UNL A   1      38.661  33.528  37.779  1.00  0.00     0.006 A 
ENDBRANCH  49  70
BRANCH  61  78
ATOM     78  C   UNL A   1      44.377  27.188  34.376  1.00  0.00     0.057 A 
ATOM     79  C   UNL A   1      44.143  25.958  35.003  1.00  0.00     0.134 A 
ATOM     80  C   UNL A   1      45.637  27.774  34.549  1.00  0.00     0.134 A 
ATOM     81  F   UNL A   1      42.952  25.352  34.890  1.00  0.00    -0.206 F 
ATOM     82  C   UNL A   1      45.125  25.338  35.779  1.00  0.00     0.040 A 
ATOM     83  C   UNL A   1      46.635  27.152  35.298  1.00  0.00     0.040 A 
ATOM     84  F   UNL A   1      45.927  28.948  33.967  1.00  0.00    -0.206 F 
ATOM     85  C   UNL A   1      46.379  25.930  35.918  1.00  0.00     0.006 A 
ENDBRANCH  61  78
ENDBRANCH  35  36
ENDBRANCH  28  30
ENDBRANCH  27  28
ENDBRANCH  26  27
ENDBRANCH   1  26
TORSDOF 15
ENDMDL
