MODEL 1
REMARK VINA RESULT:     -11.5      0.000      0.000
REMARK SMILES O=C(OCCOC(=O)c1cccc(S(=O)(=O)Cc2cccc(O)c2)c1)c1ccc(-c2c3nc(c(-c4c(F)cccc4F)c4ccc([nH]4)c(-c4c(F)cccc4F)c4nc(c(-c5c(F)cccc5F)c5ccc2[nH]5)C=C4)C=C3)cc1
REMARK SMILES IDX 5 1 4 2 3 3 2 4 1 5 26 6 27 7 79 8 28 9 78 10 29 11 30 12
REMARK SMILES IDX 31 13 72 14 32 15 77 16 71 17 73 18 33 19 76 20 70 21 69 22
REMARK SMILES IDX 34 24 60 25 43 26 59 27 44 28 47 29 58 30 74 31 45 32 46 33
REMARK SMILES IDX 57 35 75 36 48 37 35 38 36 39 41 40 37 41 38 42 40 43 42 44
REMARK SMILES IDX 39 45 61 46 62 47 67 48 63 49 64 50 66 51 68 52 65 53 49 54
REMARK SMILES IDX 50 55 55 56 51 57 52 58 54 59 56 60 53 61 6 62 7 63 8 64
REMARK SMILES IDX 9 65 10 66 25 67 11 68 13 69 12 70 14 71 15 72 16 73 17 74
REMARK SMILES IDX 18 75 19 76 24 77 20 78 22 79 21 80 23 81
REMARK H PARENT 73 23 47 34 23 82
REMARK Flexibility Score: inf
ROOT
ATOM      1  C   UNL A   1      31.750  31.559  26.907  1.00  0.00     0.275 C 
ENDROOT
BRANCH   1   2
ATOM      2  C   UNL A   1      31.970  33.023  26.526  1.00  0.00     0.275 C 
BRANCH   2   3
ATOM      3  O   UNL A   1      32.056  33.893  27.672  1.00  0.00    -0.458 OA
BRANCH   3   4
ATOM      4  C   UNL A   1      33.082  34.515  28.295  1.00  0.00     0.338 C 
ATOM      5  O   UNL A   1      33.028  35.742  28.390  1.00  0.00    -0.246 OA
BRANCH   4   6
ATOM      6  C   UNL A   1      34.324  33.855  28.838  1.00  0.00     0.060 A 
ATOM      7  C   UNL A   1      35.631  34.321  28.724  1.00  0.00     0.016 A 
ATOM      8  C   UNL A   1      34.141  32.657  29.565  1.00  0.00     0.016 A 
ATOM      9  C   UNL A   1      36.708  33.634  29.304  1.00  0.00     0.010 A 
ATOM     10  C   UNL A   1      35.212  31.981  30.178  1.00  0.00     0.010 A 
ATOM     11  C   UNL A   1      36.513  32.470  30.050  1.00  0.00    -0.014 A 
BRANCH  11  12
ATOM     12  C   UNL A   1      37.683  31.768  30.639  1.00  0.00     0.031 A 
ATOM     13  C   UNL A   1      38.073  32.010  32.054  1.00  0.00     0.074 A 
ATOM     14  C   UNL A   1      38.340  30.801  29.972  1.00  0.00     0.049 A 
ATOM     15  N   UNL A   1      39.026  31.437  32.741  1.00  0.00    -0.248 NA
ATOM     16  C   UNL A   1      37.258  32.969  32.806  1.00  0.00     0.031 C 
ATOM     17  C   UNL A   1      37.936  30.309  28.672  1.00  0.00     0.029 A 
ATOM     18  N   UNL A   1      39.435  30.030  30.296  1.00  0.00    -0.354 N 
ATOM     19  C   UNL A   1      38.924  31.955  34.015  1.00  0.00     0.074 A 
ATOM     20  C   UNL A   1      37.821  32.898  34.003  1.00  0.00     0.031 C 
ATOM     21  C   UNL A   1      38.774  29.333  28.307  1.00  0.00     0.029 A 
ATOM     22  C   UNL A   1      39.794  29.148  29.307  1.00  0.00     0.049 A 
ATOM     23  H   UNL A   1      39.914  30.105  31.153  1.00  0.00     0.167 HD
ATOM     24  C   UNL A   1      39.688  31.669  35.093  1.00  0.00     0.037 A 
ATOM     25  C   UNL A   1      40.803  28.269  29.170  1.00  0.00     0.037 A 
ATOM     26  C   UNL A   1      40.796  30.750  35.106  1.00  0.00     0.049 A 
ATOM     27  C   UNL A   1      41.734  28.089  30.313  1.00  0.00     0.074 A 
ATOM     28  C   UNL A   1      41.650  30.455  36.155  1.00  0.00     0.029 A 
ATOM     29  N   UNL A   1      41.221  29.989  34.026  1.00  0.00    -0.354 N 
ATOM     30  N   UNL A   1      41.649  28.618  31.505  1.00  0.00    -0.248 NA
ATOM     31  C   UNL A   1      42.878  27.193  30.115  1.00  0.00     0.031 C 
ATOM     32  C   UNL A   1      42.631  29.571  35.692  1.00  0.00     0.029 A 
ATOM     33  C   UNL A   1      42.362  29.274  34.368  1.00  0.00     0.049 A 
ATOM     34  H   UNL A   1      40.779  29.961  33.147  1.00  0.00     0.167 HD
ATOM     35  C   UNL A   1      42.729  28.122  32.207  1.00  0.00     0.074 A 
ATOM     36  C   UNL A   1      43.435  27.219  31.318  1.00  0.00     0.031 C 
ATOM     37  C   UNL A   1      43.092  28.406  33.479  1.00  0.00     0.037 A 
BRANCH  24  38
ATOM     38  C   UNL A   1      39.394  32.462  36.323  1.00  0.00     0.057 A 
ATOM     39  C   UNL A   1      40.060  33.655  36.623  1.00  0.00     0.134 A 
ATOM     40  C   UNL A   1      38.452  31.985  37.242  1.00  0.00     0.134 A 
ATOM     41  F   UNL A   1      41.003  34.136  35.797  1.00  0.00    -0.206 F 
ATOM     42  C   UNL A   1      39.807  34.344  37.809  1.00  0.00     0.040 A 
ATOM     43  C   UNL A   1      38.176  32.675  38.419  1.00  0.00     0.040 A 
ATOM     44  F   UNL A   1      37.801  30.835  37.013  1.00  0.00    -0.206 F 
ATOM     45  C   UNL A   1      38.858  33.856  38.708  1.00  0.00     0.006 A 
ENDBRANCH  24  38
BRANCH  25  46
ATOM     46  C   UNL A   1      41.002  27.525  27.895  1.00  0.00     0.057 A 
ATOM     47  C   UNL A   1      40.456  26.254  27.685  1.00  0.00     0.134 A 
ATOM     48  C   UNL A   1      41.760  28.079  26.854  1.00  0.00     0.134 A 
ATOM     49  F   UNL A   1      39.728  25.664  28.645  1.00  0.00    -0.206 F 
ATOM     50  C   UNL A   1      40.666  25.554  26.494  1.00  0.00     0.040 A 
ATOM     51  C   UNL A   1      41.957  27.401  25.649  1.00  0.00     0.040 A 
ATOM     52  F   UNL A   1      42.319  29.289  26.996  1.00  0.00    -0.206 F 
ATOM     53  C   UNL A   1      41.415  26.131  25.469  1.00  0.00     0.006 A 
ENDBRANCH  25  46
BRANCH  37  54
ATOM     54  C   UNL A   1      44.339  27.743  33.968  1.00  0.00     0.057 A 
ATOM     55  C   UNL A   1      44.308  26.464  34.539  1.00  0.00     0.134 A 
ATOM     56  C   UNL A   1      45.575  28.393  33.889  1.00  0.00     0.134 A 
ATOM     57  F   UNL A   1      43.147  25.805  34.669  1.00  0.00    -0.206 F 
ATOM     58  C   UNL A   1      45.463  25.863  35.036  1.00  0.00     0.040 A 
ATOM     59  C   UNL A   1      46.741  27.792  34.360  1.00  0.00     0.040 A 
ATOM     60  F   UNL A   1      45.666  29.623  33.362  1.00  0.00    -0.206 F 
ATOM     61  C   UNL A   1      46.686  26.526  34.942  1.00  0.00     0.006 A 
ENDBRANCH  37  54
ENDBRANCH  11  12
ENDBRANCH   4   6
ENDBRANCH   3   4
ENDBRANCH   2   3
ENDBRANCH   1   2
BRANCH   1  62
ATOM     62  O   UNL A   1      32.151  30.671  25.860  1.00  0.00    -0.458 OA
BRANCH  62  63
ATOM     63  C   UNL A   1      33.189  29.838  26.176  1.00  0.00     0.338 C 
ATOM     64  O   UNL A   1      34.029  29.978  27.025  1.00  0.00    -0.246 OA
BRANCH  63  65
ATOM     65  C   UNL A   1      33.020  28.656  25.317  1.00  0.00     0.061 A 
ATOM     66  C   UNL A   1      34.002  28.320  24.383  1.00  0.00     0.016 A 
ATOM     67  C   UNL A   1      31.905  27.847  25.518  1.00  0.00     0.036 A 
ATOM     68  C   UNL A   1      33.906  27.104  23.705  1.00  0.00     0.002 A 
ATOM     69  C   UNL A   1      31.815  26.635  24.850  1.00  0.00     0.068 A 
ATOM     70  C   UNL A   1      32.816  26.255  23.940  1.00  0.00     0.020 A 
BRANCH  69  71
ATOM     71  S   UNL A   1      30.321  25.703  25.033  1.00  0.00     0.182 S 
ATOM     72  O   UNL A   1      30.695  24.365  24.599  1.00  0.00    -0.223 OA
ATOM     73  O   UNL A   1      29.867  25.865  26.399  1.00  0.00    -0.223 OA
BRANCH  71  74
ATOM     74  C   UNL A   1      29.050  26.238  23.904  1.00  0.00     0.177 C 
BRANCH  74  75
ATOM     75  C   UNL A   1      28.913  27.669  23.413  1.00  0.00    -0.029 A 
ATOM     76  C   UNL A   1      27.652  28.305  23.454  1.00  0.00     0.005 A 
ATOM     77  C   UNL A   1      29.915  28.300  22.656  1.00  0.00     0.051 A 
ATOM     78  C   UNL A   1      27.410  29.518  22.788  1.00  0.00     0.004 A 
ATOM     79  C   UNL A   1      29.659  29.504  21.985  1.00  0.00     0.115 A 
ATOM     80  C   UNL A   1      28.415  30.114  22.039  1.00  0.00     0.046 A 
BRANCH  79  81
ATOM     81  O   UNL A   1      30.624  30.121  21.242  1.00  0.00    -0.508 OA
ATOM     82  H   UNL A   1      31.529  29.973  21.435  1.00  0.00     0.293 HD
ENDBRANCH  79  81
ENDBRANCH  74  75
ENDBRANCH  71  74
ENDBRANCH  69  71
ENDBRANCH  63  65
ENDBRANCH  62  63
ENDBRANCH   1  62
TORSDOF 15
ENDMDL
MODEL 2
REMARK VINA RESULT:     -11.4      3.563      8.357
REMARK SMILES O=C(OCCOC(=O)c1cccc(S(=O)(=O)Cc2cccc(O)c2)c1)c1ccc(-c2c3nc(c(-c4c(F)cccc4F)c4ccc([nH]4)c(-c4c(F)cccc4F)c4nc(c(-c5c(F)cccc5F)c5ccc2[nH]5)C=C4)C=C3)cc1
REMARK SMILES IDX 5 1 4 2 3 3 2 4 1 5 26 6 27 7 79 8 28 9 78 10 29 11 30 12
REMARK SMILES IDX 31 13 72 14 32 15 77 16 71 17 73 18 33 19 76 20 70 21 69 22
REMARK SMILES IDX 34 24 60 25 43 26 59 27 44 28 47 29 58 30 74 31 45 32 46 33
REMARK SMILES IDX 57 35 75 36 48 37 35 38 36 39 41 40 37 41 38 42 40 43 42 44
REMARK SMILES IDX 39 45 61 46 62 47 67 48 63 49 64 50 66 51 68 52 65 53 49 54
REMARK SMILES IDX 50 55 55 56 51 57 52 58 54 59 56 60 53 61 6 62 7 63 8 64
REMARK SMILES IDX 9 65 10 66 25 67 11 68 13 69 12 70 14 71 15 72 16 73 17 74
REMARK SMILES IDX 18 75 19 76 24 77 20 78 22 79 21 80 23 81
REMARK H PARENT 73 23 47 34 23 82
REMARK Flexibility Score: inf
ROOT
ATOM      1  C   UNL A   1      42.643  20.737  26.114  1.00  0.00     0.275 C 
ENDROOT
BRANCH   1   2
ATOM      2  C   UNL A   1      43.745  21.414  25.298  1.00  0.00     0.275 C 
BRANCH   2   3
ATOM      3  O   UNL A   1      43.375  22.731  24.842  1.00  0.00    -0.458 OA
BRANCH   3   4
ATOM      4  C   UNL A   1      43.763  23.978  25.187  1.00  0.00     0.338 C 
ATOM      5  O   UNL A   1      44.669  24.492  24.528  1.00  0.00    -0.246 OA
BRANCH   4   6
ATOM      6  C   UNL A   1      43.233  24.788  26.343  1.00  0.00     0.060 A 
ATOM      7  C   UNL A   1      42.463  24.317  27.404  1.00  0.00     0.016 A 
ATOM      8  C   UNL A   1      43.580  26.157  26.372  1.00  0.00     0.016 A 
ATOM      9  C   UNL A   1      42.055  25.164  28.446  1.00  0.00     0.010 A 
ATOM     10  C   UNL A   1      43.202  27.004  27.430  1.00  0.00     0.010 A 
ATOM     11  C   UNL A   1      42.431  26.507  28.483  1.00  0.00    -0.014 A 
BRANCH  11  12
ATOM     12  C   UNL A   1      41.969  27.372  29.600  1.00  0.00     0.031 A 
ATOM     13  C   UNL A   1      42.729  27.423  30.878  1.00  0.00     0.074 A 
ATOM     14  C   UNL A   1      40.942  28.229  29.456  1.00  0.00     0.049 A 
ATOM     15  N   UNL A   1      42.500  28.167  31.928  1.00  0.00    -0.248 NA
ATOM     16  C   UNL A   1      43.926  26.580  30.965  1.00  0.00     0.031 C 
ATOM     17  C   UNL A   1      40.248  28.444  28.203  1.00  0.00     0.029 A 
ATOM     18  N   UNL A   1      40.336  29.107  30.329  1.00  0.00    -0.354 N 
ATOM     19  C   UNL A   1      43.529  27.894  32.805  1.00  0.00     0.074 A 
ATOM     20  C   UNL A   1      44.380  26.907  32.166  1.00  0.00     0.031 C 
ATOM     21  C   UNL A   1      39.310  29.378  28.391  1.00  0.00     0.029 A 
ATOM     22  C   UNL A   1      39.295  29.804  29.767  1.00  0.00     0.049 A 
ATOM     23  H   UNL A   1      40.621  29.221  31.264  1.00  0.00     0.167 HD
ATOM     24  C   UNL A   1      43.738  28.420  34.032  1.00  0.00     0.037 A 
ATOM     25  C   UNL A   1      38.409  30.695  30.248  1.00  0.00     0.037 A 
ATOM     26  C   UNL A   1      42.887  29.384  34.678  1.00  0.00     0.049 A 
ATOM     27  C   UNL A   1      38.560  31.139  31.657  1.00  0.00     0.074 A 
ATOM     28  C   UNL A   1      43.012  29.918  35.950  1.00  0.00     0.029 A 
ATOM     29  N   UNL A   1      41.748  29.949  34.124  1.00  0.00    -0.354 N 
ATOM     30  N   UNL A   1      39.519  30.841  32.492  1.00  0.00    -0.248 NA
ATOM     31  C   UNL A   1      37.535  32.043  32.192  1.00  0.00     0.031 C 
ATOM     32  C   UNL A   1      41.913  30.751  36.189  1.00  0.00     0.029 A 
ATOM     33  C   UNL A   1      41.128  30.778  35.050  1.00  0.00     0.049 A 
ATOM     34  H   UNL A   1      41.425  29.787  33.207  1.00  0.00     0.167 HD
ATOM     35  C   UNL A   1      39.221  31.519  33.657  1.00  0.00     0.074 A 
ATOM     36  C   UNL A   1      38.008  32.275  33.408  1.00  0.00     0.031 C 
ATOM     37  C   UNL A   1      39.902  31.501  34.825  1.00  0.00     0.037 A 
BRANCH  24  38
ATOM     38  C   UNL A   1      44.897  27.859  34.788  1.00  0.00     0.057 A 
ATOM     39  C   UNL A   1      44.783  26.726  35.600  1.00  0.00     0.134 A 
ATOM     40  C   UNL A   1      46.137  28.503  34.726  1.00  0.00     0.134 A 
ATOM     41  F   UNL A   1      43.607  26.093  35.729  1.00  0.00    -0.206 F 
ATOM     42  C   UNL A   1      45.869  26.259  36.341  1.00  0.00     0.040 A 
ATOM     43  C   UNL A   1      47.233  28.035  35.445  1.00  0.00     0.040 A 
ATOM     44  F   UNL A   1      46.294  29.606  33.979  1.00  0.00    -0.206 F 
ATOM     45  C   UNL A   1      47.099  26.911  36.260  1.00  0.00     0.006 A 
ENDBRANCH  24  38
BRANCH  25  46
ATOM     46  C   UNL A   1      37.290  31.195  29.402  1.00  0.00     0.057 A 
ATOM     47  C   UNL A   1      36.163  30.414  29.126  1.00  0.00     0.134 A 
ATOM     48  C   UNL A   1      37.335  32.479  28.841  1.00  0.00     0.134 A 
ATOM     49  F   UNL A   1      36.062  29.173  29.626  1.00  0.00    -0.206 F 
ATOM     50  C   UNL A   1      35.127  30.883  28.314  1.00  0.00     0.040 A 
ATOM     51  C   UNL A   1      36.296  32.970  28.048  1.00  0.00     0.040 A 
ATOM     52  F   UNL A   1      38.393  33.274  29.059  1.00  0.00    -0.206 F 
ATOM     53  C   UNL A   1      35.190  32.168  27.776  1.00  0.00     0.006 A 
ENDBRANCH  25  46
BRANCH  37  54
ATOM     54  C   UNL A   1      39.318  32.312  35.937  1.00  0.00     0.057 A 
ATOM     55  C   UNL A   1      38.345  31.780  36.792  1.00  0.00     0.134 A 
ATOM     56  C   UNL A   1      39.714  33.637  36.142  1.00  0.00     0.134 A 
ATOM     57  F   UNL A   1      37.905  30.524  36.623  1.00  0.00    -0.206 F 
ATOM     58  C   UNL A   1      37.767  32.548  37.801  1.00  0.00     0.040 A 
ATOM     59  C   UNL A   1      39.161  34.408  37.164  1.00  0.00     0.040 A 
ATOM     60  F   UNL A   1      40.635  34.205  35.350  1.00  0.00    -0.206 F 
ATOM     61  C   UNL A   1      38.179  33.866  37.993  1.00  0.00     0.006 A 
ENDBRANCH  37  54
ENDBRANCH  11  12
ENDBRANCH   4   6
ENDBRANCH   3   4
ENDBRANCH   2   3
ENDBRANCH   1   2
BRANCH   1  62
ATOM     62  O   UNL A   1      41.463  21.543  26.184  1.00  0.00    -0.458 OA
BRANCH  62  63
ATOM     63  C   UNL A   1      40.287  20.854  26.068  1.00  0.00     0.338 C 
ATOM     64  O   UNL A   1      40.117  19.664  26.020  1.00  0.00    -0.246 OA
BRANCH  63  65
ATOM     65  C   UNL A   1      39.228  21.874  26.109  1.00  0.00     0.061 A 
ATOM     66  C   UNL A   1      39.404  23.041  26.855  1.00  0.00     0.016 A 
ATOM     67  C   UNL A   1      38.093  21.681  25.325  1.00  0.00     0.036 A 
ATOM     68  C   UNL A   1      38.468  24.069  26.740  1.00  0.00     0.002 A 
ATOM     69  C   UNL A   1      37.168  22.706  25.205  1.00  0.00     0.068 A 
ATOM     70  C   UNL A   1      37.350  23.908  25.911  1.00  0.00     0.020 A 
BRANCH  69  71
ATOM     71  S   UNL A   1      35.679  22.370  24.308  1.00  0.00     0.182 S 
ATOM     72  O   UNL A   1      36.030  22.679  22.930  1.00  0.00    -0.223 OA
ATOM     73  O   UNL A   1      35.279  21.011  24.612  1.00  0.00    -0.223 OA
BRANCH  71  74
ATOM     74  C   UNL A   1      34.366  23.498  24.735  1.00  0.00     0.177 C 
BRANCH  74  75
ATOM     75  C   UNL A   1      34.199  24.869  24.102  1.00  0.00    -0.029 A 
ATOM     76  C   UNL A   1      34.007  26.001  24.926  1.00  0.00     0.005 A 
ATOM     77  C   UNL A   1      33.942  25.034  22.730  1.00  0.00     0.051 A 
ATOM     78  C   UNL A   1      33.596  27.238  24.403  1.00  0.00     0.004 A 
ATOM     79  C   UNL A   1      33.521  26.271  22.221  1.00  0.00     0.115 A 
ATOM     80  C   UNL A   1      33.340  27.371  23.045  1.00  0.00     0.046 A 
BRANCH  79  81
ATOM     81  O   UNL A   1      33.263  26.439  20.890  1.00  0.00    -0.508 OA
ATOM     82  H   UNL A   1      32.378  26.503  20.590  1.00  0.00     0.293 HD
ENDBRANCH  79  81
ENDBRANCH  74  75
ENDBRANCH  71  74
ENDBRANCH  69  71
ENDBRANCH  63  65
ENDBRANCH  62  63
ENDBRANCH   1  62
TORSDOF 15
ENDMDL
MODEL 3
REMARK VINA RESULT:     -11.4      0.456      6.341
REMARK SMILES O=C(OCCOC(=O)c1cccc(S(=O)(=O)Cc2cccc(O)c2)c1)c1ccc(-c2c3nc(c(-c4c(F)cccc4F)c4ccc([nH]4)c(-c4c(F)cccc4F)c4nc(c(-c5c(F)cccc5F)c5ccc2[nH]5)C=C4)C=C3)cc1
REMARK SMILES IDX 5 1 4 2 3 3 2 4 1 5 26 6 27 7 79 8 28 9 78 10 29 11 30 12
REMARK SMILES IDX 31 13 72 14 32 15 77 16 71 17 73 18 33 19 76 20 70 21 69 22
REMARK SMILES IDX 34 24 60 25 43 26 59 27 44 28 47 29 58 30 74 31 45 32 46 33
REMARK SMILES IDX 57 35 75 36 48 37 35 38 36 39 41 40 37 41 38 42 40 43 42 44
REMARK SMILES IDX 39 45 61 46 62 47 67 48 63 49 64 50 66 51 68 52 65 53 49 54
REMARK SMILES IDX 50 55 55 56 51 57 52 58 54 59 56 60 53 61 6 62 7 63 8 64
REMARK SMILES IDX 9 65 10 66 25 67 11 68 13 69 12 70 14 71 15 72 16 73 17 74
REMARK SMILES IDX 18 75 19 76 24 77 20 78 22 79 21 80 23 81
REMARK H PARENT 73 23 47 34 23 82
REMARK Flexibility Score: inf
ROOT
ATOM      1  C   UNL A   1      31.866  31.624  27.222  1.00  0.00     0.275 C 
ENDROOT
BRANCH   1   2
ATOM      2  C   UNL A   1      32.106  33.054  26.734  1.00  0.00     0.275 C 
BRANCH   2   3
ATOM      3  O   UNL A   1      32.155  34.012  27.810  1.00  0.00    -0.458 OA
BRANCH   3   4
ATOM      4  C   UNL A   1      33.165  34.603  28.486  1.00  0.00     0.338 C 
ATOM      5  O   UNL A   1      33.121  35.827  28.615  1.00  0.00    -0.246 OA
BRANCH   4   6
ATOM      6  C   UNL A   1      34.380  33.913  29.052  1.00  0.00     0.060 A 
ATOM      7  C   UNL A   1      35.711  34.212  28.774  1.00  0.00     0.016 A 
ATOM      8  C   UNL A   1      34.147  32.879  29.986  1.00  0.00     0.016 A 
ATOM      9  C   UNL A   1      36.764  33.518  29.391  1.00  0.00     0.010 A 
ATOM     10  C   UNL A   1      35.197  32.203  30.634  1.00  0.00     0.010 A 
ATOM     11  C   UNL A   1      36.523  32.522  30.338  1.00  0.00    -0.014 A 
BRANCH  11  12
ATOM     12  C   UNL A   1      37.666  31.806  30.962  1.00  0.00     0.031 A 
ATOM     13  C   UNL A   1      38.416  30.774  30.196  1.00  0.00     0.074 A 
ATOM     14  C   UNL A   1      38.147  32.151  32.170  1.00  0.00     0.049 A 
ATOM     15  N   UNL A   1      39.473  30.099  30.566  1.00  0.00    -0.248 NA
ATOM     16  C   UNL A   1      37.960  30.509  28.828  1.00  0.00     0.031 C 
ATOM     17  C   UNL A   1      37.655  33.278  32.935  1.00  0.00     0.029 A 
ATOM     18  N   UNL A   1      39.167  31.640  32.944  1.00  0.00    -0.354 N 
ATOM     19  C   UNL A   1      39.822  29.332  29.474  1.00  0.00     0.074 A 
ATOM     20  C   UNL A   1      38.856  29.618  28.429  1.00  0.00     0.031 C 
ATOM     21  C   UNL A   1      38.363  33.366  34.066  1.00  0.00     0.029 A 
ATOM     22  C   UNL A   1      39.324  32.295  34.140  1.00  0.00     0.049 A 
ATOM     23  H   UNL A   1      39.727  30.880  32.666  1.00  0.00     0.167 HD
ATOM     24  C   UNL A   1      40.853  28.467  29.360  1.00  0.00     0.037 A 
ATOM     25  C   UNL A   1      40.131  32.107  35.201  1.00  0.00     0.037 A 
ATOM     26  C   UNL A   1      41.802  28.164  30.400  1.00  0.00     0.049 A 
ATOM     27  C   UNL A   1      41.156  31.036  35.118  1.00  0.00     0.074 A 
ATOM     28  C   UNL A   1      42.842  27.251  30.368  1.00  0.00     0.029 A 
ATOM     29  N   UNL A   1      41.826  28.745  31.659  1.00  0.00    -0.354 N 
ATOM     30  N   UNL A   1      41.450  30.287  34.089  1.00  0.00    -0.248 NA
ATOM     31  C   UNL A   1      41.968  30.787  36.315  1.00  0.00     0.031 C 
ATOM     32  C   UNL A   1      43.450  27.230  31.628  1.00  0.00     0.029 A 
ATOM     33  C   UNL A   1      42.824  28.165  32.433  1.00  0.00     0.049 A 
ATOM     34  H   UNL A   1      41.224  29.463  31.961  1.00  0.00     0.167 HD
ATOM     35  C   UNL A   1      42.484  29.473  34.506  1.00  0.00     0.074 A 
ATOM     36  C   UNL A   1      42.791  29.846  35.874  1.00  0.00     0.031 C 
ATOM     37  C   UNL A   1      43.109  28.502  33.804  1.00  0.00     0.037 A 
BRANCH  24  38
ATOM     38  C   UNL A   1      40.923  27.708  28.076  1.00  0.00     0.057 A 
ATOM     39  C   UNL A   1      40.286  26.475  27.899  1.00  0.00     0.134 A 
ATOM     40  C   UNL A   1      41.686  28.215  27.017  1.00  0.00     0.134 A 
ATOM     41  F   UNL A   1      39.577  25.924  28.895  1.00  0.00    -0.206 F 
ATOM     42  C   UNL A   1      40.418  25.761  26.707  1.00  0.00     0.040 A 
ATOM     43  C   UNL A   1      41.808  27.520  25.817  1.00  0.00     0.040 A 
ATOM     44  F   UNL A   1      42.334  29.382  27.144  1.00  0.00    -0.206 F 
ATOM     45  C   UNL A   1      41.176  26.287  25.661  1.00  0.00     0.006 A 
ENDBRANCH  24  38
BRANCH  25  46
ATOM     46  C   UNL A   1      39.976  32.927  36.435  1.00  0.00     0.057 A 
ATOM     47  C   UNL A   1      40.789  34.036  36.695  1.00  0.00     0.134 A 
ATOM     48  C   UNL A   1      39.004  32.604  37.391  1.00  0.00     0.134 A 
ATOM     49  F   UNL A   1      41.745  34.392  35.824  1.00  0.00    -0.206 F 
ATOM     50  C   UNL A   1      40.651  34.786  37.866  1.00  0.00     0.040 A 
ATOM     51  C   UNL A   1      38.838  33.360  38.553  1.00  0.00     0.040 A 
ATOM     52  F   UNL A   1      38.200  31.547  37.205  1.00  0.00    -0.206 F 
ATOM     53  C   UNL A   1      39.669  34.451  38.797  1.00  0.00     0.006 A 
ENDBRANCH  25  46
BRANCH  37  54
ATOM     54  C   UNL A   1      44.178  27.751  34.532  1.00  0.00     0.057 A 
ATOM     55  C   UNL A   1      45.494  28.227  34.585  1.00  0.00     0.134 A 
ATOM     56  C   UNL A   1      43.897  26.536  35.165  1.00  0.00     0.134 A 
ATOM     57  F   UNL A   1      45.829  29.372  33.970  1.00  0.00    -0.206 F 
ATOM     58  C   UNL A   1      46.502  27.507  35.224  1.00  0.00     0.040 A 
ATOM     59  C   UNL A   1      44.890  25.819  35.829  1.00  0.00     0.040 A 
ATOM     60  F   UNL A   1      42.657  26.025  35.139  1.00  0.00    -0.206 F 
ATOM     61  C   UNL A   1      46.199  26.300  35.854  1.00  0.00     0.006 A 
ENDBRANCH  37  54
ENDBRANCH  11  12
ENDBRANCH   4   6
ENDBRANCH   3   4
ENDBRANCH   2   3
ENDBRANCH   1   2
BRANCH   1  62
ATOM     62  O   UNL A   1      32.071  30.666  26.179  1.00  0.00    -0.458 OA
BRANCH  62  63
ATOM     63  C   UNL A   1      33.172  29.870  26.336  1.00  0.00     0.338 C 
ATOM     64  O   UNL A   1      34.077  29.989  27.119  1.00  0.00    -0.246 OA
BRANCH  63  65
ATOM     65  C   UNL A   1      32.984  28.751  25.399  1.00  0.00     0.061 A 
ATOM     66  C   UNL A   1      33.927  28.507  24.398  1.00  0.00     0.016 A 
ATOM     67  C   UNL A   1      31.895  27.905  25.590  1.00  0.00     0.036 A 
ATOM     68  C   UNL A   1      33.822  27.343  23.636  1.00  0.00     0.002 A 
ATOM     69  C   UNL A   1      31.797  26.744  24.838  1.00  0.00     0.068 A 
ATOM     70  C   UNL A   1      32.760  26.455  23.857  1.00  0.00     0.020 A 
BRANCH  69  71
ATOM     71  S   UNL A   1      30.331  25.768  25.020  1.00  0.00     0.182 S 
ATOM     72  O   UNL A   1      30.742  24.444  24.579  1.00  0.00    -0.223 OA
ATOM     73  O   UNL A   1      29.874  25.911  26.387  1.00  0.00    -0.223 OA
BRANCH  71  74
ATOM     74  C   UNL A   1      29.042  26.271  23.895  1.00  0.00     0.177 C 
BRANCH  74  75
ATOM     75  C   UNL A   1      28.871  27.697  23.399  1.00  0.00    -0.029 A 
ATOM     76  C   UNL A   1      27.597  28.305  23.442  1.00  0.00     0.005 A 
ATOM     77  C   UNL A   1      29.857  28.347  22.637  1.00  0.00     0.051 A 
ATOM     78  C   UNL A   1      27.326  29.508  22.772  1.00  0.00     0.004 A 
ATOM     79  C   UNL A   1      29.572  29.543  21.963  1.00  0.00     0.115 A 
ATOM     80  C   UNL A   1      28.315  30.125  22.018  1.00  0.00     0.046 A 
BRANCH  79  81
ATOM     81  O   UNL A   1      30.521  30.179  21.214  1.00  0.00    -0.508 OA
ATOM     82  H   UNL A   1      31.430  30.014  21.374  1.00  0.00     0.293 HD
ENDBRANCH  79  81
ENDBRANCH  74  75
ENDBRANCH  71  74
ENDBRANCH  69  71
ENDBRANCH  63  65
ENDBRANCH  62  63
ENDBRANCH   1  62
TORSDOF 15
ENDMDL
