MODEL 1
REMARK VINA RESULT:     -11.0      0.000      0.000
REMARK SMILES CCCCCNC(=O)Oc1cccc(-c2ccc([C@@H](C)C(=O)OCCOC(=O)c3ccc(-c4c5nc(c(-c6c(F)cccc6F)c6ccc([nH]6)c(-c6c(F)cccc6F)c6nc(c(-c7c(F)cccc7F)c7ccc4[nH]7)C=C6)C=C5)cc3)cc2F)c1
REMARK SMILES IDX 19 1 20 2 18 3 15 4 16 5 84 6 17 7 83 8 85 9 14 10 10 11
REMARK SMILES IDX 11 12 86 13 12 14 13 15 9 16 7 17 6 18 8 20 5 21 4 22 3 23
REMARK SMILES IDX 2 24 1 25 21 26 22 27 23 28 24 29 25 30 26 31 27 32 28 33
REMARK SMILES IDX 29 34 30 35 82 36 31 37 81 38 32 39 33 40 34 41 75 42 35 43
REMARK SMILES IDX 80 44 74 45 76 46 36 47 79 48 73 49 72 50 37 52 63 53 46 54
REMARK SMILES IDX 62 55 47 56 50 57 61 58 77 59 48 60 49 61 60 63 78 64 51 65
REMARK SMILES IDX 38 66 39 67 44 68 40 69 41 70 43 71 45 72 42 73 64 74 65 75
REMARK SMILES IDX 70 76 66 77 67 78 69 79 71 80 68 81 52 82 53 83 58 84 54 85
REMARK SMILES IDX 55 86 57 87 59 88 56 89
REMARK H PARENT 6 19 76 51 50 62
REMARK Flexibility Score: inf
ROOT
ATOM      1  C   UNL A   1      40.246  22.374  26.629  1.00  0.00     0.126 C 
ATOM      2  C   UNL A   1      40.298  23.312  27.834  1.00  0.00     0.025 C 
ENDROOT
BRANCH   1   3
ATOM      3  C   UNL A   1      38.859  22.296  26.009  1.00  0.00    -0.031 A 
ATOM      4  C   UNL A   1      36.232  22.183  24.903  1.00  0.00     0.018 A 
ATOM      5  C   UNL A   1      37.110  21.090  24.816  1.00  0.00     0.012 A 
ATOM      6  C   UNL A   1      36.711  23.338  25.533  1.00  0.00     0.131 A 
ATOM      7  C   UNL A   1      38.398  21.141  25.364  1.00  0.00     0.005 A 
ATOM      8  C   UNL A   1      37.995  23.399  26.081  1.00  0.00     0.044 A 
ATOM      9  F   UNL A   1      35.924  24.418  25.664  1.00  0.00    -0.206 F 
BRANCH   4  10
ATOM     10  C   UNL A   1      34.855  22.086  24.387  1.00  0.00    -0.012 A 
ATOM     11  C   UNL A   1      32.930  23.023  23.243  1.00  0.00     0.133 A 
ATOM     12  C   UNL A   1      32.195  21.861  23.466  1.00  0.00     0.047 A 
ATOM     13  C   UNL A   1      34.242  23.151  23.703  1.00  0.00     0.056 A 
ATOM     14  C   UNL A   1      32.787  20.799  24.137  1.00  0.00     0.004 A 
ATOM     15  C   UNL A   1      34.103  20.912  24.593  1.00  0.00     0.009 A 
BRANCH  11  16
ATOM     16  O   UNL A   1      32.236  24.092  22.650  1.00  0.00    -0.410 OA
BRANCH  16  17
ATOM     17  C   UNL A   1      32.889  24.895  21.726  1.00  0.00     0.412 C 
ATOM     18  N   UNL A   1      33.073  26.177  22.171  1.00  0.00    -0.321 N 
ATOM     19  H   UNL A   1      33.560  26.786  21.571  1.00  0.00     0.167 HD
ATOM     20  O   UNL A   1      33.267  24.555  20.612  1.00  0.00    -0.224 OA
BRANCH  18  21
ATOM     21  C   UNL A   1      32.623  26.728  23.433  1.00  0.00     0.119 C 
BRANCH  21  22
ATOM     22  C   UNL A   1      33.721  26.710  24.496  1.00  0.00     0.021 C 
BRANCH  22  23
ATOM     23  C   UNL A   1      33.293  26.156  25.861  1.00  0.00     0.002 C 
BRANCH  23  24
ATOM     24  C   UNL A   1      31.992  25.347  25.872  1.00  0.00    -0.003 C 
ATOM     25  C   UNL A   1      32.054  24.106  26.749  1.00  0.00     0.004 C 
ENDBRANCH  23  24
ENDBRANCH  22  23
ENDBRANCH  21  22
ENDBRANCH  18  21
ENDBRANCH  16  17
ENDBRANCH  11  16
ENDBRANCH   4  10
ENDBRANCH   1   3
BRANCH   1  26
ATOM     26  C   UNL A   1      40.897  21.041  26.978  1.00  0.00     0.313 C 
ATOM     27  O   UNL A   1      40.704  20.485  28.055  1.00  0.00    -0.252 OA
BRANCH  26  28
ATOM     28  O   UNL A   1      41.659  20.527  25.978  1.00  0.00    -0.462 OA
BRANCH  28  29
ATOM     29  C   UNL A   1      41.905  19.109  26.008  1.00  0.00     0.274 C 
BRANCH  29  30
ATOM     30  C   UNL A   1      43.346  18.785  25.605  1.00  0.00     0.275 C 
BRANCH  30  31
ATOM     31  O   UNL A   1      43.653  19.307  24.299  1.00  0.00    -0.458 OA
BRANCH  31  32
ATOM     32  C   UNL A   1      44.958  19.604  24.094  1.00  0.00     0.338 C 
ATOM     33  O   UNL A   1      45.811  18.894  23.592  1.00  0.00    -0.246 OA
BRANCH  32  34
ATOM     34  C   UNL A   1      45.205  21.005  24.457  1.00  0.00     0.060 A 
ATOM     35  C   UNL A   1      45.695  21.274  25.737  1.00  0.00     0.016 A 
ATOM     36  C   UNL A   1      44.876  22.045  23.589  1.00  0.00     0.016 A 
ATOM     37  C   UNL A   1      45.848  22.589  26.166  1.00  0.00     0.010 A 
ATOM     38  C   UNL A   1      45.039  23.367  24.016  1.00  0.00     0.010 A 
ATOM     39  C   UNL A   1      45.512  23.646  25.311  1.00  0.00    -0.014 A 
BRANCH  39  40
ATOM     40  C   UNL A   1      45.617  25.041  25.796  1.00  0.00     0.031 A 
ATOM     41  C   UNL A   1      46.939  25.750  25.751  1.00  0.00     0.074 A 
ATOM     42  C   UNL A   1      44.521  25.676  26.250  1.00  0.00     0.049 A 
ATOM     43  N   UNL A   1      47.258  26.933  26.209  1.00  0.00    -0.248 NA
ATOM     44  C   UNL A   1      48.049  25.032  25.106  1.00  0.00     0.031 C 
ATOM     45  C   UNL A   1      43.174  25.109  26.297  1.00  0.00     0.029 A 
ATOM     46  N   UNL A   1      44.371  26.939  26.764  1.00  0.00    -0.354 N 
ATOM     47  C   UNL A   1      48.606  27.097  25.922  1.00  0.00     0.074 A 
ATOM     48  C   UNL A   1      49.051  25.886  25.265  1.00  0.00     0.031 C 
ATOM     49  C   UNL A   1      42.333  26.019  26.815  1.00  0.00     0.029 A 
ATOM     50  C   UNL A   1      43.091  27.214  27.176  1.00  0.00     0.049 A 
ATOM     51  H   UNL A   1      45.111  27.586  26.831  1.00  0.00     0.167 HD
ATOM     52  C   UNL A   1      49.399  28.164  26.182  1.00  0.00     0.037 A 
ATOM     53  C   UNL A   1      42.592  28.297  27.802  1.00  0.00     0.037 A 
ATOM     54  C   UNL A   1      48.952  29.372  26.824  1.00  0.00     0.049 A 
ATOM     55  C   UNL A   1      43.507  29.444  28.128  1.00  0.00     0.074 A 
ATOM     56  C   UNL A   1      49.682  30.506  27.136  1.00  0.00     0.029 A 
ATOM     57  N   UNL A   1      47.652  29.606  27.244  1.00  0.00    -0.354 N 
ATOM     58  N   UNL A   1      44.786  29.581  27.872  1.00  0.00    -0.248 NA
ATOM     59  C   UNL A   1      42.912  30.587  28.837  1.00  0.00     0.031 C 
ATOM     60  C   UNL A   1      48.831  31.414  27.774  1.00  0.00     0.029 A 
ATOM     61  C   UNL A   1      47.561  30.860  27.825  1.00  0.00     0.049 A 
ATOM     62  H   UNL A   1      46.904  28.973  27.146  1.00  0.00     0.167 HD
ATOM     63  C   UNL A   1      45.143  30.827  28.369  1.00  0.00     0.074 A 
ATOM     64  C   UNL A   1      43.943  31.415  28.928  1.00  0.00     0.031 C 
ATOM     65  C   UNL A   1      46.355  31.430  28.366  1.00  0.00     0.037 A 
BRANCH  52  66
ATOM     66  C   UNL A   1      50.842  28.065  25.789  1.00  0.00     0.057 A 
ATOM     67  C   UNL A   1      51.264  28.282  24.472  1.00  0.00     0.134 A 
ATOM     68  C   UNL A   1      51.825  27.791  26.748  1.00  0.00     0.134 A 
ATOM     69  F   UNL A   1      50.370  28.535  23.505  1.00  0.00    -0.206 F 
ATOM     70  C   UNL A   1      52.615  28.219  24.120  1.00  0.00     0.040 A 
ATOM     71  C   UNL A   1      53.179  27.744  26.413  1.00  0.00     0.040 A 
ATOM     72  F   UNL A   1      51.486  27.577  28.028  1.00  0.00    -0.206 F 
ATOM     73  C   UNL A   1      53.577  27.956  25.094  1.00  0.00     0.006 A 
ENDBRANCH  52  66
BRANCH  53  74
ATOM     74  C   UNL A   1      41.161  28.338  28.191  1.00  0.00     0.057 A 
ATOM     75  C   UNL A   1      40.187  28.844  27.322  1.00  0.00     0.134 A 
ATOM     76  C   UNL A   1      40.738  27.893  29.449  1.00  0.00     0.134 A 
ATOM     77  F   UNL A   1      40.535  29.307  26.113  1.00  0.00    -0.206 F 
ATOM     78  C   UNL A   1      38.845  28.920  27.698  1.00  0.00     0.040 A 
ATOM     79  C   UNL A   1      39.397  27.941  29.828  1.00  0.00     0.040 A 
ATOM     80  F   UNL A   1      41.624  27.399  30.326  1.00  0.00    -0.206 F 
ATOM     81  C   UNL A   1      38.446  28.464  28.953  1.00  0.00     0.006 A 
ENDBRANCH  53  74
BRANCH  65  82
ATOM     82  C   UNL A   1      46.435  32.806  28.956  1.00  0.00     0.057 A 
ATOM     83  C   UNL A   1      46.746  33.010  30.306  1.00  0.00     0.134 A 
ATOM     84  C   UNL A   1      46.230  33.937  28.157  1.00  0.00     0.134 A 
ATOM     85  F   UNL A   1      46.939  31.966  31.125  1.00  0.00    -0.206 F 
ATOM     86  C   UNL A   1      46.831  34.295  30.845  1.00  0.00     0.040 A 
ATOM     87  C   UNL A   1      46.334  35.226  28.680  1.00  0.00     0.040 A 
ATOM     88  F   UNL A   1      45.936  33.808  26.855  1.00  0.00    -0.206 F 
ATOM     89  C   UNL A   1      46.632  35.408  30.030  1.00  0.00     0.006 A 
ENDBRANCH  65  82
ENDBRANCH  39  40
ENDBRANCH  32  34
ENDBRANCH  31  32
ENDBRANCH  30  31
ENDBRANCH  29  30
ENDBRANCH  28  29
ENDBRANCH  26  28
ENDBRANCH   1  26
TORSDOF 19
ENDMDL
MODEL 2
REMARK VINA RESULT:     -10.9      4.866      7.436
REMARK SMILES CCCCCNC(=O)Oc1cccc(-c2ccc([C@@H](C)C(=O)OCCOC(=O)c3ccc(-c4c5nc(c(-c6c(F)cccc6F)c6ccc([nH]6)c(-c6c(F)cccc6F)c6nc(c(-c7c(F)cccc7F)c7ccc4[nH]7)C=C6)C=C5)cc3)cc2F)c1
REMARK SMILES IDX 19 1 20 2 18 3 15 4 16 5 84 6 17 7 83 8 85 9 14 10 10 11
REMARK SMILES IDX 11 12 86 13 12 14 13 15 9 16 7 17 6 18 8 20 5 21 4 22 3 23
REMARK SMILES IDX 2 24 1 25 21 26 22 27 23 28 24 29 25 30 26 31 27 32 28 33
REMARK SMILES IDX 29 34 30 35 82 36 31 37 81 38 32 39 33 40 34 41 75 42 35 43
REMARK SMILES IDX 80 44 74 45 76 46 36 47 79 48 73 49 72 50 37 52 63 53 46 54
REMARK SMILES IDX 62 55 47 56 50 57 61 58 77 59 48 60 49 61 60 63 78 64 51 65
REMARK SMILES IDX 38 66 39 67 44 68 40 69 41 70 43 71 45 72 42 73 64 74 65 75
REMARK SMILES IDX 70 76 66 77 67 78 69 79 71 80 68 81 52 82 53 83 58 84 54 85
REMARK SMILES IDX 55 86 57 87 59 88 56 89
REMARK H PARENT 6 19 76 51 50 62
REMARK Flexibility Score: inf
ROOT
ATOM      1  C   UNL A   1      42.335  19.822  26.654  1.00  0.00     0.126 C 
ATOM      2  C   UNL A   1      42.278  18.717  27.707  1.00  0.00     0.025 C 
ENDROOT
BRANCH   1   3
ATOM      3  C   UNL A   1      40.958  20.366  26.303  1.00  0.00    -0.031 A 
ATOM      4  C   UNL A   1      38.377  21.346  25.584  1.00  0.00     0.018 A 
ATOM      5  C   UNL A   1      39.345  22.186  26.160  1.00  0.00     0.012 A 
ATOM      6  C   UNL A   1      38.726  20.002  25.402  1.00  0.00     0.131 A 
ATOM      7  C   UNL A   1      40.615  21.708  26.508  1.00  0.00     0.005 A 
ATOM      8  C   UNL A   1      39.989  19.516  25.748  1.00  0.00     0.044 A 
ATOM      9  F   UNL A   1      37.856  19.143  24.847  1.00  0.00    -0.206 F 
BRANCH   4  10
ATOM     10  C   UNL A   1      37.073  21.882  25.156  1.00  0.00    -0.012 A 
ATOM     11  C   UNL A   1      34.722  22.347  25.541  1.00  0.00     0.133 A 
ATOM     12  C   UNL A   1      34.587  22.879  24.260  1.00  0.00     0.047 A 
ATOM     13  C   UNL A   1      35.944  21.841  25.991  1.00  0.00     0.056 A 
ATOM     14  C   UNL A   1      35.694  22.928  23.423  1.00  0.00     0.004 A 
ATOM     15  C   UNL A   1      36.924  22.434  23.867  1.00  0.00     0.009 A 
BRANCH  11  16
ATOM     16  O   UNL A   1      33.541  22.234  26.294  1.00  0.00    -0.410 OA
BRANCH  16  17
ATOM     17  C   UNL A   1      32.317  22.252  25.641  1.00  0.00     0.412 C 
ATOM     18  N   UNL A   1      31.869  20.999  25.317  1.00  0.00    -0.321 N 
ATOM     19  H   UNL A   1      30.989  20.944  24.879  1.00  0.00     0.167 HD
ATOM     20  O   UNL A   1      31.670  23.247  25.342  1.00  0.00    -0.224 OA
BRANCH  18  21
ATOM     21  C   UNL A   1      32.557  19.746  25.551  1.00  0.00     0.119 C 
BRANCH  21  22
ATOM     22  C   UNL A   1      33.310  19.259  24.313  1.00  0.00     0.021 C 
BRANCH  22  23
ATOM     23  C   UNL A   1      34.700  18.673  24.587  1.00  0.00     0.002 C 
BRANCH  23  24
ATOM     24  C   UNL A   1      34.867  17.183  24.271  1.00  0.00    -0.003 C 
ATOM     25  C   UNL A   1      33.769  16.621  23.383  1.00  0.00     0.004 C 
ENDBRANCH  23  24
ENDBRANCH  22  23
ENDBRANCH  21  22
ENDBRANCH  18  21
ENDBRANCH  16  17
ENDBRANCH  11  16
ENDBRANCH   4  10
ENDBRANCH   1   3
BRANCH   1  26
ATOM     26  C   UNL A   1      43.195  19.376  25.478  1.00  0.00     0.313 C 
ATOM     27  O   UNL A   1      43.316  18.194  25.171  1.00  0.00    -0.252 OA
BRANCH  26  28
ATOM     28  O   UNL A   1      43.764  20.405  24.797  1.00  0.00    -0.462 OA
BRANCH  28  29
ATOM     29  C   UNL A   1      45.142  20.701  25.093  1.00  0.00     0.274 C 
BRANCH  29  30
ATOM     30  C   UNL A   1      45.337  22.186  25.407  1.00  0.00     0.275 C 
BRANCH  30  31
ATOM     31  O   UNL A   1      44.226  22.713  26.156  1.00  0.00    -0.458 OA
BRANCH  31  32
ATOM     32  C   UNL A   1      43.700  23.860  25.668  1.00  0.00     0.338 C 
ATOM     33  O   UNL A   1      43.393  24.106  24.515  1.00  0.00    -0.246 OA
BRANCH  32  34
ATOM     34  C   UNL A   1      43.414  24.780  26.777  1.00  0.00     0.060 A 
ATOM     35  C   UNL A   1      42.507  24.366  27.755  1.00  0.00     0.016 A 
ATOM     36  C   UNL A   1      43.957  26.064  26.809  1.00  0.00     0.016 A 
ATOM     37  C   UNL A   1      42.124  25.239  28.768  1.00  0.00     0.010 A 
ATOM     38  C   UNL A   1      43.580  26.939  27.832  1.00  0.00     0.010 A 
ATOM     39  C   UNL A   1      42.651  26.536  28.809  1.00  0.00    -0.014 A 
BRANCH  39  40
ATOM     40  C   UNL A   1      42.190  27.481  29.853  1.00  0.00     0.031 A 
ATOM     41  C   UNL A   1      42.905  27.544  31.170  1.00  0.00     0.074 A 
ATOM     42  C   UNL A   1      41.150  28.297  29.605  1.00  0.00     0.049 A 
ATOM     43  N   UNL A   1      42.605  28.234  32.241  1.00  0.00    -0.248 NA
ATOM     44  C   UNL A   1      44.119  26.723  31.302  1.00  0.00     0.031 C 
ATOM     45  C   UNL A   1      40.407  28.362  28.346  1.00  0.00     0.029 A 
ATOM     46  N   UNL A   1      40.534  29.226  30.406  1.00  0.00    -0.354 N 
ATOM     47  C   UNL A   1      43.580  27.919  33.178  1.00  0.00     0.074 A 
ATOM     48  C   UNL A   1      44.474  26.964  32.556  1.00  0.00     0.031 C 
ATOM     49  C   UNL A   1      39.433  29.280  28.459  1.00  0.00     0.029 A 
ATOM     50  C   UNL A   1      39.457  29.833  29.811  1.00  0.00     0.049 A 
ATOM     51  H   UNL A   1      40.837  29.437  31.319  1.00  0.00     0.167 HD
ATOM     52  C   UNL A   1      43.718  28.388  34.441  1.00  0.00     0.037 A 
ATOM     53  C   UNL A   1      38.570  30.715  30.311  1.00  0.00     0.037 A 
ATOM     54  C   UNL A   1      42.836  29.347  35.053  1.00  0.00     0.049 A 
ATOM     55  C   UNL A   1      38.714  31.176  31.734  1.00  0.00     0.074 A 
ATOM     56  C   UNL A   1      42.889  29.878  36.329  1.00  0.00     0.029 A 
ATOM     57  N   UNL A   1      41.743  29.924  34.425  1.00  0.00    -0.354 N 
ATOM     58  N   UNL A   1      39.627  30.856  32.618  1.00  0.00    -0.248 NA
ATOM     59  C   UNL A   1      37.699  32.117  32.232  1.00  0.00     0.031 C 
ATOM     60  C   UNL A   1      41.810  30.754  36.485  1.00  0.00     0.029 A 
ATOM     61  C   UNL A   1      41.107  30.797  35.292  1.00  0.00     0.049 A 
ATOM     62  H   UNL A   1      41.460  29.740  33.500  1.00  0.00     0.167 HD
ATOM     63  C   UNL A   1      39.311  31.568  33.767  1.00  0.00     0.074 A 
ATOM     64  C   UNL A   1      38.129  32.350  33.464  1.00  0.00     0.031 C 
ATOM     65  C   UNL A   1      39.938  31.572  34.967  1.00  0.00     0.037 A 
BRANCH  52  66
ATOM     66  C   UNL A   1      44.856  27.853  35.256  1.00  0.00     0.057 A 
ATOM     67  C   UNL A   1      46.111  28.472  35.265  1.00  0.00     0.134 A 
ATOM     68  C   UNL A   1      44.681  26.732  36.076  1.00  0.00     0.134 A 
ATOM     69  F   UNL A   1      46.347  29.542  34.491  1.00  0.00    -0.206 F 
ATOM     70  C   UNL A   1      47.158  27.986  36.052  1.00  0.00     0.040 A 
ATOM     71  C   UNL A   1      45.713  26.248  36.882  1.00  0.00     0.040 A 
ATOM     72  F   UNL A   1      43.500  26.095  36.117  1.00  0.00    -0.206 F 
ATOM     73  C   UNL A   1      46.957  26.875  36.869  1.00  0.00     0.006 A 
ENDBRANCH  52  66
BRANCH  53  74
ATOM     74  C   UNL A   1      37.446  31.197  29.470  1.00  0.00     0.057 A 
ATOM     75  C   UNL A   1      36.330  30.391  29.220  1.00  0.00     0.134 A 
ATOM     76  C   UNL A   1      37.474  32.465  28.880  1.00  0.00     0.134 A 
ATOM     77  F   UNL A   1      36.257  29.156  29.738  1.00  0.00    -0.206 F 
ATOM     78  C   UNL A   1      35.287  30.824  28.398  1.00  0.00     0.040 A 
ATOM     79  C   UNL A   1      36.429  32.920  28.076  1.00  0.00     0.040 A 
ATOM     80  F   UNL A   1      38.517  33.283  29.081  1.00  0.00    -0.206 F 
ATOM     81  C   UNL A   1      35.333  32.095  27.827  1.00  0.00     0.006 A 
ENDBRANCH  53  74
BRANCH  65  82
ATOM     82  C   UNL A   1      39.379  32.473  36.027  1.00  0.00     0.057 A 
ATOM     83  C   UNL A   1      38.401  32.031  36.926  1.00  0.00     0.134 A 
ATOM     84  C   UNL A   1      39.848  33.785  36.168  1.00  0.00     0.134 A 
ATOM     85  F   UNL A   1      37.902  30.790  36.833  1.00  0.00    -0.206 F 
ATOM     86  C   UNL A   1      37.894  32.871  37.919  1.00  0.00     0.040 A 
ATOM     87  C   UNL A   1      39.365  34.626  37.171  1.00  0.00     0.040 A 
ATOM     88  F   UNL A   1      40.789  34.265  35.342  1.00  0.00    -0.206 F 
ATOM     89  C   UNL A   1      38.381  34.171  38.047  1.00  0.00     0.006 A 
ENDBRANCH  65  82
ENDBRANCH  39  40
ENDBRANCH  32  34
ENDBRANCH  31  32
ENDBRANCH  30  31
ENDBRANCH  29  30
ENDBRANCH  28  29
ENDBRANCH  26  28
ENDBRANCH   1  26
TORSDOF 19
ENDMDL
MODEL 3
REMARK VINA RESULT:     -10.9      4.620      7.001
REMARK SMILES CCCCCNC(=O)Oc1cccc(-c2ccc([C@@H](C)C(=O)OCCOC(=O)c3ccc(-c4c5nc(c(-c6c(F)cccc6F)c6ccc([nH]6)c(-c6c(F)cccc6F)c6nc(c(-c7c(F)cccc7F)c7ccc4[nH]7)C=C6)C=C5)cc3)cc2F)c1
REMARK SMILES IDX 19 1 20 2 18 3 15 4 16 5 84 6 17 7 83 8 85 9 14 10 10 11
REMARK SMILES IDX 11 12 86 13 12 14 13 15 9 16 7 17 6 18 8 20 5 21 4 22 3 23
REMARK SMILES IDX 2 24 1 25 21 26 22 27 23 28 24 29 25 30 26 31 27 32 28 33
REMARK SMILES IDX 29 34 30 35 82 36 31 37 81 38 32 39 33 40 34 41 75 42 35 43
REMARK SMILES IDX 80 44 74 45 76 46 36 47 79 48 73 49 72 50 37 52 63 53 46 54
REMARK SMILES IDX 62 55 47 56 50 57 61 58 77 59 48 60 49 61 60 63 78 64 51 65
REMARK SMILES IDX 38 66 39 67 44 68 40 69 41 70 43 71 45 72 42 73 64 74 65 75
REMARK SMILES IDX 70 76 66 77 67 78 69 79 71 80 68 81 52 82 53 83 58 84 54 85
REMARK SMILES IDX 55 86 57 87 59 88 56 89
REMARK H PARENT 6 19 76 51 50 62
REMARK Flexibility Score: inf
ROOT
ATOM      1  C   UNL A   1      41.230  21.764  26.915  1.00  0.00     0.126 C 
ATOM      2  C   UNL A   1      41.280  21.954  28.430  1.00  0.00     0.025 C 
ENDROOT
BRANCH   1   3
ATOM      3  C   UNL A   1      39.824  21.911  26.353  1.00  0.00    -0.031 A 
ATOM      4  C   UNL A   1      37.208  22.147  25.241  1.00  0.00     0.018 A 
ATOM      5  C   UNL A   1      37.814  23.218  25.920  1.00  0.00     0.012 A 
ATOM      6  C   UNL A   1      37.933  20.953  25.156  1.00  0.00     0.131 A 
ATOM      7  C   UNL A   1      39.101  23.105  26.462  1.00  0.00     0.005 A 
ATOM      8  C   UNL A   1      39.217  20.831  25.694  1.00  0.00     0.044 A 
ATOM      9  F   UNL A   1      37.422  19.892  24.511  1.00  0.00    -0.206 F 
BRANCH   4  10
ATOM     10  C   UNL A   1      35.884  22.307  24.613  1.00  0.00    -0.012 A 
ATOM     11  C   UNL A   1      34.314  23.515  23.210  1.00  0.00     0.133 A 
ATOM     12  C   UNL A   1      33.312  22.586  23.481  1.00  0.00     0.047 A 
ATOM     13  C   UNL A   1      35.587  23.394  23.774  1.00  0.00     0.056 A 
ATOM     14  C   UNL A   1      33.590  21.505  24.307  1.00  0.00     0.004 A 
ATOM     15  C   UNL A   1      34.864  21.368  24.867  1.00  0.00     0.009 A 
BRANCH  11  16
ATOM     16  O   UNL A   1      33.934  24.636  22.453  1.00  0.00    -0.410 OA
BRANCH  16  17
ATOM     17  C   UNL A   1      33.134  24.457  21.333  1.00  0.00     0.412 C 
ATOM     18  N   UNL A   1      31.982  25.196  21.380  1.00  0.00    -0.321 N 
ATOM     19  H   UNL A   1      31.388  25.136  20.598  1.00  0.00     0.167 HD
ATOM     20  O   UNL A   1      33.370  23.719  20.386  1.00  0.00    -0.224 OA
BRANCH  18  21
ATOM     21  C   UNL A   1      31.548  26.057  22.461  1.00  0.00     0.119 C 
BRANCH  21  22
ATOM     22  C   UNL A   1      30.740  25.300  23.514  1.00  0.00     0.021 C 
BRANCH  22  23
ATOM     23  C   UNL A   1      30.049  26.182  24.561  1.00  0.00     0.002 C 
BRANCH  23  24
ATOM     24  C   UNL A   1      30.567  26.042  25.996  1.00  0.00    -0.003 C 
ATOM     25  C   UNL A   1      31.323  27.263  26.494  1.00  0.00     0.004 C 
ENDBRANCH  23  24
ENDBRANCH  22  23
ENDBRANCH  21  22
ENDBRANCH  18  21
ENDBRANCH  16  17
ENDBRANCH  11  16
ENDBRANCH   4  10
ENDBRANCH   1   3
BRANCH   1  26
ATOM     26  C   UNL A   1      41.975  20.493  26.525  1.00  0.00     0.313 C 
ATOM     27  O   UNL A   1      41.882  19.458  27.179  1.00  0.00    -0.252 OA
BRANCH  26  28
ATOM     28  O   UNL A   1      42.699  20.613  25.382  1.00  0.00    -0.462 OA
BRANCH  28  29
ATOM     29  C   UNL A   1      43.903  21.401  25.451  1.00  0.00     0.274 C 
BRANCH  29  30
ATOM     30  C   UNL A   1      43.961  22.430  24.320  1.00  0.00     0.275 C 
BRANCH  30  31
ATOM     31  O   UNL A   1      43.314  23.660  24.697  1.00  0.00    -0.458 OA
BRANCH  31  32
ATOM     32  C   UNL A   1      44.150  24.654  25.073  1.00  0.00     0.338 C 
ATOM     33  O   UNL A   1      45.236  24.932  24.596  1.00  0.00    -0.246 OA
BRANCH  32  34
ATOM     34  C   UNL A   1      43.501  25.480  26.099  1.00  0.00     0.060 A 
ATOM     35  C   UNL A   1      43.932  26.800  26.248  1.00  0.00     0.016 A 
ATOM     36  C   UNL A   1      42.548  24.942  26.964  1.00  0.00     0.016 A 
ATOM     37  C   UNL A   1      43.423  27.591  27.274  1.00  0.00     0.010 A 
ATOM     38  C   UNL A   1      42.029  25.739  27.988  1.00  0.00     0.010 A 
ATOM     39  C   UNL A   1      42.474  27.063  28.157  1.00  0.00    -0.014 A 
BRANCH  39  40
ATOM     40  C   UNL A   1      41.983  27.890  29.285  1.00  0.00     0.031 A 
ATOM     41  C   UNL A   1      42.711  27.870  30.597  1.00  0.00     0.074 A 
ATOM     42  C   UNL A   1      40.903  28.674  29.119  1.00  0.00     0.049 A 
ATOM     43  N   UNL A   1      42.393  28.448  31.726  1.00  0.00    -0.248 NA
ATOM     44  C   UNL A   1      43.963  27.099  30.644  1.00  0.00     0.031 C 
ATOM     45  C   UNL A   1      40.143  28.814  27.877  1.00  0.00     0.029 A 
ATOM     46  N   UNL A   1      40.256  29.499  30.004  1.00  0.00    -0.354 N 
ATOM     47  C   UNL A   1      43.394  28.099  32.623  1.00  0.00     0.074 A 
ATOM     48  C   UNL A   1      44.323  27.246  31.912  1.00  0.00     0.031 C 
ATOM     49  C   UNL A   1      39.129  29.671  28.079  1.00  0.00     0.029 A 
ATOM     50  C   UNL A   1      39.144  30.104  29.474  1.00  0.00     0.049 A 
ATOM     51  H   UNL A   1      40.561  29.643  30.929  1.00  0.00     0.167 HD
ATOM     52  C   UNL A   1      43.526  28.461  33.922  1.00  0.00     0.037 A 
ATOM     53  C   UNL A   1      38.223  30.896  30.057  1.00  0.00     0.037 A 
ATOM     54  C   UNL A   1      42.609  29.320  34.623  1.00  0.00     0.049 A 
ATOM     55  C   UNL A   1      38.365  31.237  31.515  1.00  0.00     0.074 A 
ATOM     56  C   UNL A   1      42.654  29.739  35.941  1.00  0.00     0.029 A 
ATOM     57  N   UNL A   1      41.482  29.898  34.058  1.00  0.00    -0.354 N 
ATOM     58  N   UNL A   1      39.303  30.884  32.359  1.00  0.00    -0.248 NA
ATOM     59  C   UNL A   1      37.314  32.081  32.102  1.00  0.00     0.031 C 
ATOM     60  C   UNL A   1      41.538  30.546  36.183  1.00  0.00     0.029 A 
ATOM     61  C   UNL A   1      40.817  30.660  35.005  1.00  0.00     0.049 A 
ATOM     62  H   UNL A   1      41.197  29.782  33.123  1.00  0.00     0.167 HD
ATOM     63  C   UNL A   1      38.969  31.476  33.570  1.00  0.00     0.074 A 
ATOM     64  C   UNL A   1      37.748  32.226  33.347  1.00  0.00     0.031 C 
ATOM     65  C   UNL A   1      39.611  31.405  34.760  1.00  0.00     0.037 A 
BRANCH  52  66
ATOM     66  C   UNL A   1      44.698  27.911  34.677  1.00  0.00     0.057 A 
ATOM     67  C   UNL A   1      44.594  26.758  35.462  1.00  0.00     0.134 A 
ATOM     68  C   UNL A   1      45.957  28.518  34.580  1.00  0.00     0.134 A 
ATOM     69  F   UNL A   1      43.413  26.138  35.605  1.00  0.00    -0.206 F 
ATOM     70  C   UNL A   1      45.699  26.234  36.138  1.00  0.00     0.040 A 
ATOM     71  C   UNL A   1      47.073  27.993  35.234  1.00  0.00     0.040 A 
ATOM     72  F   UNL A   1      46.124  29.624  33.840  1.00  0.00    -0.206 F 
ATOM     73  C   UNL A   1      46.944  26.848  36.018  1.00  0.00     0.006 A 
ENDBRANCH  52  66
BRANCH  53  74
ATOM     74  C   UNL A   1      37.068  31.396  29.272  1.00  0.00     0.057 A 
ATOM     75  C   UNL A   1      37.066  32.685  28.726  1.00  0.00     0.134 A 
ATOM     76  C   UNL A   1      35.932  30.605  29.070  1.00  0.00     0.134 A 
ATOM     77  F   UNL A   1      38.117  33.498  28.908  1.00  0.00    -0.206 F 
ATOM     78  C   UNL A   1      35.966  33.175  28.020  1.00  0.00     0.040 A 
ATOM     79  C   UNL A   1      34.835  31.074  28.345  1.00  0.00     0.040 A 
ATOM     80  F   UNL A   1      35.873  29.362  29.569  1.00  0.00    -0.206 F 
ATOM     81  C   UNL A   1      34.848  32.366  27.824  1.00  0.00     0.006 A 
ENDBRANCH  53  74
BRANCH  65  82
ATOM     82  C   UNL A   1      39.024  32.182  35.900  1.00  0.00     0.057 A 
ATOM     83  C   UNL A   1      38.163  31.586  36.829  1.00  0.00     0.134 A 
ATOM     84  C   UNL A   1      39.351  33.530  36.086  1.00  0.00     0.134 A 
ATOM     85  F   UNL A   1      37.801  30.302  36.695  1.00  0.00    -0.206 F 
ATOM     86  C   UNL A   1      37.630  32.312  37.895  1.00  0.00     0.040 A 
ATOM     87  C   UNL A   1      38.842  34.260  37.161  1.00  0.00     0.040 A 
ATOM     88  F   UNL A   1      40.176  34.156  35.235  1.00  0.00    -0.206 F 
ATOM     89  C   UNL A   1      37.975  33.652  38.068  1.00  0.00     0.006 A 
ENDBRANCH  65  82
ENDBRANCH  39  40
ENDBRANCH  32  34
ENDBRANCH  31  32
ENDBRANCH  30  31
ENDBRANCH  29  30
ENDBRANCH  28  29
ENDBRANCH  26  28
ENDBRANCH   1  26
TORSDOF 19
ENDMDL
