MODEL 1
REMARK VINA RESULT:     -11.7      0.000      0.000
REMARK SMILES O=C(OCCOC(=O)[C@H]1C=C[C@@H](NS(=O)(=O)c2ccc(Br)cc2)C1)c1ccc(-c2c3nc(c(-c4c(F)cccc4F)c4ccc([nH]4)c(-c4c(F)cccc4F)c4nc(c(-c5c(F)cccc5F)c5ccc2[nH]5)C=C4)C=C3)cc1
REMARK SMILES IDX 5 1 4 2 3 3 2 4 1 5 25 6 26 7 78 8 27 9 77 10 28 11 29 12
REMARK SMILES IDX 30 13 71 14 31 15 76 16 70 17 72 18 32 19 75 20 69 21 68 22
REMARK SMILES IDX 33 24 59 25 42 26 58 27 43 28 46 29 57 30 73 31 44 32 45 33
REMARK SMILES IDX 56 35 74 36 47 37 34 38 35 39 40 40 36 41 37 42 39 43 41 44
REMARK SMILES IDX 38 45 60 46 61 47 66 48 62 49 63 50 65 51 67 52 64 53 48 54
REMARK SMILES IDX 49 55 54 56 50 57 51 58 53 59 55 60 52 61 6 62 7 63 8 64
REMARK SMILES IDX 9 65 10 66 24 67 11 68 12 69 13 70 14 72 15 73 16 74 17 75
REMARK SMILES IDX 18 76 23 77 19 78 22 79 20 80 21 81
REMARK H PARENT 72 23 46 34 13 71
REMARK Flexibility Score: inf
ROOT
ATOM      1  C   UNL A   1      43.665  21.494  25.606  1.00  0.00     0.274 C 
ENDROOT
BRANCH   1   2
ATOM      2  C   UNL A   1      44.555  22.214  24.580  1.00  0.00     0.275 C 
BRANCH   2   3
ATOM      3  O   UNL A   1      44.124  23.532  24.244  1.00  0.00    -0.458 OA
BRANCH   3   4
ATOM      4  C   UNL A   1      44.489  24.705  24.804  1.00  0.00     0.338 C 
ATOM      5  O   UNL A   1      45.651  25.078  24.643  1.00  0.00    -0.246 OA
BRANCH   4   6
ATOM      6  C   UNL A   1      43.600  25.531  25.693  1.00  0.00     0.060 A 
ATOM      7  C   UNL A   1      42.304  25.240  26.156  1.00  0.00     0.016 A 
ATOM      8  C   UNL A   1      44.187  26.703  26.169  1.00  0.00     0.016 A 
ATOM      9  C   UNL A   1      41.690  25.981  27.180  1.00  0.00     0.010 A 
ATOM     10  C   UNL A   1      43.564  27.449  27.164  1.00  0.00     0.010 A 
ATOM     11  C   UNL A   1      42.345  27.066  27.741  1.00  0.00    -0.014 A 
BRANCH  11  12
ATOM     12  C   UNL A   1      41.788  27.862  28.869  1.00  0.00     0.031 A 
ATOM     13  C   UNL A   1      42.390  27.655  30.229  1.00  0.00     0.074 A 
ATOM     14  C   UNL A   1      40.695  28.648  28.737  1.00  0.00     0.049 A 
ATOM     15  N   UNL A   1      41.987  28.096  31.391  1.00  0.00    -0.248 NA
ATOM     16  C   UNL A   1      43.565  26.767  30.291  1.00  0.00     0.031 C 
ATOM     17  C   UNL A   1      39.958  28.908  27.499  1.00  0.00     0.029 A 
ATOM     18  N   UNL A   1      39.987  29.356  29.683  1.00  0.00    -0.354 N 
ATOM     19  C   UNL A   1      42.858  27.522  32.304  1.00  0.00     0.074 A 
ATOM     20  C   UNL A   1      43.662  26.560  31.590  1.00  0.00     0.031 C 
ATOM     21  C   UNL A   1      38.898  29.694  27.763  1.00  0.00     0.029 A 
ATOM     22  C   UNL A   1      38.882  30.015  29.186  1.00  0.00     0.049 A 
ATOM     23  H   UNL A   1      40.248  29.390  30.632  1.00  0.00     0.167 HD
ATOM     24  C   UNL A   1      43.071  27.846  33.599  1.00  0.00     0.037 A 
ATOM     25  C   UNL A   1      37.982  30.804  29.810  1.00  0.00     0.037 A 
ATOM     26  C   UNL A   1      42.320  28.841  34.298  1.00  0.00     0.049 A 
ATOM     27  C   UNL A   1      38.177  31.118  31.275  1.00  0.00     0.074 A 
ATOM     28  C   UNL A   1      42.484  29.305  35.586  1.00  0.00     0.029 A 
ATOM     29  N   UNL A   1      41.248  29.528  33.749  1.00  0.00    -0.354 N 
ATOM     30  N   UNL A   1      39.104  30.683  32.095  1.00  0.00    -0.248 NA
ATOM     31  C   UNL A   1      37.232  32.062  31.889  1.00  0.00     0.031 C 
ATOM     32  C   UNL A   1      41.480  30.246  35.834  1.00  0.00     0.029 A 
ATOM     33  C   UNL A   1      40.724  30.402  34.681  1.00  0.00     0.049 A 
ATOM     34  H   UNL A   1      40.910  29.410  32.832  1.00  0.00     0.167 HD
ATOM     35  C   UNL A   1      38.896  31.352  33.296  1.00  0.00     0.074 A 
ATOM     36  C   UNL A   1      37.745  32.210  33.103  1.00  0.00     0.031 C 
ATOM     37  C   UNL A   1      39.604  31.278  34.450  1.00  0.00     0.037 A 
BRANCH  24  38
ATOM     38  C   UNL A   1      44.208  27.136  34.272  1.00  0.00     0.057 A 
ATOM     39  C   UNL A   1      44.001  25.944  34.986  1.00  0.00     0.134 A 
ATOM     40  C   UNL A   1      45.485  27.701  34.309  1.00  0.00     0.134 A 
ATOM     41  F   UNL A   1      42.789  25.366  35.010  1.00  0.00    -0.206 F 
ATOM     42  C   UNL A   1      45.002  25.384  35.777  1.00  0.00     0.040 A 
ATOM     43  C   UNL A   1      46.507  27.126  35.066  1.00  0.00     0.040 A 
ATOM     44  F   UNL A   1      45.750  28.835  33.644  1.00  0.00    -0.206 F 
ATOM     45  C   UNL A   1      46.260  25.979  35.820  1.00  0.00     0.006 A 
ENDBRANCH  24  38
BRANCH  25  46
ATOM     46  C   UNL A   1      36.854  31.430  29.063  1.00  0.00     0.057 A 
ATOM     47  C   UNL A   1      36.906  32.775  28.671  1.00  0.00     0.134 A 
ATOM     48  C   UNL A   1      35.674  30.730  28.784  1.00  0.00     0.134 A 
ATOM     49  F   UNL A   1      37.999  33.509  28.928  1.00  0.00    -0.206 F 
ATOM     50  C   UNL A   1      35.818  33.411  28.067  1.00  0.00     0.040 A 
ATOM     51  C   UNL A   1      34.584  31.348  28.162  1.00  0.00     0.040 A 
ATOM     52  F   UNL A   1      35.557  29.438  29.124  1.00  0.00    -0.206 F 
ATOM     53  C   UNL A   1      34.650  32.696  27.812  1.00  0.00     0.006 A 
ENDBRANCH  25  46
BRANCH  37  54
ATOM     54  C   UNL A   1      39.220  32.193  35.574  1.00  0.00     0.057 A 
ATOM     55  C   UNL A   1      39.661  33.520  35.638  1.00  0.00     0.134 A 
ATOM     56  C   UNL A   1      38.304  31.764  36.545  1.00  0.00     0.134 A 
ATOM     57  F   UNL A   1      40.545  33.986  34.744  1.00  0.00    -0.206 F 
ATOM     58  C   UNL A   1      39.204  34.388  36.631  1.00  0.00     0.040 A 
ATOM     59  C   UNL A   1      37.818  32.631  37.523  1.00  0.00     0.040 A 
ATOM     60  F   UNL A   1      37.838  30.506  36.533  1.00  0.00    -0.206 F 
ATOM     61  C   UNL A   1      38.269  33.948  37.567  1.00  0.00     0.006 A 
ENDBRANCH  37  54
ENDBRANCH  11  12
ENDBRANCH   4   6
ENDBRANCH   3   4
ENDBRANCH   2   3
ENDBRANCH   1   2
BRANCH   1  62
ATOM     62  O   UNL A   1      42.243  21.780  25.524  1.00  0.00    -0.462 OA
BRANCH  62  63
ATOM     63  C   UNL A   1      41.433  20.792  25.998  1.00  0.00     0.312 C 
ATOM     64  O   UNL A   1      41.739  19.602  25.951  1.00  0.00    -0.252 OA
BRANCH  63  65
ATOM     65  C   UNL A   1      40.054  21.239  26.510  1.00  0.00     0.123 C 
ATOM     66  C   UNL A   1      40.191  22.626  27.062  1.00  0.00    -0.015 C 
ATOM     67  C   UNL A   1      38.837  21.410  25.588  1.00  0.00     0.043 C 
ATOM     68  C   UNL A   1      39.127  23.392  26.810  1.00  0.00    -0.011 C 
ATOM     69  C   UNL A   1      38.056  22.666  26.082  1.00  0.00     0.093 C 
BRANCH  69  70
ATOM     70  N   UNL A   1      37.508  23.421  24.954  1.00  0.00    -0.204 NA
ATOM     71  H   UNL A   1      38.299  23.593  24.334  1.00  0.00     0.142 HD
BRANCH  70  72
ATOM     72  S   UNL A   1      36.254  22.896  23.946  1.00  0.00     0.241 S 
ATOM     73  O   UNL A   1      36.648  22.910  22.565  1.00  0.00    -0.207 OA
ATOM     74  O   UNL A   1      35.743  21.684  24.566  1.00  0.00    -0.207 OA
BRANCH  72  75
ATOM     75  C   UNL A   1      35.005  24.135  24.160  1.00  0.00     0.082 A 
ATOM     76  C   UNL A   1      34.158  24.436  23.094  1.00  0.00     0.023 A 
ATOM     77  C   UNL A   1      34.876  24.794  25.388  1.00  0.00     0.023 A 
ATOM     78  C   UNL A   1      33.231  25.468  23.227  1.00  0.00     0.017 A 
ATOM     79  C   UNL A   1      33.928  25.808  25.525  1.00  0.00     0.017 A 
ATOM     80  C   UNL A   1      33.128  26.157  24.436  1.00  0.00     0.018 A 
ATOM     81  Br  UNL A   1      31.896  27.580  24.594  1.00  0.00    -0.051 Br
ENDBRANCH  72  75
ENDBRANCH  70  72
ENDBRANCH  69  70
ENDBRANCH  63  65
ENDBRANCH  62  63
ENDBRANCH   1  62
TORSDOF 14
ENDMDL
MODEL 2
REMARK VINA RESULT:     -11.5      3.204      8.387
REMARK SMILES O=C(OCCOC(=O)[C@H]1C=C[C@@H](NS(=O)(=O)c2ccc(Br)cc2)C1)c1ccc(-c2c3nc(c(-c4c(F)cccc4F)c4ccc([nH]4)c(-c4c(F)cccc4F)c4nc(c(-c5c(F)cccc5F)c5ccc2[nH]5)C=C4)C=C3)cc1
REMARK SMILES IDX 5 1 4 2 3 3 2 4 1 5 25 6 26 7 78 8 27 9 77 10 28 11 29 12
REMARK SMILES IDX 30 13 71 14 31 15 76 16 70 17 72 18 32 19 75 20 69 21 68 22
REMARK SMILES IDX 33 24 59 25 42 26 58 27 43 28 46 29 57 30 73 31 44 32 45 33
REMARK SMILES IDX 56 35 74 36 47 37 34 38 35 39 40 40 36 41 37 42 39 43 41 44
REMARK SMILES IDX 38 45 60 46 61 47 66 48 62 49 63 50 65 51 67 52 64 53 48 54
REMARK SMILES IDX 49 55 54 56 50 57 51 58 53 59 55 60 52 61 6 62 7 63 8 64
REMARK SMILES IDX 9 65 10 66 24 67 11 68 12 69 13 70 14 72 15 73 16 74 17 75
REMARK SMILES IDX 18 76 23 77 19 78 22 79 20 80 21 81
REMARK H PARENT 72 23 46 34 13 71
REMARK Flexibility Score: inf
ROOT
ATOM      1  C   UNL A   1      31.736  31.138  26.175  1.00  0.00     0.274 C 
ENDROOT
BRANCH   1   2
ATOM      2  C   UNL A   1      31.322  32.307  27.084  1.00  0.00     0.275 C 
BRANCH   2   3
ATOM      3  O   UNL A   1      32.244  33.397  27.104  1.00  0.00    -0.458 OA
BRANCH   3   4
ATOM      4  C   UNL A   1      33.088  33.765  28.090  1.00  0.00     0.338 C 
ATOM      5  O   UNL A   1      32.781  34.744  28.770  1.00  0.00    -0.246 OA
BRANCH   4   6
ATOM      6  C   UNL A   1      34.425  33.121  28.344  1.00  0.00     0.060 A 
ATOM      7  C   UNL A   1      35.703  33.704  28.306  1.00  0.00     0.016 A 
ATOM      8  C   UNL A   1      34.356  31.786  28.741  1.00  0.00     0.016 A 
ATOM      9  C   UNL A   1      36.841  33.050  28.808  1.00  0.00     0.010 A 
ATOM     10  C   UNL A   1      35.490  31.132  29.212  1.00  0.00     0.010 A 
ATOM     11  C   UNL A   1      36.734  31.769  29.326  1.00  0.00    -0.014 A 
BRANCH  11  12
ATOM     12  C   UNL A   1      37.878  31.033  29.931  1.00  0.00     0.031 A 
ATOM     13  C   UNL A   1      38.254  31.374  31.345  1.00  0.00     0.074 A 
ATOM     14  C   UNL A   1      38.657  30.185  29.221  1.00  0.00     0.049 A 
ATOM     15  N   UNL A   1      39.296  31.003  32.038  1.00  0.00    -0.248 NA
ATOM     16  C   UNL A   1      37.367  32.323  32.042  1.00  0.00     0.031 C 
ATOM     17  C   UNL A   1      38.463  29.794  27.823  1.00  0.00     0.029 A 
ATOM     18  N   UNL A   1      39.805  29.516  29.582  1.00  0.00    -0.354 N 
ATOM     19  C   UNL A   1      39.180  31.689  33.238  1.00  0.00     0.074 A 
ATOM     20  C   UNL A   1      38.099  32.634  33.093  1.00  0.00     0.031 C 
ATOM     21  C   UNL A   1      39.462  28.977  27.442  1.00  0.00     0.029 A 
ATOM     22  C   UNL A   1      40.365  28.766  28.569  1.00  0.00     0.049 A 
ATOM     23  H   UNL A   1      40.193  29.568  30.485  1.00  0.00     0.167 HD
ATOM     24  C   UNL A   1      39.823  31.476  34.407  1.00  0.00     0.037 A 
ATOM     25  C   UNL A   1      41.464  27.982  28.567  1.00  0.00     0.037 A 
ATOM     26  C   UNL A   1      40.854  30.500  34.575  1.00  0.00     0.049 A 
ATOM     27  C   UNL A   1      42.227  27.791  29.857  1.00  0.00     0.074 A 
ATOM     28  C   UNL A   1      41.532  30.145  35.723  1.00  0.00     0.029 A 
ATOM     29  N   UNL A   1      41.355  29.719  33.545  1.00  0.00    -0.354 N 
ATOM     30  N   UNL A   1      42.010  28.334  31.032  1.00  0.00    -0.248 NA
ATOM     31  C   UNL A   1      43.356  26.849  29.834  1.00  0.00     0.031 C 
ATOM     32  C   UNL A   1      42.480  29.176  35.378  1.00  0.00     0.029 A 
ATOM     33  C   UNL A   1      42.353  28.894  34.025  1.00  0.00     0.049 A 
ATOM     34  H   UNL A   1      41.047  29.749  32.611  1.00  0.00     0.167 HD
ATOM     35  C   UNL A   1      42.927  27.748  31.898  1.00  0.00     0.074 A 
ATOM     36  C   UNL A   1      43.712  26.821  31.112  1.00  0.00     0.031 C 
ATOM     37  C   UNL A   1      43.091  27.947  33.230  1.00  0.00     0.037 A 
BRANCH  24  38
ATOM     38  C   UNL A   1      39.349  32.292  35.572  1.00  0.00     0.057 A 
ATOM     39  C   UNL A   1      38.347  31.815  36.435  1.00  0.00     0.134 A 
ATOM     40  C   UNL A   1      39.803  33.599  35.766  1.00  0.00     0.134 A 
ATOM     41  F   UNL A   1      37.851  30.576  36.283  1.00  0.00    -0.206 F 
ATOM     42  C   UNL A   1      37.759  32.636  37.395  1.00  0.00     0.040 A 
ATOM     43  C   UNL A   1      39.248  34.417  36.752  1.00  0.00     0.040 A 
ATOM     44  F   UNL A   1      40.761  34.113  34.980  1.00  0.00    -0.206 F 
ATOM     45  C   UNL A   1      38.209  33.944  37.553  1.00  0.00     0.006 A 
ENDBRANCH  24  38
BRANCH  25  46
ATOM     46  C   UNL A   1      41.885  27.244  27.342  1.00  0.00     0.057 A 
ATOM     47  C   UNL A   1      41.420  25.946  27.086  1.00  0.00     0.134 A 
ATOM     48  C   UNL A   1      42.809  27.780  26.438  1.00  0.00     0.134 A 
ATOM     49  F   UNL A   1      40.550  25.365  27.925  1.00  0.00    -0.206 F 
ATOM     50  C   UNL A   1      41.885  25.195  26.003  1.00  0.00     0.040 A 
ATOM     51  C   UNL A   1      43.269  27.048  25.338  1.00  0.00     0.040 A 
ATOM     52  F   UNL A   1      43.290  29.018  26.617  1.00  0.00    -0.206 F 
ATOM     53  C   UNL A   1      42.815  25.747  25.124  1.00  0.00     0.006 A 
ENDBRANCH  25  46
BRANCH  37  54
ATOM     54  C   UNL A   1      44.099  27.102  33.950  1.00  0.00     0.057 A 
ATOM     55  C   UNL A   1      45.438  27.487  34.078  1.00  0.00     0.134 A 
ATOM     56  C   UNL A   1      43.690  25.939  34.617  1.00  0.00     0.134 A 
ATOM     57  F   UNL A   1      45.893  28.584  33.455  1.00  0.00    -0.206 F 
ATOM     58  C   UNL A   1      46.336  26.743  34.846  1.00  0.00     0.040 A 
ATOM     59  C   UNL A   1      44.570  25.205  35.411  1.00  0.00     0.040 A 
ATOM     60  F   UNL A   1      42.417  25.522  34.540  1.00  0.00    -0.206 F 
ATOM     61  C   UNL A   1      45.898  25.608  35.526  1.00  0.00     0.006 A 
ENDBRANCH  37  54
ENDBRANCH  11  12
ENDBRANCH   4   6
ENDBRANCH   3   4
ENDBRANCH   2   3
ENDBRANCH   1   2
BRANCH   1  62
ATOM     62  O   UNL A   1      31.744  29.824  26.796  1.00  0.00    -0.462 OA
BRANCH  62  63
ATOM     63  C   UNL A   1      32.813  29.044  26.468  1.00  0.00     0.312 C 
ATOM     64  O   UNL A   1      33.912  29.512  26.175  1.00  0.00    -0.252 OA
BRANCH  63  65
ATOM     65  C   UNL A   1      32.543  27.533  26.383  1.00  0.00     0.123 C 
ATOM     66  C   UNL A   1      31.616  27.292  25.230  1.00  0.00    -0.015 C 
ATOM     67  C   UNL A   1      33.645  26.504  26.094  1.00  0.00     0.043 C 
ATOM     68  C   UNL A   1      31.895  26.166  24.568  1.00  0.00    -0.011 C 
ATOM     69  C   UNL A   1      33.027  25.414  25.164  1.00  0.00     0.093 C 
BRANCH  69  70
ATOM     70  N   UNL A   1      34.003  24.955  24.173  1.00  0.00    -0.204 NA
ATOM     71  H   UNL A   1      34.904  25.302  24.499  1.00  0.00     0.142 HD
BRANCH  70  72
ATOM     72  S   UNL A   1      34.271  23.339  23.746  1.00  0.00     0.241 S 
ATOM     73  O   UNL A   1      33.240  22.481  24.263  1.00  0.00    -0.207 OA
ATOM     74  O   UNL A   1      34.583  23.361  22.327  1.00  0.00    -0.207 OA
BRANCH  72  75
ATOM     75  C   UNL A   1      35.777  22.934  24.587  1.00  0.00     0.082 A 
ATOM     76  C   UNL A   1      36.425  23.920  25.331  1.00  0.00     0.023 A 
ATOM     77  C   UNL A   1      36.299  21.638  24.503  1.00  0.00     0.023 A 
ATOM     78  C   UNL A   1      37.653  23.633  25.925  1.00  0.00     0.017 A 
ATOM     79  C   UNL A   1      37.516  21.348  25.121  1.00  0.00     0.017 A 
ATOM     80  C   UNL A   1      38.199  22.353  25.807  1.00  0.00     0.018 A 
ATOM     81  Br  UNL A   1      39.882  21.985  26.581  1.00  0.00    -0.051 Br
ENDBRANCH  72  75
ENDBRANCH  70  72
ENDBRANCH  69  70
ENDBRANCH  63  65
ENDBRANCH  62  63
ENDBRANCH   1  62
TORSDOF 14
ENDMDL
MODEL 3
REMARK VINA RESULT:     -11.4      3.434      8.386
REMARK SMILES O=C(OCCOC(=O)[C@H]1C=C[C@@H](NS(=O)(=O)c2ccc(Br)cc2)C1)c1ccc(-c2c3nc(c(-c4c(F)cccc4F)c4ccc([nH]4)c(-c4c(F)cccc4F)c4nc(c(-c5c(F)cccc5F)c5ccc2[nH]5)C=C4)C=C3)cc1
REMARK SMILES IDX 5 1 4 2 3 3 2 4 1 5 25 6 26 7 78 8 27 9 77 10 28 11 29 12
REMARK SMILES IDX 30 13 71 14 31 15 76 16 70 17 72 18 32 19 75 20 69 21 68 22
REMARK SMILES IDX 33 24 59 25 42 26 58 27 43 28 46 29 57 30 73 31 44 32 45 33
REMARK SMILES IDX 56 35 74 36 47 37 34 38 35 39 40 40 36 41 37 42 39 43 41 44
REMARK SMILES IDX 38 45 60 46 61 47 66 48 62 49 63 50 65 51 67 52 64 53 48 54
REMARK SMILES IDX 49 55 54 56 50 57 51 58 53 59 55 60 52 61 6 62 7 63 8 64
REMARK SMILES IDX 9 65 10 66 24 67 11 68 12 69 13 70 14 72 15 73 16 74 17 75
REMARK SMILES IDX 18 76 23 77 19 78 22 79 20 80 21 81
REMARK H PARENT 72 23 46 34 13 71
REMARK Flexibility Score: inf
ROOT
ATOM      1  C   UNL A   1      31.434  31.581  26.525  1.00  0.00     0.274 C 
ENDROOT
BRANCH   1   2
ATOM      2  C   UNL A   1      31.836  33.065  26.534  1.00  0.00     0.275 C 
BRANCH   2   3
ATOM      3  O   UNL A   1      32.132  33.591  27.827  1.00  0.00    -0.458 OA
BRANCH   3   4
ATOM      4  C   UNL A   1      33.272  34.172  28.258  1.00  0.00     0.338 C 
ATOM      5  O   UNL A   1      33.280  35.397  28.377  1.00  0.00    -0.246 OA
BRANCH   4   6
ATOM      6  C   UNL A   1      34.559  33.430  28.501  1.00  0.00     0.060 A 
ATOM      7  C   UNL A   1      35.879  33.880  28.323  1.00  0.00     0.016 A 
ATOM      8  C   UNL A   1      34.398  32.156  29.044  1.00  0.00     0.016 A 
ATOM      9  C   UNL A   1      36.986  33.173  28.826  1.00  0.00     0.010 A 
ATOM     10  C   UNL A   1      35.498  31.447  29.517  1.00  0.00     0.010 A 
ATOM     11  C   UNL A   1      36.799  31.969  29.487  1.00  0.00    -0.014 A 
BRANCH  11  12
ATOM     12  C   UNL A   1      37.911  31.192  30.100  1.00  0.00     0.031 A 
ATOM     13  C   UNL A   1      38.302  31.533  31.509  1.00  0.00     0.074 A 
ATOM     14  C   UNL A   1      38.653  30.304  29.400  1.00  0.00     0.049 A 
ATOM     15  N   UNL A   1      39.328  31.126  32.207  1.00  0.00    -0.248 NA
ATOM     16  C   UNL A   1      37.457  32.527  32.196  1.00  0.00     0.031 C 
ATOM     17  C   UNL A   1      38.441  29.905  28.007  1.00  0.00     0.029 A 
ATOM     18  N   UNL A   1      39.771  29.590  29.768  1.00  0.00    -0.354 N 
ATOM     19  C   UNL A   1      39.242  31.830  33.399  1.00  0.00     0.074 A 
ATOM     20  C   UNL A   1      38.202  32.818  33.243  1.00  0.00     0.031 C 
ATOM     21  C   UNL A   1      39.404  29.042  27.635  1.00  0.00     0.029 A 
ATOM     22  C   UNL A   1      40.298  28.805  28.764  1.00  0.00     0.049 A 
ATOM     23  H   UNL A   1      40.162  29.635  30.671  1.00  0.00     0.167 HD
ATOM     24  C   UNL A   1      39.877  31.603  34.570  1.00  0.00     0.037 A 
ATOM     25  C   UNL A   1      41.362  27.975  28.771  1.00  0.00     0.037 A 
ATOM     26  C   UNL A   1      40.865  30.586  34.749  1.00  0.00     0.049 A 
ATOM     27  C   UNL A   1      42.117  27.766  30.063  1.00  0.00     0.074 A 
ATOM     28  C   UNL A   1      41.528  30.216  35.901  1.00  0.00     0.029 A 
ATOM     29  N   UNL A   1      41.331  29.773  33.728  1.00  0.00    -0.354 N 
ATOM     30  N   UNL A   1      41.924  28.331  31.231  1.00  0.00    -0.248 NA
ATOM     31  C   UNL A   1      43.205  26.777  30.051  1.00  0.00     0.031 C 
ATOM     32  C   UNL A   1      42.433  29.203  35.567  1.00  0.00     0.029 A 
ATOM     33  C   UNL A   1      42.293  28.911  34.218  1.00  0.00     0.049 A 
ATOM     34  H   UNL A   1      41.024  29.805  32.794  1.00  0.00     0.167 HD
ATOM     35  C   UNL A   1      42.816  27.717  32.104  1.00  0.00     0.074 A 
ATOM     36  C   UNL A   1      43.560  26.748  31.328  1.00  0.00     0.031 C 
ATOM     37  C   UNL A   1      42.990  27.924  33.433  1.00  0.00     0.037 A 
BRANCH  24  38
ATOM     38  C   UNL A   1      39.438  32.452  35.726  1.00  0.00     0.057 A 
ATOM     39  C   UNL A   1      38.377  32.057  36.558  1.00  0.00     0.134 A 
ATOM     40  C   UNL A   1      39.992  33.716  35.938  1.00  0.00     0.134 A 
ATOM     41  F   UNL A   1      37.785  30.863  36.386  1.00  0.00    -0.206 F 
ATOM     42  C   UNL A   1      37.831  32.920  37.506  1.00  0.00     0.040 A 
ATOM     43  C   UNL A   1      39.479  34.574  36.913  1.00  0.00     0.040 A 
ATOM     44  F   UNL A   1      41.011  34.152  35.183  1.00  0.00    -0.206 F 
ATOM     45  C   UNL A   1      38.383  34.186  37.683  1.00  0.00     0.006 A 
ENDBRANCH  24  38
BRANCH  25  46
ATOM     46  C   UNL A   1      41.750  27.205  27.554  1.00  0.00     0.057 A 
ATOM     47  C   UNL A   1      42.577  27.771  26.575  1.00  0.00     0.134 A 
ATOM     48  C   UNL A   1      41.252  25.921  27.304  1.00  0.00     0.134 A 
ATOM     49  F   UNL A   1      43.070  29.008  26.743  1.00  0.00    -0.206 F 
ATOM     50  C   UNL A   1      42.865  27.110  25.378  1.00  0.00     0.040 A 
ATOM     51  C   UNL A   1      41.547  25.238  26.118  1.00  0.00     0.040 A 
ATOM     52  F   UNL A   1      40.461  25.315  28.200  1.00  0.00    -0.206 F 
ATOM     53  C   UNL A   1      42.347  25.838  25.147  1.00  0.00     0.006 A 
ENDBRANCH  25  46
BRANCH  37  54
ATOM     54  C   UNL A   1      43.961  27.045  34.163  1.00  0.00     0.057 A 
ATOM     55  C   UNL A   1      45.314  27.378  34.294  1.00  0.00     0.134 A 
ATOM     56  C   UNL A   1      43.504  25.904  34.837  1.00  0.00     0.134 A 
ATOM     57  F   UNL A   1      45.813  28.452  33.665  1.00  0.00    -0.206 F 
ATOM     58  C   UNL A   1      46.179  26.605  35.070  1.00  0.00     0.040 A 
ATOM     59  C   UNL A   1      44.352  25.141  35.639  1.00  0.00     0.040 A 
ATOM     60  F   UNL A   1      42.216  25.536  34.757  1.00  0.00    -0.206 F 
ATOM     61  C   UNL A   1      45.694  25.493  35.756  1.00  0.00     0.006 A 
ENDBRANCH  37  54
ENDBRANCH  11  12
ENDBRANCH   4   6
ENDBRANCH   3   4
ENDBRANCH   2   3
ENDBRANCH   1   2
BRANCH   1  62
ATOM     62  O   UNL A   1      32.516  30.632  26.328  1.00  0.00    -0.462 OA
BRANCH  62  63
ATOM     63  C   UNL A   1      32.165  29.496  25.661  1.00  0.00     0.312 C 
ATOM     64  O   UNL A   1      31.355  29.491  24.737  1.00  0.00    -0.252 OA
BRANCH  63  65
ATOM     65  C   UNL A   1      32.766  28.187  26.199  1.00  0.00     0.123 C 
ATOM     66  C   UNL A   1      31.640  27.321  26.676  1.00  0.00    -0.015 C 
ATOM     67  C   UNL A   1      33.540  27.199  25.314  1.00  0.00     0.043 C 
ATOM     68  C   UNL A   1      31.840  26.025  26.425  1.00  0.00    -0.011 C 
ATOM     69  C   UNL A   1      33.146  25.761  25.772  1.00  0.00     0.093 C 
BRANCH  69  70
ATOM     70  N   UNL A   1      33.050  24.853  24.628  1.00  0.00    -0.204 NA
ATOM     71  H   UNL A   1      32.590  25.391  23.894  1.00  0.00     0.142 HD
BRANCH  70  72
ATOM     72  S   UNL A   1      34.360  24.092  23.874  1.00  0.00     0.241 S 
ATOM     73  O   UNL A   1      34.389  24.371  22.465  1.00  0.00    -0.207 OA
ATOM     74  O   UNL A   1      35.509  24.377  24.717  1.00  0.00    -0.207 OA
BRANCH  72  75
ATOM     75  C   UNL A   1      34.006  22.367  24.072  1.00  0.00     0.082 A 
ATOM     76  C   UNL A   1      32.855  21.839  23.485  1.00  0.00     0.023 A 
ATOM     77  C   UNL A   1      34.877  21.553  24.805  1.00  0.00     0.023 A 
ATOM     78  C   UNL A   1      32.526  20.503  23.707  1.00  0.00     0.017 A 
ATOM     79  C   UNL A   1      34.557  20.210  25.003  1.00  0.00     0.017 A 
ATOM     80  C   UNL A   1      33.370  19.698  24.474  1.00  0.00     0.018 A 
ATOM     81  Br  UNL A   1      32.895  17.900  24.803  1.00  0.00    -0.051 Br
ENDBRANCH  72  75
ENDBRANCH  70  72
ENDBRANCH  69  70
ENDBRANCH  63  65
ENDBRANCH  62  63
ENDBRANCH   1  62
TORSDOF 14
ENDMDL
