MODEL 1
REMARK VINA RESULT:     -12.5      0.000      0.000
REMARK SMILES O=C(CSc1ccc2ccccc2n1)NCc1ccc(C(=O)OCCOC(=O)c2ccc(-c3c4nc(c(-c5c(F)cccc5F)c5ccc([nH]5)c(-c5c(F)cccc5F)c5nc(c(-c6c(F)cccc6F)c6ccc3[nH]6)C=C5)C=C4)cc2)cc1
REMARK SMILES IDX 23 1 21 2 22 3 20 4 17 5 18 6 84 7 19 8 83 9 16 10 15 11
REMARK SMILES IDX 1 12 2 13 3 15 4 16 5 17 6 18 14 19 7 20 13 21 8 22 12 23
REMARK SMILES IDX 9 24 11 25 10 26 24 27 25 28 26 29 27 30 28 31 29 32 30 33
REMARK SMILES IDX 82 34 31 35 81 36 32 37 33 38 34 39 75 40 35 41 80 42 74 43
REMARK SMILES IDX 76 44 36 45 79 46 73 47 72 48 37 50 63 51 46 52 62 53 47 54
REMARK SMILES IDX 50 55 61 56 77 57 48 58 49 59 60 61 78 62 51 63 38 64 39 65
REMARK SMILES IDX 44 66 40 67 41 68 43 69 45 70 42 71 64 72 65 73 70 74 66 75
REMARK SMILES IDX 67 76 69 77 71 78 68 79 52 80 53 81 58 82 54 83 55 84 57 85
REMARK SMILES IDX 59 86 56 87
REMARK H PARENT 15 14 76 49 50 60
REMARK Flexibility Score: inf
ROOT
ATOM      1  O   UNL A   1      41.199  20.917  25.704  1.00  0.00    -0.458 OA
ENDROOT
BRANCH   1   2
ATOM      2  C   UNL A   1      40.426  21.255  26.767  1.00  0.00     0.338 C 
ATOM      3  O   UNL A   1      40.686  21.062  27.944  1.00  0.00    -0.246 OA
BRANCH   2   4
ATOM      4  C   UNL A   1      39.226  22.006  26.326  1.00  0.00     0.060 A 
ATOM      5  C   UNL A   1      36.922  23.343  25.420  1.00  0.00    -0.029 A 
ATOM      6  C   UNL A   1      37.145  22.003  25.081  1.00  0.00     0.006 A 
ATOM      7  C   UNL A   1      37.866  24.005  26.222  1.00  0.00     0.006 A 
ATOM      8  C   UNL A   1      38.296  21.347  25.513  1.00  0.00     0.016 A 
ATOM      9  C   UNL A   1      39.011  23.342  26.678  1.00  0.00     0.016 A 
BRANCH   5  10
ATOM     10  C   UNL A   1      35.670  24.035  24.943  1.00  0.00     0.151 C 
BRANCH  10  11
ATOM     11  N   UNL A   1      34.607  23.974  25.912  1.00  0.00    -0.351 N 
ATOM     12  O   UNL A   1      33.422  22.328  24.848  1.00  0.00    -0.274 OA
ATOM     13  C   UNL A   1      33.575  23.070  25.819  1.00  0.00     0.230 C 
ATOM     14  H   UNL A   1      34.618  24.604  26.669  1.00  0.00     0.163 HD
BRANCH  13  15
ATOM     15  C   UNL A   1      32.545  23.123  26.936  1.00  0.00     0.176 C 
BRANCH  15  16
ATOM     16  S   UNL A   1      30.828  23.369  26.373  1.00  0.00    -0.096 SA
BRANCH  16  17
ATOM     17  C   UNL A   1      30.929  25.072  25.861  1.00  0.00     0.097 A 
ATOM     18  C   UNL A   1      30.663  25.409  24.544  1.00  0.00     0.036 A 
ATOM     19  N   UNL A   1      31.314  25.972  26.789  1.00  0.00    -0.241 NA
ATOM     20  C   UNL A   1      30.775  26.744  24.168  1.00  0.00     0.013 A 
ATOM     21  C   UNL A   1      31.423  27.262  26.426  1.00  0.00     0.072 A 
ATOM     22  C   UNL A   1      31.160  27.702  25.113  1.00  0.00     0.000 A 
ATOM     23  C   UNL A   1      31.809  28.207  27.368  1.00  0.00     0.029 A 
ATOM     24  C   UNL A   1      31.289  29.061  24.780  1.00  0.00     0.010 A 
ATOM     25  C   UNL A   1      31.941  29.560  27.041  1.00  0.00     0.002 A 
ATOM     26  C   UNL A   1      31.679  29.987  25.744  1.00  0.00     0.001 A 
ENDBRANCH  16  17
ENDBRANCH  15  16
ENDBRANCH  13  15
ENDBRANCH  10  11
ENDBRANCH   5  10
ENDBRANCH   2   4
ENDBRANCH   1   2
BRANCH   1  27
ATOM     27  C   UNL A   1      42.549  20.519  26.021  1.00  0.00     0.275 C 
BRANCH  27  28
ATOM     28  C   UNL A   1      43.550  21.546  25.491  1.00  0.00     0.275 C 
BRANCH  28  29
ATOM     29  O   UNL A   1      42.843  22.717  25.049  1.00  0.00    -0.458 OA
BRANCH  29  30
ATOM     30  C   UNL A   1      43.560  23.863  25.016  1.00  0.00     0.338 C 
ATOM     31  O   UNL A   1      44.532  24.105  24.321  1.00  0.00    -0.246 OA
BRANCH  30  32
ATOM     32  C   UNL A   1      43.002  24.825  25.988  1.00  0.00     0.060 A 
ATOM     33  C   UNL A   1      43.252  26.192  25.861  1.00  0.00     0.016 A 
ATOM     34  C   UNL A   1      42.297  24.350  27.094  1.00  0.00     0.016 A 
ATOM     35  C   UNL A   1      42.860  27.077  26.868  1.00  0.00     0.010 A 
ATOM     36  C   UNL A   1      41.832  25.249  28.061  1.00  0.00     0.010 A 
ATOM     37  C   UNL A   1      42.138  26.620  27.980  1.00  0.00    -0.014 A 
BRANCH  37  38
ATOM     38  C   UNL A   1      41.757  27.547  29.085  1.00  0.00     0.031 A 
ATOM     39  C   UNL A   1      42.571  27.582  30.355  1.00  0.00     0.074 A 
ATOM     40  C   UNL A   1      40.693  28.366  28.972  1.00  0.00     0.049 A 
ATOM     41  N   UNL A   1      42.299  28.154  31.502  1.00  0.00    -0.248 NA
ATOM     42  C   UNL A   1      43.855  26.864  30.336  1.00  0.00     0.031 C 
ATOM     43  C   UNL A   1      39.829  28.484  27.797  1.00  0.00     0.029 A 
ATOM     44  N   UNL A   1      40.159  29.265  29.866  1.00  0.00    -0.354 N 
ATOM     45  C   UNL A   1      43.337  27.805  32.357  1.00  0.00     0.074 A 
ATOM     46  C   UNL A   1      44.251  26.980  31.595  1.00  0.00     0.031 C 
ATOM     47  C   UNL A   1      38.904  29.431  28.024  1.00  0.00     0.029 A 
ATOM     48  C   UNL A   1      39.054  29.927  29.388  1.00  0.00     0.049 A 
ATOM     49  H   UNL A   1      40.533  29.418  30.764  1.00  0.00     0.167 HD
ATOM     50  C   UNL A   1      43.512  28.137  33.658  1.00  0.00     0.037 A 
ATOM     51  C   UNL A   1      38.230  30.808  29.987  1.00  0.00     0.037 A 
ATOM     52  C   UNL A   1      42.650  29.020  34.399  1.00  0.00     0.049 A 
ATOM     53  C   UNL A   1      38.447  31.170  31.428  1.00  0.00     0.074 A 
ATOM     54  C   UNL A   1      42.758  29.426  35.719  1.00  0.00     0.029 A 
ATOM     55  N   UNL A   1      41.535  29.655  33.876  1.00  0.00    -0.354 N 
ATOM     56  N   UNL A   1      39.385  30.768  32.248  1.00  0.00    -0.248 NA
ATOM     57  C   UNL A   1      37.471  32.088  32.035  1.00  0.00     0.031 C 
ATOM     58  C   UNL A   1      41.698  30.295  36.000  1.00  0.00     0.029 A 
ATOM     59  C   UNL A   1      40.947  30.450  34.847  1.00  0.00     0.049 A 
ATOM     60  H   UNL A   1      41.210  29.556  32.953  1.00  0.00     0.167 HD
ATOM     61  C   UNL A   1      39.115  31.380  33.465  1.00  0.00     0.074 A 
ATOM     62  C   UNL A   1      37.939  32.201  33.270  1.00  0.00     0.031 C 
ATOM     63  C   UNL A   1      39.777  31.261  34.640  1.00  0.00     0.037 A 
BRANCH  50  64
ATOM     64  C   UNL A   1      44.671  27.517  34.380  1.00  0.00     0.057 A 
ATOM     65  C   UNL A   1      45.916  28.149  34.473  1.00  0.00     0.134 A 
ATOM     66  C   UNL A   1      44.521  26.282  35.025  1.00  0.00     0.134 A 
ATOM     67  F   UNL A   1      46.128  29.326  33.866  1.00  0.00    -0.206 F 
ATOM     68  C   UNL A   1      46.978  27.565  35.167  1.00  0.00     0.040 A 
ATOM     69  C   UNL A   1      45.568  25.699  35.740  1.00  0.00     0.040 A 
ATOM     70  F   UNL A   1      43.350  25.628  34.980  1.00  0.00    -0.206 F 
ATOM     71  C   UNL A   1      46.803  26.340  35.809  1.00  0.00     0.006 A 
ENDBRANCH  50  64
BRANCH  51  72
ATOM     72  C   UNL A   1      37.091  31.384  29.229  1.00  0.00     0.057 A 
ATOM     73  C   UNL A   1      37.148  32.686  28.721  1.00  0.00     0.134 A 
ATOM     74  C   UNL A   1      35.926  30.645  28.988  1.00  0.00     0.134 A 
ATOM     75  F   UNL A   1      38.226  33.450  28.945  1.00  0.00    -0.206 F 
ATOM     76  C   UNL A   1      36.085  33.235  28.002  1.00  0.00     0.040 A 
ATOM     77  C   UNL A   1      34.866  31.173  28.251  1.00  0.00     0.040 A 
ATOM     78  F   UNL A   1      35.811  29.391  29.452  1.00  0.00    -0.206 F 
ATOM     79  C   UNL A   1      34.943  32.474  27.759  1.00  0.00     0.006 A 
ENDBRANCH  51  72
BRANCH  63  80
ATOM     80  C   UNL A   1      39.250  32.049  35.800  1.00  0.00     0.057 A 
ATOM     81  C   UNL A   1      38.315  31.506  36.690  1.00  0.00     0.134 A 
ATOM     82  C   UNL A   1      39.701  33.352  36.044  1.00  0.00     0.134 A 
ATOM     83  F   UNL A   1      37.837  30.268  36.500  1.00  0.00    -0.206 F 
ATOM     84  C   UNL A   1      37.833  32.239  37.775  1.00  0.00     0.040 A 
ATOM     85  C   UNL A   1      39.239  34.088  37.136  1.00  0.00     0.040 A 
ATOM     86  F   UNL A   1      40.600  33.926  35.230  1.00  0.00    -0.206 F 
ATOM     87  C   UNL A   1      38.299  33.534  38.003  1.00  0.00     0.006 A 
ENDBRANCH  63  80
ENDBRANCH  37  38
ENDBRANCH  30  32
ENDBRANCH  29  30
ENDBRANCH  28  29
ENDBRANCH  27  28
ENDBRANCH   1  27
TORSDOF 16
ENDMDL
MODEL 2
REMARK VINA RESULT:     -12.2      4.779      9.892
REMARK SMILES O=C(CSc1ccc2ccccc2n1)NCc1ccc(C(=O)OCCOC(=O)c2ccc(-c3c4nc(c(-c5c(F)cccc5F)c5ccc([nH]5)c(-c5c(F)cccc5F)c5nc(c(-c6c(F)cccc6F)c6ccc3[nH]6)C=C5)C=C4)cc2)cc1
REMARK SMILES IDX 23 1 21 2 22 3 20 4 17 5 18 6 84 7 19 8 83 9 16 10 15 11
REMARK SMILES IDX 1 12 2 13 3 15 4 16 5 17 6 18 14 19 7 20 13 21 8 22 12 23
REMARK SMILES IDX 9 24 11 25 10 26 24 27 25 28 26 29 27 30 28 31 29 32 30 33
REMARK SMILES IDX 82 34 31 35 81 36 32 37 33 38 34 39 75 40 35 41 80 42 74 43
REMARK SMILES IDX 76 44 36 45 79 46 73 47 72 48 37 50 63 51 46 52 62 53 47 54
REMARK SMILES IDX 50 55 61 56 77 57 48 58 49 59 60 61 78 62 51 63 38 64 39 65
REMARK SMILES IDX 44 66 40 67 41 68 43 69 45 70 42 71 64 72 65 73 70 74 66 75
REMARK SMILES IDX 67 76 69 77 71 78 68 79 52 80 53 81 58 82 54 83 55 84 57 85
REMARK SMILES IDX 59 86 56 87
REMARK H PARENT 15 14 76 49 50 60
REMARK Flexibility Score: inf
ROOT
ATOM      1  O   UNL A   1      33.696  33.321  29.081  1.00  0.00    -0.458 OA
ENDROOT
BRANCH   1   2
ATOM      2  C   UNL A   1      34.527  32.908  28.091  1.00  0.00     0.338 C 
ATOM      3  O   UNL A   1      35.484  33.520  27.643  1.00  0.00    -0.246 OA
BRANCH   2   4
ATOM      4  C   UNL A   1      34.189  31.529  27.663  1.00  0.00     0.060 A 
ATOM      5  C   UNL A   1      33.661  28.886  26.853  1.00  0.00    -0.029 A 
ATOM      6  C   UNL A   1      34.951  29.265  27.245  1.00  0.00     0.006 A 
ATOM      7  C   UNL A   1      32.636  29.847  26.876  1.00  0.00     0.006 A 
ATOM      8  C   UNL A   1      35.216  30.579  27.626  1.00  0.00     0.016 A 
ATOM      9  C   UNL A   1      32.895  31.161  27.283  1.00  0.00     0.016 A 
BRANCH   5  10
ATOM     10  C   UNL A   1      33.394  27.460  26.444  1.00  0.00     0.151 C 
BRANCH  10  11
ATOM     11  N   UNL A   1      33.779  27.199  25.080  1.00  0.00    -0.351 N 
ATOM     12  O   UNL A   1      31.674  26.671  24.347  1.00  0.00    -0.274 OA
ATOM     13  C   UNL A   1      32.864  26.874  24.106  1.00  0.00     0.230 C 
ATOM     14  H   UNL A   1      34.731  27.254  24.837  1.00  0.00     0.163 HD
BRANCH  13  15
ATOM     15  C   UNL A   1      33.432  26.651  22.713  1.00  0.00     0.176 C 
BRANCH  15  16
ATOM     16  S   UNL A   1      32.670  25.272  21.796  1.00  0.00    -0.096 SA
BRANCH  16  17
ATOM     17  C   UNL A   1      33.334  23.903  22.722  1.00  0.00     0.097 A 
ATOM     18  C   UNL A   1      32.473  23.012  23.340  1.00  0.00     0.036 A 
ATOM     19  N   UNL A   1      34.676  23.819  22.820  1.00  0.00    -0.241 NA
ATOM     20  C   UNL A   1      33.021  21.966  24.077  1.00  0.00     0.013 A 
ATOM     21  C   UNL A   1      35.207  22.811  23.533  1.00  0.00     0.072 A 
ATOM     22  C   UNL A   1      34.411  21.847  24.186  1.00  0.00     0.000 A 
ATOM     23  C   UNL A   1      36.587  22.700  23.639  1.00  0.00     0.029 A 
ATOM     24  C   UNL A   1      35.011  20.811  24.921  1.00  0.00     0.010 A 
ATOM     25  C   UNL A   1      37.188  21.672  24.372  1.00  0.00     0.002 A 
ATOM     26  C   UNL A   1      36.398  20.725  25.013  1.00  0.00     0.001 A 
ENDBRANCH  16  17
ENDBRANCH  15  16
ENDBRANCH  13  15
ENDBRANCH  10  11
ENDBRANCH   5  10
ENDBRANCH   2   4
ENDBRANCH   1   2
BRANCH   1  27
ATOM     27  C   UNL A   1      34.202  34.388  29.909  1.00  0.00     0.275 C 
BRANCH  27  28
ATOM     28  C   UNL A   1      34.334  33.925  31.360  1.00  0.00     0.275 C 
BRANCH  28  29
ATOM     29  O   UNL A   1      34.712  32.538  31.385  1.00  0.00    -0.458 OA
BRANCH  29  30
ATOM     30  C   UNL A   1      35.629  32.192  32.316  1.00  0.00     0.338 C 
ATOM     31  O   UNL A   1      35.582  32.410  33.515  1.00  0.00    -0.246 OA
BRANCH  30  32
ATOM     32  C   UNL A   1      36.760  31.499  31.666  1.00  0.00     0.060 A 
ATOM     33  C   UNL A   1      37.551  30.599  32.380  1.00  0.00     0.016 A 
ATOM     34  C   UNL A   1      37.093  31.820  30.349  1.00  0.00     0.016 A 
ATOM     35  C   UNL A   1      38.711  30.072  31.810  1.00  0.00     0.010 A 
ATOM     36  C   UNL A   1      38.210  31.225  29.751  1.00  0.00     0.010 A 
ATOM     37  C   UNL A   1      39.055  30.372  30.484  1.00  0.00    -0.014 A 
BRANCH  37  38
ATOM     38  C   UNL A   1      40.317  29.854  29.879  1.00  0.00     0.031 A 
ATOM     39  C   UNL A   1      41.522  30.754  29.761  1.00  0.00     0.074 A 
ATOM     40  C   UNL A   1      40.407  28.585  29.434  1.00  0.00     0.049 A 
ATOM     41  N   UNL A   1      42.633  30.573  29.092  1.00  0.00    -0.248 NA
ATOM     42  C   UNL A   1      41.460  32.037  30.479  1.00  0.00     0.031 C 
ATOM     43  C   UNL A   1      39.350  27.577  29.513  1.00  0.00     0.029 A 
ATOM     44  N   UNL A   1      41.450  27.923  28.829  1.00  0.00    -0.354 N 
ATOM     45  C   UNL A   1      43.367  31.742  29.249  1.00  0.00     0.074 A 
ATOM     46  C   UNL A   1      42.581  32.624  30.085  1.00  0.00     0.031 C 
ATOM     47  C   UNL A   1      39.811  26.416  29.019  1.00  0.00     0.029 A 
ATOM     48  C   UNL A   1      41.164  26.618  28.512  1.00  0.00     0.049 A 
ATOM     49  H   UNL A   1      42.319  28.346  28.640  1.00  0.00     0.167 HD
ATOM     50  C   UNL A   1      44.583  32.055  28.739  1.00  0.00     0.037 A 
ATOM     51  C   UNL A   1      41.890  25.692  27.855  1.00  0.00     0.037 A 
ATOM     52  C   UNL A   1      45.404  31.155  27.973  1.00  0.00     0.049 A 
ATOM     53  C   UNL A   1      43.240  26.057  27.307  1.00  0.00     0.074 A 
ATOM     54  C   UNL A   1      46.658  31.381  27.430  1.00  0.00     0.029 A 
ATOM     55  N   UNL A   1      45.066  29.848  27.666  1.00  0.00    -0.354 N 
ATOM     56  N   UNL A   1      43.886  27.193  27.392  1.00  0.00    -0.248 NA
ATOM     57  C   UNL A   1      43.949  25.018  26.546  1.00  0.00     0.031 C 
ATOM     58  C   UNL A   1      47.071  30.214  26.778  1.00  0.00     0.029 A 
ATOM     59  C   UNL A   1      46.087  29.255  26.940  1.00  0.00     0.049 A 
ATOM     60  H   UNL A   1      44.225  29.406  27.924  1.00  0.00     0.167 HD
ATOM     61  C   UNL A   1      45.074  27.008  26.697  1.00  0.00     0.074 A 
ATOM     62  C   UNL A   1      45.072  25.642  26.218  1.00  0.00     0.031 C 
ATOM     63  C   UNL A   1      46.071  27.896  26.469  1.00  0.00     0.037 A 
BRANCH  50  64
ATOM     64  C   UNL A   1      45.091  33.447  28.971  1.00  0.00     0.057 A 
ATOM     65  C   UNL A   1      45.919  33.769  30.051  1.00  0.00     0.134 A 
ATOM     66  C   UNL A   1      44.774  34.472  28.069  1.00  0.00     0.134 A 
ATOM     67  F   UNL A   1      46.248  32.836  30.957  1.00  0.00    -0.206 F 
ATOM     68  C   UNL A   1      46.400  35.067  30.239  1.00  0.00     0.040 A 
ATOM     69  C   UNL A   1      45.265  35.768  28.234  1.00  0.00     0.040 A 
ATOM     70  F   UNL A   1      43.989  34.227  27.008  1.00  0.00    -0.206 F 
ATOM     71  C   UNL A   1      46.078  36.069  29.324  1.00  0.00     0.006 A 
ENDBRANCH  50  64
BRANCH  51  72
ATOM     72  C   UNL A   1      41.335  24.333  27.645  1.00  0.00     0.057 A 
ATOM     73  C   UNL A   1      41.787  23.244  28.399  1.00  0.00     0.134 A 
ATOM     74  C   UNL A   1      40.336  24.090  26.694  1.00  0.00     0.134 A 
ATOM     75  F   UNL A   1      42.762  23.411  29.305  1.00  0.00    -0.206 F 
ATOM     76  C   UNL A   1      41.268  21.963  28.214  1.00  0.00     0.040 A 
ATOM     77  C   UNL A   1      39.791  22.819  26.515  1.00  0.00     0.040 A 
ATOM     78  F   UNL A   1      39.864  25.093  25.938  1.00  0.00    -0.206 F 
ATOM     79  C   UNL A   1      40.261  21.750  27.274  1.00  0.00     0.006 A 
ENDBRANCH  51  72
BRANCH  63  80
ATOM     80  C   UNL A   1      47.246  27.410  25.677  1.00  0.00     0.057 A 
ATOM     81  C   UNL A   1      47.319  27.588  24.290  1.00  0.00     0.134 A 
ATOM     82  C   UNL A   1      48.326  26.782  26.310  1.00  0.00     0.134 A 
ATOM     83  F   UNL A   1      46.309  28.170  23.627  1.00  0.00    -0.206 F 
ATOM     84  C   UNL A   1      48.419  27.142  23.556  1.00  0.00     0.040 A 
ATOM     85  C   UNL A   1      49.439  26.348  25.589  1.00  0.00     0.040 A 
ATOM     86  F   UNL A   1      48.317  26.587  27.637  1.00  0.00    -0.206 F 
ATOM     87  C   UNL A   1      49.486  26.524  24.207  1.00  0.00     0.006 A 
ENDBRANCH  63  80
ENDBRANCH  37  38
ENDBRANCH  30  32
ENDBRANCH  29  30
ENDBRANCH  28  29
ENDBRANCH  27  28
ENDBRANCH   1  27
TORSDOF 16
ENDMDL
MODEL 3
REMARK VINA RESULT:     -12.2      1.931      3.751
REMARK SMILES O=C(CSc1ccc2ccccc2n1)NCc1ccc(C(=O)OCCOC(=O)c2ccc(-c3c4nc(c(-c5c(F)cccc5F)c5ccc([nH]5)c(-c5c(F)cccc5F)c5nc(c(-c6c(F)cccc6F)c6ccc3[nH]6)C=C5)C=C4)cc2)cc1
REMARK SMILES IDX 23 1 21 2 22 3 20 4 17 5 18 6 84 7 19 8 83 9 16 10 15 11
REMARK SMILES IDX 1 12 2 13 3 15 4 16 5 17 6 18 14 19 7 20 13 21 8 22 12 23
REMARK SMILES IDX 9 24 11 25 10 26 24 27 25 28 26 29 27 30 28 31 29 32 30 33
REMARK SMILES IDX 82 34 31 35 81 36 32 37 33 38 34 39 75 40 35 41 80 42 74 43
REMARK SMILES IDX 76 44 36 45 79 46 73 47 72 48 37 50 63 51 46 52 62 53 47 54
REMARK SMILES IDX 50 55 61 56 77 57 48 58 49 59 60 61 78 62 51 63 38 64 39 65
REMARK SMILES IDX 44 66 40 67 41 68 43 69 45 70 42 71 64 72 65 73 70 74 66 75
REMARK SMILES IDX 67 76 69 77 71 78 68 79 52 80 53 81 58 82 54 83 55 84 57 85
REMARK SMILES IDX 59 86 56 87
REMARK H PARENT 15 14 76 49 50 60
REMARK Flexibility Score: inf
ROOT
ATOM      1  O   UNL A   1      40.968  20.678  26.513  1.00  0.00    -0.458 OA
ENDROOT
BRANCH   1   2
ATOM      2  C   UNL A   1      39.865  20.238  25.858  1.00  0.00     0.338 C 
ATOM      3  O   UNL A   1      39.656  19.099  25.471  1.00  0.00    -0.246 OA
BRANCH   2   4
ATOM      4  C   UNL A   1      38.853  21.317  25.748  1.00  0.00     0.060 A 
ATOM      5  C   UNL A   1      36.877  23.300  25.462  1.00  0.00    -0.029 A 
ATOM      6  C   UNL A   1      36.709  22.040  24.874  1.00  0.00     0.006 A 
ATOM      7  C   UNL A   1      38.045  23.553  26.200  1.00  0.00     0.006 A 
ATOM      8  C   UNL A   1      37.698  21.065  24.999  1.00  0.00     0.016 A 
ATOM      9  C   UNL A   1      39.028  22.567  26.348  1.00  0.00     0.016 A 
BRANCH   5  10
ATOM     10  C   UNL A   1      35.796  24.341  25.316  1.00  0.00     0.151 C 
BRANCH  10  11
ATOM     11  N   UNL A   1      34.537  23.771  24.912  1.00  0.00    -0.351 N 
ATOM     12  O   UNL A   1      33.696  25.698  24.004  1.00  0.00    -0.274 OA
ATOM     13  C   UNL A   1      33.589  24.492  24.224  1.00  0.00     0.230 C 
ATOM     14  H   UNL A   1      34.347  22.832  25.136  1.00  0.00     0.163 HD
BRANCH  13  15
ATOM     15  C   UNL A   1      32.323  23.735  23.853  1.00  0.00     0.176 C 
BRANCH  15  16
ATOM     16  S   UNL A   1      31.672  22.655  25.171  1.00  0.00    -0.096 SA
BRANCH  16  17
ATOM     17  C   UNL A   1      32.126  21.069  24.498  1.00  0.00     0.097 A 
ATOM     18  C   UNL A   1      32.193  20.901  23.125  1.00  0.00     0.036 A 
ATOM     19  N   UNL A   1      32.345  20.069  25.375  1.00  0.00    -0.241 NA
ATOM     20  C   UNL A   1      32.526  19.644  22.629  1.00  0.00     0.013 A 
ATOM     21  C   UNL A   1      32.666  18.854  24.897  1.00  0.00     0.072 A 
ATOM     22  C   UNL A   1      32.770  18.590  23.516  1.00  0.00     0.000 A 
ATOM     23  C   UNL A   1      32.904  17.811  25.783  1.00  0.00     0.029 A 
ATOM     24  C   UNL A   1      33.108  17.303  23.063  1.00  0.00     0.010 A 
ATOM     25  C   UNL A   1      33.237  16.529  25.337  1.00  0.00     0.002 A 
ATOM     26  C   UNL A   1      33.340  16.275  23.973  1.00  0.00     0.001 A 
ENDBRANCH  16  17
ENDBRANCH  15  16
ENDBRANCH  13  15
ENDBRANCH  10  11
ENDBRANCH   5  10
ENDBRANCH   2   4
ENDBRANCH   1   2
BRANCH   1  27
ATOM     27  C   UNL A   1      42.213  20.076  26.104  1.00  0.00     0.275 C 
BRANCH  27  28
ATOM     28  C   UNL A   1      43.192  21.144  25.617  1.00  0.00     0.275 C 
BRANCH  28  29
ATOM     29  O   UNL A   1      42.480  22.370  25.379  1.00  0.00    -0.458 OA
BRANCH  29  30
ATOM     30  C   UNL A   1      43.240  23.486  25.286  1.00  0.00     0.338 C 
ATOM     31  O   UNL A   1      44.216  23.657  24.576  1.00  0.00    -0.246 OA
BRANCH  30  32
ATOM     32  C   UNL A   1      42.724  24.515  26.212  1.00  0.00     0.060 A 
ATOM     33  C   UNL A   1      43.149  25.840  26.113  1.00  0.00     0.016 A 
ATOM     34  C   UNL A   1      41.874  24.136  27.252  1.00  0.00     0.016 A 
ATOM     35  C   UNL A   1      42.785  26.772  27.086  1.00  0.00     0.010 A 
ATOM     36  C   UNL A   1      41.444  25.091  28.180  1.00  0.00     0.010 A 
ATOM     37  C   UNL A   1      41.921  26.414  28.131  1.00  0.00    -0.014 A 
BRANCH  37  38
ATOM     38  C   UNL A   1      41.564  27.387  29.204  1.00  0.00     0.031 A 
ATOM     39  C   UNL A   1      42.378  27.443  30.473  1.00  0.00     0.074 A 
ATOM     40  C   UNL A   1      40.522  28.230  29.062  1.00  0.00     0.049 A 
ATOM     41  N   UNL A   1      42.121  28.060  31.600  1.00  0.00    -0.248 NA
ATOM     42  C   UNL A   1      43.643  26.690  30.480  1.00  0.00     0.031 C 
ATOM     43  C   UNL A   1      39.663  28.332  27.883  1.00  0.00     0.029 A 
ATOM     44  N   UNL A   1      40.013  29.172  29.925  1.00  0.00    -0.354 N 
ATOM     45  C   UNL A   1      43.149  27.713  32.467  1.00  0.00     0.074 A 
ATOM     46  C   UNL A   1      44.041  26.838  31.735  1.00  0.00     0.031 C 
ATOM     47  C   UNL A   1      38.764  29.310  28.076  1.00  0.00     0.029 A 
ATOM     48  C   UNL A   1      38.926  29.847  29.423  1.00  0.00     0.049 A 
ATOM     49  H   UNL A   1      40.390  29.346  30.818  1.00  0.00     0.167 HD
ATOM     50  C   UNL A   1      43.332  28.083  33.758  1.00  0.00     0.037 A 
ATOM     51  C   UNL A   1      38.125  30.770  29.991  1.00  0.00     0.037 A 
ATOM     52  C   UNL A   1      42.493  29.013  34.467  1.00  0.00     0.049 A 
ATOM     53  C   UNL A   1      38.351  31.174  31.419  1.00  0.00     0.074 A 
ATOM     54  C   UNL A   1      42.612  29.460  35.772  1.00  0.00     0.029 A 
ATOM     55  N   UNL A   1      41.397  29.660  33.922  1.00  0.00    -0.354 N 
ATOM     56  N   UNL A   1      39.278  30.775  32.254  1.00  0.00    -0.248 NA
ATOM     57  C   UNL A   1      37.400  32.138  31.994  1.00  0.00     0.031 C 
ATOM     58  C   UNL A   1      41.575  30.366  36.023  1.00  0.00     0.029 A 
ATOM     59  C   UNL A   1      40.829  30.502  34.865  1.00  0.00     0.049 A 
ATOM     60  H   UNL A   1      41.069  29.539  33.002  1.00  0.00     0.167 HD
ATOM     61  C   UNL A   1      39.024  31.434  33.449  1.00  0.00     0.074 A 
ATOM     62  C   UNL A   1      37.870  32.280  33.225  1.00  0.00     0.031 C 
ATOM     63  C   UNL A   1      39.682  31.338  34.629  1.00  0.00     0.037 A 
BRANCH  50  64
ATOM     64  C   UNL A   1      44.474  27.457  34.501  1.00  0.00     0.057 A 
ATOM     65  C   UNL A   1      44.345  26.240  35.179  1.00  0.00     0.134 A 
ATOM     66  C   UNL A   1      45.734  28.069  34.503  1.00  0.00     0.134 A 
ATOM     67  F   UNL A   1      43.161  25.611  35.227  1.00  0.00    -0.206 F 
ATOM     68  C   UNL A   1      45.425  25.662  35.850  1.00  0.00     0.040 A 
ATOM     69  C   UNL A   1      46.826  27.491  35.151  1.00  0.00     0.040 A 
ATOM     70  F   UNL A   1      45.926  29.235  33.866  1.00  0.00    -0.206 F 
ATOM     71  C   UNL A   1      46.672  26.285  35.830  1.00  0.00     0.006 A 
ENDBRANCH  50  64
BRANCH  51  72
ATOM     72  C   UNL A   1      37.003  31.350  29.213  1.00  0.00     0.057 A 
ATOM     73  C   UNL A   1      35.842  30.612  28.962  1.00  0.00     0.134 A 
ATOM     74  C   UNL A   1      37.061  32.656  28.710  1.00  0.00     0.134 A 
ATOM     75  F   UNL A   1      35.741  29.347  29.394  1.00  0.00    -0.206 F 
ATOM     76  C   UNL A   1      34.778  31.150  28.236  1.00  0.00     0.040 A 
ATOM     77  C   UNL A   1      35.997  33.215  28.004  1.00  0.00     0.040 A 
ATOM     78  F   UNL A   1      38.150  33.413  28.916  1.00  0.00    -0.206 F 
ATOM     79  C   UNL A   1      34.851  32.459  27.762  1.00  0.00     0.006 A 
ENDBRANCH  51  72
BRANCH  63  80
ATOM     80  C   UNL A   1      39.176  32.177  35.761  1.00  0.00     0.057 A 
ATOM     81  C   UNL A   1      39.604  33.497  35.942  1.00  0.00     0.134 A 
ATOM     82  C   UNL A   1      38.232  31.669  36.663  1.00  0.00     0.134 A 
ATOM     83  F   UNL A   1      40.516  34.035  35.118  1.00  0.00    -0.206 F 
ATOM     84  C   UNL A   1      39.124  34.281  36.993  1.00  0.00     0.040 A 
ATOM     85  C   UNL A   1      37.732  32.448  37.707  1.00  0.00     0.040 A 
ATOM     86  F   UNL A   1      37.780  30.413  36.539  1.00  0.00    -0.206 F 
ATOM     87  C   UNL A   1      38.181  33.757  37.877  1.00  0.00     0.006 A 
ENDBRANCH  63  80
ENDBRANCH  37  38
ENDBRANCH  30  32
ENDBRANCH  29  30
ENDBRANCH  28  29
ENDBRANCH  27  28
ENDBRANCH   1  27
TORSDOF 16
ENDMDL
