MODEL 1
REMARK VINA RESULT:     -10.9      0.000      0.000
REMARK SMILES Cc1cc(C(=O)N(C)[C@H]2CCSC2)sc1/C=C/C(=O)OCCOC(=O)c1ccc(-c2c3nc(c(-c4c(F)cccc4F)c4ccc([nH]4)c(-c4c(F)cccc4F)c4nc(c(-c5c(F)cccc5F)c5ccc2[nH]5)C=C4)C=C3)cc1
REMARK SMILES IDX 21 1 20 2 18 3 19 4 17 5 16 6 15 7 1 8 2 9 3 10 4 11 14 12
REMARK SMILES IDX 5 13 6 14 7 15 8 16 9 17 10 18 13 19 11 20 12 21 22 22 23 23
REMARK SMILES IDX 24 24 25 25 26 26 27 27 79 28 28 29 78 30 29 31 30 32 31 33
REMARK SMILES IDX 72 34 32 35 77 36 71 37 73 38 33 39 76 40 70 41 69 42 34 44
REMARK SMILES IDX 60 45 43 46 59 47 44 48 47 49 58 50 74 51 45 52 46 53 57 55
REMARK SMILES IDX 75 56 48 57 35 58 36 59 41 60 37 61 38 62 40 63 42 64 39 65
REMARK SMILES IDX 61 66 62 67 67 68 63 69 64 70 66 71 68 72 65 73 49 74 50 75
REMARK SMILES IDX 55 76 51 77 52 78 54 79 56 80 53 81
REMARK H PARENT 73 43 47 54
REMARK Flexibility Score: inf
ROOT
ATOM      1  C   UNL A   1      34.438  34.538  31.114  1.00  0.00     0.275 C 
ENDROOT
BRANCH   1   2
ATOM      2  O   UNL A   1      33.399  34.706  30.130  1.00  0.00    -0.459 OA
BRANCH   2   3
ATOM      3  C   UNL A   1      33.802  34.674  28.838  1.00  0.00     0.330 C 
ATOM      4  O   UNL A   1      34.466  35.529  28.270  1.00  0.00    -0.247 OA
BRANCH   3   5
ATOM      5  C   UNL A   1      33.412  33.434  28.139  1.00  0.00     0.095 C 
ATOM      6  C   UNL A   1      34.011  32.240  28.273  1.00  0.00     0.027 C 
BRANCH   6   7
ATOM      7  C   UNL A   1      33.648  31.089  27.497  1.00  0.00     0.031 A 
ATOM      8  C   UNL A   1      35.793  29.666  27.701  1.00  0.00     0.046 C 
ATOM      9  C   UNL A   1      34.427  29.981  27.180  1.00  0.00    -0.032 A 
ATOM     10  C   UNL A   1      33.752  29.119  26.254  1.00  0.00     0.029 A 
ATOM     11  C   UNL A   1      32.481  29.537  25.896  1.00  0.00     0.093 A 
ATOM     12  S   UNL A   1      32.086  30.938  26.774  1.00  0.00    -0.130 S 
BRANCH  11  13
ATOM     13  C   UNL A   1      31.601  28.782  24.991  1.00  0.00     0.263 C 
ATOM     14  O   UNL A   1      31.026  27.780  25.432  1.00  0.00    -0.268 OA
BRANCH  13  15
ATOM     15  N   UNL A   1      31.358  29.137  23.645  1.00  0.00    -0.337 N 
ATOM     16  C   UNL A   1      32.293  28.953  22.542  1.00  0.00     0.147 C 
BRANCH  15  17
ATOM     17  C   UNL A   1      29.980  29.556  23.314  1.00  0.00     0.095 C 
ATOM     18  C   UNL A   1      29.526  30.886  23.926  1.00  0.00     0.037 C 
ATOM     19  C   UNL A   1      29.752  29.673  21.801  1.00  0.00     0.094 C 
ATOM     20  C   UNL A   1      28.142  31.156  23.356  1.00  0.00     0.072 C 
ATOM     21  S   UNL A   1      28.256  30.689  21.607  1.00  0.00    -0.160 SA
ENDBRANCH  15  17
ENDBRANCH  13  15
ENDBRANCH  11  13
ENDBRANCH   6   7
ENDBRANCH   3   5
ENDBRANCH   2   3
ENDBRANCH   1   2
BRANCH   1  22
ATOM     22  C   UNL A   1      34.207  33.293  31.977  1.00  0.00     0.275 C 
BRANCH  22  23
ATOM     23  O   UNL A   1      35.136  32.238  31.669  1.00  0.00    -0.458 OA
BRANCH  23  24
ATOM     24  C   UNL A   1      36.103  32.037  32.597  1.00  0.00     0.338 C 
ATOM     25  O   UNL A   1      35.977  32.074  33.809  1.00  0.00    -0.246 OA
BRANCH  24  26
ATOM     26  C   UNL A   1      37.358  31.634  31.938  1.00  0.00     0.060 A 
ATOM     27  C   UNL A   1      37.444  31.783  30.550  1.00  0.00     0.016 A 
ATOM     28  C   UNL A   1      38.411  31.056  32.654  1.00  0.00     0.016 A 
ATOM     29  C   UNL A   1      38.580  31.350  29.871  1.00  0.00     0.010 A 
ATOM     30  C   UNL A   1      39.550  30.618  31.970  1.00  0.00     0.010 A 
ATOM     31  C   UNL A   1      39.637  30.752  30.573  1.00  0.00    -0.014 A 
BRANCH  31  32
ATOM     32  C   UNL A   1      40.812  30.233  29.832  1.00  0.00     0.031 A 
ATOM     33  C   UNL A   1      41.986  31.128  29.558  1.00  0.00     0.074 A 
ATOM     34  C   UNL A   1      40.835  28.950  29.427  1.00  0.00     0.049 A 
ATOM     35  N   UNL A   1      43.094  30.865  28.913  1.00  0.00    -0.248 NA
ATOM     36  C   UNL A   1      41.901  32.501  30.078  1.00  0.00     0.031 C 
ATOM     37  C   UNL A   1      39.769  27.975  29.653  1.00  0.00     0.029 A 
ATOM     38  N   UNL A   1      41.792  28.248  28.737  1.00  0.00    -0.354 N 
ATOM     39  C   UNL A   1      43.838  32.038  28.944  1.00  0.00     0.074 A 
ATOM     40  C   UNL A   1      43.043  33.022  29.651  1.00  0.00     0.031 C 
ATOM     41  C   UNL A   1      40.130  26.801  29.112  1.00  0.00     0.029 A 
ATOM     42  C   UNL A   1      41.435  26.948  28.473  1.00  0.00     0.049 A 
ATOM     43  H   UNL A   1      42.651  28.639  28.460  1.00  0.00     0.167 HD
ATOM     44  C   UNL A   1      45.072  32.270  28.439  1.00  0.00     0.037 A 
ATOM     45  C   UNL A   1      42.080  25.993  27.779  1.00  0.00     0.037 A 
ATOM     46  C   UNL A   1      45.863  31.292  27.736  1.00  0.00     0.049 A 
ATOM     47  C   UNL A   1      43.425  26.292  27.178  1.00  0.00     0.074 A 
ATOM     48  C   UNL A   1      47.133  31.431  27.203  1.00  0.00     0.029 A 
ATOM     49  N   UNL A   1      45.455  29.996  27.463  1.00  0.00    -0.354 N 
ATOM     50  N   UNL A   1      44.128  27.397  27.236  1.00  0.00    -0.248 NA
ATOM     51  C   UNL A   1      44.066  25.212  26.415  1.00  0.00     0.031 C 
ATOM     52  C   UNL A   1      47.478  30.230  26.573  1.00  0.00     0.029 A 
ATOM     53  C   UNL A   1      46.440  29.330  26.751  1.00  0.00     0.049 A 
ATOM     54  H   UNL A   1      44.593  29.605  27.734  1.00  0.00     0.167 HD
ATOM     55  C   UNL A   1      45.301  27.140  26.537  1.00  0.00     0.074 A 
ATOM     56  C   UNL A   1      45.221  25.769  26.076  1.00  0.00     0.031 C 
ATOM     57  C   UNL A   1      46.350  27.965  26.300  1.00  0.00     0.037 A 
BRANCH  44  58
ATOM     58  C   UNL A   1      45.640  33.648  28.612  1.00  0.00     0.057 A 
ATOM     59  C   UNL A   1      45.397  34.668  27.683  1.00  0.00     0.134 A 
ATOM     60  C   UNL A   1      46.408  33.968  29.739  1.00  0.00     0.134 A 
ATOM     61  F   UNL A   1      44.679  34.423  26.577  1.00  0.00    -0.206 F 
ATOM     62  C   UNL A   1      45.916  35.952  27.859  1.00  0.00     0.040 A 
ATOM     63  C   UNL A   1      46.913  35.253  29.935  1.00  0.00     0.040 A 
ATOM     64  F   UNL A   1      46.673  33.038  30.668  1.00  0.00    -0.206 F 
ATOM     65  C   UNL A   1      46.672  36.249  28.991  1.00  0.00     0.006 A 
ENDBRANCH  44  58
BRANCH  45  66
ATOM     66  C   UNL A   1      41.455  24.658  27.604  1.00  0.00     0.057 A 
ATOM     67  C   UNL A   1      40.437  24.451  26.667  1.00  0.00     0.134 A 
ATOM     68  C   UNL A   1      41.858  23.562  28.375  1.00  0.00     0.134 A 
ATOM     69  F   UNL A   1      39.993  25.469  25.916  1.00  0.00    -0.206 F 
ATOM     70  C   UNL A   1      39.830  23.203  26.513  1.00  0.00     0.040 A 
ATOM     71  C   UNL A   1      41.277  22.303  28.214  1.00  0.00     0.040 A 
ATOM     72  F   UNL A   1      42.829  23.696  29.289  1.00  0.00    -0.206 F 
ATOM     73  C   UNL A   1      40.255  22.123  27.285  1.00  0.00     0.006 A 
ENDBRANCH  45  66
BRANCH  57  74
ATOM     74  C   UNL A   1      47.506  27.400  25.531  1.00  0.00     0.057 A 
ATOM     75  C   UNL A   1      47.573  27.479  24.134  1.00  0.00     0.134 A 
ATOM     76  C   UNL A   1      48.582  26.799  26.198  1.00  0.00     0.134 A 
ATOM     77  F   UNL A   1      46.569  28.029  23.435  1.00  0.00    -0.206 F 
ATOM     78  C   UNL A   1      48.662  26.964  23.426  1.00  0.00     0.040 A 
ATOM     79  C   UNL A   1      49.685  26.302  25.502  1.00  0.00     0.040 A 
ATOM     80  F   UNL A   1      48.582  26.698  27.535  1.00  0.00    -0.206 F 
ATOM     81  C   UNL A   1      49.725  26.379  24.112  1.00  0.00     0.006 A 
ENDBRANCH  57  74
ENDBRANCH  31  32
ENDBRANCH  24  26
ENDBRANCH  23  24
ENDBRANCH  22  23
ENDBRANCH   1  22
TORSDOF 15
ENDMDL
MODEL 2
REMARK VINA RESULT:     -10.9      1.536      2.578
REMARK SMILES Cc1cc(C(=O)N(C)[C@H]2CCSC2)sc1/C=C/C(=O)OCCOC(=O)c1ccc(-c2c3nc(c(-c4c(F)cccc4F)c4ccc([nH]4)c(-c4c(F)cccc4F)c4nc(c(-c5c(F)cccc5F)c5ccc2[nH]5)C=C4)C=C3)cc1
REMARK SMILES IDX 21 1 20 2 18 3 19 4 17 5 16 6 15 7 1 8 2 9 3 10 4 11 14 12
REMARK SMILES IDX 5 13 6 14 7 15 8 16 9 17 10 18 13 19 11 20 12 21 22 22 23 23
REMARK SMILES IDX 24 24 25 25 26 26 27 27 79 28 28 29 78 30 29 31 30 32 31 33
REMARK SMILES IDX 72 34 32 35 77 36 71 37 73 38 33 39 76 40 70 41 69 42 34 44
REMARK SMILES IDX 60 45 43 46 59 47 44 48 47 49 58 50 74 51 45 52 46 53 57 55
REMARK SMILES IDX 75 56 48 57 35 58 36 59 41 60 37 61 38 62 40 63 42 64 39 65
REMARK SMILES IDX 61 66 62 67 67 68 63 69 64 70 66 71 68 72 65 73 49 74 50 75
REMARK SMILES IDX 55 76 51 77 52 78 54 79 56 80 53 81
REMARK H PARENT 73 43 47 54
REMARK Flexibility Score: inf
ROOT
ATOM      1  C   UNL A   1      34.491  34.537  31.662  1.00  0.00     0.275 C 
ENDROOT
BRANCH   1   2
ATOM      2  O   UNL A   1      33.716  34.295  30.472  1.00  0.00    -0.459 OA
BRANCH   2   3
ATOM      3  C   UNL A   1      34.424  33.959  29.368  1.00  0.00     0.330 C 
ATOM      4  O   UNL A   1      35.263  34.653  28.813  1.00  0.00    -0.247 OA
BRANCH   3   5
ATOM      5  C   UNL A   1      34.138  32.593  28.888  1.00  0.00     0.095 C 
ATOM      6  C   UNL A   1      34.743  31.984  27.857  1.00  0.00     0.027 C 
BRANCH   6   7
ATOM      7  C   UNL A   1      34.359  30.688  27.376  1.00  0.00     0.031 A 
ATOM      8  C   UNL A   1      36.395  29.274  28.096  1.00  0.00     0.046 C 
ATOM      9  C   UNL A   1      35.085  29.503  27.411  1.00  0.00    -0.032 A 
ATOM     10  C   UNL A   1      34.417  28.461  26.686  1.00  0.00     0.029 A 
ATOM     11  C   UNL A   1      33.199  28.827  26.139  1.00  0.00     0.093 A 
ATOM     12  S   UNL A   1      32.837  30.423  26.599  1.00  0.00    -0.130 S 
BRANCH  11  13
ATOM     13  C   UNL A   1      32.332  27.903  25.392  1.00  0.00     0.263 C 
ATOM     14  O   UNL A   1      31.543  28.378  24.566  1.00  0.00    -0.268 OA
BRANCH  13  15
ATOM     15  N   UNL A   1      32.350  26.500  25.548  1.00  0.00    -0.337 N 
ATOM     16  C   UNL A   1      31.392  25.724  26.325  1.00  0.00     0.147 C 
BRANCH  15  17
ATOM     17  C   UNL A   1      33.310  25.757  24.705  1.00  0.00     0.095 C 
ATOM     18  C   UNL A   1      34.385  24.967  25.460  1.00  0.00     0.037 C 
ATOM     19  C   UNL A   1      32.616  24.760  23.767  1.00  0.00     0.094 C 
ATOM     20  C   UNL A   1      35.167  24.206  24.400  1.00  0.00     0.072 C 
ATOM     21  S   UNL A   1      33.912  23.598  23.240  1.00  0.00    -0.160 SA
ENDBRANCH  15  17
ENDBRANCH  13  15
ENDBRANCH  11  13
ENDBRANCH   6   7
ENDBRANCH   3   5
ENDBRANCH   2   3
ENDBRANCH   1   2
BRANCH   1  22
ATOM     22  C   UNL A   1      34.295  33.429  32.703  1.00  0.00     0.275 C 
BRANCH  22  23
ATOM     23  O   UNL A   1      35.088  32.263  32.412  1.00  0.00    -0.458 OA
BRANCH  23  24
ATOM     24  C   UNL A   1      36.238  32.161  33.120  1.00  0.00     0.338 C 
ATOM     25  O   UNL A   1      36.395  32.402  34.305  1.00  0.00    -0.246 OA
BRANCH  24  26
ATOM     26  C   UNL A   1      37.300  31.584  32.277  1.00  0.00     0.060 A 
ATOM     27  C   UNL A   1      38.299  30.835  32.908  1.00  0.00     0.016 A 
ATOM     28  C   UNL A   1      37.358  31.826  30.901  1.00  0.00     0.016 A 
ATOM     29  C   UNL A   1      39.364  30.329  32.166  1.00  0.00     0.010 A 
ATOM     30  C   UNL A   1      38.431  31.320  30.159  1.00  0.00     0.010 A 
ATOM     31  C   UNL A   1      39.446  30.579  30.788  1.00  0.00    -0.014 A 
BRANCH  31  32
ATOM     32  C   UNL A   1      40.620  30.093  30.022  1.00  0.00     0.031 A 
ATOM     33  C   UNL A   1      41.775  31.013  29.751  1.00  0.00     0.074 A 
ATOM     34  C   UNL A   1      40.659  28.819  29.593  1.00  0.00     0.049 A 
ATOM     35  N   UNL A   1      42.879  30.782  29.086  1.00  0.00    -0.248 NA
ATOM     36  C   UNL A   1      41.675  32.375  30.298  1.00  0.00     0.031 C 
ATOM     37  C   UNL A   1      39.612  27.822  29.814  1.00  0.00     0.029 A 
ATOM     38  N   UNL A   1      41.619  28.146  28.878  1.00  0.00    -0.354 N 
ATOM     39  C   UNL A   1      43.603  31.966  29.131  1.00  0.00     0.074 A 
ATOM     40  C   UNL A   1      42.802  32.922  29.866  1.00  0.00     0.031 C 
ATOM     41  C   UNL A   1      39.986  26.664  29.246  1.00  0.00     0.029 A 
ATOM     42  C   UNL A   1      41.280  26.846  28.594  1.00  0.00     0.049 A 
ATOM     43  H   UNL A   1      42.468  28.557  28.597  1.00  0.00     0.167 HD
ATOM     44  C   UNL A   1      44.828  32.228  28.614  1.00  0.00     0.037 A 
ATOM     45  C   UNL A   1      41.932  25.915  27.873  1.00  0.00     0.037 A 
ATOM     46  C   UNL A   1      45.625  31.277  27.883  1.00  0.00     0.049 A 
ATOM     47  C   UNL A   1      43.264  26.248  27.261  1.00  0.00     0.074 A 
ATOM     48  C   UNL A   1      46.886  31.447  27.337  1.00  0.00     0.029 A 
ATOM     49  N   UNL A   1      45.236  29.979  27.590  1.00  0.00    -0.354 N 
ATOM     50  N   UNL A   1      43.949  27.363  27.331  1.00  0.00    -0.248 NA
ATOM     51  C   UNL A   1      43.913  25.194  26.469  1.00  0.00     0.031 C 
ATOM     52  C   UNL A   1      47.242  30.265  26.680  1.00  0.00     0.029 A 
ATOM     53  C   UNL A   1      46.222  29.344  26.853  1.00  0.00     0.049 A 
ATOM     54  H   UNL A   1      44.384  29.570  27.865  1.00  0.00     0.167 HD
ATOM     55  C   UNL A   1      45.116  27.139  26.613  1.00  0.00     0.074 A 
ATOM     56  C   UNL A   1      45.053  25.776  26.127  1.00  0.00     0.031 C 
ATOM     57  C   UNL A   1      46.148  27.986  26.378  1.00  0.00     0.037 A 
BRANCH  44  58
ATOM     58  C   UNL A   1      45.374  33.612  28.806  1.00  0.00     0.057 A 
ATOM     59  C   UNL A   1      46.179  33.942  29.903  1.00  0.00     0.134 A 
ATOM     60  C   UNL A   1      45.121  34.617  27.864  1.00  0.00     0.134 A 
ATOM     61  F   UNL A   1      46.449  33.027  30.847  1.00  0.00    -0.206 F 
ATOM     62  C   UNL A   1      46.696  35.228  30.068  1.00  0.00     0.040 A 
ATOM     63  C   UNL A   1      45.650  35.900  28.006  1.00  0.00     0.040 A 
ATOM     64  F   UNL A   1      44.361  34.365  26.787  1.00  0.00    -0.206 F 
ATOM     65  C   UNL A   1      46.436  36.211  29.114  1.00  0.00     0.006 A 
ENDBRANCH  44  58
BRANCH  45  66
ATOM     66  C   UNL A   1      41.327  24.574  27.680  1.00  0.00     0.057 A 
ATOM     67  C   UNL A   1      41.764  23.468  28.417  1.00  0.00     0.134 A 
ATOM     68  C   UNL A   1      40.303  24.366  26.748  1.00  0.00     0.134 A 
ATOM     69  F   UNL A   1      42.758  23.599  29.307  1.00  0.00    -0.206 F 
ATOM     70  C   UNL A   1      41.215  22.199  28.224  1.00  0.00     0.040 A 
ATOM     71  C   UNL A   1      39.728  23.109  26.563  1.00  0.00     0.040 A 
ATOM     72  F   UNL A   1      39.840  25.387  26.012  1.00  0.00    -0.206 F 
ATOM     73  C   UNL A   1      40.188  22.018  27.298  1.00  0.00     0.006 A 
ENDBRANCH  45  66
BRANCH  57  74
ATOM     74  C   UNL A   1      47.304  27.455  25.583  1.00  0.00     0.057 A 
ATOM     75  C   UNL A   1      47.377  27.609  24.193  1.00  0.00     0.134 A 
ATOM     76  C   UNL A   1      48.373  26.812  26.221  1.00  0.00     0.134 A 
ATOM     77  F   UNL A   1      46.379  28.203  23.522  1.00  0.00    -0.206 F 
ATOM     78  C   UNL A   1      48.465  27.125  23.462  1.00  0.00     0.040 A 
ATOM     79  C   UNL A   1      49.475  26.345  25.504  1.00  0.00     0.040 A 
ATOM     80  F   UNL A   1      48.367  26.639  27.551  1.00  0.00    -0.206 F 
ATOM     81  C   UNL A   1      49.521  26.497  24.120  1.00  0.00     0.006 A 
ENDBRANCH  57  74
ENDBRANCH  31  32
ENDBRANCH  24  26
ENDBRANCH  23  24
ENDBRANCH  22  23
ENDBRANCH   1  22
TORSDOF 15
ENDMDL
MODEL 3
REMARK VINA RESULT:     -10.9      0.300      6.398
REMARK SMILES Cc1cc(C(=O)N(C)[C@H]2CCSC2)sc1/C=C/C(=O)OCCOC(=O)c1ccc(-c2c3nc(c(-c4c(F)cccc4F)c4ccc([nH]4)c(-c4c(F)cccc4F)c4nc(c(-c5c(F)cccc5F)c5ccc2[nH]5)C=C4)C=C3)cc1
REMARK SMILES IDX 21 1 20 2 18 3 19 4 17 5 16 6 15 7 1 8 2 9 3 10 4 11 14 12
REMARK SMILES IDX 5 13 6 14 7 15 8 16 9 17 10 18 13 19 11 20 12 21 22 22 23 23
REMARK SMILES IDX 24 24 25 25 26 26 27 27 79 28 28 29 78 30 29 31 30 32 31 33
REMARK SMILES IDX 72 34 32 35 77 36 71 37 73 38 33 39 76 40 70 41 69 42 34 44
REMARK SMILES IDX 60 45 43 46 59 47 44 48 47 49 58 50 74 51 45 52 46 53 57 55
REMARK SMILES IDX 75 56 48 57 35 58 36 59 41 60 37 61 38 62 40 63 42 64 39 65
REMARK SMILES IDX 61 66 62 67 67 68 63 69 64 70 66 71 68 72 65 73 49 74 50 75
REMARK SMILES IDX 55 76 51 77 52 78 54 79 56 80 53 81
REMARK H PARENT 73 43 47 54
REMARK Flexibility Score: inf
ROOT
ATOM      1  C   UNL A   1      34.538  34.430  31.266  1.00  0.00     0.275 C 
ENDROOT
BRANCH   1   2
ATOM      2  O   UNL A   1      33.471  34.576  30.309  1.00  0.00    -0.459 OA
BRANCH   2   3
ATOM      3  C   UNL A   1      33.839  34.541  29.007  1.00  0.00     0.330 C 
ATOM      4  O   UNL A   1      34.489  35.394  28.420  1.00  0.00    -0.247 OA
BRANCH   3   5
ATOM      5  C   UNL A   1      33.429  33.300  28.322  1.00  0.00     0.095 C 
ATOM      6  C   UNL A   1      34.120  32.150  28.308  1.00  0.00     0.027 C 
BRANCH   6   7
ATOM      7  C   UNL A   1      33.718  31.002  27.547  1.00  0.00     0.031 A 
ATOM      8  C   UNL A   1      35.829  29.527  27.734  1.00  0.00     0.046 C 
ATOM      9  C   UNL A   1      34.464  29.872  27.228  1.00  0.00    -0.032 A 
ATOM     10  C   UNL A   1      33.756  29.020  26.317  1.00  0.00     0.029 A 
ATOM     11  C   UNL A   1      32.491  29.467  25.973  1.00  0.00     0.093 A 
ATOM     12  S   UNL A   1      32.143  30.884  26.845  1.00  0.00    -0.130 S 
BRANCH  11  13
ATOM     13  C   UNL A   1      31.581  28.728  25.085  1.00  0.00     0.263 C 
ATOM     14  O   UNL A   1      31.034  27.708  25.522  1.00  0.00    -0.268 OA
BRANCH  13  15
ATOM     15  N   UNL A   1      31.278  29.116  23.761  1.00  0.00    -0.337 N 
ATOM     16  C   UNL A   1      32.162  28.957  22.612  1.00  0.00     0.147 C 
BRANCH  15  17
ATOM     17  C   UNL A   1      29.889  29.546  23.503  1.00  0.00     0.095 C 
ATOM     18  C   UNL A   1      29.530  30.957  23.983  1.00  0.00     0.037 C 
ATOM     19  C   UNL A   1      29.525  29.488  22.013  1.00  0.00     0.094 C 
ATOM     20  C   UNL A   1      28.108  31.211  23.509  1.00  0.00     0.072 C 
ATOM     21  S   UNL A   1      28.047  30.532  21.828  1.00  0.00    -0.160 SA
ENDBRANCH  15  17
ENDBRANCH  13  15
ENDBRANCH  11  13
ENDBRANCH   6   7
ENDBRANCH   3   5
ENDBRANCH   2   3
ENDBRANCH   1   2
BRANCH   1  22
ATOM     22  C   UNL A   1      34.322  33.216  32.177  1.00  0.00     0.275 C 
BRANCH  22  23
ATOM     23  O   UNL A   1      35.161  32.105  31.809  1.00  0.00    -0.458 OA
BRANCH  23  24
ATOM     24  C   UNL A   1      36.253  31.930  32.591  1.00  0.00     0.338 C 
ATOM     25  O   UNL A   1      36.328  32.092  33.797  1.00  0.00    -0.246 OA
BRANCH  24  26
ATOM     26  C   UNL A   1      37.363  31.381  31.791  1.00  0.00     0.060 A 
ATOM     27  C   UNL A   1      38.412  30.757  32.473  1.00  0.00     0.016 A 
ATOM     28  C   UNL A   1      37.412  31.532  30.402  1.00  0.00     0.016 A 
ATOM     29  C   UNL A   1      39.519  30.286  31.769  1.00  0.00     0.010 A 
ATOM     30  C   UNL A   1      38.526  31.062  29.698  1.00  0.00     0.010 A 
ATOM     31  C   UNL A   1      39.591  30.447  30.378  1.00  0.00    -0.014 A 
BRANCH  31  32
ATOM     32  C   UNL A   1      40.804  30.003  29.649  1.00  0.00     0.031 A 
ATOM     33  C   UNL A   1      40.896  28.600  29.123  1.00  0.00     0.074 A 
ATOM     34  C   UNL A   1      41.811  30.869  29.436  1.00  0.00     0.049 A 
ATOM     35  N   UNL A   1      41.877  28.020  28.478  1.00  0.00    -0.248 NA
ATOM     36  C   UNL A   1      39.730  27.733  29.354  1.00  0.00     0.031 C 
ATOM     37  C   UNL A   1      41.831  32.264  29.875  1.00  0.00     0.029 A 
ATOM     38  N   UNL A   1      43.015  30.699  28.799  1.00  0.00    -0.354 N 
ATOM     39  C   UNL A   1      41.452  26.722  28.230  1.00  0.00     0.074 A 
ATOM     40  C   UNL A   1      40.133  26.591  28.815  1.00  0.00     0.031 C 
ATOM     41  C   UNL A   1      42.991  32.824  29.494  1.00  0.00     0.029 A 
ATOM     42  C   UNL A   1      43.807  31.821  28.815  1.00  0.00     0.049 A 
ATOM     43  H   UNL A   1      43.284  29.855  28.371  1.00  0.00     0.167 HD
ATOM     44  C   UNL A   1      42.097  25.733  27.566  1.00  0.00     0.037 A 
ATOM     45  C   UNL A   1      45.057  32.011  28.352  1.00  0.00     0.037 A 
ATOM     46  C   UNL A   1      43.408  25.863  26.984  1.00  0.00     0.049 A 
ATOM     47  C   UNL A   1      45.775  30.881  27.670  1.00  0.00     0.074 A 
ATOM     48  C   UNL A   1      44.135  24.920  26.276  1.00  0.00     0.029 A 
ATOM     49  N   UNL A   1      44.190  27.005  27.046  1.00  0.00    -0.354 N 
ATOM     50  N   UNL A   1      45.353  29.666  27.419  1.00  0.00    -0.248 NA
ATOM     51  C   UNL A   1      47.143  31.148  27.205  1.00  0.00     0.031 C 
ATOM     52  C   UNL A   1      45.374  25.480  25.945  1.00  0.00     0.029 A 
ATOM     53  C   UNL A   1      45.401  26.785  26.409  1.00  0.00     0.049 A 
ATOM     54  H   UNL A   1      43.925  27.848  27.480  1.00  0.00     0.167 HD
ATOM     55  C   UNL A   1      46.392  29.031  26.751  1.00  0.00     0.074 A 
ATOM     56  C   UNL A   1      47.461  30.000  26.623  1.00  0.00     0.031 C 
ATOM     57  C   UNL A   1      46.455  27.759  26.286  1.00  0.00     0.037 A 
BRANCH  44  58
ATOM     58  C   UNL A   1      41.398  24.410  27.452  1.00  0.00     0.057 A 
ATOM     59  C   UNL A   1      41.754  23.316  28.251  1.00  0.00     0.134 A 
ATOM     60  C   UNL A   1      40.334  24.240  26.557  1.00  0.00     0.134 A 
ATOM     61  F   UNL A   1      42.772  23.411  29.119  1.00  0.00    -0.206 F 
ATOM     62  C   UNL A   1      41.089  22.093  28.149  1.00  0.00     0.040 A 
ATOM     63  C   UNL A   1      39.648  23.029  26.462  1.00  0.00     0.040 A 
ATOM     64  F   UNL A   1      39.941  25.250  25.767  1.00  0.00    -0.206 F 
ATOM     65  C   UNL A   1      40.028  21.949  27.256  1.00  0.00     0.006 A 
ENDBRANCH  44  58
BRANCH  45  66
ATOM     66  C   UNL A   1      45.717  33.328  28.528  1.00  0.00     0.057 A 
ATOM     67  C   UNL A   1      46.468  33.617  29.672  1.00  0.00     0.134 A 
ATOM     68  C   UNL A   1      45.604  34.332  27.558  1.00  0.00     0.134 A 
ATOM     69  F   UNL A   1      46.592  32.704  30.646  1.00  0.00    -0.206 F 
ATOM     70  C   UNL A   1      47.074  34.862  29.853  1.00  0.00     0.040 A 
ATOM     71  C   UNL A   1      46.225  35.572  27.715  1.00  0.00     0.040 A 
ATOM     72  F   UNL A   1      44.898  34.116  26.438  1.00  0.00    -0.206 F 
ATOM     73  C   UNL A   1      46.957  35.842  28.868  1.00  0.00     0.006 A 
ENDBRANCH  45  66
BRANCH  57  74
ATOM     74  C   UNL A   1      47.709  27.352  25.571  1.00  0.00     0.057 A 
ATOM     75  C   UNL A   1      48.804  26.806  26.253  1.00  0.00     0.134 A 
ATOM     76  C   UNL A   1      47.809  27.476  24.179  1.00  0.00     0.134 A 
ATOM     77  F   UNL A   1      48.776  26.675  27.588  1.00  0.00    -0.206 F 
ATOM     78  C   UNL A   1      49.962  26.416  25.578  1.00  0.00     0.040 A 
ATOM     79  C   UNL A   1      48.953  27.067  23.491  1.00  0.00     0.040 A 
ATOM     80  F   UNL A   1      46.794  27.985  23.466  1.00  0.00    -0.206 F 
ATOM     81  C   UNL A   1      50.035  26.540  24.191  1.00  0.00     0.006 A 
ENDBRANCH  57  74
ENDBRANCH  31  32
ENDBRANCH  24  26
ENDBRANCH  23  24
ENDBRANCH  22  23
ENDBRANCH   1  22
TORSDOF 15
ENDMDL
