MODEL 1
REMARK VINA RESULT:     -10.1      0.000      0.000
REMARK SMILES O=C(OCCOC(=O)[C@@H]1CC[C@H](CNC(=O)c2cccn2C2CC2)O1)c1ccc(-c2c3nc(c(-c4c(F)cccc4F)c4ccc([nH]4)c(-c4c(F)cccc4F)c4nc(c(-c5c(F)cccc5F)c5ccc2[nH]5)C=C4)C=C3)cc1
REMARK SMILES IDX 5 1 4 2 3 3 2 4 1 5 26 6 27 7 79 8 28 9 78 10 29 11 30 12
REMARK SMILES IDX 31 13 72 14 32 15 77 16 71 17 73 18 33 19 76 20 70 21 69 22
REMARK SMILES IDX 34 24 60 25 43 26 59 27 44 28 47 29 58 30 74 31 45 32 46 33
REMARK SMILES IDX 57 35 75 36 48 37 35 38 36 39 41 40 37 41 38 42 40 43 42 44
REMARK SMILES IDX 39 45 61 46 62 47 67 48 63 49 64 50 66 51 68 52 65 53 49 54
REMARK SMILES IDX 50 55 55 56 51 57 52 58 54 59 56 60 53 61 6 62 7 63 8 64
REMARK SMILES IDX 9 65 10 66 25 67 11 68 12 69 13 70 14 71 15 72 16 74 17 75
REMARK SMILES IDX 18 76 21 77 19 78 20 79 22 80 23 81 24 82
REMARK H PARENT 73 23 47 34 14 73
REMARK Flexibility Score: inf
ROOT
ATOM      1  C   UNL A   1      34.258  34.314  29.128  1.00  0.00     0.274 C 
ENDROOT
BRANCH   1   2
ATOM      2  C   UNL A   1      34.262  32.980  28.373  1.00  0.00     0.275 C 
BRANCH   2   3
ATOM      3  O   UNL A   1      35.338  32.082  28.704  1.00  0.00    -0.458 OA
BRANCH   3   4
ATOM      4  C   UNL A   1      35.395  30.851  28.153  1.00  0.00     0.338 C 
ATOM      5  O   UNL A   1      34.624  30.470  27.278  1.00  0.00    -0.246 OA
BRANCH   4   6
ATOM      6  C   UNL A   1      36.625  30.083  28.465  1.00  0.00     0.060 A 
ATOM      7  C   UNL A   1      37.768  30.117  27.659  1.00  0.00     0.016 A 
ATOM      8  C   UNL A   1      36.657  29.385  29.681  1.00  0.00     0.016 A 
ATOM      9  C   UNL A   1      38.915  29.429  28.032  1.00  0.00     0.010 A 
ATOM     10  C   UNL A   1      37.814  28.713  30.072  1.00  0.00     0.010 A 
ATOM     11  C   UNL A   1      38.944  28.737  29.243  1.00  0.00    -0.014 A 
BRANCH  11  12
ATOM     12  C   UNL A   1      40.220  28.117  29.665  1.00  0.00     0.031 A 
ATOM     13  C   UNL A   1      40.604  26.872  28.877  1.00  0.00     0.074 A 
ATOM     14  C   UNL A   1      40.876  28.720  30.693  1.00  0.00     0.049 A 
ATOM     15  N   UNL A   1      41.431  25.916  29.180  1.00  0.00    -0.248 NA
ATOM     16  C   UNL A   1      39.923  26.622  27.580  1.00  0.00     0.031 C 
ATOM     17  C   UNL A   1      40.361  29.902  31.401  1.00  0.00     0.029 A 
ATOM     18  N   UNL A   1      42.073  28.492  31.341  1.00  0.00    -0.354 N 
ATOM     19  C   UNL A   1      41.521  25.084  28.049  1.00  0.00     0.074 A 
ATOM     20  C   UNL A   1      40.470  25.482  27.158  1.00  0.00     0.031 C 
ATOM     21  C   UNL A   1      41.206  30.270  32.379  1.00  0.00     0.029 A 
ATOM     22  C   UNL A   1      42.345  29.373  32.413  1.00  0.00     0.049 A 
ATOM     23  H   UNL A   1      42.691  27.770  31.078  1.00  0.00     0.167 HD
ATOM     24  C   UNL A   1      42.552  24.226  27.811  1.00  0.00     0.037 A 
ATOM     25  C   UNL A   1      43.399  29.395  33.283  1.00  0.00     0.037 A 
ATOM     26  C   UNL A   1      43.519  24.244  28.857  1.00  0.00     0.049 A 
ATOM     27  C   UNL A   1      44.399  28.444  32.756  1.00  0.00     0.074 A 
ATOM     28  C   UNL A   1      43.590  23.695  30.109  1.00  0.00     0.029 A 
ATOM     29  N   UNL A   1      44.567  25.120  28.712  1.00  0.00    -0.354 N 
ATOM     30  N   UNL A   1      45.068  28.617  31.653  1.00  0.00    -0.248 NA
ATOM     31  C   UNL A   1      44.653  27.187  33.467  1.00  0.00     0.031 C 
ATOM     32  C   UNL A   1      44.508  24.507  30.817  1.00  0.00     0.029 A 
ATOM     33  C   UNL A   1      44.955  25.523  29.968  1.00  0.00     0.049 A 
ATOM     34  H   UNL A   1      44.970  25.406  27.860  1.00  0.00     0.167 HD
ATOM     35  C   UNL A   1      45.555  27.358  31.379  1.00  0.00     0.074 A 
ATOM     36  C   UNL A   1      45.513  26.624  32.621  1.00  0.00     0.031 C 
ATOM     37  C   UNL A   1      45.472  26.871  30.114  1.00  0.00     0.037 A 
BRANCH  24  38
ATOM     38  C   UNL A   1      42.921  23.506  26.547  1.00  0.00     0.057 A 
ATOM     39  C   UNL A   1      43.021  22.099  26.571  1.00  0.00     0.134 A 
ATOM     40  C   UNL A   1      43.470  24.142  25.426  1.00  0.00     0.134 A 
ATOM     41  F   UNL A   1      42.521  21.392  27.596  1.00  0.00    -0.206 F 
ATOM     42  C   UNL A   1      43.691  21.377  25.578  1.00  0.00     0.040 A 
ATOM     43  C   UNL A   1      44.108  23.425  24.406  1.00  0.00     0.040 A 
ATOM     44  F   UNL A   1      43.490  25.479  25.324  1.00  0.00    -0.206 F 
ATOM     45  C   UNL A   1      44.247  22.043  24.495  1.00  0.00     0.006 A 
ENDBRANCH  24  38
BRANCH  25  46
ATOM     46  C   UNL A   1      43.736  30.117  34.571  1.00  0.00     0.057 A 
ATOM     47  C   UNL A   1      44.738  31.084  34.738  1.00  0.00     0.134 A 
ATOM     48  C   UNL A   1      42.932  29.933  35.727  1.00  0.00     0.134 A 
ATOM     49  F   UNL A   1      45.601  31.392  33.768  1.00  0.00    -0.206 F 
ATOM     50  C   UNL A   1      44.895  31.831  35.920  1.00  0.00     0.040 A 
ATOM     51  C   UNL A   1      43.043  30.705  36.890  1.00  0.00     0.040 A 
ATOM     52  F   UNL A   1      41.972  28.998  35.776  1.00  0.00    -0.206 F 
ATOM     53  C   UNL A   1      44.028  31.669  36.989  1.00  0.00     0.006 A 
ENDBRANCH  25  46
BRANCH  37  54
ATOM     54  C   UNL A   1      45.450  27.956  29.051  1.00  0.00     0.057 A 
ATOM     55  C   UNL A   1      46.617  28.659  28.724  1.00  0.00     0.134 A 
ATOM     56  C   UNL A   1      44.278  28.414  28.431  1.00  0.00     0.134 A 
ATOM     57  F   UNL A   1      47.794  28.295  29.253  1.00  0.00    -0.206 F 
ATOM     58  C   UNL A   1      46.606  29.758  27.852  1.00  0.00     0.040 A 
ATOM     59  C   UNL A   1      44.250  29.497  27.548  1.00  0.00     0.040 A 
ATOM     60  F   UNL A   1      43.112  27.818  28.657  1.00  0.00    -0.206 F 
ATOM     61  C   UNL A   1      45.419  30.184  27.264  1.00  0.00     0.006 A 
ENDBRANCH  37  54
ENDBRANCH  11  12
ENDBRANCH   4   6
ENDBRANCH   3   4
ENDBRANCH   2   3
ENDBRANCH   1   2
BRANCH   1  62
ATOM     62  O   UNL A   1      33.279  34.356  30.189  1.00  0.00    -0.460 OA
BRANCH  62  63
ATOM     63  C   UNL A   1      33.188  35.554  30.851  1.00  0.00     0.335 C 
ATOM     64  O   UNL A   1      33.070  36.643  30.302  1.00  0.00    -0.249 OA
BRANCH  63  65
ATOM     65  C   UNL A   1      33.329  35.361  32.369  1.00  0.00     0.228 C 
ATOM     66  C   UNL A   1      34.700  35.745  32.910  1.00  0.00     0.047 C 
ATOM     67  O   UNL A   1      33.113  33.983  32.740  1.00  0.00    -0.361 OA
ATOM     68  C   UNL A   1      35.023  34.642  33.893  1.00  0.00     0.037 C 
ATOM     69  C   UNL A   1      34.333  33.440  33.276  1.00  0.00     0.138 C 
BRANCH  69  70
ATOM     70  C   UNL A   1      35.143  32.758  32.157  1.00  0.00     0.148 C 
BRANCH  70  71
ATOM     71  N   UNL A   1      35.888  31.602  32.639  1.00  0.00    -0.348 N 
ATOM     72  C   UNL A   1      37.178  31.523  33.096  1.00  0.00     0.268 C 
ATOM     73  H   UNL A   1      35.392  30.752  32.635  1.00  0.00     0.163 HD
ATOM     74  O   UNL A   1      37.593  30.406  33.420  1.00  0.00    -0.268 OA
BRANCH  72  75
ATOM     75  C   UNL A   1      37.944  32.732  33.242  1.00  0.00     0.107 A 
ATOM     76  C   UNL A   1      38.468  33.222  34.438  1.00  0.00     0.033 A 
ATOM     77  N   UNL A   1      38.387  33.589  32.255  1.00  0.00    -0.340 N 
ATOM     78  C   UNL A   1      39.194  34.400  34.170  1.00  0.00     0.020 A 
ATOM     79  C   UNL A   1      39.138  34.596  32.812  1.00  0.00     0.086 A 
BRANCH  77  80
ATOM     80  C   UNL A   1      38.100  33.618  30.829  1.00  0.00     0.087 C 
ATOM     81  C   UNL A   1      38.968  34.219  29.747  1.00  0.00     0.027 C 
ATOM     82  C   UNL A   1      38.851  32.736  29.848  1.00  0.00     0.027 C 
ENDBRANCH  77  80
ENDBRANCH  72  75
ENDBRANCH  70  71
ENDBRANCH  69  70
ENDBRANCH  63  65
ENDBRANCH  62  63
ENDBRANCH   1  62
TORSDOF 15
ENDMDL
MODEL 2
REMARK VINA RESULT:      -9.9      4.308      7.771
REMARK SMILES O=C(OCCOC(=O)[C@@H]1CC[C@H](CNC(=O)c2cccn2C2CC2)O1)c1ccc(-c2c3nc(c(-c4c(F)cccc4F)c4ccc([nH]4)c(-c4c(F)cccc4F)c4nc(c(-c5c(F)cccc5F)c5ccc2[nH]5)C=C4)C=C3)cc1
REMARK SMILES IDX 5 1 4 2 3 3 2 4 1 5 26 6 27 7 79 8 28 9 78 10 29 11 30 12
REMARK SMILES IDX 31 13 72 14 32 15 77 16 71 17 73 18 33 19 76 20 70 21 69 22
REMARK SMILES IDX 34 24 60 25 43 26 59 27 44 28 47 29 58 30 74 31 45 32 46 33
REMARK SMILES IDX 57 35 75 36 48 37 35 38 36 39 41 40 37 41 38 42 40 43 42 44
REMARK SMILES IDX 39 45 61 46 62 47 67 48 63 49 64 50 66 51 68 52 65 53 49 54
REMARK SMILES IDX 50 55 55 56 51 57 52 58 54 59 56 60 53 61 6 62 7 63 8 64
REMARK SMILES IDX 9 65 10 66 25 67 11 68 12 69 13 70 14 71 15 72 16 74 17 75
REMARK SMILES IDX 18 76 21 77 19 78 20 79 22 80 23 81 24 82
REMARK H PARENT 73 23 47 34 14 73
REMARK Flexibility Score: inf
ROOT
ATOM      1  C   UNL A   1      31.526  31.774  26.521  1.00  0.00     0.274 C 
ENDROOT
BRANCH   1   2
ATOM      2  C   UNL A   1      32.588  32.597  27.257  1.00  0.00     0.275 C 
BRANCH   2   3
ATOM      3  O   UNL A   1      32.253  33.979  27.489  1.00  0.00    -0.458 OA
BRANCH   3   4
ATOM      4  C   UNL A   1      32.915  34.696  28.422  1.00  0.00     0.338 C 
ATOM      5  O   UNL A   1      32.445  35.691  28.963  1.00  0.00    -0.246 OA
BRANCH   4   6
ATOM      6  C   UNL A   1      34.132  34.043  28.963  1.00  0.00     0.060 A 
ATOM      7  C   UNL A   1      35.426  34.389  28.556  1.00  0.00     0.016 A 
ATOM      8  C   UNL A   1      33.959  33.118  30.002  1.00  0.00     0.016 A 
ATOM      9  C   UNL A   1      36.533  33.791  29.142  1.00  0.00     0.010 A 
ATOM     10  C   UNL A   1      35.068  32.533  30.611  1.00  0.00     0.010 A 
ATOM     11  C   UNL A   1      36.357  32.873  30.177  1.00  0.00    -0.014 A 
BRANCH  11  12
ATOM     12  C   UNL A   1      37.561  32.346  30.859  1.00  0.00     0.031 A 
ATOM     13  C   UNL A   1      38.207  31.157  30.162  1.00  0.00     0.074 A 
ATOM     14  C   UNL A   1      37.929  32.973  32.009  1.00  0.00     0.049 A 
ATOM     15  N   UNL A   1      39.028  30.262  30.628  1.00  0.00    -0.248 NA
ATOM     16  C   UNL A   1      37.843  30.886  28.747  1.00  0.00     0.031 C 
ATOM     17  C   UNL A   1      37.177  34.092  32.598  1.00  0.00     0.029 A 
ATOM     18  N   UNL A   1      38.975  32.825  32.897  1.00  0.00    -0.354 N 
ATOM     19  C   UNL A   1      39.428  29.470  29.536  1.00  0.00     0.074 A 
ATOM     20  C   UNL A   1      38.561  29.805  28.443  1.00  0.00     0.031 C 
ATOM     21  C   UNL A   1      37.760  34.501  33.738  1.00  0.00     0.029 A 
ATOM     22  C   UNL A   1      38.936  33.698  34.010  1.00  0.00     0.049 A 
ATOM     23  H   UNL A   1      39.693  32.163  32.767  1.00  0.00     0.167 HD
ATOM     24  C   UNL A   1      40.555  28.704  29.519  1.00  0.00     0.037 A 
ATOM     25  C   UNL A   1      39.774  33.781  35.086  1.00  0.00     0.037 A 
ATOM     26  C   UNL A   1      41.270  28.773  30.749  1.00  0.00     0.049 A 
ATOM     27  C   UNL A   1      40.940  32.928  34.779  1.00  0.00     0.074 A 
ATOM     28  C   UNL A   1      41.117  28.199  31.982  1.00  0.00     0.029 A 
ATOM     29  N   UNL A   1      42.248  29.734  30.840  1.00  0.00    -0.354 N 
ATOM     30  N   UNL A   1      41.813  33.183  33.847  1.00  0.00    -0.248 NA
ATOM     31  C   UNL A   1      41.141  31.678  35.518  1.00  0.00     0.031 C 
ATOM     32  C   UNL A   1      41.791  29.064  32.877  1.00  0.00     0.029 A 
ATOM     33  C   UNL A   1      42.323  30.135  32.153  1.00  0.00     0.049 A 
ATOM     34  H   UNL A   1      42.798  30.073  30.097  1.00  0.00     0.167 HD
ATOM     35  C   UNL A   1      42.451  31.975  33.674  1.00  0.00     0.074 A 
ATOM     36  C   UNL A   1      42.206  31.207  34.873  1.00  0.00     0.031 C 
ATOM     37  C   UNL A   1      42.681  31.515  32.417  1.00  0.00     0.037 A 
BRANCH  24  38
ATOM     38  C   UNL A   1      41.244  28.049  28.358  1.00  0.00     0.057 A 
ATOM     39  C   UNL A   1      41.963  28.856  27.452  1.00  0.00     0.134 A 
ATOM     40  C   UNL A   1      40.974  26.741  27.935  1.00  0.00     0.134 A 
ATOM     41  F   UNL A   1      42.280  30.123  27.762  1.00  0.00    -0.206 F 
ATOM     42  C   UNL A   1      42.326  28.413  26.177  1.00  0.00     0.040 A 
ATOM     43  C   UNL A   1      41.368  26.274  26.675  1.00  0.00     0.040 A 
ATOM     44  F   UNL A   1      40.243  25.904  28.685  1.00  0.00    -0.206 F 
ATOM     45  C   UNL A   1      42.019  27.119  25.781  1.00  0.00     0.006 A 
ENDBRANCH  24  38
BRANCH  25  46
ATOM     46  C   UNL A   1      39.767  34.495  36.422  1.00  0.00     0.057 A 
ATOM     47  C   UNL A   1      40.239  35.793  36.669  1.00  0.00     0.134 A 
ATOM     48  C   UNL A   1      39.135  33.902  37.548  1.00  0.00     0.134 A 
ATOM     49  F   UNL A   1      40.870  36.511  35.738  1.00  0.00    -0.206 F 
ATOM     50  C   UNL A   1      40.058  36.455  37.896  1.00  0.00     0.040 A 
ATOM     51  C   UNL A   1      38.901  34.568  38.757  1.00  0.00     0.040 A 
ATOM     52  F   UNL A   1      38.688  32.638  37.519  1.00  0.00    -0.206 F 
ATOM     53  C   UNL A   1      39.359  35.859  38.935  1.00  0.00     0.006 A 
ENDBRANCH  25  46
BRANCH  37  54
ATOM     54  C   UNL A   1      42.796  32.622  31.384  1.00  0.00     0.057 A 
ATOM     55  C   UNL A   1      43.938  33.432  31.328  1.00  0.00     0.134 A 
ATOM     56  C   UNL A   1      41.753  32.993  30.522  1.00  0.00     0.134 A 
ATOM     57  F   UNL A   1      44.998  33.158  32.103  1.00  0.00    -0.206 F 
ATOM     58  C   UNL A   1      44.020  34.548  30.483  1.00  0.00     0.040 A 
ATOM     59  C   UNL A   1      41.822  34.093  29.662  1.00  0.00     0.040 A 
ATOM     60  F   UNL A   1      40.624  32.292  30.480  1.00  0.00    -0.206 F 
ATOM     61  C   UNL A   1      42.958  34.885  29.649  1.00  0.00     0.006 A 
ENDBRANCH  37  54
ENDBRANCH  11  12
ENDBRANCH   4   6
ENDBRANCH   3   4
ENDBRANCH   2   3
ENDBRANCH   1   2
BRANCH   1  62
ATOM     62  O   UNL A   1      31.758  30.351  26.608  1.00  0.00    -0.460 OA
BRANCH  62  63
ATOM     63  C   UNL A   1      31.861  29.703  25.403  1.00  0.00     0.335 C 
ATOM     64  O   UNL A   1      31.031  29.772  24.505  1.00  0.00    -0.249 OA
BRANCH  63  65
ATOM     65  C   UNL A   1      33.116  28.818  25.355  1.00  0.00     0.228 C 
ATOM     66  C   UNL A   1      33.219  27.970  24.095  1.00  0.00     0.047 C 
ATOM     67  O   UNL A   1      33.149  27.901  26.470  1.00  0.00    -0.361 OA
ATOM     68  C   UNL A   1      33.683  26.622  24.601  1.00  0.00     0.037 C 
ATOM     69  C   UNL A   1      33.048  26.553  25.977  1.00  0.00     0.138 C 
BRANCH  69  70
ATOM     70  C   UNL A   1      31.575  26.104  25.965  1.00  0.00     0.148 C 
BRANCH  70  71
ATOM     71  N   UNL A   1      31.325  24.996  26.877  1.00  0.00    -0.348 N 
ATOM     72  C   UNL A   1      31.395  23.646  26.651  1.00  0.00     0.268 C 
ATOM     73  H   UNL A   1      31.068  25.255  27.792  1.00  0.00     0.163 HD
ATOM     74  O   UNL A   1      31.101  22.901  27.591  1.00  0.00    -0.268 OA
BRANCH  72  75
ATOM     75  C   UNL A   1      31.870  23.174  25.378  1.00  0.00     0.107 A 
ATOM     76  C   UNL A   1      31.202  23.308  24.162  1.00  0.00     0.033 A 
ATOM     77  N   UNL A   1      33.084  22.588  25.081  1.00  0.00    -0.340 N 
ATOM     78  C   UNL A   1      32.003  22.762  23.138  1.00  0.00     0.020 A 
ATOM     79  C   UNL A   1      33.166  22.337  23.732  1.00  0.00     0.086 A 
BRANCH  77  80
ATOM     80  C   UNL A   1      34.159  22.145  25.955  1.00  0.00     0.087 C 
ATOM     81  C   UNL A   1      35.622  22.025  25.595  1.00  0.00     0.027 C 
ATOM     82  C   UNL A   1      35.184  23.116  26.512  1.00  0.00     0.027 C 
ENDBRANCH  77  80
ENDBRANCH  72  75
ENDBRANCH  70  71
ENDBRANCH  69  70
ENDBRANCH  63  65
ENDBRANCH  62  63
ENDBRANCH   1  62
TORSDOF 15
ENDMDL
MODEL 3
REMARK VINA RESULT:      -9.9      5.083     10.125
REMARK SMILES O=C(OCCOC(=O)[C@@H]1CC[C@H](CNC(=O)c2cccn2C2CC2)O1)c1ccc(-c2c3nc(c(-c4c(F)cccc4F)c4ccc([nH]4)c(-c4c(F)cccc4F)c4nc(c(-c5c(F)cccc5F)c5ccc2[nH]5)C=C4)C=C3)cc1
REMARK SMILES IDX 5 1 4 2 3 3 2 4 1 5 26 6 27 7 79 8 28 9 78 10 29 11 30 12
REMARK SMILES IDX 31 13 72 14 32 15 77 16 71 17 73 18 33 19 76 20 70 21 69 22
REMARK SMILES IDX 34 24 60 25 43 26 59 27 44 28 47 29 58 30 74 31 45 32 46 33
REMARK SMILES IDX 57 35 75 36 48 37 35 38 36 39 41 40 37 41 38 42 40 43 42 44
REMARK SMILES IDX 39 45 61 46 62 47 67 48 63 49 64 50 66 51 68 52 65 53 49 54
REMARK SMILES IDX 50 55 55 56 51 57 52 58 54 59 56 60 53 61 6 62 7 63 8 64
REMARK SMILES IDX 9 65 10 66 25 67 11 68 12 69 13 70 14 71 15 72 16 74 17 75
REMARK SMILES IDX 18 76 21 77 19 78 20 79 22 80 23 81 24 82
REMARK H PARENT 73 23 47 34 14 73
REMARK Flexibility Score: inf
ROOT
ATOM      1  C   UNL A   1      38.161  19.900  24.844  1.00  0.00     0.274 C 
ENDROOT
BRANCH   1   2
ATOM      2  C   UNL A   1      39.175  19.455  25.903  1.00  0.00     0.275 C 
BRANCH   2   3
ATOM      3  O   UNL A   1      40.422  18.944  25.393  1.00  0.00    -0.458 OA
BRANCH   3   4
ATOM      4  C   UNL A   1      41.562  19.090  26.102  1.00  0.00     0.338 C 
ATOM      5  O   UNL A   1      42.386  18.192  26.241  1.00  0.00    -0.246 OA
BRANCH   4   6
ATOM      6  C   UNL A   1      41.896  20.488  26.467  1.00  0.00     0.060 A 
ATOM      7  C   UNL A   1      42.140  20.893  27.783  1.00  0.00     0.016 A 
ATOM      8  C   UNL A   1      42.073  21.402  25.418  1.00  0.00     0.016 A 
ATOM      9  C   UNL A   1      42.512  22.202  28.061  1.00  0.00     0.010 A 
ATOM     10  C   UNL A   1      42.471  22.710  25.689  1.00  0.00     0.010 A 
ATOM     11  C   UNL A   1      42.690  23.108  27.015  1.00  0.00    -0.014 A 
BRANCH  11  12
ATOM     12  C   UNL A   1      43.203  24.458  27.338  1.00  0.00     0.031 A 
ATOM     13  C   UNL A   1      42.123  25.471  27.695  1.00  0.00     0.074 A 
ATOM     14  C   UNL A   1      44.551  24.628  27.267  1.00  0.00     0.049 A 
ATOM     15  N   UNL A   1      42.166  26.771  27.694  1.00  0.00    -0.248 NA
ATOM     16  C   UNL A   1      40.773  24.964  28.055  1.00  0.00     0.031 C 
ATOM     17  C   UNL A   1      45.481  23.564  26.859  1.00  0.00     0.029 A 
ATOM     18  N   UNL A   1      45.407  25.681  27.520  1.00  0.00    -0.354 N 
ATOM     19  C   UNL A   1      40.948  27.217  28.239  1.00  0.00     0.074 A 
ATOM     20  C   UNL A   1      40.081  26.076  28.304  1.00  0.00     0.031 C 
ATOM     21  C   UNL A   1      46.746  24.017  26.863  1.00  0.00     0.029 A 
ATOM     22  C   UNL A   1      46.771  25.410  27.266  1.00  0.00     0.049 A 
ATOM     23  H   UNL A   1      45.091  26.554  27.850  1.00  0.00     0.167 HD
ATOM     24  C   UNL A   1      40.757  28.457  28.772  1.00  0.00     0.037 A 
ATOM     25  C   UNL A   1      47.859  26.232  27.360  1.00  0.00     0.037 A 
ATOM     26  C   UNL A   1      41.928  29.263  28.688  1.00  0.00     0.049 A 
ATOM     27  C   UNL A   1      47.400  27.461  28.039  1.00  0.00     0.074 A 
ATOM     28  C   UNL A   1      42.528  29.984  27.691  1.00  0.00     0.029 A 
ATOM     29  N   UNL A   1      42.780  29.226  29.764  1.00  0.00    -0.354 N 
ATOM     30  N   UNL A   1      47.020  27.517  29.283  1.00  0.00    -0.248 NA
ATOM     31  C   UNL A   1      47.307  28.716  27.286  1.00  0.00     0.031 C 
ATOM     32  C   UNL A   1      43.885  30.091  28.080  1.00  0.00     0.029 A 
ATOM     33  C   UNL A   1      44.058  29.426  29.297  1.00  0.00     0.049 A 
ATOM     34  H   UNL A   1      42.522  29.083  30.704  1.00  0.00     0.167 HD
ATOM     35  C   UNL A   1      46.339  28.711  29.352  1.00  0.00     0.074 A 
ATOM     36  C   UNL A   1      46.779  29.499  28.224  1.00  0.00     0.031 C 
ATOM     37  C   UNL A   1      45.143  28.762  29.993  1.00  0.00     0.037 A 
BRANCH  24  38
ATOM     38  C   UNL A   1      39.631  28.964  29.625  1.00  0.00     0.057 A 
ATOM     39  C   UNL A   1      39.515  28.490  30.948  1.00  0.00     0.134 A 
ATOM     40  C   UNL A   1      38.514  29.635  29.112  1.00  0.00     0.134 A 
ATOM     41  F   UNL A   1      40.531  27.839  31.536  1.00  0.00    -0.206 F 
ATOM     42  C   UNL A   1      38.336  28.611  31.688  1.00  0.00     0.040 A 
ATOM     43  C   UNL A   1      37.340  29.798  29.860  1.00  0.00     0.040 A 
ATOM     44  F   UNL A   1      38.485  30.073  27.845  1.00  0.00    -0.206 F 
ATOM     45  C   UNL A   1      37.238  29.259  31.139  1.00  0.00     0.006 A 
ENDBRANCH  24  38
BRANCH  25  46
ATOM     46  C   UNL A   1      49.316  26.167  26.948  1.00  0.00     0.057 A 
ATOM     47  C   UNL A   1      50.376  25.691  27.732  1.00  0.00     0.134 A 
ATOM     48  C   UNL A   1      49.699  26.495  25.620  1.00  0.00     0.134 A 
ATOM     49  F   UNL A   1      50.217  25.340  29.009  1.00  0.00    -0.206 F 
ATOM     50  C   UNL A   1      51.679  25.510  27.233  1.00  0.00     0.040 A 
ATOM     51  C   UNL A   1      50.978  26.270  25.095  1.00  0.00     0.040 A 
ATOM     52  F   UNL A   1      48.832  27.034  24.750  1.00  0.00    -0.206 F 
ATOM     53  C   UNL A   1      51.978  25.767  25.904  1.00  0.00     0.006 A 
ENDBRANCH  25  46
BRANCH  37  54
ATOM     54  C   UNL A   1      44.996  27.708  31.077  1.00  0.00     0.057 A 
ATOM     55  C   UNL A   1      45.657  27.849  32.304  1.00  0.00     0.134 A 
ATOM     56  C   UNL A   1      44.321  26.492  30.894  1.00  0.00     0.134 A 
ATOM     57  F   UNL A   1      46.324  28.978  32.586  1.00  0.00    -0.206 F 
ATOM     58  C   UNL A   1      45.658  26.833  33.272  1.00  0.00     0.040 A 
ATOM     59  C   UNL A   1      44.298  25.474  31.852  1.00  0.00     0.040 A 
ATOM     60  F   UNL A   1      43.650  26.250  29.773  1.00  0.00    -0.206 F 
ATOM     61  C   UNL A   1      44.981  25.639  33.046  1.00  0.00     0.006 A 
ENDBRANCH  37  54
ENDBRANCH  11  12
ENDBRANCH   4   6
ENDBRANCH   3   4
ENDBRANCH   2   3
ENDBRANCH   1   2
BRANCH   1  62
ATOM     62  O   UNL A   1      37.691  21.250  25.050  1.00  0.00    -0.460 OA
BRANCH  62  63
ATOM     63  C   UNL A   1      36.359  21.363  25.360  1.00  0.00     0.335 C 
ATOM     64  O   UNL A   1      35.518  20.502  25.132  1.00  0.00    -0.249 OA
BRANCH  63  65
ATOM     65  C   UNL A   1      36.045  22.741  25.961  1.00  0.00     0.228 C 
ATOM     66  C   UNL A   1      34.683  22.817  26.638  1.00  0.00     0.047 C 
ATOM     67  O   UNL A   1      36.056  23.767  24.946  1.00  0.00    -0.361 OA
ATOM     68  C   UNL A   1      34.132  24.155  26.196  1.00  0.00     0.037 C 
ATOM     69  C   UNL A   1      34.732  24.314  24.812  1.00  0.00     0.138 C 
BRANCH  69  70
ATOM     70  C   UNL A   1      33.962  23.569  23.706  1.00  0.00     0.148 C 
BRANCH  70  71
ATOM     71  N   UNL A   1      33.901  24.329  22.465  1.00  0.00    -0.348 N 
ATOM     72  C   UNL A   1      33.013  25.298  22.077  1.00  0.00     0.268 C 
ATOM     73  H   UNL A   1      34.600  24.114  21.806  1.00  0.00     0.163 HD
ATOM     74  O   UNL A   1      33.155  25.774  20.946  1.00  0.00    -0.268 OA
BRANCH  72  75
ATOM     75  C   UNL A   1      32.023  25.756  23.015  1.00  0.00     0.107 A 
ATOM     76  C   UNL A   1      30.749  25.214  23.182  1.00  0.00     0.033 A 
ATOM     77  N   UNL A   1      32.148  26.736  23.980  1.00  0.00    -0.340 N 
ATOM     78  C   UNL A   1      30.094  25.900  24.225  1.00  0.00     0.020 A 
ATOM     79  C   UNL A   1      30.985  26.826  24.709  1.00  0.00     0.086 A 
BRANCH  77  80
ATOM     80  C   UNL A   1      33.225  27.678  24.238  1.00  0.00     0.087 C 
ATOM     81  C   UNL A   1      34.031  28.431  23.204  1.00  0.00     0.027 C 
ATOM     82  C   UNL A   1      33.043  29.171  24.038  1.00  0.00     0.027 C 
ENDBRANCH  77  80
ENDBRANCH  72  75
ENDBRANCH  70  71
ENDBRANCH  69  70
ENDBRANCH  63  65
ENDBRANCH  62  63
ENDBRANCH   1  62
TORSDOF 15
ENDMDL
