MODEL 1
REMARK VINA RESULT:     -11.9      0.000      0.000
REMARK SMILES Cc1cc(Cl)cc2c1O[C@H](C(F)(F)F)C(C(=O)OCCOC(=O)c1ccc(-c3c4nc(c(-c5c(F)cccc5F)c5ccc([nH]5)c(-c5c(F)cccc5F)c5nc(c(-c6c(F)cccc6F)c6ccc3[nH]6)C=C5)C=C4)cc1)=C2
REMARK SMILES IDX 20 1 19 2 18 3 16 4 17 5 15 6 1 7 2 8 3 9 8 10 4 11 7 12
REMARK SMILES IDX 9 13 5 14 6 15 78 16 10 17 11 18 12 19 13 20 14 21 21 22
REMARK SMILES IDX 22 23 23 24 24 25 25 26 77 27 26 28 76 29 27 30 28 31 29 32
REMARK SMILES IDX 70 33 30 34 75 35 69 36 71 37 31 38 74 39 68 40 67 41 32 43
REMARK SMILES IDX 58 44 41 45 57 46 42 47 45 48 56 49 72 50 43 51 44 52 55 54
REMARK SMILES IDX 73 55 46 56 33 57 34 58 39 59 35 60 36 61 38 62 40 63 37 64
REMARK SMILES IDX 59 65 60 66 65 67 61 68 62 69 64 70 66 71 63 72 47 73 48 74
REMARK SMILES IDX 53 75 49 76 50 77 52 78 54 79 51 80
REMARK H PARENT 71 42 45 53
REMARK Flexibility Score: inf
ROOT
ATOM      1  C   UNL A   1      31.630  30.520  25.758  1.00  0.00     0.275 C 
ENDROOT
BRANCH   1   2
ATOM      2  C   UNL A   1      31.656  29.150  25.078  1.00  0.00     0.275 C 
BRANCH   2   3
ATOM      3  O   UNL A   1      32.496  28.219  25.796  1.00  0.00    -0.459 OA
BRANCH   3   4
ATOM      4  C   UNL A   1      31.841  27.263  26.492  1.00  0.00     0.338 C 
ATOM      5  O   UNL A   1      31.020  27.439  27.380  1.00  0.00    -0.246 OA
BRANCH   4   6
ATOM      6  C   UNL A   1      32.227  25.919  26.023  1.00  0.00     0.087 C 
ATOM      7  C   UNL A   1      32.403  21.373  23.650  1.00  0.00     0.048 C 
ATOM      8  C   UNL A   1      33.408  22.323  24.235  1.00  0.00    -0.007 A 
ATOM      9  C   UNL A   1      34.780  22.036  24.136  1.00  0.00     0.027 A 
ATOM     10  C   UNL A   1      32.996  23.496  24.886  1.00  0.00     0.131 A 
ATOM     11  C   UNL A   1      35.723  22.906  24.680  1.00  0.00     0.042 A 
ATOM     12  C   UNL A   1      33.951  24.369  25.411  1.00  0.00     0.019 A 
ATOM     13  O   UNL A   1      31.649  23.723  24.991  1.00  0.00    -0.475 OA
ATOM     14  Cl  UNL A   1      37.400  22.548  24.547  1.00  0.00    -0.084 Cl
ATOM     15  C   UNL A   1      35.316  24.070  25.318  1.00  0.00     0.032 A 
ATOM     16  C   UNL A   1      33.528  25.612  26.019  1.00  0.00     0.027 C 
ATOM     17  C   UNL A   1      31.176  25.027  25.432  1.00  0.00     0.316 C 
BRANCH  17  18
ATOM     18  C   UNL A   1      30.456  25.715  24.262  1.00  0.00     0.430 C 
ATOM     19  F   UNL A   1      31.326  26.400  23.480  1.00  0.00    -0.167 F 
ATOM     20  F   UNL A   1      29.841  24.816  23.457  1.00  0.00    -0.167 F 
ATOM     21  F   UNL A   1      29.515  26.589  24.685  1.00  0.00    -0.167 F 
ENDBRANCH  17  18
ENDBRANCH   4   6
ENDBRANCH   3   4
ENDBRANCH   2   3
ENDBRANCH   1   2
BRANCH   1  22
ATOM     22  O   UNL A   1      32.394  30.492  26.978  1.00  0.00    -0.458 OA
BRANCH  22  23
ATOM     23  C   UNL A   1      33.084  31.622  27.248  1.00  0.00     0.338 C 
ATOM     24  O   UNL A   1      32.661  32.766  27.265  1.00  0.00    -0.246 OA
BRANCH  23  25
ATOM     25  C   UNL A   1      34.467  31.300  27.630  1.00  0.00     0.060 A 
ATOM     26  C   UNL A   1      34.786  29.973  27.882  1.00  0.00     0.016 A 
ATOM     27  C   UNL A   1      35.369  32.307  27.960  1.00  0.00     0.016 A 
ATOM     28  C   UNL A   1      35.914  29.660  28.632  1.00  0.00     0.010 A 
ATOM     29  C   UNL A   1      36.587  31.970  28.564  1.00  0.00     0.010 A 
ATOM     30  C   UNL A   1      36.850  30.647  28.965  1.00  0.00    -0.014 A 
BRANCH  30  31
ATOM     31  C   UNL A   1      38.075  30.294  29.747  1.00  0.00     0.031 A 
ATOM     32  C   UNL A   1      39.156  29.439  29.131  1.00  0.00     0.074 A 
ATOM     33  C   UNL A   1      38.242  30.761  31.002  1.00  0.00     0.049 A 
ATOM     34  N   UNL A   1      40.188  28.870  29.704  1.00  0.00    -0.248 NA
ATOM     35  C   UNL A   1      39.060  29.174  27.686  1.00  0.00     0.031 C 
ATOM     36  C   UNL A   1      37.315  31.646  31.712  1.00  0.00     0.029 A 
ATOM     37  N   UNL A   1      39.261  30.572  31.905  1.00  0.00    -0.354 N 
ATOM     38  C   UNL A   1      40.827  28.141  28.707  1.00  0.00     0.074 A 
ATOM     39  C   UNL A   1      40.061  28.326  27.494  1.00  0.00     0.031 C 
ATOM     40  C   UNL A   1      37.834  31.975  32.902  1.00  0.00     0.029 A 
ATOM     41  C   UNL A   1      39.068  31.229  33.099  1.00  0.00     0.049 A 
ATOM     42  H   UNL A   1      40.052  30.019  31.715  1.00  0.00     0.167 HD
ATOM     43  C   UNL A   1      41.951  27.390  28.796  1.00  0.00     0.037 A 
ATOM     44  C   UNL A   1      39.770  31.199  34.247  1.00  0.00     0.037 A 
ATOM     45  C   UNL A   1      42.744  27.260  29.992  1.00  0.00     0.049 A 
ATOM     46  C   UNL A   1      40.974  30.308  34.341  1.00  0.00     0.074 A 
ATOM     47  C   UNL A   1      43.901  26.524  30.182  1.00  0.00     0.029 A 
ATOM     48  N   UNL A   1      42.475  27.899  31.194  1.00  0.00    -0.354 N 
ATOM     49  N   UNL A   1      41.521  29.562  33.414  1.00  0.00    -0.248 NA
ATOM     50  C   UNL A   1      41.641  30.232  35.648  1.00  0.00     0.031 C 
ATOM     51  C   UNL A   1      44.309  26.685  31.509  1.00  0.00     0.029 A 
ATOM     52  C   UNL A   1      43.435  27.560  32.133  1.00  0.00     0.049 A 
ATOM     53  H   UNL A   1      41.715  28.503  31.354  1.00  0.00     0.167 HD
ATOM     54  C   UNL A   1      42.601  28.936  34.018  1.00  0.00     0.074 A 
ATOM     55  C   UNL A   1      42.647  29.408  35.387  1.00  0.00     0.031 C 
ATOM     56  C   UNL A   1      43.472  28.044  33.489  1.00  0.00     0.037 A 
BRANCH  43  57
ATOM     57  C   UNL A   1      42.393  26.628  27.579  1.00  0.00     0.057 A 
ATOM     58  C   UNL A   1      41.953  25.325  27.315  1.00  0.00     0.134 A 
ATOM     59  C   UNL A   1      43.210  27.239  26.617  1.00  0.00     0.134 A 
ATOM     60  F   UNL A   1      41.178  24.677  28.197  1.00  0.00    -0.206 F 
ATOM     61  C   UNL A   1      42.319  24.654  26.145  1.00  0.00     0.040 A 
ATOM     62  C   UNL A   1      43.560  26.589  25.432  1.00  0.00     0.040 A 
ATOM     63  F   UNL A   1      43.660  28.489  26.800  1.00  0.00    -0.206 F 
ATOM     64  C   UNL A   1      43.116  25.290  25.195  1.00  0.00     0.006 A 
ENDBRANCH  43  57
BRANCH  44  65
ATOM     65  C   UNL A   1      39.318  32.003  35.412  1.00  0.00     0.057 A 
ATOM     66  C   UNL A   1      39.744  33.325  35.584  1.00  0.00     0.134 A 
ATOM     67  C   UNL A   1      38.433  31.484  36.366  1.00  0.00     0.134 A 
ATOM     68  F   UNL A   1      40.611  33.873  34.720  1.00  0.00    -0.206 F 
ATOM     69  C   UNL A   1      39.308  34.100  36.661  1.00  0.00     0.040 A 
ATOM     70  C   UNL A   1      37.963  32.257  37.429  1.00  0.00     0.040 A 
ATOM     71  F   UNL A   1      37.984  30.224  36.260  1.00  0.00    -0.206 F 
ATOM     72  C   UNL A   1      38.405  33.569  37.581  1.00  0.00     0.006 A 
ENDBRANCH  44  65
BRANCH  56  73
ATOM     73  C   UNL A   1      44.565  27.535  34.379  1.00  0.00     0.057 A 
ATOM     74  C   UNL A   1      44.426  26.350  35.112  1.00  0.00     0.134 A 
ATOM     75  C   UNL A   1      45.794  28.204  34.455  1.00  0.00     0.134 A 
ATOM     76  F   UNL A   1      43.268  25.671  35.092  1.00  0.00    -0.206 F 
ATOM     77  C   UNL A   1      45.465  25.854  35.898  1.00  0.00     0.040 A 
ATOM     78  C   UNL A   1      46.850  27.703  35.217  1.00  0.00     0.040 A 
ATOM     79  F   UNL A   1      45.995  29.341  33.770  1.00  0.00    -0.206 F 
ATOM     80  C   UNL A   1      46.686  26.526  35.944  1.00  0.00     0.006 A 
ENDBRANCH  56  73
ENDBRANCH  30  31
ENDBRANCH  23  25
ENDBRANCH  22  23
ENDBRANCH   1  22
TORSDOF 12
ENDMDL
MODEL 2
REMARK VINA RESULT:     -11.9      4.030      8.778
REMARK SMILES Cc1cc(Cl)cc2c1O[C@H](C(F)(F)F)C(C(=O)OCCOC(=O)c1ccc(-c3c4nc(c(-c5c(F)cccc5F)c5ccc([nH]5)c(-c5c(F)cccc5F)c5nc(c(-c6c(F)cccc6F)c6ccc3[nH]6)C=C5)C=C4)cc1)=C2
REMARK SMILES IDX 20 1 19 2 18 3 16 4 17 5 15 6 1 7 2 8 3 9 8 10 4 11 7 12
REMARK SMILES IDX 9 13 5 14 6 15 78 16 10 17 11 18 12 19 13 20 14 21 21 22
REMARK SMILES IDX 22 23 23 24 24 25 25 26 77 27 26 28 76 29 27 30 28 31 29 32
REMARK SMILES IDX 70 33 30 34 75 35 69 36 71 37 31 38 74 39 68 40 67 41 32 43
REMARK SMILES IDX 58 44 41 45 57 46 42 47 45 48 56 49 72 50 43 51 44 52 55 54
REMARK SMILES IDX 73 55 46 56 33 57 34 58 39 59 35 60 36 61 38 62 40 63 37 64
REMARK SMILES IDX 59 65 60 66 65 67 61 68 62 69 64 70 66 71 63 72 47 73 48 74
REMARK SMILES IDX 53 75 49 76 50 77 52 78 54 79 51 80
REMARK H PARENT 71 42 45 53
REMARK Flexibility Score: inf
ROOT
ATOM      1  C   UNL A   1      36.598  20.457  25.001  1.00  0.00     0.275 C 
ENDROOT
BRANCH   1   2
ATOM      2  C   UNL A   1      35.257  21.189  24.928  1.00  0.00     0.275 C 
BRANCH   2   3
ATOM      3  O   UNL A   1      35.436  22.623  24.932  1.00  0.00    -0.459 OA
BRANCH   3   4
ATOM      4  C   UNL A   1      35.256  23.234  23.739  1.00  0.00     0.338 C 
ATOM      5  O   UNL A   1      35.803  22.950  22.684  1.00  0.00    -0.246 OA
BRANCH   4   6
ATOM      6  C   UNL A   1      34.263  24.318  23.852  1.00  0.00     0.087 C 
ATOM      7  C   UNL A   1      29.947  27.092  23.802  1.00  0.00     0.048 C 
ATOM      8  C   UNL A   1      31.241  27.127  24.562  1.00  0.00    -0.007 A 
ATOM      9  C   UNL A   1      31.431  28.082  25.574  1.00  0.00     0.027 A 
ATOM     10  C   UNL A   1      32.270  26.218  24.273  1.00  0.00     0.131 A 
ATOM     11  C   UNL A   1      32.630  28.130  26.283  1.00  0.00     0.042 A 
ATOM     12  C   UNL A   1      33.460  26.263  25.002  1.00  0.00     0.019 A 
ATOM     13  O   UNL A   1      32.059  25.324  23.256  1.00  0.00    -0.475 OA
ATOM     14  Cl  UNL A   1      32.849  29.300  27.525  1.00  0.00    -0.084 Cl
ATOM     15  C   UNL A   1      33.646  27.226  26.001  1.00  0.00     0.032 A 
ATOM     16  C   UNL A   1      34.493  25.280  24.751  1.00  0.00     0.027 C 
ATOM     17  C   UNL A   1      32.981  24.212  23.079  1.00  0.00     0.316 C 
BRANCH  17  18
ATOM     18  C   UNL A   1      32.246  22.901  23.399  1.00  0.00     0.430 C 
ATOM     19  F   UNL A   1      30.936  22.974  23.063  1.00  0.00    -0.167 F 
ATOM     20  F   UNL A   1      32.765  21.858  22.706  1.00  0.00    -0.167 F 
ATOM     21  F   UNL A   1      32.312  22.587  24.712  1.00  0.00    -0.167 F 
ENDBRANCH  17  18
ENDBRANCH   4   6
ENDBRANCH   3   4
ENDBRANCH   2   3
ENDBRANCH   1   2
BRANCH   1  22
ATOM     22  O   UNL A   1      37.687  21.399  24.987  1.00  0.00    -0.458 OA
BRANCH  22  23
ATOM     23  C   UNL A   1      38.753  21.053  25.742  1.00  0.00     0.338 C 
ATOM     24  O   UNL A   1      39.301  19.966  25.802  1.00  0.00    -0.246 OA
BRANCH  23  25
ATOM     25  C   UNL A   1      39.271  22.225  26.465  1.00  0.00     0.060 A 
ATOM     26  C   UNL A   1      38.737  23.470  26.165  1.00  0.00     0.016 A 
ATOM     27  C   UNL A   1      40.417  22.130  27.248  1.00  0.00     0.016 A 
ATOM     28  C   UNL A   1      39.443  24.624  26.482  1.00  0.00     0.010 A 
ATOM     29  C   UNL A   1      41.034  23.300  27.712  1.00  0.00     0.010 A 
ATOM     30  C   UNL A   1      40.590  24.566  27.284  1.00  0.00    -0.014 A 
BRANCH  30  31
ATOM     31  C   UNL A   1      41.326  25.816  27.643  1.00  0.00     0.031 A 
ATOM     32  C   UNL A   1      40.670  26.871  28.502  1.00  0.00     0.074 A 
ATOM     33  C   UNL A   1      42.597  26.003  27.229  1.00  0.00     0.049 A 
ATOM     34  N   UNL A   1      41.066  28.093  28.758  1.00  0.00    -0.248 NA
ATOM     35  C   UNL A   1      39.395  26.513  29.145  1.00  0.00     0.031 C 
ATOM     36  C   UNL A   1      43.387  25.050  26.445  1.00  0.00     0.029 A 
ATOM     37  N   UNL A   1      43.462  27.054  27.424  1.00  0.00    -0.354 N 
ATOM     38  C   UNL A   1      40.068  28.663  29.540  1.00  0.00     0.074 A 
ATOM     39  C   UNL A   1      39.039  27.660  29.708  1.00  0.00     0.031 C 
ATOM     40  C   UNL A   1      44.629  25.524  26.285  1.00  0.00     0.029 A 
ATOM     41  C   UNL A   1      44.694  26.868  26.841  1.00  0.00     0.049 A 
ATOM     42  H   UNL A   1      43.222  27.862  27.932  1.00  0.00     0.167 HD
ATOM     43  C   UNL A   1      40.017  29.908  30.073  1.00  0.00     0.037 A 
ATOM     44  C   UNL A   1      45.747  27.699  26.715  1.00  0.00     0.037 A 
ATOM     45  C   UNL A   1      41.073  30.881  29.954  1.00  0.00     0.049 A 
ATOM     46  C   UNL A   1      45.641  29.094  27.257  1.00  0.00     0.074 A 
ATOM     47  C   UNL A   1      41.117  32.170  30.461  1.00  0.00     0.029 A 
ATOM     48  N   UNL A   1      42.279  30.666  29.303  1.00  0.00    -0.354 N 
ATOM     49  N   UNL A   1      44.659  29.646  27.925  1.00  0.00    -0.248 NA
ATOM     50  C   UNL A   1      46.776  29.992  27.000  1.00  0.00     0.031 C 
ATOM     51  C   UNL A   1      42.332  32.748  30.081  1.00  0.00     0.029 A 
ATOM     52  C   UNL A   1      43.065  31.804  29.381  1.00  0.00     0.049 A 
ATOM     53  H   UNL A   1      42.537  29.830  28.854  1.00  0.00     0.167 HD
ATOM     54  C   UNL A   1      45.059  30.950  28.181  1.00  0.00     0.074 A 
ATOM     55  C   UNL A   1      46.384  31.100  27.614  1.00  0.00     0.031 C 
ATOM     56  C   UNL A   1      44.385  31.936  28.819  1.00  0.00     0.037 A 
BRANCH  43  57
ATOM     57  C   UNL A   1      38.777  30.310  30.820  1.00  0.00     0.057 A 
ATOM     58  C   UNL A   1      37.692  30.927  30.185  1.00  0.00     0.134 A 
ATOM     59  C   UNL A   1      38.637  30.003  32.181  1.00  0.00     0.134 A 
ATOM     60  F   UNL A   1      37.762  31.258  28.887  1.00  0.00    -0.206 F 
ATOM     61  C   UNL A   1      36.519  31.234  30.879  1.00  0.00     0.040 A 
ATOM     62  C   UNL A   1      37.460  30.281  32.878  1.00  0.00     0.040 A 
ATOM     63  F   UNL A   1      39.634  29.403  32.850  1.00  0.00    -0.206 F 
ATOM     64  C   UNL A   1      36.397  30.901  32.227  1.00  0.00     0.006 A 
ENDBRANCH  43  57
BRANCH  44  65
ATOM     65  C   UNL A   1      46.969  27.241  26.005  1.00  0.00     0.057 A 
ATOM     66  C   UNL A   1      48.011  26.612  26.696  1.00  0.00     0.134 A 
ATOM     67  C   UNL A   1      47.119  27.398  24.621  1.00  0.00     0.134 A 
ATOM     68  F   UNL A   1      47.942  26.455  28.026  1.00  0.00    -0.206 F 
ATOM     69  C   UNL A   1      49.156  26.156  26.037  1.00  0.00     0.040 A 
ATOM     70  C   UNL A   1      48.241  26.918  23.945  1.00  0.00     0.040 A 
ATOM     71  F   UNL A   1      46.156  27.991  23.898  1.00  0.00    -0.206 F 
ATOM     72  C   UNL A   1      49.266  26.298  24.655  1.00  0.00     0.006 A 
ENDBRANCH  44  65
BRANCH  56  73
ATOM     73  C   UNL A   1      45.074  33.259  28.964  1.00  0.00     0.057 A 
ATOM     74  C   UNL A   1      44.881  34.294  28.041  1.00  0.00     0.134 A 
ATOM     75  C   UNL A   1      45.887  33.523  30.074  1.00  0.00     0.134 A 
ATOM     76  F   UNL A   1      44.125  34.099  26.950  1.00  0.00    -0.206 F 
ATOM     77  C   UNL A   1      45.483  35.541  28.209  1.00  0.00     0.040 A 
ATOM     78  C   UNL A   1      46.473  34.774  30.267  1.00  0.00     0.040 A 
ATOM     79  F   UNL A   1      46.105  32.576  31.000  1.00  0.00    -0.206 F 
ATOM     80  C   UNL A   1      46.274  35.787  29.331  1.00  0.00     0.006 A 
ENDBRANCH  56  73
ENDBRANCH  30  31
ENDBRANCH  23  25
ENDBRANCH  22  23
ENDBRANCH   1  22
TORSDOF 12
ENDMDL
MODEL 3
REMARK VINA RESULT:     -11.9      4.043      8.765
REMARK SMILES Cc1cc(Cl)cc2c1O[C@H](C(F)(F)F)C(C(=O)OCCOC(=O)c1ccc(-c3c4nc(c(-c5c(F)cccc5F)c5ccc([nH]5)c(-c5c(F)cccc5F)c5nc(c(-c6c(F)cccc6F)c6ccc3[nH]6)C=C5)C=C4)cc1)=C2
REMARK SMILES IDX 20 1 19 2 18 3 16 4 17 5 15 6 1 7 2 8 3 9 8 10 4 11 7 12
REMARK SMILES IDX 9 13 5 14 6 15 78 16 10 17 11 18 12 19 13 20 14 21 21 22
REMARK SMILES IDX 22 23 23 24 24 25 25 26 77 27 26 28 76 29 27 30 28 31 29 32
REMARK SMILES IDX 70 33 30 34 75 35 69 36 71 37 31 38 74 39 68 40 67 41 32 43
REMARK SMILES IDX 58 44 41 45 57 46 42 47 45 48 56 49 72 50 43 51 44 52 55 54
REMARK SMILES IDX 73 55 46 56 33 57 34 58 39 59 35 60 36 61 38 62 40 63 37 64
REMARK SMILES IDX 59 65 60 66 65 67 61 68 62 69 64 70 66 71 63 72 47 73 48 74
REMARK SMILES IDX 53 75 49 76 50 77 52 78 54 79 51 80
REMARK H PARENT 71 42 45 53
REMARK Flexibility Score: inf
ROOT
ATOM      1  C   UNL A   1      36.560  20.412  25.002  1.00  0.00     0.275 C 
ENDROOT
BRANCH   1   2
ATOM      2  C   UNL A   1      35.248  21.153  24.741  1.00  0.00     0.275 C 
BRANCH   2   3
ATOM      3  O   UNL A   1      35.436  22.586  24.760  1.00  0.00    -0.459 OA
BRANCH   3   4
ATOM      4  C   UNL A   1      35.212  23.217  23.585  1.00  0.00     0.338 C 
ATOM      5  O   UNL A   1      35.723  22.953  22.507  1.00  0.00    -0.246 OA
BRANCH   4   6
ATOM      6  C   UNL A   1      34.219  24.293  23.751  1.00  0.00     0.087 C 
ATOM      7  C   UNL A   1      29.898  27.058  23.860  1.00  0.00     0.048 C 
ATOM      8  C   UNL A   1      31.202  27.067  24.604  1.00  0.00    -0.007 A 
ATOM      9  C   UNL A   1      31.403  27.984  25.649  1.00  0.00     0.027 A 
ATOM     10  C   UNL A   1      32.229  26.172  24.268  1.00  0.00     0.131 A 
ATOM     11  C   UNL A   1      32.611  28.007  26.345  1.00  0.00     0.042 A 
ATOM     12  C   UNL A   1      33.428  26.192  24.984  1.00  0.00     0.019 A 
ATOM     13  O   UNL A   1      32.006  25.317  23.222  1.00  0.00    -0.475 OA
ATOM     14  Cl  UNL A   1      32.844  29.130  27.627  1.00  0.00    -0.084 Cl
ATOM     15  C   UNL A   1      33.625  27.117  26.016  1.00  0.00     0.032 A 
ATOM     16  C   UNL A   1      34.458  25.221  24.683  1.00  0.00     0.027 C 
ATOM     17  C   UNL A   1      32.928  24.214  22.991  1.00  0.00     0.316 C 
BRANCH  17  18
ATOM     18  C   UNL A   1      32.199  22.890  23.270  1.00  0.00     0.430 C 
ATOM     19  F   UNL A   1      32.736  21.870  22.558  1.00  0.00    -0.167 F 
ATOM     20  F   UNL A   1      32.289  22.539  24.576  1.00  0.00    -0.167 F 
ATOM     21  F   UNL A   1      30.885  22.956  22.958  1.00  0.00    -0.167 F 
ENDBRANCH  17  18
ENDBRANCH   4   6
ENDBRANCH   3   4
ENDBRANCH   2   3
ENDBRANCH   1   2
BRANCH   1  22
ATOM     22  O   UNL A   1      37.675  21.322  24.933  1.00  0.00    -0.458 OA
BRANCH  22  23
ATOM     23  C   UNL A   1      38.740  20.980  25.690  1.00  0.00     0.338 C 
ATOM     24  O   UNL A   1      39.295  19.896  25.748  1.00  0.00    -0.246 OA
BRANCH  23  25
ATOM     25  C   UNL A   1      39.249  22.153  26.417  1.00  0.00     0.060 A 
ATOM     26  C   UNL A   1      38.696  23.394  26.132  1.00  0.00     0.016 A 
ATOM     27  C   UNL A   1      40.403  22.068  27.190  1.00  0.00     0.016 A 
ATOM     28  C   UNL A   1      39.389  24.555  26.452  1.00  0.00     0.010 A 
ATOM     29  C   UNL A   1      41.008  23.242  27.657  1.00  0.00     0.010 A 
ATOM     30  C   UNL A   1      40.544  24.505  27.243  1.00  0.00    -0.014 A 
BRANCH  30  31
ATOM     31  C   UNL A   1      41.266  25.763  27.606  1.00  0.00     0.031 A 
ATOM     32  C   UNL A   1      40.598  26.809  28.465  1.00  0.00     0.074 A 
ATOM     33  C   UNL A   1      42.536  25.964  27.194  1.00  0.00     0.049 A 
ATOM     34  N   UNL A   1      40.981  28.035  28.724  1.00  0.00    -0.248 NA
ATOM     35  C   UNL A   1      39.326  26.437  29.106  1.00  0.00     0.031 C 
ATOM     36  C   UNL A   1      43.337  25.020  26.410  1.00  0.00     0.029 A 
ATOM     37  N   UNL A   1      43.390  27.023  27.393  1.00  0.00    -0.354 N 
ATOM     38  C   UNL A   1      39.976  28.594  29.506  1.00  0.00     0.074 A 
ATOM     39  C   UNL A   1      38.958  27.579  29.671  1.00  0.00     0.031 C 
ATOM     40  C   UNL A   1      44.574  25.508  26.252  1.00  0.00     0.029 A 
ATOM     41  C   UNL A   1      44.625  26.851  26.811  1.00  0.00     0.049 A 
ATOM     42  H   UNL A   1      43.140  27.828  27.901  1.00  0.00     0.167 HD
ATOM     43  C   UNL A   1      39.912  29.837  30.041  1.00  0.00     0.037 A 
ATOM     44  C   UNL A   1      45.669  27.692  26.688  1.00  0.00     0.037 A 
ATOM     45  C   UNL A   1      40.958  30.821  29.925  1.00  0.00     0.049 A 
ATOM     46  C   UNL A   1      45.548  29.086  27.231  1.00  0.00     0.074 A 
ATOM     47  C   UNL A   1      40.988  32.109  30.434  1.00  0.00     0.029 A 
ATOM     48  N   UNL A   1      42.166  30.620  29.275  1.00  0.00    -0.354 N 
ATOM     49  N   UNL A   1      44.559  29.627  27.899  1.00  0.00    -0.248 NA
ATOM     50  C   UNL A   1      46.674  29.995  26.978  1.00  0.00     0.031 C 
ATOM     51  C   UNL A   1      42.197  32.700  30.057  1.00  0.00     0.029 A 
ATOM     52  C   UNL A   1      42.941  31.765  29.356  1.00  0.00     0.049 A 
ATOM     53  H   UNL A   1      42.434  29.787  28.825  1.00  0.00     0.167 HD
ATOM     54  C   UNL A   1      44.945  30.934  28.158  1.00  0.00     0.074 A 
ATOM     55  C   UNL A   1      46.270  31.099  27.594  1.00  0.00     0.031 C 
ATOM     56  C   UNL A   1      44.261  31.912  28.797  1.00  0.00     0.037 A 
BRANCH  43  57
ATOM     57  C   UNL A   1      38.666  30.224  30.786  1.00  0.00     0.057 A 
ATOM     58  C   UNL A   1      38.527  30.016  32.164  1.00  0.00     0.134 A 
ATOM     59  C   UNL A   1      37.622  30.888  30.127  1.00  0.00     0.134 A 
ATOM     60  F   UNL A   1      39.483  29.378  32.855  1.00  0.00    -0.206 F 
ATOM     61  C   UNL A   1      37.390  30.442  32.855  1.00  0.00     0.040 A 
ATOM     62  C   UNL A   1      36.493  31.342  30.811  1.00  0.00     0.040 A 
ATOM     63  F   UNL A   1      37.693  31.129  28.808  1.00  0.00    -0.206 F 
ATOM     64  C   UNL A   1      36.374  31.117  32.181  1.00  0.00     0.006 A 
ENDBRANCH  43  57
BRANCH  44  65
ATOM     65  C   UNL A   1      46.897  27.249  25.979  1.00  0.00     0.057 A 
ATOM     66  C   UNL A   1      47.942  26.623  26.669  1.00  0.00     0.134 A 
ATOM     67  C   UNL A   1      47.050  27.416  24.596  1.00  0.00     0.134 A 
ATOM     68  F   UNL A   1      47.870  26.457  27.998  1.00  0.00    -0.206 F 
ATOM     69  C   UNL A   1      49.092  26.180  26.011  1.00  0.00     0.040 A 
ATOM     70  C   UNL A   1      48.178  26.949  23.920  1.00  0.00     0.040 A 
ATOM     71  F   UNL A   1      46.085  28.006  23.874  1.00  0.00    -0.206 F 
ATOM     72  C   UNL A   1      49.206  26.332  24.630  1.00  0.00     0.006 A 
ENDBRANCH  44  65
BRANCH  56  73
ATOM     73  C   UNL A   1      44.935  33.242  28.946  1.00  0.00     0.057 A 
ATOM     74  C   UNL A   1      44.734  34.276  28.024  1.00  0.00     0.134 A 
ATOM     75  C   UNL A   1      45.744  33.513  30.058  1.00  0.00     0.134 A 
ATOM     76  F   UNL A   1      43.981  34.075  26.931  1.00  0.00    -0.206 F 
ATOM     77  C   UNL A   1      45.323  35.529  28.195  1.00  0.00     0.040 A 
ATOM     78  C   UNL A   1      46.317  34.769  30.253  1.00  0.00     0.040 A 
ATOM     79  F   UNL A   1      45.970  32.566  30.982  1.00  0.00    -0.206 F 
ATOM     80  C   UNL A   1      46.108  35.781  29.319  1.00  0.00     0.006 A 
ENDBRANCH  56  73
ENDBRANCH  30  31
ENDBRANCH  23  25
ENDBRANCH  22  23
ENDBRANCH   1  22
TORSDOF 12
ENDMDL
