MODEL 1
REMARK VINA RESULT:     -11.4      0.000      0.000
REMARK SMILES Cc1ccc(/C=C2/SC(=O)N(CC(=O)OCCOC(=O)c3ccc(-c4c5nc(c(-c6c(F)cccc6F)c6ccc([nH]6)c(-c6c(F)cccc6F)c6nc(c(-c7c(F)cccc7F)c7ccc4[nH]7)C=C6)C=C5)cc3)C2=O)cc1
REMARK SMILES IDX 16 1 15 2 13 3 14 4 12 5 11 6 6 7 7 8 8 9 75 10 9 11 76 12
REMARK SMILES IDX 10 13 5 14 1 15 2 16 3 17 78 18 4 19 77 20 17 21 18 22 19 23
REMARK SMILES IDX 20 24 21 25 22 26 74 27 23 28 73 29 24 30 25 31 26 32 67 33
REMARK SMILES IDX 27 34 72 35 66 36 68 37 28 38 71 39 65 40 64 41 29 43 55 44
REMARK SMILES IDX 38 45 54 46 39 47 42 48 53 49 69 50 40 51 41 52 52 54 70 55
REMARK SMILES IDX 43 56 30 57 31 58 36 59 32 60 33 61 35 62 37 63 34 64 56 65
REMARK SMILES IDX 57 66 62 67 58 68 59 69 61 70 63 71 60 72 44 73 45 74 50 75
REMARK SMILES IDX 46 76 47 77 49 78 51 79 48 80
REMARK H PARENT 68 42 42 53
REMARK Flexibility Score: inf
ROOT
ATOM      1  C   UNL A   1      35.700  22.951  25.640  1.00  0.00     0.274 C 
ENDROOT
BRANCH   1   2
ATOM      2  O   UNL A   1      34.688  23.299  26.586  1.00  0.00    -0.461 OA
BRANCH   2   3
ATOM      3  C   UNL A   1      33.815  22.336  26.942  1.00  0.00     0.326 C 
ATOM      4  O   UNL A   1      34.106  21.152  27.041  1.00  0.00    -0.250 OA
BRANCH   3   5
ATOM      5  C   UNL A   1      32.435  22.951  27.178  1.00  0.00     0.252 C 
BRANCH   5   6
ATOM      6  N   UNL A   1      32.089  23.612  25.944  1.00  0.00    -0.257 N 
ATOM      7  C   UNL A   1      32.563  26.653  24.145  1.00  0.00     0.029 C 
ATOM      8  C   UNL A   1      32.134  25.443  24.525  1.00  0.00     0.083 C 
ATOM      9  S   UNL A   1      31.896  24.107  23.450  1.00  0.00    -0.022 SA
ATOM     10  C   UNL A   1      31.927  24.974  25.913  1.00  0.00     0.268 C 
ATOM     11  C   UNL A   1      31.921  22.952  24.772  1.00  0.00     0.294 C 
ATOM     12  O   UNL A   1      31.672  25.669  26.878  1.00  0.00    -0.268 OA
ATOM     13  O   UNL A   1      31.777  21.744  24.624  1.00  0.00    -0.261 OA
BRANCH   7  14
ATOM     14  C   UNL A   1      32.854  27.797  25.021  1.00  0.00    -0.024 A 
ATOM     15  C   UNL A   1      33.458  31.193  27.625  1.00  0.00     0.044 C 
ATOM     16  C   UNL A   1      33.279  30.032  26.692  1.00  0.00    -0.051 A 
ATOM     17  C   UNL A   1      32.126  29.939  25.908  1.00  0.00     0.004 A 
ATOM     18  C   UNL A   1      34.236  29.016  26.606  1.00  0.00     0.004 A 
ATOM     19  C   UNL A   1      31.919  28.835  25.078  1.00  0.00     0.008 A 
ATOM     20  C   UNL A   1      34.029  27.909  25.773  1.00  0.00     0.008 A 
ENDBRANCH   7  14
ENDBRANCH   5   6
ENDBRANCH   3   5
ENDBRANCH   2   3
ENDBRANCH   1   2
BRANCH   1  21
ATOM     21  C   UNL A   1      37.102  23.608  25.781  1.00  0.00     0.275 C 
BRANCH  21  22
ATOM     22  O   UNL A   1      38.375  22.934  26.132  1.00  0.00    -0.458 OA
BRANCH  22  23
ATOM     23  C   UNL A   1      39.645  23.234  26.520  1.00  0.00     0.338 C 
ATOM     24  O   UNL A   1      40.551  22.415  26.566  1.00  0.00    -0.246 OA
BRANCH  23  25
ATOM     25  C   UNL A   1      39.908  24.612  26.900  1.00  0.00     0.060 A 
ATOM     26  C   UNL A   1      40.531  25.570  26.075  1.00  0.00     0.016 A 
ATOM     27  C   UNL A   1      39.446  24.941  28.142  1.00  0.00     0.016 A 
ATOM     28  C   UNL A   1      40.613  26.891  26.517  1.00  0.00     0.010 A 
ATOM     29  C   UNL A   1      39.171  26.247  28.367  1.00  0.00     0.010 A 
ATOM     30  C   UNL A   1      39.911  27.205  27.674  1.00  0.00    -0.014 A 
BRANCH  30  31
ATOM     31  C   UNL A   1      40.061  28.371  28.522  1.00  0.00     0.031 A 
ATOM     32  C   UNL A   1      39.011  29.377  28.606  1.00  0.00     0.074 A 
ATOM     33  C   UNL A   1      41.044  28.179  29.440  1.00  0.00     0.049 A 
ATOM     34  N   UNL A   1      39.222  30.597  28.938  1.00  0.00    -0.248 NA
ATOM     35  C   UNL A   1      37.607  29.090  28.327  1.00  0.00     0.031 C 
ATOM     36  C   UNL A   1      41.317  28.756  30.738  1.00  0.00     0.029 A 
ATOM     37  N   UNL A   1      42.084  27.241  29.297  1.00  0.00    -0.354 N 
ATOM     38  C   UNL A   1      38.000  31.107  29.325  1.00  0.00     0.074 A 
ATOM     39  C   UNL A   1      37.020  30.221  28.743  1.00  0.00     0.031 C 
ATOM     40  C   UNL A   1      42.591  28.449  31.077  1.00  0.00     0.029 A 
ATOM     41  C   UNL A   1      43.199  27.740  29.953  1.00  0.00     0.049 A 
ATOM     42  H   UNL A   1      42.030  26.384  28.817  1.00  0.00     0.167 HD
ATOM     43  C   UNL A   1      37.973  32.057  30.306  1.00  0.00     0.037 A 
ATOM     44  C   UNL A   1      44.206  28.149  29.128  1.00  0.00     0.037 A 
ATOM     45  C   UNL A   1      39.330  32.227  30.849  1.00  0.00     0.049 A 
ATOM     46  C   UNL A   1      44.256  29.657  29.121  1.00  0.00     0.074 A 
ATOM     47  C   UNL A   1      39.933  31.734  31.995  1.00  0.00     0.029 A 
ATOM     48  N   UNL A   1      40.363  32.643  30.017  1.00  0.00    -0.354 N 
ATOM     49  N   UNL A   1      43.250  30.427  29.440  1.00  0.00    -0.248 NA
ATOM     50  C   UNL A   1      45.471  30.407  28.848  1.00  0.00     0.031 C 
ATOM     51  C   UNL A   1      41.342  31.814  31.822  1.00  0.00     0.029 A 
ATOM     52  C   UNL A   1      41.597  32.349  30.569  1.00  0.00     0.049 A 
ATOM     53  H   UNL A   1      40.234  33.089  29.148  1.00  0.00     0.167 HD
ATOM     54  C   UNL A   1      43.661  31.729  29.501  1.00  0.00     0.074 A 
ATOM     55  C   UNL A   1      45.063  31.659  29.119  1.00  0.00     0.031 C 
ATOM     56  C   UNL A   1      42.821  32.742  29.876  1.00  0.00     0.037 A 
BRANCH  43  57
ATOM     57  C   UNL A   1      36.738  32.588  31.005  1.00  0.00     0.057 A 
ATOM     58  C   UNL A   1      35.940  33.585  30.403  1.00  0.00     0.134 A 
ATOM     59  C   UNL A   1      36.249  32.139  32.246  1.00  0.00     0.134 A 
ATOM     60  F   UNL A   1      36.208  34.063  29.182  1.00  0.00    -0.206 F 
ATOM     61  C   UNL A   1      34.804  34.137  31.011  1.00  0.00     0.040 A 
ATOM     62  C   UNL A   1      35.131  32.705  32.882  1.00  0.00     0.040 A 
ATOM     63  F   UNL A   1      36.788  31.089  32.878  1.00  0.00    -0.206 F 
ATOM     64  C   UNL A   1      34.404  33.712  32.266  1.00  0.00     0.006 A 
ENDBRANCH  43  57
BRANCH  44  65
ATOM     65  C   UNL A   1      44.365  27.229  27.936  1.00  0.00     0.057 A 
ATOM     66  C   UNL A   1      44.020  27.727  26.655  1.00  0.00     0.134 A 
ATOM     67  C   UNL A   1      45.175  26.086  27.946  1.00  0.00     0.134 A 
ATOM     68  F   UNL A   1      43.265  28.834  26.546  1.00  0.00    -0.206 F 
ATOM     69  C   UNL A   1      44.544  27.200  25.467  1.00  0.00     0.040 A 
ATOM     70  C   UNL A   1      45.681  25.530  26.756  1.00  0.00     0.040 A 
ATOM     71  F   UNL A   1      45.578  25.545  29.104  1.00  0.00    -0.206 F 
ATOM     72  C   UNL A   1      45.399  26.108  25.518  1.00  0.00     0.006 A 
ENDBRANCH  44  65
BRANCH  56  73
ATOM     73  C   UNL A   1      43.069  34.225  29.698  1.00  0.00     0.057 A 
ATOM     74  C   UNL A   1      43.284  35.126  30.747  1.00  0.00     0.134 A 
ATOM     75  C   UNL A   1      43.264  34.771  28.403  1.00  0.00     0.134 A 
ATOM     76  F   UNL A   1      43.275  34.744  32.029  1.00  0.00    -0.206 F 
ATOM     77  C   UNL A   1      43.597  36.474  30.530  1.00  0.00     0.040 A 
ATOM     78  C   UNL A   1      43.666  36.088  28.179  1.00  0.00     0.040 A 
ATOM     79  F   UNL A   1      43.103  34.048  27.284  1.00  0.00    -0.206 F 
ATOM     80  C   UNL A   1      43.810  36.954  29.245  1.00  0.00     0.006 A 
ENDBRANCH  56  73
ENDBRANCH  30  31
ENDBRANCH  23  25
ENDBRANCH  22  23
ENDBRANCH  21  22
ENDBRANCH   1  21
TORSDOF 13
ENDMDL
MODEL 2
REMARK VINA RESULT:     -11.4      2.846      8.245
REMARK SMILES Cc1ccc(/C=C2/SC(=O)N(CC(=O)OCCOC(=O)c3ccc(-c4c5nc(c(-c6c(F)cccc6F)c6ccc([nH]6)c(-c6c(F)cccc6F)c6nc(c(-c7c(F)cccc7F)c7ccc4[nH]7)C=C6)C=C5)cc3)C2=O)cc1
REMARK SMILES IDX 16 1 15 2 13 3 14 4 12 5 11 6 6 7 7 8 8 9 75 10 9 11 76 12
REMARK SMILES IDX 10 13 5 14 1 15 2 16 3 17 78 18 4 19 77 20 17 21 18 22 19 23
REMARK SMILES IDX 20 24 21 25 22 26 74 27 23 28 73 29 24 30 25 31 26 32 67 33
REMARK SMILES IDX 27 34 72 35 66 36 68 37 28 38 71 39 65 40 64 41 29 43 55 44
REMARK SMILES IDX 38 45 54 46 39 47 42 48 53 49 69 50 40 51 41 52 52 54 70 55
REMARK SMILES IDX 43 56 30 57 31 58 36 59 32 60 33 61 35 62 37 63 34 64 56 65
REMARK SMILES IDX 57 66 62 67 58 68 59 69 61 70 63 71 60 72 44 73 45 74 50 75
REMARK SMILES IDX 46 76 47 77 49 78 51 79 48 80
REMARK H PARENT 68 42 42 53
REMARK Flexibility Score: inf
ROOT
ATOM      1  C   UNL A   1      31.837  28.935  25.642  1.00  0.00     0.274 C 
ENDROOT
BRANCH   1   2
ATOM      2  O   UNL A   1      32.278  29.285  24.330  1.00  0.00    -0.461 OA
BRANCH   2   3
ATOM      3  C   UNL A   1      33.330  28.607  23.829  1.00  0.00     0.326 C 
ATOM      4  O   UNL A   1      34.394  28.466  24.414  1.00  0.00    -0.250 OA
BRANCH   3   5
ATOM      5  C   UNL A   1      32.984  28.072  22.438  1.00  0.00     0.252 C 
BRANCH   5   6
ATOM      6  N   UNL A   1      32.291  26.828  22.662  1.00  0.00    -0.257 N 
ATOM      7  C   UNL A   1      32.564  23.719  24.384  1.00  0.00     0.029 C 
ATOM      8  C   UNL A   1      32.148  24.707  23.582  1.00  0.00     0.083 C 
ATOM      9  S   UNL A   1      30.491  25.170  23.381  1.00  0.00    -0.022 SA
ATOM     10  C   UNL A   1      32.999  25.668  22.847  1.00  0.00     0.268 C 
ATOM     11  C   UNL A   1      30.940  26.732  22.717  1.00  0.00     0.294 C 
ATOM     12  O   UNL A   1      34.143  25.481  22.477  1.00  0.00    -0.268 OA
ATOM     13  O   UNL A   1      30.129  27.572  22.344  1.00  0.00    -0.261 OA
BRANCH   7  14
ATOM     14  C   UNL A   1      33.957  23.333  24.650  1.00  0.00    -0.024 A 
ATOM     15  C   UNL A   1      38.018  22.265  25.676  1.00  0.00     0.044 C 
ATOM     16  C   UNL A   1      36.625  22.659  25.283  1.00  0.00    -0.051 A 
ATOM     17  C   UNL A   1      35.955  23.656  25.996  1.00  0.00     0.004 A 
ATOM     18  C   UNL A   1      35.963  22.026  24.226  1.00  0.00     0.004 A 
ATOM     19  C   UNL A   1      34.636  23.992  25.680  1.00  0.00     0.008 A 
ATOM     20  C   UNL A   1      34.641  22.364  23.907  1.00  0.00     0.008 A 
ENDBRANCH   7  14
ENDBRANCH   5   6
ENDBRANCH   3   5
ENDBRANCH   2   3
ENDBRANCH   1   2
BRANCH   1  21
ATOM     21  C   UNL A   1      32.128  29.923  26.807  1.00  0.00     0.275 C 
BRANCH  21  22
ATOM     22  O   UNL A   1      33.432  30.533  27.159  1.00  0.00    -0.458 OA
BRANCH  22  23
ATOM     23  C   UNL A   1      33.939  31.626  27.793  1.00  0.00     0.338 C 
ATOM     24  O   UNL A   1      33.290  32.637  28.025  1.00  0.00    -0.246 OA
BRANCH  23  25
ATOM     25  C   UNL A   1      35.332  31.564  28.201  1.00  0.00     0.060 A 
ATOM     26  C   UNL A   1      36.221  32.658  28.200  1.00  0.00     0.016 A 
ATOM     27  C   UNL A   1      35.723  30.335  28.651  1.00  0.00     0.016 A 
ATOM     28  C   UNL A   1      37.499  32.489  28.734  1.00  0.00     0.010 A 
ATOM     29  C   UNL A   1      36.771  30.301  29.506  1.00  0.00     0.010 A 
ATOM     30  C   UNL A   1      37.746  31.291  29.392  1.00  0.00    -0.014 A 
BRANCH  30  31
ATOM     31  C   UNL A   1      39.027  30.718  29.754  1.00  0.00     0.031 A 
ATOM     32  C   UNL A   1      39.573  29.580  29.026  1.00  0.00     0.074 A 
ATOM     33  C   UNL A   1      39.745  31.581  30.518  1.00  0.00     0.049 A 
ATOM     34  N   UNL A   1      40.418  28.756  29.525  1.00  0.00    -0.248 NA
ATOM     35  C   UNL A   1      39.213  29.270  27.645  1.00  0.00     0.031 C 
ATOM     36  C   UNL A   1      41.160  31.741  30.775  1.00  0.00     0.029 A 
ATOM     37  N   UNL A   1      39.180  32.632  31.264  1.00  0.00    -0.354 N 
ATOM     38  C   UNL A   1      41.011  28.117  28.456  1.00  0.00     0.074 A 
ATOM     39  C   UNL A   1      40.104  28.313  27.350  1.00  0.00     0.031 C 
ATOM     40  C   UNL A   1      41.306  32.539  31.858  1.00  0.00     0.029 A 
ATOM     41  C   UNL A   1      39.975  32.837  32.381  1.00  0.00     0.049 A 
ATOM     42  H   UNL A   1      38.364  33.133  31.034  1.00  0.00     0.167 HD
ATOM     43  C   UNL A   1      42.315  27.731  28.572  1.00  0.00     0.037 A 
ATOM     44  C   UNL A   1      39.410  32.442  33.558  1.00  0.00     0.037 A 
ATOM     45  C   UNL A   1      42.858  28.239  29.841  1.00  0.00     0.049 A 
ATOM     46  C   UNL A   1      40.086  31.178  34.030  1.00  0.00     0.074 A 
ATOM     47  C   UNL A   1      43.648  29.341  30.131  1.00  0.00     0.029 A 
ATOM     48  N   UNL A   1      42.290  27.843  31.047  1.00  0.00    -0.354 N 
ATOM     49  N   UNL A   1      40.732  30.355  33.247  1.00  0.00    -0.248 NA
ATOM     50  C   UNL A   1      40.164  30.797  35.430  1.00  0.00     0.031 C 
ATOM     51  C   UNL A   1      43.510  29.630  31.517  1.00  0.00     0.029 A 
ATOM     52  C   UNL A   1      42.632  28.711  32.068  1.00  0.00     0.049 A 
ATOM     53  H   UNL A   1      41.719  27.048  31.159  1.00  0.00     0.167 HD
ATOM     54  C   UNL A   1      41.370  29.406  33.995  1.00  0.00     0.074 A 
ATOM     55  C   UNL A   1      40.979  29.730  35.358  1.00  0.00     0.031 C 
ATOM     56  C   UNL A   1      42.175  28.453  33.431  1.00  0.00     0.037 A 
BRANCH  43  57
ATOM     57  C   UNL A   1      43.197  27.205  27.456  1.00  0.00     0.057 A 
ATOM     58  C   UNL A   1      43.338  25.818  27.240  1.00  0.00     0.134 A 
ATOM     59  C   UNL A   1      43.899  28.000  26.532  1.00  0.00     0.134 A 
ATOM     60  F   UNL A   1      42.669  24.917  27.971  1.00  0.00    -0.206 F 
ATOM     61  C   UNL A   1      44.159  25.270  26.245  1.00  0.00     0.040 A 
ATOM     62  C   UNL A   1      44.752  27.466  25.550  1.00  0.00     0.040 A 
ATOM     63  F   UNL A   1      43.749  29.330  26.488  1.00  0.00    -0.206 F 
ATOM     64  C   UNL A   1      44.887  26.094  25.406  1.00  0.00     0.006 A 
ENDBRANCH  43  57
BRANCH  44  65
ATOM     65  C   UNL A   1      37.928  32.752  33.605  1.00  0.00     0.057 A 
ATOM     66  C   UNL A   1      37.531  34.102  33.772  1.00  0.00     0.134 A 
ATOM     67  C   UNL A   1      36.944  31.885  33.116  1.00  0.00     0.134 A 
ATOM     68  F   UNL A   1      38.417  35.012  34.214  1.00  0.00    -0.206 F 
ATOM     69  C   UNL A   1      36.279  34.583  33.366  1.00  0.00     0.040 A 
ATOM     70  C   UNL A   1      35.672  32.352  32.734  1.00  0.00     0.040 A 
ATOM     71  F   UNL A   1      37.219  30.591  32.900  1.00  0.00    -0.206 F 
ATOM     72  C   UNL A   1      35.351  33.707  32.822  1.00  0.00     0.006 A 
ENDBRANCH  44  65
BRANCH  56  73
ATOM     73  C   UNL A   1      42.684  27.196  34.106  1.00  0.00     0.057 A 
ATOM     74  C   UNL A   1      41.867  26.217  34.681  1.00  0.00     0.134 A 
ATOM     75  C   UNL A   1      44.059  26.855  34.046  1.00  0.00     0.134 A 
ATOM     76  F   UNL A   1      40.533  26.318  34.694  1.00  0.00    -0.206 F 
ATOM     77  C   UNL A   1      42.379  25.028  35.216  1.00  0.00     0.040 A 
ATOM     78  C   UNL A   1      44.566  25.635  34.492  1.00  0.00     0.040 A 
ATOM     79  F   UNL A   1      44.983  27.676  33.524  1.00  0.00    -0.206 F 
ATOM     80  C   UNL A   1      43.728  24.724  35.104  1.00  0.00     0.006 A 
ENDBRANCH  56  73
ENDBRANCH  30  31
ENDBRANCH  23  25
ENDBRANCH  22  23
ENDBRANCH  21  22
ENDBRANCH   1  21
TORSDOF 13
ENDMDL
MODEL 3
REMARK VINA RESULT:     -11.3      2.873      8.222
REMARK SMILES Cc1ccc(/C=C2/SC(=O)N(CC(=O)OCCOC(=O)c3ccc(-c4c5nc(c(-c6c(F)cccc6F)c6ccc([nH]6)c(-c6c(F)cccc6F)c6nc(c(-c7c(F)cccc7F)c7ccc4[nH]7)C=C6)C=C5)cc3)C2=O)cc1
REMARK SMILES IDX 16 1 15 2 13 3 14 4 12 5 11 6 6 7 7 8 8 9 75 10 9 11 76 12
REMARK SMILES IDX 10 13 5 14 1 15 2 16 3 17 78 18 4 19 77 20 17 21 18 22 19 23
REMARK SMILES IDX 20 24 21 25 22 26 74 27 23 28 73 29 24 30 25 31 26 32 67 33
REMARK SMILES IDX 27 34 72 35 66 36 68 37 28 38 71 39 65 40 64 41 29 43 55 44
REMARK SMILES IDX 38 45 54 46 39 47 42 48 53 49 69 50 40 51 41 52 52 54 70 55
REMARK SMILES IDX 43 56 30 57 31 58 36 59 32 60 33 61 35 62 37 63 34 64 56 65
REMARK SMILES IDX 57 66 62 67 58 68 59 69 61 70 63 71 60 72 44 73 45 74 50 75
REMARK SMILES IDX 46 76 47 77 49 78 51 79 48 80
REMARK H PARENT 68 42 42 53
REMARK Flexibility Score: inf
ROOT
ATOM      1  C   UNL A   1      33.894  28.657  26.308  1.00  0.00     0.274 C 
ENDROOT
BRANCH   1   2
ATOM      2  O   UNL A   1      33.152  27.586  26.894  1.00  0.00    -0.461 OA
BRANCH   2   3
ATOM      3  C   UNL A   1      31.941  27.313  26.370  1.00  0.00     0.326 C 
ATOM      4  O   UNL A   1      31.020  26.814  27.001  1.00  0.00    -0.250 OA
BRANCH   3   5
ATOM      5  C   UNL A   1      31.918  27.704  24.892  1.00  0.00     0.252 C 
BRANCH   5   6
ATOM      6  N   UNL A   1      31.736  26.471  24.168  1.00  0.00    -0.257 N 
ATOM      7  C   UNL A   1      32.912  23.110  23.983  1.00  0.00     0.029 C 
ATOM      8  C   UNL A   1      32.280  24.263  23.725  1.00  0.00     0.083 C 
ATOM      9  S   UNL A   1      30.632  24.380  23.211  1.00  0.00    -0.022 SA
ATOM     10  C   UNL A   1      32.799  25.628  23.964  1.00  0.00     0.268 C 
ATOM     11  C   UNL A   1      30.539  26.072  23.671  1.00  0.00     0.294 C 
ATOM     12  O   UNL A   1      33.969  25.959  23.995  1.00  0.00    -0.268 OA
ATOM     13  O   UNL A   1      29.539  26.764  23.524  1.00  0.00    -0.261 OA
BRANCH   7  14
ATOM     14  C   UNL A   1      34.282  22.955  24.493  1.00  0.00    -0.024 A 
ATOM     15  C   UNL A   1      38.394  22.587  25.771  1.00  0.00     0.044 C 
ATOM     16  C   UNL A   1      36.960  22.672  25.343  1.00  0.00    -0.051 A 
ATOM     17  C   UNL A   1      36.629  22.579  23.988  1.00  0.00     0.004 A 
ATOM     18  C   UNL A   1      35.935  22.871  26.273  1.00  0.00     0.004 A 
ATOM     19  C   UNL A   1      35.303  22.714  23.569  1.00  0.00     0.008 A 
ATOM     20  C   UNL A   1      34.605  23.006  25.853  1.00  0.00     0.008 A 
ENDBRANCH   7  14
ENDBRANCH   5   6
ENDBRANCH   3   5
ENDBRANCH   2   3
ENDBRANCH   1   2
BRANCH   1  21
ATOM     21  C   UNL A   1      33.575  30.111  26.758  1.00  0.00     0.275 C 
BRANCH  21  22
ATOM     22  O   UNL A   1      34.156  30.839  27.910  1.00  0.00    -0.458 OA
BRANCH  22  23
ATOM     23  C   UNL A   1      35.300  31.484  28.270  1.00  0.00     0.338 C 
ATOM     24  O   UNL A   1      35.433  32.699  28.234  1.00  0.00    -0.246 OA
BRANCH  23  25
ATOM     25  C   UNL A   1      36.411  30.658  28.712  1.00  0.00     0.060 A 
ATOM     26  C   UNL A   1      36.408  29.859  29.874  1.00  0.00     0.016 A 
ATOM     27  C   UNL A   1      37.481  30.669  27.864  1.00  0.00     0.016 A 
ATOM     28  C   UNL A   1      37.494  29.018  30.117  1.00  0.00     0.010 A 
ATOM     29  C   UNL A   1      38.297  29.590  27.894  1.00  0.00     0.010 A 
ATOM     30  C   UNL A   1      38.429  28.897  29.097  1.00  0.00    -0.014 A 
BRANCH  30  31
ATOM     31  C   UNL A   1      39.777  28.370  29.178  1.00  0.00     0.031 A 
ATOM     32  C   UNL A   1      40.091  27.036  28.685  1.00  0.00     0.074 A 
ATOM     33  C   UNL A   1      40.676  29.368  29.376  1.00  0.00     0.049 A 
ATOM     34  N   UNL A   1      41.080  26.338  29.106  1.00  0.00    -0.248 NA
ATOM     35  C   UNL A   1      39.309  26.362  27.652  1.00  0.00     0.031 C 
ATOM     36  C   UNL A   1      42.090  29.500  29.102  1.00  0.00     0.029 A 
ATOM     37  N   UNL A   1      40.352  30.627  29.917  1.00  0.00    -0.354 N 
ATOM     38  C   UNL A   1      41.311  25.377  28.143  1.00  0.00     0.074 A 
ATOM     39  C   UNL A   1      40.085  25.303  27.383  1.00  0.00     0.031 C 
ATOM     40  C   UNL A   1      42.557  30.567  29.791  1.00  0.00     0.029 A 
ATOM     41  C   UNL A   1      41.462  31.094  30.603  1.00  0.00     0.049 A 
ATOM     42  H   UNL A   1      39.489  31.092  29.825  1.00  0.00     0.167 HD
ATOM     43  C   UNL A   1      42.593  24.955  27.940  1.00  0.00     0.037 A 
ATOM     44  C   UNL A   1      41.329  31.098  31.960  1.00  0.00     0.037 A 
ATOM     45  C   UNL A   1      43.505  25.773  28.754  1.00  0.00     0.049 A 
ATOM     46  C   UNL A   1      42.164  29.983  32.541  1.00  0.00     0.074 A 
ATOM     47  C   UNL A   1      44.309  26.855  28.432  1.00  0.00     0.029 A 
ATOM     48  N   UNL A   1      43.378  25.784  30.139  1.00  0.00    -0.354 N 
ATOM     49  N   UNL A   1      42.545  28.926  31.874  1.00  0.00    -0.248 NA
ATOM     50  C   UNL A   1      42.711  30.022  33.887  1.00  0.00     0.031 C 
ATOM     51  C   UNL A   1      44.624  27.544  29.636  1.00  0.00     0.029 A 
ATOM     52  C   UNL A   1      44.007  26.887  30.688  1.00  0.00     0.049 A 
ATOM     53  H   UNL A   1      42.903  25.097  30.660  1.00  0.00     0.167 HD
ATOM     54  C   UNL A   1      43.425  28.195  32.621  1.00  0.00     0.074 A 
ATOM     55  C   UNL A   1      43.492  28.928  33.876  1.00  0.00     0.031 C 
ATOM     56  C   UNL A   1      44.032  27.068  32.138  1.00  0.00     0.037 A 
BRANCH  43  57
ATOM     57  C   UNL A   1      43.077  24.069  26.809  1.00  0.00     0.057 A 
ATOM     58  C   UNL A   1      43.053  22.663  26.932  1.00  0.00     0.134 A 
ATOM     59  C   UNL A   1      43.536  24.524  25.559  1.00  0.00     0.134 A 
ATOM     60  F   UNL A   1      42.563  22.056  28.020  1.00  0.00    -0.206 F 
ATOM     61  C   UNL A   1      43.512  21.792  25.934  1.00  0.00     0.040 A 
ATOM     62  C   UNL A   1      44.030  23.665  24.562  1.00  0.00     0.040 A 
ATOM     63  F   UNL A   1      43.472  25.815  25.212  1.00  0.00    -0.206 F 
ATOM     64  C   UNL A   1      44.023  22.291  24.749  1.00  0.00     0.006 A 
ENDBRANCH  43  57
BRANCH  44  65
ATOM     65  C   UNL A   1      39.935  31.506  32.389  1.00  0.00     0.057 A 
ATOM     66  C   UNL A   1      39.093  30.518  32.957  1.00  0.00     0.134 A 
ATOM     67  C   UNL A   1      39.558  32.835  32.622  1.00  0.00     0.134 A 
ATOM     68  F   UNL A   1      39.389  29.216  32.805  1.00  0.00    -0.206 F 
ATOM     69  C   UNL A   1      38.020  30.829  33.803  1.00  0.00     0.040 A 
ATOM     70  C   UNL A   1      38.463  33.157  33.446  1.00  0.00     0.040 A 
ATOM     71  F   UNL A   1      40.296  33.847  32.148  1.00  0.00    -0.206 F 
ATOM     72  C   UNL A   1      37.715  32.157  34.068  1.00  0.00     0.006 A 
ENDBRANCH  44  65
BRANCH  56  73
ATOM     73  C   UNL A   1      44.776  26.031  32.952  1.00  0.00     0.057 A 
ATOM     74  C   UNL A   1      46.145  25.764  32.838  1.00  0.00     0.134 A 
ATOM     75  C   UNL A   1      44.133  25.363  34.025  1.00  0.00     0.134 A 
ATOM     76  F   UNL A   1      46.928  26.412  31.968  1.00  0.00    -0.206 F 
ATOM     77  C   UNL A   1      46.807  24.857  33.674  1.00  0.00     0.040 A 
ATOM     78  C   UNL A   1      44.803  24.529  34.920  1.00  0.00     0.040 A 
ATOM     79  F   UNL A   1      42.824  25.506  34.283  1.00  0.00    -0.206 F 
ATOM     80  C   UNL A   1      46.143  24.252  34.732  1.00  0.00     0.006 A 
ENDBRANCH  56  73
ENDBRANCH  30  31
ENDBRANCH  23  25
ENDBRANCH  22  23
ENDBRANCH  21  22
ENDBRANCH   1  21
TORSDOF 13
ENDMDL
