MODEL 1
REMARK VINA RESULT:     -12.5      0.000      0.000
REMARK SMILES O=C(/C=C/c1ccc(S(=O)(=O)Nc2ccc3c(c2)OCCO3)cc1)OCCOC(=O)c1ccc(-c2c3nc(c(-c4c(F)cccc4F)c4ccc([nH]4)c(-c4c(F)cccc4F)c4nc(c(-c5c(F)cccc5F)c5ccc2[nH]5)C=C4)C=C3)cc1
REMARK SMILES IDX 26 1 25 2 2 3 1 4 3 5 4 6 5 7 6 8 24 9 7 10 23 11 8 12 9 13
REMARK SMILES IDX 10 14 11 15 12 16 13 18 14 19 18 20 15 21 17 22 16 23 19 24
REMARK SMILES IDX 22 25 20 26 21 27 27 28 28 29 29 30 30 31 31 32 32 33 84 34
REMARK SMILES IDX 33 35 83 36 34 37 35 38 36 39 77 40 37 41 82 42 76 43 78 44
REMARK SMILES IDX 38 45 81 46 75 47 74 48 39 50 65 51 48 52 64 53 49 54 52 55
REMARK SMILES IDX 63 56 79 57 50 58 51 59 62 61 80 62 53 63 40 64 41 65 46 66
REMARK SMILES IDX 42 67 43 68 45 69 47 70 44 71 66 72 67 73 72 74 68 75 69 76
REMARK SMILES IDX 71 77 73 78 70 79 54 80 55 81 60 82 56 83 57 84 59 85 61 86
REMARK SMILES IDX 58 87
REMARK H PARENT 12 17 78 49 52 60
REMARK Flexibility Score: inf
ROOT
ATOM      1  C   UNL A   1      44.073  21.174  25.358  1.00  0.00     0.275 C 
ENDROOT
BRANCH   1   2
ATOM      2  O   UNL A   1      42.702  20.748  25.482  1.00  0.00    -0.459 OA
BRANCH   2   3
ATOM      3  C   UNL A   1      41.849  20.997  26.502  1.00  0.00     0.330 C 
ATOM      4  O   UNL A   1      42.208  20.860  27.670  1.00  0.00    -0.247 OA
BRANCH   3   5
ATOM      5  C   UNL A   1      40.414  21.226  26.249  1.00  0.00     0.094 C 
ATOM      6  C   UNL A   1      39.778  22.397  26.119  1.00  0.00     0.015 C 
BRANCH   6   7
ATOM      7  C   UNL A   1      38.345  22.589  25.818  1.00  0.00    -0.025 A 
ATOM      8  C   UNL A   1      37.702  21.594  25.069  1.00  0.00     0.009 A 
ATOM      9  C   UNL A   1      37.597  23.707  26.213  1.00  0.00     0.009 A 
ATOM     10  C   UNL A   1      36.389  21.765  24.624  1.00  0.00     0.023 A 
ATOM     11  C   UNL A   1      36.259  23.856  25.824  1.00  0.00     0.023 A 
ATOM     12  C   UNL A   1      35.685  22.924  24.960  1.00  0.00     0.087 A 
BRANCH  12  13
ATOM     13  S   UNL A   1      34.122  23.233  24.158  1.00  0.00     0.261 S 
ATOM     14  O   UNL A   1      33.795  24.625  24.407  1.00  0.00    -0.201 OA
ATOM     15  O   UNL A   1      34.217  22.729  22.807  1.00  0.00    -0.201 OA
BRANCH  13  16
ATOM     16  N   UNL A   1      32.880  22.362  24.973  1.00  0.00    -0.279 N 
ATOM     17  H   UNL A   1      32.384  22.759  25.724  1.00  0.00     0.180 HD
BRANCH  16  18
ATOM     18  C   UNL A   1      32.597  21.034  24.510  1.00  0.00     0.053 A 
ATOM     19  C   UNL A   1      32.185  20.899  23.181  1.00  0.00     0.031 A 
ATOM     20  C   UNL A   1      32.842  19.910  25.298  1.00  0.00     0.077 A 
ATOM     21  C   UNL A   1      32.190  19.642  22.585  1.00  0.00     0.052 A 
ATOM     22  C   UNL A   1      32.922  18.667  24.679  1.00  0.00     0.163 A 
ATOM     23  C   UNL A   1      32.645  18.547  23.312  1.00  0.00     0.161 A 
ATOM     24  O   UNL A   1      33.400  17.636  25.445  1.00  0.00    -0.486 OA
ATOM     25  O   UNL A   1      32.895  17.394  22.612  1.00  0.00    -0.486 OA
ATOM     26  C   UNL A   1      33.639  16.435  24.698  1.00  0.00     0.271 C 
ATOM     27  C   UNL A   1      33.988  16.713  23.245  1.00  0.00     0.271 C 
ENDBRANCH  16  18
ENDBRANCH  13  16
ENDBRANCH  12  13
ENDBRANCH   6   7
ENDBRANCH   3   5
ENDBRANCH   2   3
ENDBRANCH   1   2
BRANCH   1  28
ATOM     28  C   UNL A   1      44.332  22.228  24.277  1.00  0.00     0.275 C 
BRANCH  28  29
ATOM     29  O   UNL A   1      43.653  23.469  24.523  1.00  0.00    -0.458 OA
BRANCH  29  30
ATOM     30  C   UNL A   1      44.439  24.440  25.063  1.00  0.00     0.338 C 
ATOM     31  O   UNL A   1      45.548  24.759  24.689  1.00  0.00    -0.246 OA
BRANCH  30  32
ATOM     32  C   UNL A   1      43.695  25.192  26.104  1.00  0.00     0.060 A 
ATOM     33  C   UNL A   1      44.156  26.475  26.415  1.00  0.00     0.016 A 
ATOM     34  C   UNL A   1      42.580  24.673  26.769  1.00  0.00     0.016 A 
ATOM     35  C   UNL A   1      43.526  27.231  27.407  1.00  0.00     0.010 A 
ATOM     36  C   UNL A   1      41.943  25.437  27.761  1.00  0.00     0.010 A 
ATOM     37  C   UNL A   1      42.424  26.713  28.103  1.00  0.00    -0.014 A 
BRANCH  37  38
ATOM     38  C   UNL A   1      41.859  27.483  29.244  1.00  0.00     0.031 A 
ATOM     39  C   UNL A   1      42.503  27.386  30.602  1.00  0.00     0.074 A 
ATOM     40  C   UNL A   1      40.828  28.332  29.069  1.00  0.00     0.049 A 
ATOM     41  N   UNL A   1      42.224  28.047  31.700  1.00  0.00    -0.248 NA
ATOM     42  C   UNL A   1      43.615  26.434  30.741  1.00  0.00     0.031 C 
ATOM     43  C   UNL A   1      40.123  28.567  27.810  1.00  0.00     0.029 A 
ATOM     44  N   UNL A   1      40.204  29.170  29.963  1.00  0.00    -0.354 N 
ATOM     45  C   UNL A   1      43.146  27.618  32.645  1.00  0.00     0.074 A 
ATOM     46  C   UNL A   1      43.948  26.591  32.013  1.00  0.00     0.031 C 
ATOM     47  C   UNL A   1      39.164  29.485  28.015  1.00  0.00     0.029 A 
ATOM     48  C   UNL A   1      39.163  29.881  29.421  1.00  0.00     0.049 A 
ATOM     49  H   UNL A   1      40.479  29.251  30.905  1.00  0.00     0.167 HD
ATOM     50  C   UNL A   1      43.338  28.058  33.911  1.00  0.00     0.037 A 
ATOM     51  C   UNL A   1      38.300  30.746  29.986  1.00  0.00     0.037 A 
ATOM     52  C   UNL A   1      42.546  29.068  34.563  1.00  0.00     0.049 A 
ATOM     53  C   UNL A   1      38.466  31.145  31.426  1.00  0.00     0.074 A 
ATOM     54  C   UNL A   1      42.689  29.582  35.842  1.00  0.00     0.029 A 
ATOM     55  N   UNL A   1      41.460  29.713  33.995  1.00  0.00    -0.354 N 
ATOM     56  N   UNL A   1      39.372  30.764  32.290  1.00  0.00    -0.248 NA
ATOM     57  C   UNL A   1      37.502  32.122  31.959  1.00  0.00     0.031 C 
ATOM     58  C   UNL A   1      41.662  30.508  36.062  1.00  0.00     0.029 A 
ATOM     59  C   UNL A   1      40.908  30.602  34.905  1.00  0.00     0.049 A 
ATOM     60  H   UNL A   1      41.127  29.561  33.081  1.00  0.00     0.167 HD
ATOM     61  C   UNL A   1      39.109  31.475  33.455  1.00  0.00     0.074 A 
ATOM     62  C   UNL A   1      37.966  32.320  33.184  1.00  0.00     0.031 C 
ATOM     63  C   UNL A   1      39.767  31.437  34.640  1.00  0.00     0.037 A 
BRANCH  50  64
ATOM     64  C   UNL A   1      44.473  27.453  34.681  1.00  0.00     0.057 A 
ATOM     65  C   UNL A   1      45.754  28.022  34.660  1.00  0.00     0.134 A 
ATOM     66  C   UNL A   1      44.276  26.328  35.489  1.00  0.00     0.134 A 
ATOM     67  F   UNL A   1      46.007  29.095  33.895  1.00  0.00    -0.206 F 
ATOM     68  C   UNL A   1      46.803  27.484  35.405  1.00  0.00     0.040 A 
ATOM     69  C   UNL A   1      45.313  25.793  36.256  1.00  0.00     0.040 A 
ATOM     70  F   UNL A   1      43.072  25.739  35.556  1.00  0.00    -0.206 F 
ATOM     71  C   UNL A   1      46.581  26.370  36.213  1.00  0.00     0.006 A 
ENDBRANCH  50  64
BRANCH  51  72
ATOM     72  C   UNL A   1      37.168  31.290  29.194  1.00  0.00     0.057 A 
ATOM     73  C   UNL A   1      37.189  32.591  28.681  1.00  0.00     0.134 A 
ATOM     74  C   UNL A   1      36.009  30.530  28.992  1.00  0.00     0.134 A 
ATOM     75  F   UNL A   1      38.261  33.374  28.869  1.00  0.00    -0.206 F 
ATOM     76  C   UNL A   1      36.085  33.128  28.016  1.00  0.00     0.040 A 
ATOM     77  C   UNL A   1      34.908  31.046  28.312  1.00  0.00     0.040 A 
ATOM     78  F   UNL A   1      35.932  29.276  29.463  1.00  0.00    -0.206 F 
ATOM     79  C   UNL A   1      34.941  32.354  27.829  1.00  0.00     0.006 A 
ENDBRANCH  51  72
BRANCH  63  80
ATOM     80  C   UNL A   1      39.283  32.356  35.724  1.00  0.00     0.057 A 
ATOM     81  C   UNL A   1      39.771  33.662  35.860  1.00  0.00     0.134 A 
ATOM     82  C   UNL A   1      38.310  31.934  36.639  1.00  0.00     0.134 A 
ATOM     83  F   UNL A   1      40.716  34.125  35.027  1.00  0.00    -0.206 F 
ATOM     84  C   UNL A   1      39.334  34.502  36.886  1.00  0.00     0.040 A 
ATOM     85  C   UNL A   1      37.845  32.772  37.652  1.00  0.00     0.040 A 
ATOM     86  F   UNL A   1      37.793  30.697  36.561  1.00  0.00    -0.206 F 
ATOM     87  C   UNL A   1      38.364  34.059  37.783  1.00  0.00     0.006 A 
ENDBRANCH  63  80
ENDBRANCH  37  38
ENDBRANCH  30  32
ENDBRANCH  29  30
ENDBRANCH  28  29
ENDBRANCH   1  28
TORSDOF 15
ENDMDL
MODEL 2
REMARK VINA RESULT:     -12.4      1.936      7.005
REMARK SMILES O=C(/C=C/c1ccc(S(=O)(=O)Nc2ccc3c(c2)OCCO3)cc1)OCCOC(=O)c1ccc(-c2c3nc(c(-c4c(F)cccc4F)c4ccc([nH]4)c(-c4c(F)cccc4F)c4nc(c(-c5c(F)cccc5F)c5ccc2[nH]5)C=C4)C=C3)cc1
REMARK SMILES IDX 26 1 25 2 2 3 1 4 3 5 4 6 5 7 6 8 24 9 7 10 23 11 8 12 9 13
REMARK SMILES IDX 10 14 11 15 12 16 13 18 14 19 18 20 15 21 17 22 16 23 19 24
REMARK SMILES IDX 22 25 20 26 21 27 27 28 28 29 29 30 30 31 31 32 32 33 84 34
REMARK SMILES IDX 33 35 83 36 34 37 35 38 36 39 77 40 37 41 82 42 76 43 78 44
REMARK SMILES IDX 38 45 81 46 75 47 74 48 39 50 65 51 48 52 64 53 49 54 52 55
REMARK SMILES IDX 63 56 79 57 50 58 51 59 62 61 80 62 53 63 40 64 41 65 46 66
REMARK SMILES IDX 42 67 43 68 45 69 47 70 44 71 66 72 67 73 72 74 68 75 69 76
REMARK SMILES IDX 71 77 73 78 70 79 54 80 55 81 60 82 56 83 57 84 59 85 61 86
REMARK SMILES IDX 58 87
REMARK H PARENT 12 17 78 49 52 60
REMARK Flexibility Score: inf
ROOT
ATOM      1  C   UNL A   1      42.692  20.965  26.111  1.00  0.00     0.275 C 
ENDROOT
BRANCH   1   2
ATOM      2  O   UNL A   1      41.299  21.087  25.764  1.00  0.00    -0.459 OA
BRANCH   2   3
ATOM      3  C   UNL A   1      40.281  21.486  26.560  1.00  0.00     0.330 C 
ATOM      4  O   UNL A   1      40.395  21.466  27.784  1.00  0.00    -0.247 OA
BRANCH   3   5
ATOM      5  C   UNL A   1      38.941  21.745  26.000  1.00  0.00     0.094 C 
ATOM      6  C   UNL A   1      38.345  22.929  25.806  1.00  0.00     0.015 C 
BRANCH   6   7
ATOM      7  C   UNL A   1      37.019  23.154  25.198  1.00  0.00    -0.025 A 
ATOM      8  C   UNL A   1      35.949  23.432  26.060  1.00  0.00     0.009 A 
ATOM      9  C   UNL A   1      36.759  23.087  23.821  1.00  0.00     0.009 A 
ATOM     10  C   UNL A   1      34.641  23.519  25.578  1.00  0.00     0.023 A 
ATOM     11  C   UNL A   1      35.457  23.238  23.324  1.00  0.00     0.023 A 
ATOM     12  C   UNL A   1      34.391  23.369  24.212  1.00  0.00     0.087 A 
BRANCH  12  13
ATOM     13  S   UNL A   1      32.699  23.216  23.669  1.00  0.00     0.261 S 
ATOM     14  O   UNL A   1      32.725  22.451  22.436  1.00  0.00    -0.201 OA
ATOM     15  O   UNL A   1      31.916  22.767  24.798  1.00  0.00    -0.201 OA
BRANCH  13  16
ATOM     16  N   UNL A   1      32.111  24.762  23.186  1.00  0.00    -0.279 N 
ATOM     17  H   UNL A   1      31.468  24.857  22.447  1.00  0.00     0.180 HD
BRANCH  16  18
ATOM     18  C   UNL A   1      32.598  25.903  23.905  1.00  0.00     0.053 A 
ATOM     19  C   UNL A   1      33.470  26.758  23.225  1.00  0.00     0.031 A 
ATOM     20  C   UNL A   1      32.130  26.227  25.178  1.00  0.00     0.077 A 
ATOM     21  C   UNL A   1      33.735  28.022  23.743  1.00  0.00     0.052 A 
ATOM     22  C   UNL A   1      32.332  27.519  25.652  1.00  0.00     0.163 A 
ATOM     23  C   UNL A   1      33.092  28.428  24.907  1.00  0.00     0.161 A 
ATOM     24  O   UNL A   1      31.652  27.861  26.792  1.00  0.00    -0.486 OA
ATOM     25  O   UNL A   1      33.162  29.760  25.227  1.00  0.00    -0.486 OA
ATOM     26  C   UNL A   1      31.751  29.255  27.118  1.00  0.00     0.271 C 
ATOM     27  C   UNL A   1      31.943  30.127  25.888  1.00  0.00     0.271 C 
ENDBRANCH  16  18
ENDBRANCH  13  16
ENDBRANCH  12  13
ENDBRANCH   6   7
ENDBRANCH   3   5
ENDBRANCH   2   3
ENDBRANCH   1   2
BRANCH   1  28
ATOM     28  C   UNL A   1      43.620  21.992  25.455  1.00  0.00     0.275 C 
BRANCH  28  29
ATOM     29  O   UNL A   1      42.954  23.215  25.107  1.00  0.00    -0.458 OA
BRANCH  29  30
ATOM     30  C   UNL A   1      43.711  24.333  25.273  1.00  0.00     0.338 C 
ATOM     31  O   UNL A   1      44.650  24.675  24.586  1.00  0.00    -0.246 OA
BRANCH  30  32
ATOM     32  C   UNL A   1      43.141  25.193  26.339  1.00  0.00     0.060 A 
ATOM     33  C   UNL A   1      43.681  26.476  26.479  1.00  0.00     0.016 A 
ATOM     34  C   UNL A   1      42.113  24.774  27.189  1.00  0.00     0.016 A 
ATOM     35  C   UNL A   1      43.217  27.332  27.481  1.00  0.00     0.010 A 
ATOM     36  C   UNL A   1      41.643  25.638  28.191  1.00  0.00     0.010 A 
ATOM     37  C   UNL A   1      42.206  26.916  28.359  1.00  0.00    -0.014 A 
BRANCH  37  38
ATOM     38  C   UNL A   1      41.828  27.795  29.500  1.00  0.00     0.031 A 
ATOM     39  C   UNL A   1      40.651  28.724  29.369  1.00  0.00     0.074 A 
ATOM     40  C   UNL A   1      42.471  27.717  30.681  1.00  0.00     0.049 A 
ATOM     41  N   UNL A   1      40.102  29.498  30.274  1.00  0.00    -0.248 NA
ATOM     42  C   UNL A   1      39.995  28.780  28.054  1.00  0.00     0.031 C 
ATOM     43  C   UNL A   1      43.603  26.841  30.979  1.00  0.00     0.029 A 
ATOM     44  N   UNL A   1      42.245  28.385  31.862  1.00  0.00    -0.354 N 
ATOM     45  C   UNL A   1      39.019  30.102  29.650  1.00  0.00     0.074 A 
ATOM     46  C   UNL A   1      39.028  29.659  28.271  1.00  0.00     0.031 C 
ATOM     47  C   UNL A   1      43.973  27.028  32.257  1.00  0.00     0.029 A 
ATOM     48  C   UNL A   1      43.128  28.056  32.861  1.00  0.00     0.049 A 
ATOM     49  H   UNL A   1      41.518  29.038  31.980  1.00  0.00     0.167 HD
ATOM     50  C   UNL A   1      38.078  30.921  30.177  1.00  0.00     0.037 A 
ATOM     51  C   UNL A   1      43.253  28.528  34.115  1.00  0.00     0.037 A 
ATOM     52  C   UNL A   1      38.056  31.383  31.540  1.00  0.00     0.049 A 
ATOM     53  C   UNL A   1      42.257  29.519  34.650  1.00  0.00     0.074 A 
ATOM     54  C   UNL A   1      37.124  32.204  32.156  1.00  0.00     0.029 A 
ATOM     55  N   UNL A   1      39.008  31.076  32.496  1.00  0.00    -0.354 N 
ATOM     56  N   UNL A   1      41.213  30.043  34.060  1.00  0.00    -0.248 NA
ATOM     57  C   UNL A   1      42.443  29.961  36.043  1.00  0.00     0.031 C 
ATOM     58  C   UNL A   1      37.536  32.426  33.474  1.00  0.00     0.029 A 
ATOM     59  C   UNL A   1      38.700  31.709  33.692  1.00  0.00     0.049 A 
ATOM     60  H   UNL A   1      39.790  30.495  32.350  1.00  0.00     0.167 HD
ATOM     61  C   UNL A   1      40.600  30.848  35.014  1.00  0.00     0.074 A 
ATOM     62  C   UNL A   1      41.383  30.734  36.225  1.00  0.00     0.031 C 
ATOM     63  C   UNL A   1      39.481  31.603  34.895  1.00  0.00     0.037 A 
BRANCH  50  64
ATOM     64  C   UNL A   1      36.970  31.364  29.268  1.00  0.00     0.057 A 
ATOM     65  C   UNL A   1      35.898  30.516  28.960  1.00  0.00     0.134 A 
ATOM     66  C   UNL A   1      36.947  32.659  28.741  1.00  0.00     0.134 A 
ATOM     67  F   UNL A   1      35.871  29.258  29.427  1.00  0.00    -0.206 F 
ATOM     68  C   UNL A   1      34.847  30.937  28.146  1.00  0.00     0.040 A 
ATOM     69  C   UNL A   1      35.889  33.100  27.943  1.00  0.00     0.040 A 
ATOM     70  F   UNL A   1      37.941  33.520  29.003  1.00  0.00    -0.206 F 
ATOM     71  C   UNL A   1      34.837  32.237  27.641  1.00  0.00     0.006 A 
ENDBRANCH  50  64
BRANCH  51  72
ATOM     72  C   UNL A   1      44.388  28.090  34.964  1.00  0.00     0.057 A 
ATOM     73  C   UNL A   1      45.610  28.771  34.965  1.00  0.00     0.134 A 
ATOM     74  C   UNL A   1      44.289  26.933  35.747  1.00  0.00     0.134 A 
ATOM     75  F   UNL A   1      45.772  29.868  34.213  1.00  0.00    -0.206 F 
ATOM     76  C   UNL A   1      46.703  28.302  35.696  1.00  0.00     0.040 A 
ATOM     77  C   UNL A   1      45.366  26.465  36.498  1.00  0.00     0.040 A 
ATOM     78  F   UNL A   1      43.141  26.238  35.784  1.00  0.00    -0.206 F 
ATOM     79  C   UNL A   1      46.582  27.146  36.466  1.00  0.00     0.006 A 
ENDBRANCH  51  72
BRANCH  63  80
ATOM     80  C   UNL A   1      39.021  32.345  36.116  1.00  0.00     0.057 A 
ATOM     81  C   UNL A   1      39.398  33.672  36.364  1.00  0.00     0.134 A 
ATOM     82  C   UNL A   1      38.183  31.729  37.055  1.00  0.00     0.134 A 
ATOM     83  F   UNL A   1      40.212  34.316  35.514  1.00  0.00    -0.206 F 
ATOM     84  C   UNL A   1      38.986  34.347  37.514  1.00  0.00     0.040 A 
ATOM     85  C   UNL A   1      37.742  32.401  38.195  1.00  0.00     0.040 A 
ATOM     86  F   UNL A   1      37.776  30.462  36.876  1.00  0.00    -0.206 F 
ATOM     87  C   UNL A   1      38.152  33.712  38.432  1.00  0.00     0.006 A 
ENDBRANCH  63  80
ENDBRANCH  37  38
ENDBRANCH  30  32
ENDBRANCH  29  30
ENDBRANCH  28  29
ENDBRANCH   1  28
TORSDOF 15
ENDMDL
MODEL 3
REMARK VINA RESULT:     -12.4      5.641     12.042
REMARK SMILES O=C(/C=C/c1ccc(S(=O)(=O)Nc2ccc3c(c2)OCCO3)cc1)OCCOC(=O)c1ccc(-c2c3nc(c(-c4c(F)cccc4F)c4ccc([nH]4)c(-c4c(F)cccc4F)c4nc(c(-c5c(F)cccc5F)c5ccc2[nH]5)C=C4)C=C3)cc1
REMARK SMILES IDX 26 1 25 2 2 3 1 4 3 5 4 6 5 7 6 8 24 9 7 10 23 11 8 12 9 13
REMARK SMILES IDX 10 14 11 15 12 16 13 18 14 19 18 20 15 21 17 22 16 23 19 24
REMARK SMILES IDX 22 25 20 26 21 27 27 28 28 29 29 30 30 31 31 32 32 33 84 34
REMARK SMILES IDX 33 35 83 36 34 37 35 38 36 39 77 40 37 41 82 42 76 43 78 44
REMARK SMILES IDX 38 45 81 46 75 47 74 48 39 50 65 51 48 52 64 53 49 54 52 55
REMARK SMILES IDX 63 56 79 57 50 58 51 59 62 61 80 62 53 63 40 64 41 65 46 66
REMARK SMILES IDX 42 67 43 68 45 69 47 70 44 71 66 72 67 73 72 74 68 75 69 76
REMARK SMILES IDX 71 77 73 78 70 79 54 80 55 81 60 82 56 83 57 84 59 85 61 86
REMARK SMILES IDX 58 87
REMARK H PARENT 12 17 78 49 52 60
REMARK Flexibility Score: inf
ROOT
ATOM      1  C   UNL A   1      33.255  36.828  30.352  1.00  0.00     0.275 C 
ENDROOT
BRANCH   1   2
ATOM      2  O   UNL A   1      32.888  37.183  31.700  1.00  0.00    -0.459 OA
BRANCH   2   3
ATOM      3  C   UNL A   1      33.639  37.065  32.818  1.00  0.00     0.330 C 
ATOM      4  O   UNL A   1      33.976  38.060  33.458  1.00  0.00    -0.247 OA
BRANCH   3   5
ATOM      5  C   UNL A   1      34.257  35.776  33.181  1.00  0.00     0.094 C 
ATOM      6  C   UNL A   1      35.560  35.490  33.298  1.00  0.00     0.015 C 
BRANCH   6   7
ATOM      7  C   UNL A   1      36.142  34.198  33.710  1.00  0.00    -0.025 A 
ATOM      8  C   UNL A   1      37.151  34.222  34.683  1.00  0.00     0.009 A 
ATOM      9  C   UNL A   1      35.766  32.956  33.178  1.00  0.00     0.009 A 
ATOM     10  C   UNL A   1      37.848  33.061  35.025  1.00  0.00     0.023 A 
ATOM     11  C   UNL A   1      36.418  31.777  33.565  1.00  0.00     0.023 A 
ATOM     12  C   UNL A   1      37.513  31.845  34.424  1.00  0.00     0.087 A 
BRANCH  12  13
ATOM     13  S   UNL A   1      38.590  30.446  34.678  1.00  0.00     0.261 S 
ATOM     14  O   UNL A   1      38.645  30.218  36.111  1.00  0.00    -0.201 OA
ATOM     15  O   UNL A   1      38.161  29.396  33.782  1.00  0.00    -0.201 OA
BRANCH  13  16
ATOM     16  N   UNL A   1      40.203  30.883  34.264  1.00  0.00    -0.279 N 
ATOM     17  H   UNL A   1      40.392  31.667  33.700  1.00  0.00     0.180 HD
BRANCH  16  18
ATOM     18  C   UNL A   1      41.259  30.059  34.777  1.00  0.00     0.053 A 
ATOM     19  C   UNL A   1      42.071  30.613  35.770  1.00  0.00     0.031 A 
ATOM     20  C   UNL A   1      41.398  28.723  34.404  1.00  0.00     0.077 A 
ATOM     21  C   UNL A   1      42.903  29.784  36.517  1.00  0.00     0.052 A 
ATOM     22  C   UNL A   1      42.169  27.886  35.204  1.00  0.00     0.163 A 
ATOM     23  C   UNL A   1      42.879  28.413  36.289  1.00  0.00     0.161 A 
ATOM     24  O   UNL A   1      42.082  26.543  34.941  1.00  0.00    -0.486 OA
ATOM     25  O   UNL A   1      43.494  27.614  37.220  1.00  0.00    -0.486 OA
ATOM     26  C   UNL A   1      42.745  25.727  35.916  1.00  0.00     0.271 C 
ATOM     27  C   UNL A   1      42.777  26.374  37.292  1.00  0.00     0.271 C 
ENDBRANCH  16  18
ENDBRANCH  13  16
ENDBRANCH  12  13
ENDBRANCH   6   7
ENDBRANCH   3   5
ENDBRANCH   2   3
ENDBRANCH   1   2
BRANCH   1  28
ATOM     28  C   UNL A   1      32.638  35.526  29.830  1.00  0.00     0.275 C 
BRANCH  28  29
ATOM     29  O   UNL A   1      32.846  35.326  28.424  1.00  0.00    -0.458 OA
BRANCH  29  30
ATOM     30  C   UNL A   1      33.059  34.030  28.067  1.00  0.00     0.338 C 
ATOM     31  O   UNL A   1      32.415  33.390  27.263  1.00  0.00    -0.246 OA
BRANCH  30  32
ATOM     32  C   UNL A   1      34.305  33.518  28.689  1.00  0.00     0.060 A 
ATOM     33  C   UNL A   1      35.489  34.207  28.403  1.00  0.00     0.016 A 
ATOM     34  C   UNL A   1      34.337  32.398  29.525  1.00  0.00     0.016 A 
ATOM     35  C   UNL A   1      36.706  33.766  28.927  1.00  0.00     0.010 A 
ATOM     36  C   UNL A   1      35.561  31.960  30.057  1.00  0.00     0.010 A 
ATOM     37  C   UNL A   1      36.758  32.628  29.744  1.00  0.00    -0.014 A 
BRANCH  37  38
ATOM     38  C   UNL A   1      38.083  32.103  30.175  1.00  0.00     0.031 A 
ATOM     39  C   UNL A   1      38.547  30.755  29.689  1.00  0.00     0.074 A 
ATOM     40  C   UNL A   1      38.915  32.847  30.929  1.00  0.00     0.049 A 
ATOM     41  N   UNL A   1      39.702  30.162  29.871  1.00  0.00    -0.248 NA
ATOM     42  C   UNL A   1      37.593  29.979  28.882  1.00  0.00     0.031 C 
ATOM     43  C   UNL A   1      38.629  34.185  31.445  1.00  0.00     0.029 A 
ATOM     44  N   UNL A   1      40.187  32.580  31.379  1.00  0.00    -0.354 N 
ATOM     45  C   UNL A   1      39.627  28.965  29.172  1.00  0.00     0.074 A 
ATOM     46  C   UNL A   1      38.290  28.883  28.621  1.00  0.00     0.031 C 
ATOM     47  C   UNL A   1      39.693  34.618  32.142  1.00  0.00     0.029 A 
ATOM     48  C   UNL A   1      40.722  33.581  32.150  1.00  0.00     0.049 A 
ATOM     49  H   UNL A   1      40.667  31.747  31.168  1.00  0.00     0.167 HD
ATOM     50  C   UNL A   1      40.588  28.032  28.972  1.00  0.00     0.037 A 
ATOM     51  C   UNL A   1      41.901  33.659  32.797  1.00  0.00     0.037 A 
ATOM     52  C   UNL A   1      41.918  28.086  29.519  1.00  0.00     0.049 A 
ATOM     53  C   UNL A   1      42.917  32.561  32.646  1.00  0.00     0.074 A 
ATOM     54  C   UNL A   1      42.958  27.186  29.348  1.00  0.00     0.029 A 
ATOM     55  N   UNL A   1      42.394  29.088  30.348  1.00  0.00    -0.354 N 
ATOM     56  N   UNL A   1      42.846  31.459  31.944  1.00  0.00    -0.248 NA
ATOM     57  C   UNL A   1      44.194  32.737  33.358  1.00  0.00     0.031 C 
ATOM     58  C   UNL A   1      44.048  27.622  30.108  1.00  0.00     0.029 A 
ATOM     59  C   UNL A   1      43.703  28.817  30.716  1.00  0.00     0.049 A 
ATOM     60  H   UNL A   1      41.878  29.876  30.635  1.00  0.00     0.167 HD
ATOM     61  C   UNL A   1      44.074  30.827  32.101  1.00  0.00     0.074 A 
ATOM     62  C   UNL A   1      44.876  31.675  32.957  1.00  0.00     0.031 C 
ATOM     63  C   UNL A   1      44.499  29.654  31.573  1.00  0.00     0.037 A 
BRANCH  50  64
ATOM     64  C   UNL A   1      40.236  26.863  28.101  1.00  0.00     0.057 A 
ATOM     65  C   UNL A   1      40.725  26.757  26.792  1.00  0.00     0.134 A 
ATOM     66  C   UNL A   1      39.449  25.814  28.588  1.00  0.00     0.134 A 
ATOM     67  F   UNL A   1      41.475  27.737  26.265  1.00  0.00    -0.206 F 
ATOM     68  C   UNL A   1      40.430  25.653  25.991  1.00  0.00     0.040 A 
ATOM     69  C   UNL A   1      39.166  24.694  27.804  1.00  0.00     0.040 A 
ATOM     70  F   UNL A   1      38.955  25.854  29.834  1.00  0.00    -0.206 F 
ATOM     71  C   UNL A   1      39.655  24.613  26.501  1.00  0.00     0.006 A 
ENDBRANCH  50  64
BRANCH  51  72
ATOM     72  C   UNL A   1      42.189  34.817  33.679  1.00  0.00     0.057 A 
ATOM     73  C   UNL A   1      41.753  34.854  35.008  1.00  0.00     0.134 A 
ATOM     74  C   UNL A   1      42.856  35.943  33.182  1.00  0.00     0.134 A 
ATOM     75  F   UNL A   1      41.084  33.815  35.529  1.00  0.00    -0.206 F 
ATOM     76  C   UNL A   1      41.948  35.983  35.806  1.00  0.00     0.040 A 
ATOM     77  C   UNL A   1      43.075  37.070  33.974  1.00  0.00     0.040 A 
ATOM     78  F   UNL A   1      43.296  35.965  31.915  1.00  0.00    -0.206 F 
ATOM     79  C   UNL A   1      42.612  37.095  35.289  1.00  0.00     0.006 A 
ENDBRANCH  51  72
BRANCH  63  80
ATOM     80  C   UNL A   1      45.907  29.232  31.882  1.00  0.00     0.057 A 
ATOM     81  C   UNL A   1      46.220  28.475  33.019  1.00  0.00     0.134 A 
ATOM     82  C   UNL A   1      46.962  29.579  31.029  1.00  0.00     0.134 A 
ATOM     83  F   UNL A   1      45.259  28.122  33.886  1.00  0.00    -0.206 F 
ATOM     84  C   UNL A   1      47.534  28.107  33.312  1.00  0.00     0.040 A 
ATOM     85  C   UNL A   1      48.276  29.195  31.297  1.00  0.00     0.040 A 
ATOM     86  F   UNL A   1      46.732  30.296  29.918  1.00  0.00    -0.206 F 
ATOM     87  C   UNL A   1      48.567  28.464  32.447  1.00  0.00     0.006 A 
ENDBRANCH  63  80
ENDBRANCH  37  38
ENDBRANCH  30  32
ENDBRANCH  29  30
ENDBRANCH  28  29
ENDBRANCH   1  28
TORSDOF 15
ENDMDL
