MODEL 1
REMARK VINA RESULT:      -9.7      0.000      0.000
REMARK SMILES O=C(OCCOC(=O)[C@H](F)Sc1cc2ccccc2[nH]1)c1ccc(-c2c3nc(c(-c4c(F)cccc4F)c4ccc([nH]4)c(-c4c(F)cccc4F)c4nc(c(-c5c(F)cccc5F)c5ccc2[nH]5)C=C4)C=C3)cc1
REMARK SMILES IDX 4 1 3 2 2 3 1 4 21 5 22 6 74 7 23 8 73 9 24 10 25 11 26 12
REMARK SMILES IDX 67 13 27 14 72 15 66 16 68 17 28 18 71 19 65 20 64 21 29 23
REMARK SMILES IDX 55 24 38 25 54 26 39 27 42 28 53 29 69 30 40 31 41 32 52 34
REMARK SMILES IDX 70 35 43 36 30 37 31 38 36 39 32 40 33 41 35 42 37 43 34 44
REMARK SMILES IDX 56 45 57 46 62 47 58 48 59 49 61 50 63 51 60 52 44 53 45 54
REMARK SMILES IDX 50 55 46 56 47 57 49 58 51 59 48 60 5 61 6 62 7 63 8 64 9 65
REMARK SMILES IDX 10 66 11 67 12 68 13 69 20 70 14 71 19 72 15 74 18 75 16 76
REMARK SMILES IDX 17 77
REMARK H PARENT 68 22 42 33 20 73
REMARK Flexibility Score: inf
ROOT
ATOM      1  C   UNL A   1      32.365  35.981  30.867  1.00  0.00     0.275 C 
ENDROOT
BRANCH   1   2
ATOM      2  O   UNL A   1      32.661  35.761  29.474  1.00  0.00    -0.458 OA
BRANCH   2   3
ATOM      3  C   UNL A   1      33.141  34.666  28.839  1.00  0.00     0.338 C 
ATOM      4  O   UNL A   1      32.418  34.093  28.025  1.00  0.00    -0.246 OA
BRANCH   3   5
ATOM      5  C   UNL A   1      34.431  33.993  29.200  1.00  0.00     0.060 A 
ATOM      6  C   UNL A   1      34.580  32.933  30.096  1.00  0.00     0.016 A 
ATOM      7  C   UNL A   1      35.583  34.447  28.523  1.00  0.00     0.016 A 
ATOM      8  C   UNL A   1      35.804  32.275  30.239  1.00  0.00     0.010 A 
ATOM      9  C   UNL A   1      36.811  33.788  28.656  1.00  0.00     0.010 A 
ATOM     10  C   UNL A   1      36.922  32.690  29.515  1.00  0.00    -0.014 A 
BRANCH  10  11
ATOM     11  C   UNL A   1      38.232  32.069  29.802  1.00  0.00     0.031 A 
ATOM     12  C   UNL A   1      39.206  32.841  30.634  1.00  0.00     0.074 A 
ATOM     13  C   UNL A   1      38.512  30.814  29.405  1.00  0.00     0.049 A 
ATOM     14  N   UNL A   1      40.371  32.471  31.092  1.00  0.00    -0.248 NA
ATOM     15  C   UNL A   1      38.794  34.195  31.042  1.00  0.00     0.031 C 
ATOM     16  C   UNL A   1      37.589  29.937  28.695  1.00  0.00     0.029 A 
ATOM     17  N   UNL A   1      39.646  30.055  29.535  1.00  0.00    -0.354 N 
ATOM     18  C   UNL A   1      40.806  33.523  31.884  1.00  0.00     0.074 A 
ATOM     19  C   UNL A   1      39.820  34.575  31.786  1.00  0.00     0.031 C 
ATOM     20  C   UNL A   1      38.210  28.789  28.377  1.00  0.00     0.029 A 
ATOM     21  C   UNL A   1      39.570  28.837  28.897  1.00  0.00     0.049 A 
ATOM     22  H   UNL A   1      40.440  30.352  30.036  1.00  0.00     0.167 HD
ATOM     23  C   UNL A   1      41.915  33.585  32.651  1.00  0.00     0.037 A 
ATOM     24  C   UNL A   1      40.495  27.870  28.763  1.00  0.00     0.037 A 
ATOM     25  C   UNL A   1      42.907  32.547  32.700  1.00  0.00     0.049 A 
ATOM     26  C   UNL A   1      41.799  28.035  29.495  1.00  0.00     0.074 A 
ATOM     27  C   UNL A   1      44.091  32.517  33.412  1.00  0.00     0.029 A 
ATOM     28  N   UNL A   1      42.835  31.359  31.983  1.00  0.00    -0.354 N 
ATOM     29  N   UNL A   1      42.184  29.016  30.278  1.00  0.00    -0.248 NA
ATOM     30  C   UNL A   1      42.779  26.951  29.361  1.00  0.00     0.031 C 
ATOM     31  C   UNL A   1      44.763  31.335  33.080  1.00  0.00     0.029 A 
ATOM     32  C   UNL A   1      43.972  30.603  32.207  1.00  0.00     0.049 A 
ATOM     33  H   UNL A   1      42.087  31.095  31.401  1.00  0.00     0.167 HD
ATOM     34  C   UNL A   1      43.426  28.646  30.769  1.00  0.00     0.074 A 
ATOM     35  C   UNL A   1      43.727  27.348  30.198  1.00  0.00     0.031 C 
ATOM     36  C   UNL A   1      44.241  29.311  31.624  1.00  0.00     0.037 A 
BRANCH  23  37
ATOM     37  C   UNL A   1      42.105  34.832  33.459  1.00  0.00     0.057 A 
ATOM     38  C   UNL A   1      42.797  35.941  32.950  1.00  0.00     0.134 A 
ATOM     39  C   UNL A   1      41.627  34.913  34.771  1.00  0.00     0.134 A 
ATOM     40  F   UNL A   1      43.306  35.914  31.709  1.00  0.00    -0.206 F 
ATOM     41  C   UNL A   1      43.028  37.076  33.728  1.00  0.00     0.040 A 
ATOM     42  C   UNL A   1      41.832  36.052  35.551  1.00  0.00     0.040 A 
ATOM     43  F   UNL A   1      40.968  33.883  35.321  1.00  0.00    -0.206 F 
ATOM     44  C   UNL A   1      42.542  37.134  35.032  1.00  0.00     0.006 A 
ENDBRANCH  23  37
BRANCH  24  45
ATOM     45  C   UNL A   1      40.223  26.664  27.938  1.00  0.00     0.057 A 
ATOM     46  C   UNL A   1      39.452  25.600  28.420  1.00  0.00     0.134 A 
ATOM     47  C   UNL A   1      40.768  26.529  26.653  1.00  0.00     0.134 A 
ATOM     48  F   UNL A   1      38.913  25.659  29.646  1.00  0.00    -0.206 F 
ATOM     49  C   UNL A   1      39.258  24.435  27.672  1.00  0.00     0.040 A 
ATOM     50  C   UNL A   1      40.564  25.380  25.886  1.00  0.00     0.040 A 
ATOM     51  F   UNL A   1      41.516  27.510  26.128  1.00  0.00    -0.206 F 
ATOM     52  C   UNL A   1      39.815  24.324  26.399  1.00  0.00     0.006 A 
ENDBRANCH  24  45
BRANCH  36  53
ATOM     53  C   UNL A   1      45.517  28.629  32.015  1.00  0.00     0.057 A 
ATOM     54  C   UNL A   1      46.710  28.835  31.313  1.00  0.00     0.134 A 
ATOM     55  C   UNL A   1      45.558  27.788  33.135  1.00  0.00     0.134 A 
ATOM     56  F   UNL A   1      46.733  29.618  30.223  1.00  0.00    -0.206 F 
ATOM     57  C   UNL A   1      47.897  28.209  31.697  1.00  0.00     0.040 A 
ATOM     58  C   UNL A   1      46.744  27.183  33.547  1.00  0.00     0.040 A 
ATOM     59  F   UNL A   1      44.449  27.558  33.855  1.00  0.00    -0.206 F 
ATOM     60  C   UNL A   1      47.917  27.387  32.823  1.00  0.00     0.006 A 
ENDBRANCH  36  53
ENDBRANCH  10  11
ENDBRANCH   3   5
ENDBRANCH   2   3
ENDBRANCH   1   2
BRANCH   1  61
ATOM     61  C   UNL A   1      33.498  36.641  31.660  1.00  0.00     0.274 C 
BRANCH  61  62
ATOM     62  O   UNL A   1      34.542  35.712  31.996  1.00  0.00    -0.459 OA
BRANCH  62  63
ATOM     63  C   UNL A   1      34.640  35.384  33.325  1.00  0.00     0.351 C 
ATOM     64  O   UNL A   1      34.402  36.168  34.238  1.00  0.00    -0.248 OA
BRANCH  63  65
ATOM     65  C   UNL A   1      34.964  33.905  33.517  1.00  0.00     0.339 C 
ATOM     66  F   UNL A   1      33.853  33.149  33.772  1.00  0.00    -0.222 F 
BRANCH  65  67
ATOM     67  S   UNL A   1      36.178  33.619  34.835  1.00  0.00    -0.059 SA
BRANCH  67  68
ATOM     68  C   UNL A   1      37.139  32.425  34.064  1.00  0.00     0.077 A 
ATOM     69  C   UNL A   1      38.464  32.106  34.183  1.00  0.00     0.043 A 
ATOM     70  N   UNL A   1      36.524  31.506  33.270  1.00  0.00    -0.350 N 
ATOM     71  C   UNL A   1      38.622  30.828  33.577  1.00  0.00     0.001 A 
ATOM     72  C   UNL A   1      37.391  30.472  33.021  1.00  0.00     0.046 A 
ATOM     73  H   UNL A   1      35.603  31.572  32.928  1.00  0.00     0.167 HD
ATOM     74  C   UNL A   1      39.687  29.915  33.501  1.00  0.00     0.010 A 
ATOM     75  C   UNL A   1      37.165  29.249  32.388  1.00  0.00     0.027 A 
ATOM     76  C   UNL A   1      39.472  28.674  32.890  1.00  0.00     0.001 A 
ATOM     77  C   UNL A   1      38.231  28.350  32.343  1.00  0.00     0.002 A 
ENDBRANCH  67  68
ENDBRANCH  65  67
ENDBRANCH  63  65
ENDBRANCH  62  63
ENDBRANCH  61  62
ENDBRANCH   1  61
TORSDOF 13
ENDMDL
MODEL 2
REMARK VINA RESULT:      -9.3      4.153      6.212
REMARK SMILES O=C(OCCOC(=O)[C@H](F)Sc1cc2ccccc2[nH]1)c1ccc(-c2c3nc(c(-c4c(F)cccc4F)c4ccc([nH]4)c(-c4c(F)cccc4F)c4nc(c(-c5c(F)cccc5F)c5ccc2[nH]5)C=C4)C=C3)cc1
REMARK SMILES IDX 4 1 3 2 2 3 1 4 21 5 22 6 74 7 23 8 73 9 24 10 25 11 26 12
REMARK SMILES IDX 67 13 27 14 72 15 66 16 68 17 28 18 71 19 65 20 64 21 29 23
REMARK SMILES IDX 55 24 38 25 54 26 39 27 42 28 53 29 69 30 40 31 41 32 52 34
REMARK SMILES IDX 70 35 43 36 30 37 31 38 36 39 32 40 33 41 35 42 37 43 34 44
REMARK SMILES IDX 56 45 57 46 62 47 58 48 59 49 61 50 63 51 60 52 44 53 45 54
REMARK SMILES IDX 50 55 46 56 47 57 49 58 51 59 48 60 5 61 6 62 7 63 8 64 9 65
REMARK SMILES IDX 10 66 11 67 12 68 13 69 20 70 14 71 19 72 15 74 18 75 16 76
REMARK SMILES IDX 17 77
REMARK H PARENT 68 22 42 33 20 73
REMARK Flexibility Score: inf
ROOT
ATOM      1  C   UNL A   1      31.367  32.377  26.664  1.00  0.00     0.275 C 
ENDROOT
BRANCH   1   2
ATOM      2  O   UNL A   1      32.405  33.364  26.818  1.00  0.00    -0.458 OA
BRANCH   2   3
ATOM      3  C   UNL A   1      33.050  33.796  27.928  1.00  0.00     0.338 C 
ATOM      4  O   UNL A   1      32.671  34.836  28.463  1.00  0.00    -0.246 OA
BRANCH   3   5
ATOM      5  C   UNL A   1      34.320  33.186  28.441  1.00  0.00     0.060 A 
ATOM      6  C   UNL A   1      35.613  33.520  28.034  1.00  0.00     0.016 A 
ATOM      7  C   UNL A   1      34.183  32.229  29.470  1.00  0.00     0.016 A 
ATOM      8  C   UNL A   1      36.733  33.006  28.693  1.00  0.00     0.010 A 
ATOM      9  C   UNL A   1      35.300  31.715  30.138  1.00  0.00     0.010 A 
ATOM     10  C   UNL A   1      36.585  32.110  29.752  1.00  0.00    -0.014 A 
BRANCH  10  11
ATOM     11  C   UNL A   1      37.789  31.472  30.324  1.00  0.00     0.031 A 
ATOM     12  C   UNL A   1      38.181  31.841  31.720  1.00  0.00     0.074 A 
ATOM     13  C   UNL A   1      38.463  30.524  29.649  1.00  0.00     0.049 A 
ATOM     14  N   UNL A   1      39.135  31.349  32.462  1.00  0.00    -0.248 NA
ATOM     15  C   UNL A   1      37.361  32.869  32.383  1.00  0.00     0.031 C 
ATOM     16  C   UNL A   1      38.094  30.009  28.336  1.00  0.00     0.029 A 
ATOM     17  N   UNL A   1      39.599  29.824  29.963  1.00  0.00    -0.354 N 
ATOM     18  C   UNL A   1      38.997  31.968  33.695  1.00  0.00     0.074 A 
ATOM     19  C   UNL A   1      37.919  32.924  33.582  1.00  0.00     0.031 C 
ATOM     20  C   UNL A   1      39.023  29.136  27.914  1.00  0.00     0.029 A 
ATOM     21  C   UNL A   1      40.037  29.000  28.951  1.00  0.00     0.049 A 
ATOM     22  H   UNL A   1      40.058  29.901  30.831  1.00  0.00     0.167 HD
ATOM     23  C   UNL A   1      39.690  31.730  34.829  1.00  0.00     0.037 A 
ATOM     24  C   UNL A   1      41.131  28.220  28.880  1.00  0.00     0.037 A 
ATOM     25  C   UNL A   1      40.789  30.809  34.911  1.00  0.00     0.049 A 
ATOM     26  C   UNL A   1      41.990  28.097  30.108  1.00  0.00     0.074 A 
ATOM     27  C   UNL A   1      41.590  30.514  35.997  1.00  0.00     0.029 A 
ATOM     28  N   UNL A   1      41.254  30.047  33.846  1.00  0.00    -0.354 N 
ATOM     29  N   UNL A   1      41.825  28.654  31.286  1.00  0.00    -0.248 NA
ATOM     30  C   UNL A   1      43.157  27.212  30.018  1.00  0.00     0.031 C 
ATOM     31  C   UNL A   1      42.577  29.617  35.574  1.00  0.00     0.029 A 
ATOM     32  C   UNL A   1      42.357  29.309  34.240  1.00  0.00     0.049 A 
ATOM     33  H   UNL A   1      40.860  30.036  32.945  1.00  0.00     0.167 HD
ATOM     34  C   UNL A   1      42.837  28.150  32.089  1.00  0.00     0.074 A 
ATOM     35  C   UNL A   1      43.606  27.239  31.265  1.00  0.00     0.031 C 
ATOM     36  C   UNL A   1      43.100  28.407  33.394  1.00  0.00     0.037 A 
BRANCH  23  37
ATOM     37  C   UNL A   1      39.283  32.510  36.042  1.00  0.00     0.057 A 
ATOM     38  C   UNL A   1      39.833  33.768  36.327  1.00  0.00     0.134 A 
ATOM     39  C   UNL A   1      38.364  31.982  36.955  1.00  0.00     0.134 A 
ATOM     40  F   UNL A   1      40.743  34.315  35.506  1.00  0.00    -0.206 F 
ATOM     41  C   UNL A   1      39.501  34.462  37.491  1.00  0.00     0.040 A 
ATOM     42  C   UNL A   1      38.006  32.678  38.110  1.00  0.00     0.040 A 
ATOM     43  F   UNL A   1      37.811  30.778  36.746  1.00  0.00    -0.206 F 
ATOM     44  C   UNL A   1      38.581  33.917  38.385  1.00  0.00     0.006 A 
ENDBRANCH  23  37
BRANCH  24  45
ATOM     45  C   UNL A   1      41.461  27.482  27.632  1.00  0.00     0.057 A 
ATOM     46  C   UNL A   1      42.172  28.084  26.587  1.00  0.00     0.134 A 
ATOM     47  C   UNL A   1      41.034  26.162  27.438  1.00  0.00     0.134 A 
ATOM     48  F   UNL A   1      42.597  29.351  26.703  1.00  0.00    -0.206 F 
ATOM     49  C   UNL A   1      42.418  27.415  25.385  1.00  0.00     0.040 A 
ATOM     50  C   UNL A   1      41.292  25.473  26.250  1.00  0.00     0.040 A 
ATOM     51  F   UNL A   1      40.349  25.523  28.398  1.00  0.00    -0.206 F 
ATOM     52  C   UNL A   1      41.978  26.104  25.215  1.00  0.00     0.006 A 
ENDBRANCH  24  45
BRANCH  36  53
ATOM     53  C   UNL A   1      44.248  27.667  34.012  1.00  0.00     0.057 A 
ATOM     54  C   UNL A   1      45.538  28.207  34.055  1.00  0.00     0.134 A 
ATOM     55  C   UNL A   1      44.046  26.418  34.612  1.00  0.00     0.134 A 
ATOM     56  F   UNL A   1      45.799  29.394  33.485  1.00  0.00    -0.206 F 
ATOM     57  C   UNL A   1      46.595  27.518  34.649  1.00  0.00     0.040 A 
ATOM     58  C   UNL A   1      45.087  25.734  35.238  1.00  0.00     0.040 A 
ATOM     59  F   UNL A   1      42.829  25.851  34.614  1.00  0.00    -0.206 F 
ATOM     60  C   UNL A   1      46.368  26.281  35.251  1.00  0.00     0.006 A 
ENDBRANCH  36  53
ENDBRANCH  10  11
ENDBRANCH   3   5
ENDBRANCH   2   3
ENDBRANCH   1   2
BRANCH   1  61
ATOM     61  C   UNL A   1      31.833  30.930  26.856  1.00  0.00     0.274 C 
BRANCH  61  62
ATOM     62  O   UNL A   1      33.084  30.667  26.198  1.00  0.00    -0.459 OA
BRANCH  62  63
ATOM     63  C   UNL A   1      33.712  29.502  26.561  1.00  0.00     0.351 C 
ATOM     64  O   UNL A   1      34.686  29.459  27.307  1.00  0.00    -0.248 OA
BRANCH  63  65
ATOM     65  C   UNL A   1      32.982  28.277  26.021  1.00  0.00     0.339 C 
ATOM     66  F   UNL A   1      33.304  27.130  26.692  1.00  0.00    -0.222 F 
BRANCH  65  67
ATOM     67  S   UNL A   1      33.269  28.015  24.248  1.00  0.00    -0.059 SA
BRANCH  67  68
ATOM     68  C   UNL A   1      31.704  28.402  23.660  1.00  0.00     0.077 A 
ATOM     69  C   UNL A   1      30.656  27.613  23.273  1.00  0.00     0.043 A 
ATOM     70  N   UNL A   1      31.310  29.705  23.667  1.00  0.00    -0.350 N 
ATOM     71  C   UNL A   1      29.517  28.464  23.216  1.00  0.00     0.001 A 
ATOM     72  C   UNL A   1      29.952  29.766  23.475  1.00  0.00     0.046 A 
ATOM     73  H   UNL A   1      31.903  30.481  23.790  1.00  0.00     0.167 HD
ATOM     74  C   UNL A   1      28.144  28.237  23.024  1.00  0.00     0.010 A 
ATOM     75  C   UNL A   1      29.088  30.859  23.551  1.00  0.00     0.027 A 
ATOM     76  C   UNL A   1      27.259  29.317  23.120  1.00  0.00     0.001 A 
ATOM     77  C   UNL A   1      27.727  30.605  23.378  1.00  0.00     0.002 A 
ENDBRANCH  67  68
ENDBRANCH  65  67
ENDBRANCH  63  65
ENDBRANCH  62  63
ENDBRANCH  61  62
ENDBRANCH   1  61
TORSDOF 13
ENDMDL
MODEL 3
REMARK VINA RESULT:      -9.1      2.396      3.896
REMARK SMILES O=C(OCCOC(=O)[C@H](F)Sc1cc2ccccc2[nH]1)c1ccc(-c2c3nc(c(-c4c(F)cccc4F)c4ccc([nH]4)c(-c4c(F)cccc4F)c4nc(c(-c5c(F)cccc5F)c5ccc2[nH]5)C=C4)C=C3)cc1
REMARK SMILES IDX 4 1 3 2 2 3 1 4 21 5 22 6 74 7 23 8 73 9 24 10 25 11 26 12
REMARK SMILES IDX 67 13 27 14 72 15 66 16 68 17 28 18 71 19 65 20 64 21 29 23
REMARK SMILES IDX 55 24 38 25 54 26 39 27 42 28 53 29 69 30 40 31 41 32 52 34
REMARK SMILES IDX 70 35 43 36 30 37 31 38 36 39 32 40 33 41 35 42 37 43 34 44
REMARK SMILES IDX 56 45 57 46 62 47 58 48 59 49 61 50 63 51 60 52 44 53 45 54
REMARK SMILES IDX 50 55 46 56 47 57 49 58 51 59 48 60 5 61 6 62 7 63 8 64 9 65
REMARK SMILES IDX 10 66 11 67 12 68 13 69 20 70 14 71 19 72 15 74 18 75 16 76
REMARK SMILES IDX 17 77
REMARK H PARENT 68 22 42 33 20 73
REMARK Flexibility Score: inf
ROOT
ATOM      1  C   UNL A   1      34.702  33.320  28.266  1.00  0.00     0.275 C 
ENDROOT
BRANCH   1   2
ATOM      2  O   UNL A   1      33.982  32.097  28.019  1.00  0.00    -0.458 OA
BRANCH   2   3
ATOM      3  C   UNL A   1      34.427  30.873  27.649  1.00  0.00     0.338 C 
ATOM      4  O   UNL A   1      33.649  30.110  27.077  1.00  0.00    -0.246 OA
BRANCH   3   5
ATOM      5  C   UNL A   1      35.757  30.314  28.057  1.00  0.00     0.060 A 
ATOM      6  C   UNL A   1      36.942  30.400  27.324  1.00  0.00     0.016 A 
ATOM      7  C   UNL A   1      35.812  29.695  29.324  1.00  0.00     0.016 A 
ATOM      8  C   UNL A   1      38.160  29.985  27.870  1.00  0.00     0.010 A 
ATOM      9  C   UNL A   1      37.030  29.284  29.879  1.00  0.00     0.010 A 
ATOM     10  C   UNL A   1      38.213  29.435  29.151  1.00  0.00    -0.014 A 
BRANCH  10  11
ATOM     11  C   UNL A   1      39.491  28.871  29.635  1.00  0.00     0.031 A 
ATOM     12  C   UNL A   1      40.140  29.518  30.816  1.00  0.00     0.074 A 
ATOM     13  C   UNL A   1      40.012  27.756  29.089  1.00  0.00     0.049 A 
ATOM     14  N   UNL A   1      41.205  29.148  31.474  1.00  0.00    -0.248 NA
ATOM     15  C   UNL A   1      39.475  30.715  31.358  1.00  0.00     0.031 C 
ATOM     16  C   UNL A   1      39.398  26.984  28.016  1.00  0.00     0.029 A 
ATOM     17  N   UNL A   1      41.174  27.078  29.353  1.00  0.00    -0.354 N 
ATOM     18  C   UNL A   1      41.308  30.035  32.535  1.00  0.00     0.074 A 
ATOM     19  C   UNL A   1      40.245  31.003  32.394  1.00  0.00     0.031 C 
ATOM     20  C   UNL A   1      40.217  25.985  27.651  1.00  0.00     0.029 A 
ATOM     21  C   UNL A   1      41.403  26.024  28.497  1.00  0.00     0.049 A 
ATOM     22  H   UNL A   1      41.786  27.320  30.085  1.00  0.00     0.167 HD
ATOM     23  C   UNL A   1      42.194  30.015  33.554  1.00  0.00     0.037 A 
ATOM     24  C   UNL A   1      42.451  25.184  28.418  1.00  0.00     0.037 A 
ATOM     25  C   UNL A   1      43.272  29.072  33.652  1.00  0.00     0.049 A 
ATOM     26  C   UNL A   1      43.519  25.288  29.471  1.00  0.00     0.074 A 
ATOM     27  C   UNL A   1      44.255  28.980  34.620  1.00  0.00     0.029 A 
ATOM     28  N   UNL A   1      43.520  28.065  32.727  1.00  0.00    -0.354 N 
ATOM     29  N   UNL A   1      43.584  26.103  30.498  1.00  0.00    -0.248 NA
ATOM     30  C   UNL A   1      44.633  24.337  29.385  1.00  0.00     0.031 C 
ATOM     31  C   UNL A   1      45.130  27.954  34.248  1.00  0.00     0.029 A 
ATOM     32  C   UNL A   1      44.662  27.369  33.082  1.00  0.00     0.049 A 
ATOM     33  H   UNL A   1      42.966  27.876  31.936  1.00  0.00     0.167 HD
ATOM     34  C   UNL A   1      44.717  25.732  31.206  1.00  0.00     0.074 A 
ATOM     35  C   UNL A   1      45.305  24.616  30.493  1.00  0.00     0.031 C 
ATOM     36  C   UNL A   1      45.221  26.258  32.350  1.00  0.00     0.037 A 
BRANCH  23  37
ATOM     37  C   UNL A   1      42.031  31.069  34.605  1.00  0.00     0.057 A 
ATOM     38  C   UNL A   1      41.170  30.894  35.698  1.00  0.00     0.134 A 
ATOM     39  C   UNL A   1      42.710  32.288  34.506  1.00  0.00     0.134 A 
ATOM     40  F   UNL A   1      40.466  29.759  35.834  1.00  0.00    -0.206 F 
ATOM     41  C   UNL A   1      40.971  31.904  36.640  1.00  0.00     0.040 A 
ATOM     42  C   UNL A   1      42.538  33.297  35.455  1.00  0.00     0.040 A 
ATOM     43  F   UNL A   1      43.540  32.524  33.479  1.00  0.00    -0.206 F 
ATOM     44  C   UNL A   1      41.660  33.109  36.521  1.00  0.00     0.006 A 
ENDBRANCH  23  37
BRANCH  24  45
ATOM     45  C   UNL A   1      42.533  24.168  27.336  1.00  0.00     0.057 A 
ATOM     46  C   UNL A   1      42.083  22.855  27.522  1.00  0.00     0.134 A 
ATOM     47  C   UNL A   1      43.106  24.477  26.095  1.00  0.00     0.134 A 
ATOM     48  F   UNL A   1      41.538  22.489  28.692  1.00  0.00    -0.206 F 
ATOM     49  C   UNL A   1      42.228  21.881  26.531  1.00  0.00     0.040 A 
ATOM     50  C   UNL A   1      43.236  23.519  25.086  1.00  0.00     0.040 A 
ATOM     51  F   UNL A   1      43.556  25.716  25.846  1.00  0.00    -0.206 F 
ATOM     52  C   UNL A   1      42.806  22.213  25.307  1.00  0.00     0.006 A 
ENDBRANCH  24  45
BRANCH  36  53
ATOM     53  C   UNL A   1      46.450  25.609  32.911  1.00  0.00     0.057 A 
ATOM     54  C   UNL A   1      47.736  26.024  32.549  1.00  0.00     0.134 A 
ATOM     55  C   UNL A   1      46.339  24.584  33.860  1.00  0.00     0.134 A 
ATOM     56  F   UNL A   1      47.908  26.991  31.635  1.00  0.00    -0.206 F 
ATOM     57  C   UNL A   1      48.873  25.424  33.093  1.00  0.00     0.040 A 
ATOM     58  C   UNL A   1      47.467  23.999  34.434  1.00  0.00     0.040 A 
ATOM     59  F   UNL A   1      45.133  24.148  34.256  1.00  0.00    -0.206 F 
ATOM     60  C   UNL A   1      48.739  24.415  34.045  1.00  0.00     0.006 A 
ENDBRANCH  36  53
ENDBRANCH  10  11
ENDBRANCH   3   5
ENDBRANCH   2   3
ENDBRANCH   1   2
BRANCH   1  61
ATOM     61  C   UNL A   1      33.841  34.465  28.810  1.00  0.00     0.274 C 
BRANCH  61  62
ATOM     62  O   UNL A   1      33.610  34.349  30.224  1.00  0.00    -0.459 OA
BRANCH  62  63
ATOM     63  C   UNL A   1      33.240  35.507  30.862  1.00  0.00     0.351 C 
ATOM     64  O   UNL A   1      32.562  36.385  30.338  1.00  0.00    -0.248 OA
BRANCH  63  65
ATOM     65  C   UNL A   1      33.676  35.507  32.324  1.00  0.00     0.339 C 
ATOM     66  F   UNL A   1      34.550  36.518  32.616  1.00  0.00    -0.222 F 
BRANCH  65  67
ATOM     67  S   UNL A   1      34.416  33.931  32.836  1.00  0.00    -0.059 SA
BRANCH  67  68
ATOM     68  C   UNL A   1      36.073  34.355  32.707  1.00  0.00     0.077 A 
ATOM     69  C   UNL A   1      37.049  34.511  33.654  1.00  0.00     0.043 A 
ATOM     70  N   UNL A   1      36.628  34.447  31.468  1.00  0.00    -0.350 N 
ATOM     71  C   UNL A   1      38.286  34.519  32.951  1.00  0.00     0.001 A 
ATOM     72  C   UNL A   1      37.995  34.470  31.586  1.00  0.00     0.046 A 
ATOM     73  H   UNL A   1      36.128  34.492  30.620  1.00  0.00     0.167 HD
ATOM     74  C   UNL A   1      39.632  34.506  33.355  1.00  0.00     0.010 A 
ATOM     75  C   UNL A   1      38.978  34.410  30.597  1.00  0.00     0.027 A 
ATOM     76  C   UNL A   1      40.632  34.423  32.378  1.00  0.00     0.001 A 
ATOM     77  C   UNL A   1      40.306  34.377  31.023  1.00  0.00     0.002 A 
ENDBRANCH  67  68
ENDBRANCH  65  67
ENDBRANCH  63  65
ENDBRANCH  62  63
ENDBRANCH  61  62
ENDBRANCH   1  61
TORSDOF 13
ENDMDL
