MODEL 1
REMARK VINA RESULT:     -12.0      0.000      0.000
REMARK SMILES CCOC(=O)[C@@]1(C)C/C(=N/c2cccc(C(=O)OCCOC(=O)c3ccc(-c4c5nc(c(-c6c(F)cccc6F)c6ccc([nH]6)c(-c6c(F)cccc6F)c6nc(c(-c7c(F)cccc7F)c7ccc4[nH]7)C=C6)C=C5)cc3)c2)C(=O)N1c1ccccc1
REMARK SMILES IDX 19 1 18 2 16 3 17 4 15 5 11 6 12 7 78 8 13 9 14 10 10 11
REMARK SMILES IDX 6 12 7 13 8 14 81 15 9 16 79 17 80 18 4 19 5 20 3 21 2 22
REMARK SMILES IDX 1 23 82 24 83 25 87 26 84 27 86 28 85 29 20 30 21 31 22 32
REMARK SMILES IDX 23 33 24 34 25 35 77 36 26 37 76 38 27 39 28 40 29 41 70 42
REMARK SMILES IDX 30 43 75 44 69 45 71 46 31 47 74 48 68 49 67 50 32 52 58 53
REMARK SMILES IDX 41 54 57 55 42 56 45 57 56 58 72 59 43 60 44 61 55 63 73 64
REMARK SMILES IDX 46 65 33 66 34 67 39 68 35 69 36 70 38 71 40 72 37 73 59 74
REMARK SMILES IDX 60 75 65 76 61 77 62 78 64 79 66 80 63 81 47 82 48 83 53 84
REMARK SMILES IDX 49 85 50 86 52 87 54 88 51 89
REMARK H PARENT 71 51 45 62
REMARK Flexibility Score: inf
ROOT
ATOM      1  C   UNL A   1      42.183  20.180  26.088  1.00  0.00     0.275 C 
ENDROOT
BRANCH   1   2
ATOM      2  O   UNL A   1      40.947  20.786  26.513  1.00  0.00    -0.458 OA
BRANCH   2   3
ATOM      3  C   UNL A   1      39.827  20.355  25.874  1.00  0.00     0.338 C 
ATOM      4  O   UNL A   1      39.653  19.254  25.376  1.00  0.00    -0.246 OA
BRANCH   3   5
ATOM      5  C   UNL A   1      38.768  21.393  25.927  1.00  0.00     0.062 A 
ATOM      6  C   UNL A   1      36.440  22.066  25.832  1.00  0.00     0.064 A 
ATOM      7  C   UNL A   1      36.811  23.379  26.126  1.00  0.00     0.028 A 
ATOM      8  C   UNL A   1      37.428  21.087  25.680  1.00  0.00     0.044 A 
ATOM      9  C   UNL A   1      38.152  23.701  26.339  1.00  0.00     0.003 A 
ATOM     10  C   UNL A   1      39.126  22.705  26.262  1.00  0.00     0.016 A 
BRANCH   6  11
ATOM     11  N   UNL A   1      35.085  21.728  25.710  1.00  0.00    -0.248 NA
ATOM     12  C   UNL A   1      32.461  23.873  24.931  1.00  0.00     0.148 C 
ATOM     13  C   UNL A   1      32.261  24.343  26.386  1.00  0.00     0.048 C 
ATOM     14  C   UNL A   1      32.857  22.373  24.956  1.00  0.00     0.103 C 
ATOM     15  N   UNL A   1      33.599  24.576  24.287  1.00  0.00    -0.290 N 
ATOM     16  C   UNL A   1      34.333  22.506  24.991  1.00  0.00     0.109 C 
ATOM     17  C   UNL A   1      34.715  23.747  24.224  1.00  0.00     0.273 C 
ATOM     18  O   UNL A   1      35.805  23.889  23.712  1.00  0.00    -0.267 OA
BRANCH  12  19
ATOM     19  C   UNL A   1      31.196  23.918  24.053  1.00  0.00     0.332 C 
ATOM     20  O   UNL A   1      30.972  23.148  23.126  1.00  0.00    -0.249 OA
BRANCH  19  21
ATOM     21  O   UNL A   1      30.309  24.846  24.511  1.00  0.00    -0.464 OA
BRANCH  21  22
ATOM     22  C   UNL A   1      29.898  25.844  23.563  1.00  0.00     0.229 C 
ATOM     23  C   UNL A   1      30.084  27.225  24.162  1.00  0.00     0.049 C 
ENDBRANCH  21  22
ENDBRANCH  19  21
ENDBRANCH  12  19
BRANCH  15  24
ATOM     24  C   UNL A   1      33.580  25.935  23.833  1.00  0.00     0.045 A 
ATOM     25  C   UNL A   1      33.507  26.244  22.464  1.00  0.00     0.026 A 
ATOM     26  C   UNL A   1      33.658  27.019  24.720  1.00  0.00     0.026 A 
ATOM     27  C   UNL A   1      33.534  27.565  22.001  1.00  0.00     0.002 A 
ATOM     28  C   UNL A   1      33.703  28.343  24.260  1.00  0.00     0.002 A 
ATOM     29  C   UNL A   1      33.644  28.616  22.900  1.00  0.00     0.000 A 
ENDBRANCH  15  24
ENDBRANCH   6  11
ENDBRANCH   3   5
ENDBRANCH   2   3
ENDBRANCH   1   2
BRANCH   1  30
ATOM     30  C   UNL A   1      43.205  21.265  25.751  1.00  0.00     0.275 C 
BRANCH  30  31
ATOM     31  O   UNL A   1      42.493  22.485  25.508  1.00  0.00    -0.458 OA
BRANCH  31  32
ATOM     32  C   UNL A   1      43.239  23.594  25.319  1.00  0.00     0.338 C 
ATOM     33  O   UNL A   1      44.090  23.760  24.463  1.00  0.00    -0.246 OA
BRANCH  32  34
ATOM     34  C   UNL A   1      42.883  24.582  26.369  1.00  0.00     0.060 A 
ATOM     35  C   UNL A   1      43.379  25.893  26.337  1.00  0.00     0.016 A 
ATOM     36  C   UNL A   1      42.036  24.186  27.407  1.00  0.00     0.016 A 
ATOM     37  C   UNL A   1      43.017  26.809  27.324  1.00  0.00     0.010 A 
ATOM     38  C   UNL A   1      41.658  25.109  28.387  1.00  0.00     0.010 A 
ATOM     39  C   UNL A   1      42.146  26.425  28.351  1.00  0.00    -0.014 A 
BRANCH  39  40
ATOM     40  C   UNL A   1      41.766  27.387  29.410  1.00  0.00     0.031 A 
ATOM     41  C   UNL A   1      42.561  27.451  30.678  1.00  0.00     0.074 A 
ATOM     42  C   UNL A   1      40.714  28.208  29.235  1.00  0.00     0.049 A 
ATOM     43  N   UNL A   1      42.301  28.098  31.784  1.00  0.00    -0.248 NA
ATOM     44  C   UNL A   1      43.816  26.685  30.705  1.00  0.00     0.031 C 
ATOM     45  C   UNL A   1      39.890  28.290  28.029  1.00  0.00     0.029 A 
ATOM     46  N   UNL A   1      40.166  29.137  30.081  1.00  0.00    -0.354 N 
ATOM     47  C   UNL A   1      43.333  27.783  32.654  1.00  0.00     0.074 A 
ATOM     48  C   UNL A   1      44.241  26.909  31.941  1.00  0.00     0.031 C 
ATOM     49  C   UNL A   1      38.953  29.237  28.204  1.00  0.00     0.029 A 
ATOM     50  C   UNL A   1      39.085  29.794  29.548  1.00  0.00     0.049 A 
ATOM     51  H   UNL A   1      40.514  29.317  30.985  1.00  0.00     0.167 HD
ATOM     52  C   UNL A   1      43.500  28.174  33.940  1.00  0.00     0.037 A 
ATOM     53  C   UNL A   1      38.281  30.725  30.092  1.00  0.00     0.037 A 
ATOM     54  C   UNL A   1      42.613  29.057  34.647  1.00  0.00     0.049 A 
ATOM     55  C   UNL A   1      38.491  31.151  31.516  1.00  0.00     0.074 A 
ATOM     56  C   UNL A   1      42.659  29.452  35.973  1.00  0.00     0.029 A 
ATOM     57  N   UNL A   1      41.530  29.701  34.073  1.00  0.00    -0.354 N 
ATOM     58  N   UNL A   1      39.404  30.758  32.368  1.00  0.00    -0.248 NA
ATOM     59  C   UNL A   1      37.538  32.130  32.060  1.00  0.00     0.031 C 
ATOM     60  C   UNL A   1      41.602  30.343  36.200  1.00  0.00     0.029 A 
ATOM     61  C   UNL A   1      40.907  30.505  35.012  1.00  0.00     0.049 A 
ATOM     62  H   UNL A   1      41.244  29.601  33.136  1.00  0.00     0.167 HD
ATOM     63  C   UNL A   1      39.129  31.426  33.553  1.00  0.00     0.074 A 
ATOM     64  C   UNL A   1      37.978  32.270  33.304  1.00  0.00     0.031 C 
ATOM     65  C   UNL A   1      39.764  31.334  34.745  1.00  0.00     0.037 A 
BRANCH  52  66
ATOM     66  C   UNL A   1      44.674  27.607  34.668  1.00  0.00     0.057 A 
ATOM     67  C   UNL A   1      45.901  28.275  34.712  1.00  0.00     0.134 A 
ATOM     68  C   UNL A   1      44.572  26.379  35.333  1.00  0.00     0.134 A 
ATOM     69  F   UNL A   1      46.060  29.446  34.076  1.00  0.00    -0.206 F 
ATOM     70  C   UNL A   1      46.995  27.735  35.389  1.00  0.00     0.040 A 
ATOM     71  C   UNL A   1      45.656  25.833  36.019  1.00  0.00     0.040 A 
ATOM     72  F   UNL A   1      43.420  25.691  35.317  1.00  0.00    -0.206 F 
ATOM     73  C   UNL A   1      46.873  26.512  36.047  1.00  0.00     0.006 A 
ENDBRANCH  52  66
BRANCH  53  74
ATOM     74  C   UNL A   1      37.182  31.307  29.292  1.00  0.00     0.057 A 
ATOM     75  C   UNL A   1      36.018  30.575  29.041  1.00  0.00     0.134 A 
ATOM     76  C   UNL A   1      37.272  32.595  28.757  1.00  0.00     0.134 A 
ATOM     77  F   UNL A   1      35.890  29.328  29.514  1.00  0.00    -0.206 F 
ATOM     78  C   UNL A   1      34.976  31.105  28.280  1.00  0.00     0.040 A 
ATOM     79  C   UNL A   1      36.235  33.142  28.001  1.00  0.00     0.040 A 
ATOM     80  F   UNL A   1      38.370  33.338  28.960  1.00  0.00    -0.206 F 
ATOM     81  C   UNL A   1      35.082  32.395  27.760  1.00  0.00     0.006 A 
ENDBRANCH  53  74
BRANCH  65  82
ATOM     82  C   UNL A   1      39.220  32.159  35.866  1.00  0.00     0.057 A 
ATOM     83  C   UNL A   1      39.661  33.469  36.078  1.00  0.00     0.134 A 
ATOM     84  C   UNL A   1      38.233  31.653  36.719  1.00  0.00     0.134 A 
ATOM     85  F   UNL A   1      40.613  34.000  35.297  1.00  0.00    -0.206 F 
ATOM     86  C   UNL A   1      39.139  34.252  37.108  1.00  0.00     0.040 A 
ATOM     87  C   UNL A   1      37.701  32.427  37.749  1.00  0.00     0.040 A 
ATOM     88  F   UNL A   1      37.778  30.401  36.566  1.00  0.00    -0.206 F 
ATOM     89  C   UNL A   1      38.153  33.731  37.946  1.00  0.00     0.006 A 
ENDBRANCH  65  82
ENDBRANCH  39  40
ENDBRANCH  32  34
ENDBRANCH  31  32
ENDBRANCH  30  31
ENDBRANCH   1  30
TORSDOF 16
ENDMDL
MODEL 2
REMARK VINA RESULT:     -11.9      5.216     11.662
REMARK SMILES CCOC(=O)[C@@]1(C)C/C(=N/c2cccc(C(=O)OCCOC(=O)c3ccc(-c4c5nc(c(-c6c(F)cccc6F)c6ccc([nH]6)c(-c6c(F)cccc6F)c6nc(c(-c7c(F)cccc7F)c7ccc4[nH]7)C=C6)C=C5)cc3)c2)C(=O)N1c1ccccc1
REMARK SMILES IDX 19 1 18 2 16 3 17 4 15 5 11 6 12 7 78 8 13 9 14 10 10 11
REMARK SMILES IDX 6 12 7 13 8 14 81 15 9 16 79 17 80 18 4 19 5 20 3 21 2 22
REMARK SMILES IDX 1 23 82 24 83 25 87 26 84 27 86 28 85 29 20 30 21 31 22 32
REMARK SMILES IDX 23 33 24 34 25 35 77 36 26 37 76 38 27 39 28 40 29 41 70 42
REMARK SMILES IDX 30 43 75 44 69 45 71 46 31 47 74 48 68 49 67 50 32 52 58 53
REMARK SMILES IDX 41 54 57 55 42 56 45 57 56 58 72 59 43 60 44 61 55 63 73 64
REMARK SMILES IDX 46 65 33 66 34 67 39 68 35 69 36 70 38 71 40 72 37 73 59 74
REMARK SMILES IDX 60 75 65 76 61 77 62 78 64 79 66 80 63 81 47 82 48 83 53 84
REMARK SMILES IDX 49 85 50 86 52 87 54 88 51 89
REMARK H PARENT 71 51 45 62
REMARK Flexibility Score: inf
ROOT
ATOM      1  C   UNL A   1      33.898  33.669  28.317  1.00  0.00     0.275 C 
ENDROOT
BRANCH   1   2
ATOM      2  O   UNL A   1      34.375  34.735  29.160  1.00  0.00    -0.458 OA
BRANCH   2   3
ATOM      3  C   UNL A   1      33.423  35.411  29.855  1.00  0.00     0.338 C 
ATOM      4  O   UNL A   1      32.401  35.901  29.399  1.00  0.00    -0.246 OA
BRANCH   3   5
ATOM      5  C   UNL A   1      33.742  35.414  31.304  1.00  0.00     0.062 A 
ATOM      6  C   UNL A   1      34.643  34.349  33.288  1.00  0.00     0.064 A 
ATOM      7  C   UNL A   1      34.404  35.513  34.018  1.00  0.00     0.028 A 
ATOM      8  C   UNL A   1      34.261  34.285  31.943  1.00  0.00     0.044 A 
ATOM      9  C   UNL A   1      33.852  36.634  33.396  1.00  0.00     0.003 A 
ATOM     10  C   UNL A   1      33.544  36.592  32.036  1.00  0.00     0.016 A 
BRANCH   6  11
ATOM     11  N   UNL A   1      35.282  33.256  33.893  1.00  0.00    -0.248 NA
ATOM     12  C   UNL A   1      38.385  31.928  33.054  1.00  0.00     0.148 C 
ATOM     13  C   UNL A   1      37.827  31.038  31.925  1.00  0.00     0.048 C 
ATOM     14  C   UNL A   1      37.336  31.977  34.196  1.00  0.00     0.103 C 
ATOM     15  N   UNL A   1      38.550  33.333  32.604  1.00  0.00    -0.290 N 
ATOM     16  C   UNL A   1      36.574  33.180  33.784  1.00  0.00     0.109 C 
ATOM     17  C   UNL A   1      37.526  34.132  33.103  1.00  0.00     0.273 C 
ATOM     18  O   UNL A   1      37.328  35.328  33.052  1.00  0.00    -0.267 OA
BRANCH  12  19
ATOM     19  C   UNL A   1      39.661  31.395  33.733  1.00  0.00     0.332 C 
ATOM     20  O   UNL A   1      39.983  31.646  34.889  1.00  0.00    -0.249 OA
BRANCH  19  21
ATOM     21  O   UNL A   1      40.324  30.522  32.923  1.00  0.00    -0.464 OA
BRANCH  21  22
ATOM     22  C   UNL A   1      40.799  29.321  33.550  1.00  0.00     0.229 C 
ATOM     23  C   UNL A   1      40.873  28.204  32.527  1.00  0.00     0.049 C 
ENDBRANCH  21  22
ENDBRANCH  19  21
ENDBRANCH  12  19
BRANCH  15  24
ATOM     24  C   UNL A   1      39.587  33.805  31.735  1.00  0.00     0.045 A 
ATOM     25  C   UNL A   1      40.879  34.067  32.221  1.00  0.00     0.026 A 
ATOM     26  C   UNL A   1      39.364  34.053  30.373  1.00  0.00     0.026 A 
ATOM     27  C   UNL A   1      41.892  34.573  31.396  1.00  0.00     0.002 A 
ATOM     28  C   UNL A   1      40.370  34.576  29.547  1.00  0.00     0.002 A 
ATOM     29  C   UNL A   1      41.633  34.838  30.059  1.00  0.00     0.000 A 
ENDBRANCH  15  24
ENDBRANCH   6  11
ENDBRANCH   3   5
ENDBRANCH   2   3
ENDBRANCH   1   2
BRANCH   1  30
ATOM     30  C   UNL A   1      35.042  32.706  28.000  1.00  0.00     0.275 C 
BRANCH  30  31
ATOM     31  O   UNL A   1      34.878  31.539  28.815  1.00  0.00    -0.458 OA
BRANCH  31  32
ATOM     32  C   UNL A   1      34.964  30.346  28.189  1.00  0.00     0.338 C 
ATOM     33  O   UNL A   1      34.054  29.737  27.657  1.00  0.00    -0.246 OA
BRANCH  32  34
ATOM     34  C   UNL A   1      36.365  29.862  28.295  1.00  0.00     0.060 A 
ATOM     35  C   UNL A   1      36.820  29.186  29.435  1.00  0.00     0.016 A 
ATOM     36  C   UNL A   1      37.239  30.091  27.229  1.00  0.00     0.016 A 
ATOM     37  C   UNL A   1      38.134  28.726  29.506  1.00  0.00     0.010 A 
ATOM     38  C   UNL A   1      38.551  29.613  27.291  1.00  0.00     0.010 A 
ATOM     39  C   UNL A   1      39.006  28.928  28.429  1.00  0.00    -0.014 A 
BRANCH  39  40
ATOM     40  C   UNL A   1      40.406  28.453  28.499  1.00  0.00     0.031 A 
ATOM     41  C   UNL A   1      41.486  29.384  28.960  1.00  0.00     0.074 A 
ATOM     42  C   UNL A   1      40.712  27.188  28.156  1.00  0.00     0.049 A 
ATOM     43  N   UNL A   1      42.783  29.220  28.938  1.00  0.00    -0.248 NA
ATOM     44  C   UNL A   1      41.048  30.670  29.522  1.00  0.00     0.031 C 
ATOM     45  C   UNL A   1      39.752  26.163  27.745  1.00  0.00     0.029 A 
ATOM     46  N   UNL A   1      41.926  26.552  28.108  1.00  0.00    -0.354 N 
ATOM     47  C   UNL A   1      43.319  30.396  29.439  1.00  0.00     0.074 A 
ATOM     48  C   UNL A   1      42.207  31.258  29.784  1.00  0.00     0.031 C 
ATOM     49  C   UNL A   1      40.413  25.017  27.508  1.00  0.00     0.029 A 
ATOM     50  C   UNL A   1      41.842  25.242  27.709  1.00  0.00     0.049 A 
ATOM     51  H   UNL A   1      42.775  26.993  28.339  1.00  0.00     0.167 HD
ATOM     52  C   UNL A   1      44.622  30.734  29.581  1.00  0.00     0.037 A 
ATOM     53  C   UNL A   1      42.814  24.333  27.508  1.00  0.00     0.037 A 
ATOM     54  C   UNL A   1      45.729  29.877  29.260  1.00  0.00     0.049 A 
ATOM     55  C   UNL A   1      44.251  24.728  27.681  1.00  0.00     0.074 A 
ATOM     56  C   UNL A   1      47.084  30.157  29.301  1.00  0.00     0.029 A 
ATOM     57  N   UNL A   1      45.604  28.557  28.857  1.00  0.00    -0.354 N 
ATOM     58  N   UNL A   1      44.751  25.882  28.045  1.00  0.00    -0.248 NA
ATOM     59  C   UNL A   1      45.260  23.698  27.389  1.00  0.00     0.031 C 
ATOM     60  C   UNL A   1      47.781  29.001  28.927  1.00  0.00     0.029 A 
ATOM     61  C   UNL A   1      46.857  28.003  28.662  1.00  0.00     0.049 A 
ATOM     62  H   UNL A   1      44.750  28.084  28.728  1.00  0.00     0.167 HD
ATOM     63  C   UNL A   1      46.130  25.726  28.010  1.00  0.00     0.074 A 
ATOM     64  C   UNL A   1      46.389  24.357  27.613  1.00  0.00     0.031 C 
ATOM     65  C   UNL A   1      47.093  26.642  28.267  1.00  0.00     0.037 A 
BRANCH  52  66
ATOM     66  C   UNL A   1      44.908  32.115  30.075  1.00  0.00     0.057 A 
ATOM     67  C   UNL A   1      44.980  33.205  29.202  1.00  0.00     0.134 A 
ATOM     68  C   UNL A   1      45.111  32.354  31.439  1.00  0.00     0.134 A 
ATOM     69  F   UNL A   1      44.812  33.030  27.882  1.00  0.00    -0.206 F 
ATOM     70  C   UNL A   1      45.254  34.490  29.670  1.00  0.00     0.040 A 
ATOM     71  C   UNL A   1      45.379  33.635  31.920  1.00  0.00     0.040 A 
ATOM     72  F   UNL A   1      45.061  31.343  32.321  1.00  0.00    -0.206 F 
ATOM     73  C   UNL A   1      45.452  34.707  31.033  1.00  0.00     0.006 A 
ENDBRANCH  52  66
BRANCH  53  74
ATOM     74  C   UNL A   1      42.460  22.958  27.095  1.00  0.00     0.057 A 
ATOM     75  C   UNL A   1      42.007  22.025  28.031  1.00  0.00     0.134 A 
ATOM     76  C   UNL A   1      42.574  22.545  25.763  1.00  0.00     0.134 A 
ATOM     77  F   UNL A   1      41.899  22.364  29.324  1.00  0.00    -0.206 F 
ATOM     78  C   UNL A   1      41.678  20.722  27.659  1.00  0.00     0.040 A 
ATOM     79  C   UNL A   1      42.241  21.247  25.375  1.00  0.00     0.040 A 
ATOM     80  F   UNL A   1      43.012  23.397  24.825  1.00  0.00    -0.206 F 
ATOM     81  C   UNL A   1      41.793  20.330  26.325  1.00  0.00     0.006 A 
ENDBRANCH  53  74
BRANCH  65  82
ATOM     82  C   UNL A   1      48.511  26.192  28.116  1.00  0.00     0.057 A 
ATOM     83  C   UNL A   1      49.218  25.660  29.200  1.00  0.00     0.134 A 
ATOM     84  C   UNL A   1      49.161  26.264  26.880  1.00  0.00     0.134 A 
ATOM     85  F   UNL A   1      48.646  25.577  30.410  1.00  0.00    -0.206 F 
ATOM     86  C   UNL A   1      50.533  25.216  29.059  1.00  0.00     0.040 A 
ATOM     87  C   UNL A   1      50.474  25.819  26.726  1.00  0.00     0.040 A 
ATOM     88  F   UNL A   1      48.533  26.770  25.809  1.00  0.00    -0.206 F 
ATOM     89  C   UNL A   1      51.163  25.292  27.817  1.00  0.00     0.006 A 
ENDBRANCH  65  82
ENDBRANCH  39  40
ENDBRANCH  32  34
ENDBRANCH  31  32
ENDBRANCH  30  31
ENDBRANCH   1  30
TORSDOF 16
ENDMDL
MODEL 3
REMARK VINA RESULT:     -11.8      3.589      7.408
REMARK SMILES CCOC(=O)[C@@]1(C)C/C(=N/c2cccc(C(=O)OCCOC(=O)c3ccc(-c4c5nc(c(-c6c(F)cccc6F)c6ccc([nH]6)c(-c6c(F)cccc6F)c6nc(c(-c7c(F)cccc7F)c7ccc4[nH]7)C=C6)C=C5)cc3)c2)C(=O)N1c1ccccc1
REMARK SMILES IDX 19 1 18 2 16 3 17 4 15 5 11 6 12 7 78 8 13 9 14 10 10 11
REMARK SMILES IDX 6 12 7 13 8 14 81 15 9 16 79 17 80 18 4 19 5 20 3 21 2 22
REMARK SMILES IDX 1 23 82 24 83 25 87 26 84 27 86 28 85 29 20 30 21 31 22 32
REMARK SMILES IDX 23 33 24 34 25 35 77 36 26 37 76 38 27 39 28 40 29 41 70 42
REMARK SMILES IDX 30 43 75 44 69 45 71 46 31 47 74 48 68 49 67 50 32 52 58 53
REMARK SMILES IDX 41 54 57 55 42 56 45 57 56 58 72 59 43 60 44 61 55 63 73 64
REMARK SMILES IDX 46 65 33 66 34 67 39 68 35 69 36 70 38 71 40 72 37 73 59 74
REMARK SMILES IDX 60 75 65 76 61 77 62 78 64 79 66 80 63 81 47 82 48 83 53 84
REMARK SMILES IDX 49 85 50 86 52 87 54 88 51 89
REMARK H PARENT 71 51 45 62
REMARK Flexibility Score: inf
ROOT
ATOM      1  C   UNL A   1      38.517  21.037  25.586  1.00  0.00     0.275 C 
ENDROOT
BRANCH   1   2
ATOM      2  O   UNL A   1      37.100  20.871  25.380  1.00  0.00    -0.458 OA
BRANCH   2   3
ATOM      3  C   UNL A   1      36.523  21.742  24.512  1.00  0.00     0.338 C 
ATOM      4  O   UNL A   1      37.037  22.220  23.512  1.00  0.00    -0.246 OA
BRANCH   3   5
ATOM      5  C   UNL A   1      35.110  21.994  24.891  1.00  0.00     0.062 A 
ATOM      6  C   UNL A   1      32.880  22.799  24.382  1.00  0.00     0.064 A 
ATOM      7  C   UNL A   1      32.439  22.358  25.630  1.00  0.00     0.028 A 
ATOM      8  C   UNL A   1      34.230  22.664  24.038  1.00  0.00     0.044 A 
ATOM      9  C   UNL A   1      33.321  21.719  26.504  1.00  0.00     0.003 A 
ATOM     10  C   UNL A   1      34.649  21.517  26.125  1.00  0.00     0.016 A 
BRANCH   6  11
ATOM     11  N   UNL A   1      31.972  23.357  23.471  1.00  0.00    -0.248 NA
ATOM     12  C   UNL A   1      30.426  26.464  23.703  1.00  0.00     0.148 C 
ATOM     13  C   UNL A   1      29.283  25.956  24.605  1.00  0.00     0.048 C 
ATOM     14  C   UNL A   1      30.784  25.340  22.694  1.00  0.00     0.103 C 
ATOM     15  N   UNL A   1      31.665  26.707  24.485  1.00  0.00    -0.290 N 
ATOM     16  C   UNL A   1      31.851  24.650  23.458  1.00  0.00     0.109 C 
ATOM     17  C   UNL A   1      32.580  25.678  24.286  1.00  0.00     0.273 C 
ATOM     18  O   UNL A   1      33.725  25.525  24.657  1.00  0.00    -0.267 OA
BRANCH  12  19
ATOM     19  C   UNL A   1      30.069  27.671  22.816  1.00  0.00     0.332 C 
ATOM     20  O   UNL A   1      30.580  27.902  21.727  1.00  0.00    -0.249 OA
BRANCH  19  21
ATOM     21  O   UNL A   1      29.033  28.383  23.345  1.00  0.00    -0.464 OA
BRANCH  21  22
ATOM     22  C   UNL A   1      28.646  29.561  22.620  1.00  0.00     0.229 C 
ATOM     23  C   UNL A   1      28.861  30.787  23.485  1.00  0.00     0.049 C 
ENDBRANCH  21  22
ENDBRANCH  19  21
ENDBRANCH  12  19
BRANCH  15  24
ATOM     24  C   UNL A   1      31.881  27.817  25.365  1.00  0.00     0.045 A 
ATOM     25  C   UNL A   1      31.608  27.719  26.740  1.00  0.00     0.026 A 
ATOM     26  C   UNL A   1      32.348  29.056  24.902  1.00  0.00     0.026 A 
ATOM     27  C   UNL A   1      31.768  28.808  27.606  1.00  0.00     0.002 A 
ATOM     28  C   UNL A   1      32.493  30.154  25.763  1.00  0.00     0.002 A 
ATOM     29  C   UNL A   1      32.202  30.031  27.114  1.00  0.00     0.000 A 
ENDBRANCH  15  24
ENDBRANCH   6  11
ENDBRANCH   3   5
ENDBRANCH   2   3
ENDBRANCH   1   2
BRANCH   1  30
ATOM     30  C   UNL A   1      39.242  19.726  25.284  1.00  0.00     0.275 C 
BRANCH  30  31
ATOM     31  O   UNL A   1      40.261  19.544  26.275  1.00  0.00    -0.458 OA
BRANCH  31  32
ATOM     32  C   UNL A   1      41.525  19.841  25.906  1.00  0.00     0.338 C 
ATOM     33  O   UNL A   1      42.267  19.147  25.233  1.00  0.00    -0.246 OA
BRANCH  32  34
ATOM     34  C   UNL A   1      41.891  21.152  26.499  1.00  0.00     0.060 A 
ATOM     35  C   UNL A   1      42.242  22.245  25.695  1.00  0.00     0.016 A 
ATOM     36  C   UNL A   1      41.881  21.288  27.890  1.00  0.00     0.016 A 
ATOM     37  C   UNL A   1      42.565  23.472  26.274  1.00  0.00     0.010 A 
ATOM     38  C   UNL A   1      42.186  22.523  28.470  1.00  0.00     0.010 A 
ATOM     39  C   UNL A   1      42.530  23.621  27.666  1.00  0.00    -0.014 A 
BRANCH  39  40
ATOM     40  C   UNL A   1      42.882  24.917  28.290  1.00  0.00     0.031 A 
ATOM     41  C   UNL A   1      41.811  25.933  28.550  1.00  0.00     0.074 A 
ATOM     42  C   UNL A   1      44.156  25.183  28.630  1.00  0.00     0.049 A 
ATOM     43  N   UNL A   1      41.930  27.178  28.931  1.00  0.00    -0.248 NA
ATOM     44  C   UNL A   1      40.423  25.488  28.356  1.00  0.00     0.031 C 
ATOM     45  C   UNL A   1      45.285  24.263  28.485  1.00  0.00     0.029 A 
ATOM     46  N   UNL A   1      44.710  26.312  29.176  1.00  0.00    -0.354 N 
ATOM     47  C   UNL A   1      40.638  27.680  28.979  1.00  0.00     0.074 A 
ATOM     48  C   UNL A   1      39.746  26.599  28.616  1.00  0.00     0.031 C 
ATOM     49  C   UNL A   1      46.395  24.858  28.953  1.00  0.00     0.029 A 
ATOM     50  C   UNL A   1      46.062  26.211  29.389  1.00  0.00     0.049 A 
ATOM     51  H   UNL A   1      44.187  27.117  29.396  1.00  0.00     0.167 HD
ATOM     52  C   UNL A   1      40.234  28.935  29.283  1.00  0.00     0.037 A 
ATOM     53  C   UNL A   1      46.935  27.119  29.863  1.00  0.00     0.037 A 
ATOM     54  C   UNL A   1      41.112  30.007  29.664  1.00  0.00     0.049 A 
ATOM     55  C   UNL A   1      46.462  28.502  30.202  1.00  0.00     0.074 A 
ATOM     56  C   UNL A   1      40.803  31.332  29.919  1.00  0.00     0.029 A 
ATOM     57  N   UNL A   1      42.474  29.867  29.868  1.00  0.00    -0.354 N 
ATOM     58  N   UNL A   1      45.253  29.000  30.132  1.00  0.00    -0.248 NA
ATOM     59  C   UNL A   1      47.483  29.456  30.659  1.00  0.00     0.031 C 
ATOM     60  C   UNL A   1      41.982  31.994  30.283  1.00  0.00     0.029 A 
ATOM     61  C   UNL A   1      43.020  31.076  30.261  1.00  0.00     0.049 A 
ATOM     62  H   UNL A   1      42.980  29.030  29.749  1.00  0.00     0.167 HD
ATOM     63  C   UNL A   1      45.368  30.328  30.520  1.00  0.00     0.074 A 
ATOM     64  C   UNL A   1      46.761  30.553  30.848  1.00  0.00     0.031 C 
ATOM     65  C   UNL A   1      44.406  31.279  30.581  1.00  0.00     0.037 A 
BRANCH  52  66
ATOM     66  C   UNL A   1      38.771  29.216  29.171  1.00  0.00     0.057 A 
ATOM     67  C   UNL A   1      37.924  29.141  30.282  1.00  0.00     0.134 A 
ATOM     68  C   UNL A   1      38.206  29.566  27.939  1.00  0.00     0.134 A 
ATOM     69  F   UNL A   1      38.408  28.790  31.483  1.00  0.00    -0.206 F 
ATOM     70  C   UNL A   1      36.557  29.397  30.168  1.00  0.00     0.040 A 
ATOM     71  C   UNL A   1      36.843  29.832  27.814  1.00  0.00     0.040 A 
ATOM     72  F   UNL A   1      38.971  29.645  26.839  1.00  0.00    -0.206 F 
ATOM     73  C   UNL A   1      36.014  29.747  28.932  1.00  0.00     0.006 A 
ENDBRANCH  52  66
BRANCH  53  74
ATOM     74  C   UNL A   1      48.359  26.755  30.024  1.00  0.00     0.057 A 
ATOM     75  C   UNL A   1      49.283  27.019  29.009  1.00  0.00     0.134 A 
ATOM     76  C   UNL A   1      48.825  26.131  31.185  1.00  0.00     0.134 A 
ATOM     77  F   UNL A   1      48.884  27.598  27.867  1.00  0.00    -0.206 F 
ATOM     78  C   UNL A   1      50.628  26.674  29.141  1.00  0.00     0.040 A 
ATOM     79  C   UNL A   1      50.169  25.787  31.335  1.00  0.00     0.040 A 
ATOM     80  F   UNL A   1      47.980  25.846  32.187  1.00  0.00    -0.206 F 
ATOM     81  C   UNL A   1      51.075  26.058  30.310  1.00  0.00     0.006 A 
ENDBRANCH  53  74
BRANCH  65  82
ATOM     82  C   UNL A   1      44.834  32.646  31.008  1.00  0.00     0.057 A 
ATOM     83  C   UNL A   1      45.240  33.601  30.069  1.00  0.00     0.134 A 
ATOM     84  C   UNL A   1      44.815  33.019  32.355  1.00  0.00     0.134 A 
ATOM     85  F   UNL A   1      45.287  33.294  28.764  1.00  0.00    -0.206 F 
ATOM     86  C   UNL A   1      45.616  34.887  30.459  1.00  0.00     0.040 A 
ATOM     87  C   UNL A   1      45.185  34.302  32.757  1.00  0.00     0.040 A 
ATOM     88  F   UNL A   1      44.441  32.142  33.299  1.00  0.00    -0.206 F 
ATOM     89  C   UNL A   1      45.586  35.240  31.808  1.00  0.00     0.006 A 
ENDBRANCH  65  82
ENDBRANCH  39  40
ENDBRANCH  32  34
ENDBRANCH  31  32
ENDBRANCH  30  31
ENDBRANCH   1  30
TORSDOF 16
ENDMDL
