MODEL 1
REMARK VINA RESULT:     -12.8      0.000      0.000
REMARK SMILES CCc1cc(S(F)(F)(F)(F)F)cc2c1O[C@@H](C(F)(F)F)C(C(=O)OCCOC(=O)c1ccc(-c3c4nc(c(-c5c(F)cccc5F)c5ccc([nH]5)c(-c5c(F)cccc5F)c5nc(c(-c6c(F)cccc6F)c6ccc3[nH]6)C=C5)C=C4)cc1)=C2
REMARK SMILES IDX 26 1 25 2 24 3 22 4 23 5 21 6 3 7 4 8 14 9 5 10 13 11 15 12
REMARK SMILES IDX 12 13 84 14 16 15 2 16 1 17 6 18 7 19 8 20 9 21 10 22 11 23
REMARK SMILES IDX 17 24 18 25 19 26 20 27 27 28 28 29 29 30 30 31 31 32 83 33
REMARK SMILES IDX 32 34 82 35 33 36 34 37 35 38 76 39 36 40 81 41 75 42 77 43
REMARK SMILES IDX 37 44 80 45 74 46 73 47 38 49 64 50 47 51 63 52 48 53 51 54
REMARK SMILES IDX 62 55 78 56 49 57 50 58 61 60 79 61 52 62 39 63 40 64 45 65
REMARK SMILES IDX 41 66 42 67 44 68 46 69 43 70 65 71 66 72 71 73 67 74 68 75
REMARK SMILES IDX 70 76 72 77 69 78 53 79 54 80 59 81 55 82 56 83 58 84 60 85
REMARK SMILES IDX 57 86
REMARK H PARENT 77 48 51 59
REMARK Flexibility Score: inf
ROOT
ATOM      1  C   UNL A   1      43.634  22.194  24.975  1.00  0.00     0.275 C 
ENDROOT
BRANCH   1   2
ATOM      2  C   UNL A   1      42.613  21.517  25.876  1.00  0.00     0.275 C 
BRANCH   2   3
ATOM      3  O   UNL A   1      41.314  21.997  25.561  1.00  0.00    -0.459 OA
BRANCH   3   4
ATOM      4  C   UNL A   1      40.215  21.674  26.401  1.00  0.00     0.338 C 
ATOM      5  O   UNL A   1      40.410  21.060  27.496  1.00  0.00    -0.246 OA
BRANCH   4   6
ATOM      6  C   UNL A   1      38.804  22.063  25.988  1.00  0.00     0.087 C 
ATOM      7  C   UNL A   1      34.843  23.224  25.348  1.00  0.00    -0.004 A 
ATOM      8  C   UNL A   1      33.910  22.293  24.929  1.00  0.00     0.032 A 
ATOM      9  C   UNL A   1      36.126  22.804  25.602  1.00  0.00     0.131 A 
ATOM     10  C   UNL A   1      34.251  20.975  24.773  1.00  0.00     0.108 A 
ATOM     11  C   UNL A   1      36.512  21.486  25.438  1.00  0.00     0.019 A 
ATOM     12  O   UNL A   1      37.011  23.716  26.124  1.00  0.00    -0.475 OA
ATOM     13  C   UNL A   1      35.548  20.575  25.020  1.00  0.00     0.036 A 
ATOM     14  C   UNL A   1      37.881  21.134  25.771  1.00  0.00     0.027 C 
ATOM     15  C   UNL A   1      38.420  23.526  25.814  1.00  0.00     0.316 C 
BRANCH   7  16
ATOM     16  C   UNL A   1      34.386  24.659  25.555  1.00  0.00     0.036 C 
ATOM     17  C   UNL A   1      32.914  24.672  25.936  1.00  0.00     0.009 C 
ENDBRANCH   7  16
BRANCH  10  18
ATOM     18  S   UNL A   1      33.009  19.768  24.247  1.00  0.00     0.310 S 
ATOM     19  F   UNL A   1      31.778  20.559  24.859  1.00  0.00    -0.094 F 
ATOM     20  F   UNL A   1      33.205  19.111  25.665  1.00  0.00    -0.094 F 
ATOM     21  F   UNL A   1      32.010  18.651  23.835  1.00  0.00    -0.094 F 
ATOM     22  F   UNL A   1      32.719  20.517  22.887  1.00  0.00    -0.094 F 
ATOM     23  F   UNL A   1      33.935  20.969  24.694  1.00  0.00    -0.094 F 
ENDBRANCH  10  18
BRANCH  15  24
ATOM     24  C   UNL A   1      39.255  24.374  26.760  1.00  0.00     0.430 C 
ATOM     25  F   UNL A   1      38.528  25.398  27.197  1.00  0.00    -0.167 F 
ATOM     26  F   UNL A   1      39.644  23.633  27.793  1.00  0.00    -0.167 F 
ATOM     27  F   UNL A   1      40.324  24.833  26.115  1.00  0.00    -0.167 F 
ENDBRANCH  15  24
ENDBRANCH   4   6
ENDBRANCH   3   4
ENDBRANCH   2   3
ENDBRANCH   1   2
BRANCH   1  28
ATOM     28  O   UNL A   1      43.235  23.534  24.731  1.00  0.00    -0.458 OA
BRANCH  28  29
ATOM     29  C   UNL A   1      44.029  24.609  25.213  1.00  0.00     0.338 C 
ATOM     30  O   UNL A   1      45.158  24.854  24.683  1.00  0.00    -0.246 OA
BRANCH  29  31
ATOM     31  C   UNL A   1      43.528  25.466  26.364  1.00  0.00     0.060 A 
ATOM     32  C   UNL A   1      42.984  24.824  27.464  1.00  0.00     0.016 A 
ATOM     33  C   UNL A   1      43.619  26.790  26.314  1.00  0.00     0.016 A 
ATOM     34  C   UNL A   1      42.293  25.687  28.347  1.00  0.00     0.010 A 
ATOM     35  C   UNL A   1      43.035  27.568  27.285  1.00  0.00     0.010 A 
ATOM     36  C   UNL A   1      42.428  27.000  28.371  1.00  0.00    -0.014 A 
BRANCH  36  37
ATOM     37  C   UNL A   1      41.936  27.836  29.541  1.00  0.00     0.031 A 
ATOM     38  C   UNL A   1      42.600  27.729  30.765  1.00  0.00     0.074 A 
ATOM     39  C   UNL A   1      40.814  28.621  29.335  1.00  0.00     0.049 A 
ATOM     40  N   UNL A   1      42.313  28.360  31.904  1.00  0.00    -0.248 NA
ATOM     41  C   UNL A   1      43.772  26.870  30.993  1.00  0.00     0.031 C 
ATOM     42  C   UNL A   1      40.143  28.741  28.103  1.00  0.00     0.029 A 
ATOM     43  N   UNL A   1      40.154  29.407  30.253  1.00  0.00    -0.354 N 
ATOM     44  C   UNL A   1      43.185  28.015  32.854  1.00  0.00     0.074 A 
ATOM     45  C   UNL A   1      44.133  27.048  32.283  1.00  0.00     0.031 C 
ATOM     46  C   UNL A   1      39.087  29.578  28.276  1.00  0.00     0.029 A 
ATOM     47  C   UNL A   1      39.081  29.996  29.621  1.00  0.00     0.049 A 
ATOM     48  H   UNL A   1      40.405  29.528  31.196  1.00  0.00     0.167 HD
ATOM     49  C   UNL A   1      43.229  28.473  34.171  1.00  0.00     0.037 A 
ATOM     50  C   UNL A   1      38.137  30.850  30.169  1.00  0.00     0.037 A 
ATOM     51  C   UNL A   1      42.311  29.361  34.708  1.00  0.00     0.049 A 
ATOM     52  C   UNL A   1      38.147  31.262  31.504  1.00  0.00     0.074 A 
ATOM     53  C   UNL A   1      42.346  29.837  36.033  1.00  0.00     0.029 A 
ATOM     54  N   UNL A   1      41.224  29.931  34.083  1.00  0.00    -0.354 N 
ATOM     55  N   UNL A   1      39.042  30.949  32.442  1.00  0.00    -0.248 NA
ATOM     56  C   UNL A   1      37.134  32.141  32.104  1.00  0.00     0.031 C 
ATOM     57  C   UNL A   1      41.289  30.675  36.207  1.00  0.00     0.029 A 
ATOM     58  C   UNL A   1      40.577  30.735  34.994  1.00  0.00     0.049 A 
ATOM     59  H   UNL A   1      40.956  29.787  33.147  1.00  0.00     0.167 HD
ATOM     60  C   UNL A   1      38.730  31.548  33.593  1.00  0.00     0.074 A 
ATOM     61  C   UNL A   1      37.493  32.317  33.394  1.00  0.00     0.031 C 
ATOM     62  C   UNL A   1      39.427  31.487  34.801  1.00  0.00     0.037 A 
BRANCH  49  63
ATOM     63  C   UNL A   1      44.347  27.967  35.069  1.00  0.00     0.057 A 
ATOM     64  C   UNL A   1      44.147  26.795  35.779  1.00  0.00     0.134 A 
ATOM     65  C   UNL A   1      45.507  28.614  35.120  1.00  0.00     0.134 A 
ATOM     66  F   UNL A   1      43.113  25.986  35.567  1.00  0.00    -0.206 F 
ATOM     67  C   UNL A   1      45.144  26.535  36.749  1.00  0.00     0.040 A 
ATOM     68  C   UNL A   1      46.488  28.221  35.997  1.00  0.00     0.040 A 
ATOM     69  F   UNL A   1      45.719  29.650  34.313  1.00  0.00    -0.206 F 
ATOM     70  C   UNL A   1      46.334  27.106  36.772  1.00  0.00     0.006 A 
ENDBRANCH  49  63
BRANCH  50  71
ATOM     71  C   UNL A   1      37.030  31.368  29.267  1.00  0.00     0.057 A 
ATOM     72  C   UNL A   1      37.123  32.654  28.759  1.00  0.00     0.134 A 
ATOM     73  C   UNL A   1      35.967  30.609  29.027  1.00  0.00     0.134 A 
ATOM     74  F   UNL A   1      38.255  33.351  28.757  1.00  0.00    -0.206 F 
ATOM     75  C   UNL A   1      35.906  33.156  28.243  1.00  0.00     0.040 A 
ATOM     76  C   UNL A   1      34.863  31.129  28.394  1.00  0.00     0.040 A 
ATOM     77  F   UNL A   1      35.972  29.332  29.399  1.00  0.00    -0.206 F 
ATOM     78  C   UNL A   1      34.865  32.411  27.919  1.00  0.00     0.006 A 
ENDBRANCH  50  71
BRANCH  62  79
ATOM     79  C   UNL A   1      38.896  32.292  35.974  1.00  0.00     0.057 A 
ATOM     80  C   UNL A   1      39.205  33.640  36.042  1.00  0.00     0.134 A 
ATOM     81  C   UNL A   1      38.151  31.708  36.907  1.00  0.00     0.134 A 
ATOM     82  F   UNL A   1      39.724  34.317  35.022  1.00  0.00    -0.206 F 
ATOM     83  C   UNL A   1      38.920  34.233  37.295  1.00  0.00     0.040 A 
ATOM     84  C   UNL A   1      37.793  32.391  38.045  1.00  0.00     0.040 A 
ATOM     85  F   UNL A   1      37.745  30.454  36.737  1.00  0.00    -0.206 F 
ATOM     86  C   UNL A   1      38.117  33.710  38.205  1.00  0.00     0.006 A 
ENDBRANCH  62  79
ENDBRANCH  36  37
ENDBRANCH  29  31
ENDBRANCH  28  29
ENDBRANCH   1  28
TORSDOF 14
ENDMDL
MODEL 2
REMARK VINA RESULT:     -12.7      0.282      6.061
REMARK SMILES CCc1cc(S(F)(F)(F)(F)F)cc2c1O[C@@H](C(F)(F)F)C(C(=O)OCCOC(=O)c1ccc(-c3c4nc(c(-c5c(F)cccc5F)c5ccc([nH]5)c(-c5c(F)cccc5F)c5nc(c(-c6c(F)cccc6F)c6ccc3[nH]6)C=C5)C=C4)cc1)=C2
REMARK SMILES IDX 26 1 25 2 24 3 22 4 23 5 21 6 3 7 4 8 14 9 5 10 13 11 15 12
REMARK SMILES IDX 12 13 84 14 16 15 2 16 1 17 6 18 7 19 8 20 9 21 10 22 11 23
REMARK SMILES IDX 17 24 18 25 19 26 20 27 27 28 28 29 29 30 30 31 31 32 83 33
REMARK SMILES IDX 32 34 82 35 33 36 34 37 35 38 76 39 36 40 81 41 75 42 77 43
REMARK SMILES IDX 37 44 80 45 74 46 73 47 38 49 64 50 47 51 63 52 48 53 51 54
REMARK SMILES IDX 62 55 78 56 49 57 50 58 61 60 79 61 52 62 39 63 40 64 45 65
REMARK SMILES IDX 41 66 42 67 44 68 46 69 43 70 65 71 66 72 71 73 67 74 68 75
REMARK SMILES IDX 70 76 72 77 69 78 53 79 54 80 59 81 55 82 56 83 58 84 60 85
REMARK SMILES IDX 57 86
REMARK H PARENT 77 48 51 59
REMARK Flexibility Score: inf
ROOT
ATOM      1  C   UNL A   1      43.646  22.097  24.981  1.00  0.00     0.275 C 
ENDROOT
BRANCH   1   2
ATOM      2  C   UNL A   1      42.610  21.533  25.940  1.00  0.00     0.275 C 
BRANCH   2   3
ATOM      3  O   UNL A   1      41.349  22.133  25.679  1.00  0.00    -0.459 OA
BRANCH   3   4
ATOM      4  C   UNL A   1      40.233  21.828  26.503  1.00  0.00     0.338 C 
ATOM      5  O   UNL A   1      40.406  21.231  27.611  1.00  0.00    -0.246 OA
BRANCH   4   6
ATOM      6  C   UNL A   1      38.832  22.215  26.057  1.00  0.00     0.087 C 
ATOM      7  C   UNL A   1      34.891  23.387  25.324  1.00  0.00    -0.004 A 
ATOM      8  C   UNL A   1      33.957  22.452  24.917  1.00  0.00     0.032 A 
ATOM      9  C   UNL A   1      36.167  22.965  25.609  1.00  0.00     0.131 A 
ATOM     10  C   UNL A   1      34.290  21.128  24.804  1.00  0.00     0.108 A 
ATOM     11  C   UNL A   1      36.544  21.640  25.489  1.00  0.00     0.019 A 
ATOM     12  O   UNL A   1      37.050  23.885  26.119  1.00  0.00    -0.475 OA
ATOM     13  C   UNL A   1      35.579  20.725  25.082  1.00  0.00     0.036 A 
ATOM     14  C   UNL A   1      37.906  21.287  25.852  1.00  0.00     0.027 C 
ATOM     15  C   UNL A   1      38.462  23.676  25.836  1.00  0.00     0.316 C 
BRANCH   7  16
ATOM     16  C   UNL A   1      34.441  24.831  25.483  1.00  0.00     0.036 C 
ATOM     17  C   UNL A   1      32.974  24.864  25.879  1.00  0.00     0.009 C 
ENDBRANCH   7  16
BRANCH  10  18
ATOM     18  S   UNL A   1      33.046  19.915  24.293  1.00  0.00     0.310 S 
ATOM     19  F   UNL A   1      31.814  20.725  24.875  1.00  0.00    -0.094 F 
ATOM     20  F   UNL A   1      33.226  19.288  25.727  1.00  0.00    -0.094 F 
ATOM     21  F   UNL A   1      32.045  18.795  23.897  1.00  0.00    -0.094 F 
ATOM     22  F   UNL A   1      32.773  20.635  22.913  1.00  0.00    -0.094 F 
ATOM     23  F   UNL A   1      33.974  21.121  24.722  1.00  0.00    -0.094 F 
ENDBRANCH  10  18
BRANCH  15  24
ATOM     24  C   UNL A   1      39.290  24.544  26.770  1.00  0.00     0.430 C 
ATOM     25  F   UNL A   1      40.341  25.025  26.114  1.00  0.00    -0.167 F 
ATOM     26  F   UNL A   1      38.545  25.552  27.214  1.00  0.00    -0.167 F 
ATOM     27  F   UNL A   1      39.707  23.813  27.800  1.00  0.00    -0.167 F 
ENDBRANCH  15  24
ENDBRANCH   4   6
ENDBRANCH   3   4
ENDBRANCH   2   3
ENDBRANCH   1   2
BRANCH   1  28
ATOM     28  O   UNL A   1      43.297  23.428  24.635  1.00  0.00    -0.458 OA
BRANCH  28  29
ATOM     29  C   UNL A   1      44.055  24.516  25.144  1.00  0.00     0.338 C 
ATOM     30  O   UNL A   1      45.192  24.787  24.645  1.00  0.00    -0.246 OA
BRANCH  29  31
ATOM     31  C   UNL A   1      43.508  25.354  26.288  1.00  0.00     0.060 A 
ATOM     32  C   UNL A   1      43.116  24.701  27.444  1.00  0.00     0.016 A 
ATOM     33  C   UNL A   1      43.417  26.675  26.178  1.00  0.00     0.016 A 
ATOM     34  C   UNL A   1      42.364  25.507  28.332  1.00  0.00     0.010 A 
ATOM     35  C   UNL A   1      42.787  27.416  27.150  1.00  0.00     0.010 A 
ATOM     36  C   UNL A   1      42.323  26.826  28.293  1.00  0.00    -0.014 A 
BRANCH  36  37
ATOM     37  C   UNL A   1      41.787  27.646  29.456  1.00  0.00     0.031 A 
ATOM     38  C   UNL A   1      40.683  28.473  29.237  1.00  0.00     0.074 A 
ATOM     39  C   UNL A   1      42.466  27.562  30.659  1.00  0.00     0.049 A 
ATOM     40  N   UNL A   1      40.082  29.275  30.115  1.00  0.00    -0.248 NA
ATOM     41  C   UNL A   1      39.982  28.587  27.949  1.00  0.00     0.031 C 
ATOM     42  C   UNL A   1      43.574  26.725  30.890  1.00  0.00     0.029 A 
ATOM     43  N   UNL A   1      42.208  28.252  31.824  1.00  0.00    -0.354 N 
ATOM     44  C   UNL A   1      39.047  29.894  29.541  1.00  0.00     0.074 A 
ATOM     45  C   UNL A   1      38.972  29.465  28.138  1.00  0.00     0.031 C 
ATOM     46  C   UNL A   1      43.986  26.914  32.171  1.00  0.00     0.029 A 
ATOM     47  C   UNL A   1      43.142  27.873  32.763  1.00  0.00     0.049 A 
ATOM     48  H   UNL A   1      41.482  28.902  31.961  1.00  0.00     0.167 HD
ATOM     49  C   UNL A   1      38.163  30.796  30.135  1.00  0.00     0.037 A 
ATOM     50  C   UNL A   1      43.268  28.328  34.065  1.00  0.00     0.037 A 
ATOM     51  C   UNL A   1      38.262  31.219  31.450  1.00  0.00     0.049 A 
ATOM     52  C   UNL A   1      42.417  29.276  34.641  1.00  0.00     0.074 A 
ATOM     53  C   UNL A   1      37.375  32.122  32.065  1.00  0.00     0.029 A 
ATOM     54  N   UNL A   1      39.211  30.859  32.382  1.00  0.00    -0.354 N 
ATOM     55  N   UNL A   1      41.360  29.864  34.080  1.00  0.00    -0.248 NA
ATOM     56  C   UNL A   1      42.561  29.789  36.010  1.00  0.00     0.031 C 
ATOM     57  C   UNL A   1      37.787  32.312  33.347  1.00  0.00     0.029 A 
ATOM     58  C   UNL A   1      38.940  31.530  33.553  1.00  0.00     0.049 A 
ATOM     59  H   UNL A   1      39.954  30.230  32.236  1.00  0.00     0.167 HD
ATOM     60  C   UNL A   1      40.784  30.698  34.947  1.00  0.00     0.074 A 
ATOM     61  C   UNL A   1      41.552  30.668  36.199  1.00  0.00     0.031 C 
ATOM     62  C   UNL A   1      39.645  31.480  34.746  1.00  0.00     0.037 A 
BRANCH  49  63
ATOM     63  C   UNL A   1      37.026  31.347  29.289  1.00  0.00     0.057 A 
ATOM     64  C   UNL A   1      37.167  32.607  28.731  1.00  0.00     0.134 A 
ATOM     65  C   UNL A   1      35.951  30.604  29.050  1.00  0.00     0.134 A 
ATOM     66  F   UNL A   1      38.316  33.276  28.730  1.00  0.00    -0.206 F 
ATOM     67  C   UNL A   1      35.977  33.117  28.161  1.00  0.00     0.040 A 
ATOM     68  C   UNL A   1      34.878  31.125  28.368  1.00  0.00     0.040 A 
ATOM     69  F   UNL A   1      35.914  29.344  29.475  1.00  0.00    -0.206 F 
ATOM     70  C   UNL A   1      34.925  32.385  27.840  1.00  0.00     0.006 A 
ENDBRANCH  49  63
BRANCH  50  71
ATOM     71  C   UNL A   1      44.394  27.765  34.915  1.00  0.00     0.057 A 
ATOM     72  C   UNL A   1      45.623  28.405  34.911  1.00  0.00     0.134 A 
ATOM     73  C   UNL A   1      44.204  26.643  35.601  1.00  0.00     0.134 A 
ATOM     74  F   UNL A   1      45.794  29.642  34.458  1.00  0.00    -0.206 F 
ATOM     75  C   UNL A   1      46.679  27.621  35.434  1.00  0.00     0.040 A 
ATOM     76  C   UNL A   1      45.261  26.003  36.202  1.00  0.00     0.040 A 
ATOM     77  F   UNL A   1      42.979  26.136  35.708  1.00  0.00    -0.206 F 
ATOM     78  C   UNL A   1      46.514  26.548  36.187  1.00  0.00     0.006 A 
ENDBRANCH  50  71
BRANCH  62  79
ATOM     79  C   UNL A   1      39.150  32.330  35.904  1.00  0.00     0.057 A 
ATOM     80  C   UNL A   1      38.182  31.801  36.742  1.00  0.00     0.134 A 
ATOM     81  C   UNL A   1      39.640  33.549  36.102  1.00  0.00     0.134 A 
ATOM     82  F   UNL A   1      37.847  30.514  36.740  1.00  0.00    -0.206 F 
ATOM     83  C   UNL A   1      37.580  32.753  37.598  1.00  0.00     0.040 A 
ATOM     84  C   UNL A   1      39.092  34.378  37.051  1.00  0.00     0.040 A 
ATOM     85  F   UNL A   1      40.672  33.970  35.377  1.00  0.00    -0.206 F 
ATOM     86  C   UNL A   1      38.092  33.940  37.874  1.00  0.00     0.006 A 
ENDBRANCH  62  79
ENDBRANCH  36  37
ENDBRANCH  29  31
ENDBRANCH  28  29
ENDBRANCH   1  28
TORSDOF 14
ENDMDL
MODEL 3
REMARK VINA RESULT:     -12.6      4.939     10.095
REMARK SMILES CCc1cc(S(F)(F)(F)(F)F)cc2c1O[C@@H](C(F)(F)F)C(C(=O)OCCOC(=O)c1ccc(-c3c4nc(c(-c5c(F)cccc5F)c5ccc([nH]5)c(-c5c(F)cccc5F)c5nc(c(-c6c(F)cccc6F)c6ccc3[nH]6)C=C5)C=C4)cc1)=C2
REMARK SMILES IDX 26 1 25 2 24 3 22 4 23 5 21 6 3 7 4 8 14 9 5 10 13 11 15 12
REMARK SMILES IDX 12 13 84 14 16 15 2 16 1 17 6 18 7 19 8 20 9 21 10 22 11 23
REMARK SMILES IDX 17 24 18 25 19 26 20 27 27 28 28 29 29 30 30 31 31 32 83 33
REMARK SMILES IDX 32 34 82 35 33 36 34 37 35 38 76 39 36 40 81 41 75 42 77 43
REMARK SMILES IDX 37 44 80 45 74 46 73 47 38 49 64 50 47 51 63 52 48 53 51 54
REMARK SMILES IDX 62 55 78 56 49 57 50 58 61 60 79 61 52 62 39 63 40 64 45 65
REMARK SMILES IDX 41 66 42 67 44 68 46 69 43 70 65 71 66 72 71 73 67 74 68 75
REMARK SMILES IDX 70 76 72 77 69 78 53 79 54 80 59 81 55 82 56 83 58 84 60 85
REMARK SMILES IDX 57 86
REMARK H PARENT 77 48 51 59
REMARK Flexibility Score: inf
ROOT
ATOM      1  C   UNL A   1      34.406  33.302  31.828  1.00  0.00     0.275 C 
ENDROOT
BRANCH   1   2
ATOM      2  C   UNL A   1      34.390  33.527  30.325  1.00  0.00     0.275 C 
BRANCH   2   3
ATOM      3  O   UNL A   1      34.162  32.290  29.664  1.00  0.00    -0.459 OA
BRANCH   3   4
ATOM      4  C   UNL A   1      34.440  32.163  28.278  1.00  0.00     0.338 C 
ATOM      5  O   UNL A   1      35.094  33.071  27.675  1.00  0.00    -0.246 OA
BRANCH   4   6
ATOM      6  C   UNL A   1      33.956  30.941  27.515  1.00  0.00     0.087 C 
ATOM      7  C   UNL A   1      33.040  27.639  25.126  1.00  0.00    -0.004 A 
ATOM      8  C   UNL A   1      31.934  27.673  24.297  1.00  0.00     0.032 A 
ATOM      9  C   UNL A   1      33.348  28.758  25.861  1.00  0.00     0.131 A 
ATOM     10  C   UNL A   1      31.160  28.799  24.201  1.00  0.00     0.108 A 
ATOM     11  C   UNL A   1      32.579  29.906  25.804  1.00  0.00     0.019 A 
ATOM     12  O   UNL A   1      34.511  28.747  26.592  1.00  0.00    -0.475 OA
ATOM     13  C   UNL A   1      31.477  29.908  24.956  1.00  0.00     0.036 A 
ATOM     14  C   UNL A   1      33.011  31.050  26.589  1.00  0.00     0.027 C 
ATOM     15  C   UNL A   1      34.544  29.564  27.797  1.00  0.00     0.316 C 
BRANCH   7  16
ATOM     16  C   UNL A   1      33.888  26.377  25.143  1.00  0.00     0.036 C 
ATOM     17  C   UNL A   1      33.288  25.375  26.115  1.00  0.00     0.009 C 
ENDBRANCH   7  16
BRANCH  10  18
ATOM     18  S   UNL A   1      29.731  28.832  23.090  1.00  0.00     0.310 S 
ATOM     19  F   UNL A   1      30.196  27.585  22.227  1.00  0.00    -0.094 F 
ATOM     20  F   UNL A   1      30.618  29.730  22.149  1.00  0.00    -0.094 F 
ATOM     21  F   UNL A   1      28.518  28.970  22.127  1.00  0.00    -0.094 F 
ATOM     22  F   UNL A   1      28.902  27.817  23.973  1.00  0.00    -0.094 F 
ATOM     23  F   UNL A   1      30.986  28.591  24.019  1.00  0.00    -0.094 F 
ENDBRANCH  10  18
BRANCH  15  24
ATOM     24  C   UNL A   1      35.987  29.724  28.248  1.00  0.00     0.430 C 
ATOM     25  F   UNL A   1      36.023  29.889  29.568  1.00  0.00    -0.167 F 
ATOM     26  F   UNL A   1      36.677  28.637  27.918  1.00  0.00    -0.167 F 
ATOM     27  F   UNL A   1      36.521  30.787  27.654  1.00  0.00    -0.167 F 
ENDBRANCH  15  24
ENDBRANCH   4   6
ENDBRANCH   3   4
ENDBRANCH   2   3
ENDBRANCH   1   2
BRANCH   1  28
ATOM     28  O   UNL A   1      35.019  32.054  32.114  1.00  0.00    -0.458 OA
BRANCH  28  29
ATOM     29  C   UNL A   1      36.273  32.016  32.780  1.00  0.00     0.338 C 
ATOM     30  O   UNL A   1      36.367  32.419  33.982  1.00  0.00    -0.246 OA
BRANCH  29  31
ATOM     31  C   UNL A   1      37.503  31.495  32.055  1.00  0.00     0.060 A 
ATOM     32  C   UNL A   1      37.760  31.977  30.782  1.00  0.00     0.016 A 
ATOM     33  C   UNL A   1      38.307  30.609  32.632  1.00  0.00     0.016 A 
ATOM     34  C   UNL A   1      38.742  31.241  30.078  1.00  0.00     0.010 A 
ATOM     35  C   UNL A   1      39.332  30.029  31.923  1.00  0.00     0.010 A 
ATOM     36  C   UNL A   1      39.606  30.416  30.640  1.00  0.00    -0.014 A 
BRANCH  36  37
ATOM     37  C   UNL A   1      40.840  29.921  29.902  1.00  0.00     0.031 A 
ATOM     38  C   UNL A   1      41.883  30.819  29.668  1.00  0.00     0.074 A 
ATOM     39  C   UNL A   1      40.831  28.611  29.455  1.00  0.00     0.049 A 
ATOM     40  N   UNL A   1      43.029  30.585  29.028  1.00  0.00    -0.248 NA
ATOM     41  C   UNL A   1      41.879  32.220  30.113  1.00  0.00     0.031 C 
ATOM     42  C   UNL A   1      39.787  27.697  29.694  1.00  0.00     0.029 A 
ATOM     43  N   UNL A   1      41.798  27.964  28.717  1.00  0.00    -0.354 N 
ATOM     44  C   UNL A   1      43.786  31.685  29.021  1.00  0.00     0.074 A 
ATOM     45  C   UNL A   1      43.054  32.754  29.714  1.00  0.00     0.031 C 
ATOM     46  C   UNL A   1      40.113  26.519  29.100  1.00  0.00     0.029 A 
ATOM     47  C   UNL A   1      41.367  26.677  28.480  1.00  0.00     0.049 A 
ATOM     48  H   UNL A   1      42.648  28.353  28.412  1.00  0.00     0.167 HD
ATOM     49  C   UNL A   1      45.058  31.836  28.468  1.00  0.00     0.037 A 
ATOM     50  C   UNL A   1      42.015  25.684  27.763  1.00  0.00     0.037 A 
ATOM     51  C   UNL A   1      45.726  30.830  27.788  1.00  0.00     0.049 A 
ATOM     52  C   UNL A   1      43.263  25.854  27.158  1.00  0.00     0.074 A 
ATOM     53  C   UNL A   1      47.012  30.964  27.230  1.00  0.00     0.029 A 
ATOM     54  N   UNL A   1      45.285  29.550  27.529  1.00  0.00    -0.354 N 
ATOM     55  N   UNL A   1      44.037  26.940  27.186  1.00  0.00    -0.248 NA
ATOM     56  C   UNL A   1      43.945  24.819  26.369  1.00  0.00     0.031 C 
ATOM     57  C   UNL A   1      47.338  29.786  26.635  1.00  0.00     0.029 A 
ATOM     58  C   UNL A   1      46.261  28.896  26.811  1.00  0.00     0.049 A 
ATOM     59  H   UNL A   1      44.422  29.170  27.810  1.00  0.00     0.167 HD
ATOM     60  C   UNL A   1      45.165  26.718  26.510  1.00  0.00     0.074 A 
ATOM     61  C   UNL A   1      45.120  25.353  25.968  1.00  0.00     0.031 C 
ATOM     62  C   UNL A   1      46.234  27.597  26.326  1.00  0.00     0.037 A 
BRANCH  49  63
ATOM     63  C   UNL A   1      45.750  33.181  28.617  1.00  0.00     0.057 A 
ATOM     64  C   UNL A   1      45.514  34.157  27.663  1.00  0.00     0.134 A 
ATOM     65  C   UNL A   1      46.517  33.424  29.675  1.00  0.00     0.134 A 
ATOM     66  F   UNL A   1      44.566  34.051  26.736  1.00  0.00    -0.206 F 
ATOM     67  C   UNL A   1      46.372  35.277  27.764  1.00  0.00     0.040 A 
ATOM     68  C   UNL A   1      47.222  34.598  29.773  1.00  0.00     0.040 A 
ATOM     69  F   UNL A   1      46.603  32.520  30.647  1.00  0.00    -0.206 F 
ATOM     70  C   UNL A   1      47.083  35.583  28.835  1.00  0.00     0.006 A 
ENDBRANCH  49  63
BRANCH  50  71
ATOM     71  C   UNL A   1      41.331  24.334  27.628  1.00  0.00     0.057 A 
ATOM     72  C   UNL A   1      41.766  23.279  28.413  1.00  0.00     0.134 A 
ATOM     73  C   UNL A   1      40.371  24.171  26.725  1.00  0.00     0.134 A 
ATOM     74  F   UNL A   1      42.530  23.443  29.488  1.00  0.00    -0.206 F 
ATOM     75  C   UNL A   1      41.321  22.012  27.968  1.00  0.00     0.040 A 
ATOM     76  C   UNL A   1      39.887  22.917  26.437  1.00  0.00     0.040 A 
ATOM     77  F   UNL A   1      39.872  25.230  26.094  1.00  0.00    -0.206 F 
ATOM     78  C   UNL A   1      40.315  21.821  27.133  1.00  0.00     0.006 A 
ENDBRANCH  50  71
BRANCH  62  79
ATOM     79  C   UNL A   1      47.440  27.103  25.545  1.00  0.00     0.057 A 
ATOM     80  C   UNL A   1      48.400  26.364  26.216  1.00  0.00     0.134 A 
ATOM     81  C   UNL A   1      47.560  27.375  24.251  1.00  0.00     0.134 A 
ATOM     82  F   UNL A   1      48.207  25.856  27.430  1.00  0.00    -0.206 F 
ATOM     83  C   UNL A   1      49.606  26.199  25.494  1.00  0.00     0.040 A 
ATOM     84  C   UNL A   1      48.716  27.063  23.575  1.00  0.00     0.040 A 
ATOM     85  F   UNL A   1      46.554  27.954  23.602  1.00  0.00    -0.206 F 
ATOM     86  C   UNL A   1      49.730  26.385  24.192  1.00  0.00     0.006 A 
ENDBRANCH  62  79
ENDBRANCH  36  37
ENDBRANCH  29  31
ENDBRANCH  28  29
ENDBRANCH   1  28
TORSDOF 14
ENDMDL
