MODEL 1
REMARK VINA RESULT:     -10.9      0.000      0.000
REMARK SMILES CSc1nc2nnc(C(=O)OCCOC(=O)c3ccc(-c4c5nc(c(-c6c(F)cccc6F)c6ccc([nH]6)c(-c6c(F)cccc6F)c6nc(c(-c7c(F)cccc7F)c7ccc4[nH]7)C=C6)C=C5)cc3)c(O)n2n1
REMARK SMILES IDX 13 1 12 2 11 3 9 4 10 5 8 6 3 7 4 8 74 9 5 10 73 11 6 12
REMARK SMILES IDX 71 13 7 14 2 15 1 16 72 17 14 19 15 20 16 21 17 22 18 23
REMARK SMILES IDX 70 24 19 25 69 26 20 27 21 28 22 29 63 30 23 31 68 32 62 33
REMARK SMILES IDX 64 34 24 35 67 36 61 37 60 38 25 40 51 41 34 42 50 43 35 44
REMARK SMILES IDX 38 45 49 46 65 47 36 48 37 49 48 51 66 52 39 53 26 54 27 55
REMARK SMILES IDX 32 56 28 57 29 58 31 59 33 60 30 61 52 62 53 63 58 64 54 65
REMARK SMILES IDX 55 66 57 67 59 68 56 69 40 70 41 71 46 72 42 73 43 74 45 75
REMARK SMILES IDX 47 76 44 77
REMARK H PARENT 72 18 64 39 38 50
REMARK Flexibility Score: inf
ROOT
ATOM      1  C   UNL A   1      44.951  19.423  24.379  1.00  0.00     0.275 C 
ENDROOT
BRANCH   1   2
ATOM      2  C   UNL A   1      44.302  18.496  25.407  1.00  0.00     0.275 C 
BRANCH   2   3
ATOM      3  O   UNL A   1      42.871  18.650  25.463  1.00  0.00    -0.457 OA
BRANCH   3   4
ATOM      4  C   UNL A   1      42.373  18.908  26.699  1.00  0.00     0.364 C 
ATOM      5  O   UNL A   1      42.697  18.324  27.729  1.00  0.00    -0.244 OA
BRANCH   4   6
ATOM      6  C   UNL A   1      41.486  20.102  26.720  1.00  0.00     0.232 A 
ATOM      7  C   UNL A   1      38.058  22.619  25.834  1.00  0.00     0.210 A 
ATOM      8  N   UNL A   1      39.041  23.246  26.545  1.00  0.00    -0.182 NA
ATOM      9  N   UNL A   1      38.260  21.327  25.590  1.00  0.00    -0.134 NA
ATOM     10  C   UNL A   1      39.926  22.286  26.745  1.00  0.00     0.275 A 
ATOM     11  N   UNL A   1      39.479  21.119  26.136  1.00  0.00    -0.159 N 
ATOM     12  N   UNL A   1      41.138  22.291  27.378  1.00  0.00    -0.108 NA
ATOM     13  C   UNL A   1      40.286  19.984  26.110  1.00  0.00     0.251 A 
ATOM     14  N   UNL A   1      41.876  21.262  27.371  1.00  0.00    -0.134 NA
BRANCH   7  15
ATOM     15  S   UNL A   1      36.625  23.399  25.224  1.00  0.00    -0.088 SA
ATOM     16  C   UNL A   1      36.652  22.891  23.498  1.00  0.00     0.094 C 
ENDBRANCH   7  15
BRANCH  13  17
ATOM     17  O   UNL A   1      39.815  18.848  25.463  1.00  0.00    -0.491 OA
ATOM     18  H   UNL A   1      38.927  18.811  25.166  1.00  0.00     0.295 HD
ENDBRANCH  13  17
ENDBRANCH   4   6
ENDBRANCH   3   4
ENDBRANCH   2   3
ENDBRANCH   1   2
BRANCH   1  19
ATOM     19  O   UNL A   1      44.292  20.689  24.244  1.00  0.00    -0.458 OA
BRANCH  19  20
ATOM     20  C   UNL A   1      45.076  21.755  24.499  1.00  0.00     0.338 C 
ATOM     21  O   UNL A   1      46.244  21.912  24.154  1.00  0.00    -0.246 OA
BRANCH  20  22
ATOM     22  C   UNL A   1      44.414  22.682  25.414  1.00  0.00     0.060 A 
ATOM     23  C   UNL A   1      43.540  23.627  24.866  1.00  0.00     0.016 A 
ATOM     24  C   UNL A   1      44.867  22.779  26.736  1.00  0.00     0.016 A 
ATOM     25  C   UNL A   1      43.218  24.747  25.607  1.00  0.00     0.010 A 
ATOM     26  C   UNL A   1      44.540  23.898  27.475  1.00  0.00     0.010 A 
ATOM     27  C   UNL A   1      43.775  24.905  26.881  1.00  0.00    -0.014 A 
BRANCH  27  28
ATOM     28  C   UNL A   1      43.504  26.143  27.594  1.00  0.00     0.031 A 
ATOM     29  C   UNL A   1      44.473  27.248  27.359  1.00  0.00     0.074 A 
ATOM     30  C   UNL A   1      42.359  26.334  28.279  1.00  0.00     0.049 A 
ATOM     31  N   UNL A   1      45.101  27.978  28.223  1.00  0.00    -0.248 NA
ATOM     32  C   UNL A   1      44.821  27.536  25.958  1.00  0.00     0.031 C 
ATOM     33  C   UNL A   1      41.179  25.465  28.323  1.00  0.00     0.029 A 
ATOM     34  N   UNL A   1      41.965  27.431  28.982  1.00  0.00    -0.354 N 
ATOM     35  C   UNL A   1      45.814  28.915  27.478  1.00  0.00     0.074 A 
ATOM     36  C   UNL A   1      45.686  28.538  26.094  1.00  0.00     0.031 C 
ATOM     37  C   UNL A   1      40.133  26.168  28.814  1.00  0.00     0.029 A 
ATOM     38  C   UNL A   1      40.602  27.479  29.228  1.00  0.00     0.049 A 
ATOM     39  H   UNL A   1      42.590  28.125  29.288  1.00  0.00     0.167 HD
ATOM     40  C   UNL A   1      46.332  30.051  28.015  1.00  0.00     0.037 A 
ATOM     41  C   UNL A   1      39.903  28.560  29.646  1.00  0.00     0.037 A 
ATOM     42  C   UNL A   1      46.476  29.978  29.438  1.00  0.00     0.049 A 
ATOM     43  C   UNL A   1      40.866  29.534  30.216  1.00  0.00     0.074 A 
ATOM     44  C   UNL A   1      47.217  29.192  30.298  1.00  0.00     0.029 A 
ATOM     45  N   UNL A   1      45.546  30.609  30.221  1.00  0.00    -0.354 N 
ATOM     46  N   UNL A   1      41.528  29.364  31.326  1.00  0.00    -0.248 NA
ATOM     47  C   UNL A   1      41.378  30.576  29.340  1.00  0.00     0.031 C 
ATOM     48  C   UNL A   1      46.400  29.031  31.455  1.00  0.00     0.029 A 
ATOM     49  C   UNL A   1      45.219  29.739  31.230  1.00  0.00     0.049 A 
ATOM     50  H   UNL A   1      45.181  31.514  30.086  1.00  0.00     0.167 HD
ATOM     51  C   UNL A   1      42.750  29.984  31.110  1.00  0.00     0.074 A 
ATOM     52  C   UNL A   1      42.554  30.808  29.924  1.00  0.00     0.031 C 
ATOM     53  C   UNL A   1      43.881  29.562  31.748  1.00  0.00     0.037 A 
BRANCH  40  54
ATOM     54  C   UNL A   1      46.446  31.332  27.244  1.00  0.00     0.057 A 
ATOM     55  C   UNL A   1      47.676  31.996  27.135  1.00  0.00     0.134 A 
ATOM     56  C   UNL A   1      45.319  32.061  26.809  1.00  0.00     0.134 A 
ATOM     57  F   UNL A   1      48.808  31.419  27.567  1.00  0.00    -0.206 F 
ATOM     58  C   UNL A   1      47.776  33.299  26.633  1.00  0.00     0.040 A 
ATOM     59  C   UNL A   1      45.412  33.341  26.262  1.00  0.00     0.040 A 
ATOM     60  F   UNL A   1      44.072  31.598  26.979  1.00  0.00    -0.206 F 
ATOM     61  C   UNL A   1      46.642  33.974  26.189  1.00  0.00     0.006 A 
ENDBRANCH  40  54
BRANCH  41  62
ATOM     62  C   UNL A   1      38.516  28.940  29.294  1.00  0.00     0.057 A 
ATOM     63  C   UNL A   1      37.539  29.090  30.286  1.00  0.00     0.134 A 
ATOM     64  C   UNL A   1      38.179  29.423  28.017  1.00  0.00     0.134 A 
ATOM     65  F   UNL A   1      37.782  28.700  31.546  1.00  0.00    -0.206 F 
ATOM     66  C   UNL A   1      36.307  29.707  30.031  1.00  0.00     0.040 A 
ATOM     67  C   UNL A   1      36.948  30.026  27.745  1.00  0.00     0.040 A 
ATOM     68  F   UNL A   1      39.063  29.407  27.010  1.00  0.00    -0.206 F 
ATOM     69  C   UNL A   1      36.012  30.185  28.758  1.00  0.00     0.006 A 
ENDBRANCH  41  62
BRANCH  53  70
ATOM     70  C   UNL A   1      43.723  28.601  32.892  1.00  0.00     0.057 A 
ATOM     71  C   UNL A   1      43.697  27.207  32.735  1.00  0.00     0.134 A 
ATOM     72  C   UNL A   1      43.762  29.090  34.203  1.00  0.00     0.134 A 
ATOM     73  F   UNL A   1      43.763  26.645  31.522  1.00  0.00    -0.206 F 
ATOM     74  C   UNL A   1      43.664  26.342  33.833  1.00  0.00     0.040 A 
ATOM     75  C   UNL A   1      43.764  28.235  35.308  1.00  0.00     0.040 A 
ATOM     76  F   UNL A   1      43.852  30.411  34.430  1.00  0.00    -0.206 F 
ATOM     77  C   UNL A   1      43.705  26.856  35.126  1.00  0.00     0.006 A 
ENDBRANCH  53  70
ENDBRANCH  27  28
ENDBRANCH  20  22
ENDBRANCH  19  20
ENDBRANCH   1  19
TORSDOF 13
ENDMDL
MODEL 2
REMARK VINA RESULT:     -10.8      5.977     10.964
REMARK SMILES CSc1nc2nnc(C(=O)OCCOC(=O)c3ccc(-c4c5nc(c(-c6c(F)cccc6F)c6ccc([nH]6)c(-c6c(F)cccc6F)c6nc(c(-c7c(F)cccc7F)c7ccc4[nH]7)C=C6)C=C5)cc3)c(O)n2n1
REMARK SMILES IDX 13 1 12 2 11 3 9 4 10 5 8 6 3 7 4 8 74 9 5 10 73 11 6 12
REMARK SMILES IDX 71 13 7 14 2 15 1 16 72 17 14 19 15 20 16 21 17 22 18 23
REMARK SMILES IDX 70 24 19 25 69 26 20 27 21 28 22 29 63 30 23 31 68 32 62 33
REMARK SMILES IDX 64 34 24 35 67 36 61 37 60 38 25 40 51 41 34 42 50 43 35 44
REMARK SMILES IDX 38 45 49 46 65 47 36 48 37 49 48 51 66 52 39 53 26 54 27 55
REMARK SMILES IDX 32 56 28 57 29 58 31 59 33 60 30 61 52 62 53 63 58 64 54 65
REMARK SMILES IDX 55 66 57 67 59 68 56 69 40 70 41 71 46 72 42 73 43 74 45 75
REMARK SMILES IDX 47 76 44 77
REMARK H PARENT 72 18 64 39 38 50
REMARK Flexibility Score: inf
ROOT
ATOM      1  C   UNL A   1      34.605  34.408  27.703  1.00  0.00     0.275 C 
ENDROOT
BRANCH   1   2
ATOM      2  C   UNL A   1      34.103  35.626  28.480  1.00  0.00     0.275 C 
BRANCH   2   3
ATOM      3  O   UNL A   1      32.998  35.309  29.347  1.00  0.00    -0.457 OA
BRANCH   3   4
ATOM      4  C   UNL A   1      33.094  35.816  30.602  1.00  0.00     0.364 C 
ATOM      5  O   UNL A   1      32.529  36.831  31.002  1.00  0.00    -0.244 OA
BRANCH   4   6
ATOM      6  C   UNL A   1      33.843  34.921  31.524  1.00  0.00     0.232 A 
ATOM      7  C   UNL A   1      36.606  33.726  34.657  1.00  0.00     0.210 A 
ATOM      8  N   UNL A   1      36.039  32.681  33.985  1.00  0.00    -0.182 NA
ATOM      9  N   UNL A   1      36.174  34.935  34.308  1.00  0.00    -0.134 NA
ATOM     10  C   UNL A   1      35.209  33.277  33.149  1.00  0.00     0.275 A 
ATOM     11  N   UNL A   1      35.308  34.654  33.310  1.00  0.00    -0.159 N 
ATOM     12  N   UNL A   1      34.368  32.771  32.196  1.00  0.00    -0.108 NA
ATOM     13  C   UNL A   1      34.610  35.514  32.465  1.00  0.00     0.251 A 
ATOM     14  N   UNL A   1      33.719  33.543  31.430  1.00  0.00    -0.134 NA
BRANCH   7  15
ATOM     15  S   UNL A   1      37.841  33.569  35.875  1.00  0.00    -0.088 SA
ATOM     16  C   UNL A   1      39.305  33.304  34.863  1.00  0.00     0.094 C 
ENDBRANCH   7  15
BRANCH  13  17
ATOM     17  O   UNL A   1      34.762  36.885  32.639  1.00  0.00    -0.491 OA
ATOM     18  H   UNL A   1      34.408  37.479  32.008  1.00  0.00     0.295 HD
ENDBRANCH  13  17
ENDBRANCH   4   6
ENDBRANCH   3   4
ENDBRANCH   2   3
ENDBRANCH   1   2
BRANCH   1  19
ATOM     19  O   UNL A   1      35.473  33.556  28.461  1.00  0.00    -0.458 OA
BRANCH  19  20
ATOM     20  C   UNL A   1      35.320  32.240  28.210  1.00  0.00     0.338 C 
ATOM     21  O   UNL A   1      34.378  31.704  27.631  1.00  0.00    -0.246 OA
BRANCH  20  22
ATOM     22  C   UNL A   1      36.362  31.459  28.871  1.00  0.00     0.060 A 
ATOM     23  C   UNL A   1      37.513  32.132  29.293  1.00  0.00     0.016 A 
ATOM     24  C   UNL A   1      36.306  30.060  28.818  1.00  0.00     0.016 A 
ATOM     25  C   UNL A   1      38.659  31.402  29.543  1.00  0.00     0.010 A 
ATOM     26  C   UNL A   1      37.451  29.334  29.072  1.00  0.00     0.010 A 
ATOM     27  C   UNL A   1      38.636  30.015  29.364  1.00  0.00    -0.014 A 
BRANCH  27  28
ATOM     28  C   UNL A   1      39.884  29.286  29.531  1.00  0.00     0.031 A 
ATOM     29  C   UNL A   1      40.319  29.066  30.937  1.00  0.00     0.074 A 
ATOM     30  C   UNL A   1      40.509  28.698  28.492  1.00  0.00     0.049 A 
ATOM     31  N   UNL A   1      41.468  29.305  31.481  1.00  0.00    -0.248 NA
ATOM     32  C   UNL A   1      39.303  28.552  31.871  1.00  0.00     0.031 C 
ATOM     33  C   UNL A   1      40.028  28.553  27.114  1.00  0.00     0.029 A 
ATOM     34  N   UNL A   1      41.668  27.984  28.494  1.00  0.00    -0.354 N 
ATOM     35  C   UNL A   1      41.370  28.839  32.790  1.00  0.00     0.074 A 
ATOM     36  C   UNL A   1      39.992  28.478  33.007  1.00  0.00     0.031 C 
ATOM     37  C   UNL A   1      40.765  27.609  26.488  1.00  0.00     0.029 A 
ATOM     38  C   UNL A   1      41.835  27.184  27.375  1.00  0.00     0.049 A 
ATOM     39  H   UNL A   1      42.326  28.030  29.223  1.00  0.00     0.167 HD
ATOM     40  C   UNL A   1      42.453  28.611  33.579  1.00  0.00     0.037 A 
ATOM     41  C   UNL A   1      42.729  26.177  27.238  1.00  0.00     0.037 A 
ATOM     42  C   UNL A   1      43.624  29.300  33.129  1.00  0.00     0.049 A 
ATOM     43  C   UNL A   1      43.775  26.351  28.275  1.00  0.00     0.074 A 
ATOM     44  C   UNL A   1      43.970  30.628  32.980  1.00  0.00     0.029 A 
ATOM     45  N   UNL A   1      44.577  28.590  32.447  1.00  0.00    -0.354 N 
ATOM     46  N   UNL A   1      44.656  27.312  28.291  1.00  0.00    -0.248 NA
ATOM     47  C   UNL A   1      43.612  25.637  29.532  1.00  0.00     0.031 C 
ATOM     48  C   UNL A   1      44.824  30.666  31.839  1.00  0.00     0.029 A 
ATOM     49  C   UNL A   1      44.953  29.357  31.374  1.00  0.00     0.049 A 
ATOM     50  H   UNL A   1      44.926  27.699  32.682  1.00  0.00     0.167 HD
ATOM     51  C   UNL A   1      44.861  27.585  29.635  1.00  0.00     0.074 A 
ATOM     52  C   UNL A   1      44.287  26.450  30.346  1.00  0.00     0.031 C 
ATOM     53  C   UNL A   1      45.232  28.829  30.057  1.00  0.00     0.037 A 
BRANCH  40  54
ATOM     54  C   UNL A   1      42.487  27.525  34.613  1.00  0.00     0.057 A 
ATOM     55  C   UNL A   1      42.884  26.224  34.273  1.00  0.00     0.134 A 
ATOM     56  C   UNL A   1      41.901  27.670  35.888  1.00  0.00     0.134 A 
ATOM     57  F   UNL A   1      43.404  25.958  33.065  1.00  0.00    -0.206 F 
ATOM     58  C   UNL A   1      42.704  25.141  35.142  1.00  0.00     0.040 A 
ATOM     59  C   UNL A   1      41.762  26.608  36.781  1.00  0.00     0.040 A 
ATOM     60  F   UNL A   1      41.360  28.830  36.287  1.00  0.00    -0.206 F 
ATOM     61  C   UNL A   1      42.146  25.331  36.403  1.00  0.00     0.006 A 
ENDBRANCH  40  54
BRANCH  41  62
ATOM     62  C   UNL A   1      42.566  24.909  26.491  1.00  0.00     0.057 A 
ATOM     63  C   UNL A   1      43.401  24.600  25.410  1.00  0.00     0.134 A 
ATOM     64  C   UNL A   1      41.772  23.856  26.979  1.00  0.00     0.134 A 
ATOM     65  F   UNL A   1      44.228  25.526  24.902  1.00  0.00    -0.206 F 
ATOM     66  C   UNL A   1      43.462  23.313  24.860  1.00  0.00     0.040 A 
ATOM     67  C   UNL A   1      41.811  22.571  26.430  1.00  0.00     0.040 A 
ATOM     68  F   UNL A   1      40.995  24.011  28.060  1.00  0.00    -0.206 F 
ATOM     69  C   UNL A   1      42.671  22.291  25.377  1.00  0.00     0.006 A 
ENDBRANCH  41  62
BRANCH  53  70
ATOM     70  C   UNL A   1      45.681  29.817  29.017  1.00  0.00     0.057 A 
ATOM     71  C   UNL A   1      44.805  30.658  28.317  1.00  0.00     0.134 A 
ATOM     72  C   UNL A   1      47.052  30.039  28.836  1.00  0.00     0.134 A 
ATOM     73  F   UNL A   1      43.481  30.590  28.506  1.00  0.00    -0.206 F 
ATOM     74  C   UNL A   1      45.270  31.643  27.441  1.00  0.00     0.040 A 
ATOM     75  C   UNL A   1      47.529  31.042  27.990  1.00  0.00     0.040 A 
ATOM     76  F   UNL A   1      47.951  29.313  29.522  1.00  0.00    -0.206 F 
ATOM     77  C   UNL A   1      46.638  31.843  27.281  1.00  0.00     0.006 A 
ENDBRANCH  53  70
ENDBRANCH  27  28
ENDBRANCH  20  22
ENDBRANCH  19  20
ENDBRANCH   1  19
TORSDOF 13
ENDMDL
MODEL 3
REMARK VINA RESULT:     -10.5      2.553      4.075
REMARK SMILES CSc1nc2nnc(C(=O)OCCOC(=O)c3ccc(-c4c5nc(c(-c6c(F)cccc6F)c6ccc([nH]6)c(-c6c(F)cccc6F)c6nc(c(-c7c(F)cccc7F)c7ccc4[nH]7)C=C6)C=C5)cc3)c(O)n2n1
REMARK SMILES IDX 13 1 12 2 11 3 9 4 10 5 8 6 3 7 4 8 74 9 5 10 73 11 6 12
REMARK SMILES IDX 71 13 7 14 2 15 1 16 72 17 14 19 15 20 16 21 17 22 18 23
REMARK SMILES IDX 70 24 19 25 69 26 20 27 21 28 22 29 63 30 23 31 68 32 62 33
REMARK SMILES IDX 64 34 24 35 67 36 61 37 60 38 25 40 51 41 34 42 50 43 35 44
REMARK SMILES IDX 38 45 49 46 65 47 36 48 37 49 48 51 66 52 39 53 26 54 27 55
REMARK SMILES IDX 32 56 28 57 29 58 31 59 33 60 30 61 52 62 53 63 58 64 54 65
REMARK SMILES IDX 55 66 57 67 59 68 56 69 40 70 41 71 46 72 42 73 43 74 45 75
REMARK SMILES IDX 47 76 44 77
REMARK H PARENT 72 18 64 39 38 50
REMARK Flexibility Score: inf
ROOT
ATOM      1  C   UNL A   1      40.902  20.027  27.333  1.00  0.00     0.275 C 
ENDROOT
BRANCH   1   2
ATOM      2  C   UNL A   1      42.205  19.277  27.054  1.00  0.00     0.275 C 
BRANCH   2   3
ATOM      3  O   UNL A   1      42.455  19.111  25.646  1.00  0.00    -0.457 OA
BRANCH   3   4
ATOM      4  C   UNL A   1      43.740  19.329  25.265  1.00  0.00     0.364 C 
ATOM      5  O   UNL A   1      44.542  18.454  24.948  1.00  0.00    -0.244 OA
BRANCH   4   6
ATOM      6  C   UNL A   1      44.053  20.774  25.111  1.00  0.00     0.232 A 
ATOM      7  C   UNL A   1      46.377  24.445  25.171  1.00  0.00     0.210 A 
ATOM      8  N   UNL A   1      45.053  24.626  24.887  1.00  0.00    -0.182 NA
ATOM      9  N   UNL A   1      46.766  23.180  25.308  1.00  0.00    -0.134 NA
ATOM     10  C   UNL A   1      44.579  23.395  24.861  1.00  0.00     0.275 A 
ATOM     11  N   UNL A   1      45.606  22.504  25.152  1.00  0.00    -0.159 N 
ATOM     12  N   UNL A   1      43.316  22.916  24.648  1.00  0.00    -0.108 NA
ATOM     13  C   UNL A   1      45.341  21.144  25.293  1.00  0.00     0.251 A 
ATOM     14  N   UNL A   1      43.064  21.680  24.761  1.00  0.00    -0.134 NA
BRANCH   7  15
ATOM     15  S   UNL A   1      47.531  25.731  25.389  1.00  0.00    -0.088 SA
ATOM     16  C   UNL A   1      46.627  27.135  24.719  1.00  0.00     0.094 C 
ENDBRANCH   7  15
BRANCH  13  17
ATOM     17  O   UNL A   1      46.389  20.292  25.617  1.00  0.00    -0.491 OA
ATOM     18  H   UNL A   1      46.369  19.397  25.339  1.00  0.00     0.295 HD
ENDBRANCH  13  17
ENDBRANCH   4   6
ENDBRANCH   3   4
ENDBRANCH   2   3
ENDBRANCH   1   2
BRANCH   1  19
ATOM     19  O   UNL A   1      41.088  21.416  27.636  1.00  0.00    -0.458 OA
BRANCH  19  20
ATOM     20  C   UNL A   1      40.293  22.250  26.935  1.00  0.00     0.338 C 
ATOM     21  O   UNL A   1      39.441  21.936  26.108  1.00  0.00    -0.246 OA
BRANCH  20  22
ATOM     22  C   UNL A   1      40.680  23.642  27.150  1.00  0.00     0.060 A 
ATOM     23  C   UNL A   1      41.784  23.892  27.972  1.00  0.00     0.016 A 
ATOM     24  C   UNL A   1      39.800  24.663  26.769  1.00  0.00     0.016 A 
ATOM     25  C   UNL A   1      41.936  25.151  28.520  1.00  0.00     0.010 A 
ATOM     26  C   UNL A   1      39.958  25.920  27.314  1.00  0.00     0.010 A 
ATOM     27  C   UNL A   1      40.983  26.136  28.239  1.00  0.00    -0.014 A 
BRANCH  27  28
ATOM     28  C   UNL A   1      41.110  27.419  28.914  1.00  0.00     0.031 A 
ATOM     29  C   UNL A   1      42.238  28.277  28.459  1.00  0.00     0.074 A 
ATOM     30  C   UNL A   1      40.169  27.872  29.765  1.00  0.00     0.049 A 
ATOM     31  N   UNL A   1      43.147  28.869  29.165  1.00  0.00    -0.248 NA
ATOM     32  C   UNL A   1      42.392  28.451  27.005  1.00  0.00     0.031 C 
ATOM     33  C   UNL A   1      38.856  27.287  30.053  1.00  0.00     0.029 A 
ATOM     34  N   UNL A   1      40.147  29.043  30.458  1.00  0.00    -0.354 N 
ATOM     35  C   UNL A   1      43.905  29.608  28.259  1.00  0.00     0.074 A 
ATOM     36  C   UNL A   1      43.462  29.240  26.939  1.00  0.00     0.031 C 
ATOM     37  C   UNL A   1      38.086  28.213  30.666  1.00  0.00     0.029 A 
ATOM     38  C   UNL A   1      38.889  29.397  30.920  1.00  0.00     0.049 A 
ATOM     39  H   UNL A   1      40.949  29.589  30.616  1.00  0.00     0.167 HD
ATOM     40  C   UNL A   1      44.739  30.613  28.637  1.00  0.00     0.037 A 
ATOM     41  C   UNL A   1      38.521  30.614  31.384  1.00  0.00     0.037 A 
ATOM     42  C   UNL A   1      45.108  30.540  30.018  1.00  0.00     0.049 A 
ATOM     43  C   UNL A   1      39.754  31.363  31.731  1.00  0.00     0.074 A 
ATOM     44  C   UNL A   1      45.800  29.628  30.789  1.00  0.00     0.029 A 
ATOM     45  N   UNL A   1      44.484  31.377  30.905  1.00  0.00    -0.354 N 
ATOM     46  N   UNL A   1      40.546  31.075  32.725  1.00  0.00    -0.248 NA
ATOM     47  C   UNL A   1      40.318  32.248  30.723  1.00  0.00     0.031 C 
ATOM     48  C   UNL A   1      45.181  29.676  32.072  1.00  0.00     0.029 A 
ATOM     49  C   UNL A   1      44.158  30.622  32.003  1.00  0.00     0.049 A 
ATOM     50  H   UNL A   1      44.304  32.337  30.779  1.00  0.00     0.167 HD
ATOM     51  C   UNL A   1      41.816  31.404  32.276  1.00  0.00     0.074 A 
ATOM     52  C   UNL A   1      41.599  32.226  31.092  1.00  0.00     0.031 C 
ATOM     53  C   UNL A   1      42.923  30.756  32.743  1.00  0.00     0.037 A 
BRANCH  40  54
ATOM     54  C   UNL A   1      44.990  31.821  27.784  1.00  0.00     0.057 A 
ATOM     55  C   UNL A   1      46.213  31.987  27.119  1.00  0.00     0.134 A 
ATOM     56  C   UNL A   1      44.144  32.950  27.797  1.00  0.00     0.134 A 
ATOM     57  F   UNL A   1      47.119  30.998  27.089  1.00  0.00    -0.206 F 
ATOM     58  C   UNL A   1      46.572  33.198  26.515  1.00  0.00     0.040 A 
ATOM     59  C   UNL A   1      44.469  34.145  27.156  1.00  0.00     0.040 A 
ATOM     60  F   UNL A   1      43.006  32.969  28.506  1.00  0.00    -0.206 F 
ATOM     61  C   UNL A   1      45.697  34.280  26.526  1.00  0.00     0.006 A 
ENDBRANCH  40  54
BRANCH  41  62
ATOM     62  C   UNL A   1      37.208  31.284  31.243  1.00  0.00     0.057 A 
ATOM     63  C   UNL A   1      36.460  31.642  32.371  1.00  0.00     0.134 A 
ATOM     64  C   UNL A   1      36.779  31.827  30.019  1.00  0.00     0.134 A 
ATOM     65  F   UNL A   1      36.815  31.209  33.590  1.00  0.00    -0.206 F 
ATOM     66  C   UNL A   1      35.362  32.509  32.292  1.00  0.00     0.040 A 
ATOM     67  C   UNL A   1      35.676  32.681  29.923  1.00  0.00     0.040 A 
ATOM     68  F   UNL A   1      37.463  31.620  28.885  1.00  0.00    -0.206 F 
ATOM     69  C   UNL A   1      34.973  33.039  31.066  1.00  0.00     0.006 A 
ENDBRANCH  41  62
BRANCH  53  70
ATOM     70  C   UNL A   1      42.763  29.878  33.951  1.00  0.00     0.057 A 
ATOM     71  C   UNL A   1      42.875  30.344  35.269  1.00  0.00     0.134 A 
ATOM     72  C   UNL A   1      42.325  28.559  33.782  1.00  0.00     0.134 A 
ATOM     73  F   UNL A   1      43.186  31.620  35.528  1.00  0.00    -0.206 F 
ATOM     74  C   UNL A   1      42.607  29.522  36.368  1.00  0.00     0.040 A 
ATOM     75  C   UNL A   1      42.021  27.738  34.871  1.00  0.00     0.040 A 
ATOM     76  F   UNL A   1      42.134  28.063  32.548  1.00  0.00    -0.206 F 
ATOM     77  C   UNL A   1      42.171  28.216  36.170  1.00  0.00     0.006 A 
ENDBRANCH  53  70
ENDBRANCH  27  28
ENDBRANCH  20  22
ENDBRANCH  19  20
ENDBRANCH   1  19
TORSDOF 13
ENDMDL
