MODEL 1
REMARK VINA RESULT:     -10.3      0.000      0.000
REMARK SMILES CCC[C@@H](C(=O)N1CC[C@@](C)(C(=O)OCCOC(=O)c2ccc(-c3c4nc(c(-c5c(F)cccc5F)c5ccc([nH]5)c(-c5c(F)cccc5F)c5nc(c(-c6c(F)cccc6F)c6ccc3[nH]6)C=C5)C=C4)cc2)C1)c1ccccc1
REMARK SMILES IDX 15 1 14 2 12 3 13 4 10 5 7 6 8 7 74 8 9 9 11 10 5 11 6 12
REMARK SMILES IDX 4 13 3 14 2 15 1 16 75 17 76 18 80 19 77 20 79 21 78 22
REMARK SMILES IDX 16 23 17 24 18 25 19 26 20 27 21 28 73 29 22 30 72 31 23 32
REMARK SMILES IDX 24 33 25 34 66 35 26 36 71 37 65 38 67 39 27 40 70 41 64 42
REMARK SMILES IDX 63 43 28 45 54 46 37 47 53 48 38 49 41 50 52 51 68 52 39 53
REMARK SMILES IDX 40 54 51 56 69 57 42 58 29 59 30 60 35 61 31 62 32 63 34 64
REMARK SMILES IDX 36 65 33 66 55 67 56 68 61 69 57 70 58 71 60 72 62 73 59 74
REMARK SMILES IDX 43 75 44 76 49 77 45 78 46 79 48 80 50 81 47 82
REMARK H PARENT 67 44 41 55
REMARK Flexibility Score: inf
ROOT
ATOM      1  C   UNL A   1      32.146  29.866  26.489  1.00  0.00     0.274 C 
ENDROOT
BRANCH   1   2
ATOM      2  O   UNL A   1      31.387  28.842  25.810  1.00  0.00    -0.462 OA
BRANCH   2   3
ATOM      3  C   UNL A   1      31.332  27.626  26.419  1.00  0.00     0.313 C 
ATOM      4  O   UNL A   1      31.268  27.470  27.632  1.00  0.00    -0.252 OA
BRANCH   3   5
ATOM      5  C   UNL A   1      31.519  26.474  25.431  1.00  0.00     0.084 C 
ATOM      6  N   UNL A   1      33.056  24.740  26.076  1.00  0.00    -0.341 N 
ATOM      7  C   UNL A   1      31.743  24.345  26.563  1.00  0.00     0.120 C 
ATOM      8  C   UNL A   1      32.993  26.026  25.424  1.00  0.00     0.138 C 
ATOM      9  C   UNL A   1      30.756  25.184  25.771  1.00  0.00     0.042 C 
ATOM     10  C   UNL A   1      31.111  27.002  24.050  1.00  0.00     0.026 C 
BRANCH   6  11
ATOM     11  C   UNL A   1      34.095  23.831  25.990  1.00  0.00     0.230 C 
ATOM     12  O   UNL A   1      34.308  23.103  26.967  1.00  0.00    -0.274 OA
BRANCH  11  13
ATOM     13  C   UNL A   1      35.102  23.877  24.773  1.00  0.00     0.108 C 
BRANCH  13  14
ATOM     14  C   UNL A   1      34.632  23.439  23.358  1.00  0.00     0.018 C 
BRANCH  14  15
ATOM     15  C   UNL A   1      33.316  22.695  23.084  1.00  0.00    -0.002 C 
ATOM     16  C   UNL A   1      32.111  23.544  22.729  1.00  0.00     0.004 C 
ENDBRANCH  14  15
ENDBRANCH  13  14
BRANCH  13  17
ATOM     17  C   UNL A   1      36.373  23.061  25.177  1.00  0.00    -0.036 A 
ATOM     18  C   UNL A   1      37.444  23.626  25.898  1.00  0.00     0.004 A 
ATOM     19  C   UNL A   1      36.517  21.728  24.745  1.00  0.00     0.004 A 
ATOM     20  C   UNL A   1      38.593  22.889  26.198  1.00  0.00     0.000 A 
ATOM     21  C   UNL A   1      37.682  21.002  25.018  1.00  0.00     0.000 A 
ATOM     22  C   UNL A   1      38.717  21.580  25.749  1.00  0.00     0.000 A 
ENDBRANCH  13  17
ENDBRANCH  11  13
ENDBRANCH   6  11
ENDBRANCH   3   5
ENDBRANCH   2   3
ENDBRANCH   1   2
BRANCH   1  23
ATOM     23  C   UNL A   1      33.658  29.662  26.362  1.00  0.00     0.275 C 
BRANCH  23  24
ATOM     24  O   UNL A   1      34.248  29.290  27.621  1.00  0.00    -0.458 OA
BRANCH  24  25
ATOM     25  C   UNL A   1      34.899  30.287  28.262  1.00  0.00     0.338 C 
ATOM     26  O   UNL A   1      34.408  31.290  28.750  1.00  0.00    -0.246 OA
BRANCH  25  27
ATOM     27  C   UNL A   1      36.302  29.897  28.485  1.00  0.00     0.060 A 
ATOM     28  C   UNL A   1      37.167  30.091  27.412  1.00  0.00     0.016 A 
ATOM     29  C   UNL A   1      36.768  29.318  29.669  1.00  0.00     0.016 A 
ATOM     30  C   UNL A   1      38.500  29.725  27.519  1.00  0.00     0.010 A 
ATOM     31  C   UNL A   1      38.119  28.943  29.771  1.00  0.00     0.010 A 
ATOM     32  C   UNL A   1      38.992  29.156  28.694  1.00  0.00    -0.014 A 
BRANCH  32  33
ATOM     33  C   UNL A   1      40.418  28.759  28.690  1.00  0.00     0.031 A 
ATOM     34  C   UNL A   1      41.433  29.658  29.328  1.00  0.00     0.074 A 
ATOM     35  C   UNL A   1      40.768  27.514  28.317  1.00  0.00     0.049 A 
ATOM     36  N   UNL A   1      42.718  29.474  29.485  1.00  0.00    -0.248 NA
ATOM     37  C   UNL A   1      40.926  30.918  29.891  1.00  0.00     0.031 C 
ATOM     38  C   UNL A   1      39.842  26.486  27.845  1.00  0.00     0.029 A 
ATOM     39  N   UNL A   1      41.989  26.887  28.332  1.00  0.00    -0.354 N 
ATOM     40  C   UNL A   1      43.180  30.604  30.145  1.00  0.00     0.074 A 
ATOM     41  C   UNL A   1      42.033  31.455  30.381  1.00  0.00     0.031 C 
ATOM     42  C   UNL A   1      40.525  25.345  27.645  1.00  0.00     0.029 A 
ATOM     43  C   UNL A   1      41.942  25.578  27.919  1.00  0.00     0.049 A 
ATOM     44  H   UNL A   1      42.821  27.334  28.612  1.00  0.00     0.167 HD
ATOM     45  C   UNL A   1      44.450  30.916  30.495  1.00  0.00     0.037 A 
ATOM     46  C   UNL A   1      42.933  24.679  27.761  1.00  0.00     0.037 A 
ATOM     47  C   UNL A   1      45.592  30.076  30.247  1.00  0.00     0.049 A 
ATOM     48  C   UNL A   1      44.352  25.090  28.053  1.00  0.00     0.074 A 
ATOM     49  C   UNL A   1      46.929  30.344  30.485  1.00  0.00     0.029 A 
ATOM     50  N   UNL A   1      45.529  28.802  29.706  1.00  0.00    -0.354 N 
ATOM     51  N   UNL A   1      44.800  26.204  28.580  1.00  0.00    -0.248 NA
ATOM     52  C   UNL A   1      45.408  24.130  27.695  1.00  0.00     0.031 C 
ATOM     53  C   UNL A   1      47.679  29.249  30.039  1.00  0.00     0.029 A 
ATOM     54  C   UNL A   1      46.806  28.282  29.569  1.00  0.00     0.049 A 
ATOM     55  H   UNL A   1      44.699  28.335  29.454  1.00  0.00     0.167 HD
ATOM     56  C   UNL A   1      46.184  26.081  28.614  1.00  0.00     0.074 A 
ATOM     57  C   UNL A   1      46.501  24.771  28.086  1.00  0.00     0.031 C 
ATOM     58  C   UNL A   1      47.109  26.980  29.032  1.00  0.00     0.037 A 
BRANCH  45  59
ATOM     59  C   UNL A   1      44.670  32.275  31.082  1.00  0.00     0.057 A 
ATOM     60  C   UNL A   1      44.920  33.403  30.292  1.00  0.00     0.134 A 
ATOM     61  C   UNL A   1      44.653  32.444  32.472  1.00  0.00     0.134 A 
ATOM     62  F   UNL A   1      44.977  33.301  28.955  1.00  0.00    -0.206 F 
ATOM     63  C   UNL A   1      45.170  34.650  30.869  1.00  0.00     0.040 A 
ATOM     64  C   UNL A   1      44.881  33.687  33.059  1.00  0.00     0.040 A 
ATOM     65  F   UNL A   1      44.423  31.398  33.281  1.00  0.00    -0.206 F 
ATOM     66  C   UNL A   1      45.147  34.794  32.256  1.00  0.00     0.006 A 
ENDBRANCH  45  59
BRANCH  46  67
ATOM     67  C   UNL A   1      42.637  23.318  27.243  1.00  0.00     0.057 A 
ATOM     68  C   UNL A   1      42.295  22.269  28.103  1.00  0.00     0.134 A 
ATOM     69  C   UNL A   1      42.729  23.026  25.876  1.00  0.00     0.134 A 
ATOM     70  F   UNL A   1      42.221  22.475  29.426  1.00  0.00    -0.206 F 
ATOM     71  C   UNL A   1      42.066  20.977  27.624  1.00  0.00     0.040 A 
ATOM     72  C   UNL A   1      42.476  21.746  25.381  1.00  0.00     0.040 A 
ATOM     73  F   UNL A   1      43.065  23.984  25.000  1.00  0.00    -0.206 F 
ATOM     74  C   UNL A   1      42.150  20.714  26.258  1.00  0.00     0.006 A 
ENDBRANCH  46  67
BRANCH  58  75
ATOM     75  C   UNL A   1      48.553  26.584  28.925  1.00  0.00     0.057 A 
ATOM     76  C   UNL A   1      49.315  26.898  27.792  1.00  0.00     0.134 A 
ATOM     77  C   UNL A   1      49.200  25.933  29.981  1.00  0.00     0.134 A 
ATOM     78  F   UNL A   1      48.752  27.511  26.741  1.00  0.00    -0.206 F 
ATOM     79  C   UNL A   1      50.668  26.565  27.710  1.00  0.00     0.040 A 
ATOM     80  C   UNL A   1      50.558  25.614  29.919  1.00  0.00     0.040 A 
ATOM     81  F   UNL A   1      48.529  25.610  31.097  1.00  0.00    -0.206 F 
ATOM     82  C   UNL A   1      51.295  25.928  28.779  1.00  0.00     0.006 A 
ENDBRANCH  58  75
ENDBRANCH  32  33
ENDBRANCH  25  27
ENDBRANCH  24  25
ENDBRANCH  23  24
ENDBRANCH   1  23
TORSDOF 16
ENDMDL
MODEL 2
REMARK VINA RESULT:     -10.3      2.103      7.655
REMARK SMILES CCC[C@@H](C(=O)N1CC[C@@](C)(C(=O)OCCOC(=O)c2ccc(-c3c4nc(c(-c5c(F)cccc5F)c5ccc([nH]5)c(-c5c(F)cccc5F)c5nc(c(-c6c(F)cccc6F)c6ccc3[nH]6)C=C5)C=C4)cc2)C1)c1ccccc1
REMARK SMILES IDX 15 1 14 2 12 3 13 4 10 5 7 6 8 7 74 8 9 9 11 10 5 11 6 12
REMARK SMILES IDX 4 13 3 14 2 15 1 16 75 17 76 18 80 19 77 20 79 21 78 22
REMARK SMILES IDX 16 23 17 24 18 25 19 26 20 27 21 28 73 29 22 30 72 31 23 32
REMARK SMILES IDX 24 33 25 34 66 35 26 36 71 37 65 38 67 39 27 40 70 41 64 42
REMARK SMILES IDX 63 43 28 45 54 46 37 47 53 48 38 49 41 50 52 51 68 52 39 53
REMARK SMILES IDX 40 54 51 56 69 57 42 58 29 59 30 60 35 61 31 62 32 63 34 64
REMARK SMILES IDX 36 65 33 66 55 67 56 68 61 69 57 70 58 71 60 72 62 73 59 74
REMARK SMILES IDX 43 75 44 76 49 77 45 78 46 79 48 80 50 81 47 82
REMARK H PARENT 67 44 41 55
REMARK Flexibility Score: inf
ROOT
ATOM      1  C   UNL A   1      38.513  20.757  25.641  1.00  0.00     0.274 C 
ENDROOT
BRANCH   1   2
ATOM      2  O   UNL A   1      37.622  20.874  24.510  1.00  0.00    -0.462 OA
BRANCH   2   3
ATOM      3  C   UNL A   1      36.329  21.196  24.789  1.00  0.00     0.313 C 
ATOM      4  O   UNL A   1      35.504  20.402  25.223  1.00  0.00    -0.252 OA
BRANCH   3   5
ATOM      5  C   UNL A   1      35.979  22.619  24.352  1.00  0.00     0.084 C 
ATOM      6  N   UNL A   1      33.898  23.514  25.162  1.00  0.00    -0.341 N 
ATOM      7  C   UNL A   1      34.922  23.874  26.132  1.00  0.00     0.120 C 
ATOM      8  C   UNL A   1      34.464  22.728  24.092  1.00  0.00     0.138 C 
ATOM      9  C   UNL A   1      36.241  23.714  25.398  1.00  0.00     0.042 C 
ATOM     10  C   UNL A   1      36.766  22.894  23.064  1.00  0.00     0.026 C 
BRANCH   6  11
ATOM     11  C   UNL A   1      32.665  24.140  25.151  1.00  0.00     0.230 C 
ATOM     12  O   UNL A   1      31.685  23.490  25.536  1.00  0.00    -0.274 OA
BRANCH  11  13
ATOM     13  C   UNL A   1      32.488  25.553  24.467  1.00  0.00     0.108 C 
BRANCH  13  14
ATOM     14  C   UNL A   1      33.434  25.982  23.311  1.00  0.00     0.018 C 
BRANCH  14  15
ATOM     15  C   UNL A   1      33.109  27.099  22.307  1.00  0.00    -0.002 C 
ATOM     16  C   UNL A   1      33.943  28.362  22.396  1.00  0.00     0.004 C 
ENDBRANCH  14  15
ENDBRANCH  13  14
BRANCH  13  17
ATOM     17  C   UNL A   1      32.521  26.634  25.597  1.00  0.00    -0.036 A 
ATOM     18  C   UNL A   1      31.365  27.044  26.292  1.00  0.00     0.004 A 
ATOM     19  C   UNL A   1      33.725  27.301  25.895  1.00  0.00     0.004 A 
ATOM     20  C   UNL A   1      31.413  28.052  27.258  1.00  0.00     0.000 A 
ATOM     21  C   UNL A   1      33.764  28.333  26.840  1.00  0.00     0.000 A 
ATOM     22  C   UNL A   1      32.610  28.705  27.526  1.00  0.00     0.000 A 
ENDBRANCH  13  17
ENDBRANCH  11  13
ENDBRANCH   6  11
ENDBRANCH   3   5
ENDBRANCH   2   3
ENDBRANCH   1   2
BRANCH   1  23
ATOM     23  C   UNL A   1      39.227  19.404  25.692  1.00  0.00     0.275 C 
BRANCH  23  24
ATOM     24  O   UNL A   1      40.527  19.469  25.079  1.00  0.00    -0.458 OA
BRANCH  24  25
ATOM     25  C   UNL A   1      41.568  19.355  25.936  1.00  0.00     0.338 C 
ATOM     26  O   UNL A   1      42.327  18.409  26.048  1.00  0.00    -0.246 OA
BRANCH  25  27
ATOM     27  C   UNL A   1      41.803  20.650  26.599  1.00  0.00     0.060 A 
ATOM     28  C   UNL A   1      42.102  21.719  25.761  1.00  0.00     0.016 A 
ATOM     29  C   UNL A   1      41.785  20.826  27.986  1.00  0.00     0.016 A 
ATOM     30  C   UNL A   1      42.368  22.970  26.297  1.00  0.00     0.010 A 
ATOM     31  C   UNL A   1      42.061  22.095  28.526  1.00  0.00     0.010 A 
ATOM     32  C   UNL A   1      42.344  23.175  27.677  1.00  0.00    -0.014 A 
BRANCH  32  33
ATOM     33  C   UNL A   1      42.688  24.534  28.150  1.00  0.00     0.031 A 
ATOM     34  C   UNL A   1      44.124  24.961  28.179  1.00  0.00     0.074 A 
ATOM     35  C   UNL A   1      41.716  25.446  28.341  1.00  0.00     0.049 A 
ATOM     36  N   UNL A   1      44.636  26.121  28.502  1.00  0.00    -0.248 NA
ATOM     37  C   UNL A   1      45.112  23.955  27.761  1.00  0.00     0.031 C 
ATOM     38  C   UNL A   1      40.285  25.197  28.171  1.00  0.00     0.029 A 
ATOM     39  N   UNL A   1      41.791  26.777  28.667  1.00  0.00    -0.354 N 
ATOM     40  C   UNL A   1      46.008  25.980  28.346  1.00  0.00     0.074 A 
ATOM     41  C   UNL A   1      46.245  24.631  27.876  1.00  0.00     0.031 C 
ATOM     42  C   UNL A   1      39.619  26.349  28.362  1.00  0.00     0.029 A 
ATOM     43  C   UNL A   1      40.569  27.400  28.724  1.00  0.00     0.049 A 
ATOM     44  H   UNL A   1      42.642  27.241  28.843  1.00  0.00     0.167 HD
ATOM     45  C   UNL A   1      46.982  26.884  28.601  1.00  0.00     0.037 A 
ATOM     46  C   UNL A   1      40.253  28.669  29.052  1.00  0.00     0.037 A 
ATOM     47  C   UNL A   1      46.747  28.220  29.081  1.00  0.00     0.049 A 
ATOM     48  C   UNL A   1      41.352  29.623  29.440  1.00  0.00     0.074 A 
ATOM     49  C   UNL A   1      47.672  29.180  29.453  1.00  0.00     0.029 A 
ATOM     50  N   UNL A   1      45.493  28.785  29.255  1.00  0.00    -0.354 N 
ATOM     51  N   UNL A   1      42.650  29.453  29.394  1.00  0.00    -0.248 NA
ATOM     52  C   UNL A   1      40.937  30.936  29.958  1.00  0.00     0.031 C 
ATOM     53  C   UNL A   1      46.975  30.309  29.900  1.00  0.00     0.029 A 
ATOM     54  C   UNL A   1      45.618  30.068  29.761  1.00  0.00     0.049 A 
ATOM     55  H   UNL A   1      44.639  28.338  29.050  1.00  0.00     0.167 HD
ATOM     56  C   UNL A   1      43.207  30.631  29.878  1.00  0.00     0.074 A 
ATOM     57  C   UNL A   1      42.106  31.521  30.180  1.00  0.00     0.031 C 
ATOM     58  C   UNL A   1      44.513  30.940  30.068  1.00  0.00     0.037 A 
BRANCH  45  59
ATOM     59  C   UNL A   1      48.394  26.406  28.467  1.00  0.00     0.057 A 
ATOM     60  C   UNL A   1      49.075  25.771  29.513  1.00  0.00     0.134 A 
ATOM     61  C   UNL A   1      49.088  26.612  27.268  1.00  0.00     0.134 A 
ATOM     62  F   UNL A   1      48.473  25.571  30.696  1.00  0.00    -0.206 F 
ATOM     63  C   UNL A   1      50.408  25.379  29.376  1.00  0.00     0.040 A 
ATOM     64  C   UNL A   1      50.413  26.205  27.113  1.00  0.00     0.040 A 
ATOM     65  F   UNL A   1      48.490  27.219  26.232  1.00  0.00    -0.206 F 
ATOM     66  C   UNL A   1      51.079  25.593  28.172  1.00  0.00     0.006 A 
ENDBRANCH  45  59
BRANCH  46  67
ATOM     67  C   UNL A   1      38.832  29.102  29.094  1.00  0.00     0.057 A 
ATOM     68  C   UNL A   1      38.073  29.000  30.265  1.00  0.00     0.134 A 
ATOM     69  C   UNL A   1      38.188  29.590  27.950  1.00  0.00     0.134 A 
ATOM     70  F   UNL A   1      38.622  28.511  31.386  1.00  0.00    -0.206 F 
ATOM     71  C   UNL A   1      36.723  29.359  30.295  1.00  0.00     0.040 A 
ATOM     72  C   UNL A   1      36.847  29.978  27.972  1.00  0.00     0.040 A 
ATOM     73  F   UNL A   1      38.855  29.701  26.792  1.00  0.00    -0.206 F 
ATOM     74  C   UNL A   1      36.109  29.855  29.146  1.00  0.00     0.006 A 
ENDBRANCH  46  67
BRANCH  58  75
ATOM     75  C   UNL A   1      44.825  32.292  30.641  1.00  0.00     0.057 A 
ATOM     76  C   UNL A   1      44.982  33.416  29.819  1.00  0.00     0.134 A 
ATOM     77  C   UNL A   1      44.917  32.484  32.024  1.00  0.00     0.134 A 
ATOM     78  F   UNL A   1      44.917  33.299  28.484  1.00  0.00    -0.206 F 
ATOM     79  C   UNL A   1      45.233  34.681  30.355  1.00  0.00     0.040 A 
ATOM     80  C   UNL A   1      45.146  33.747  32.572  1.00  0.00     0.040 A 
ATOM     81  F   UNL A   1      44.770  31.450  32.867  1.00  0.00    -0.206 F 
ATOM     82  C   UNL A   1      45.308  34.850  31.735  1.00  0.00     0.006 A 
ENDBRANCH  58  75
ENDBRANCH  32  33
ENDBRANCH  25  27
ENDBRANCH  24  25
ENDBRANCH  23  24
ENDBRANCH   1  23
TORSDOF 16
ENDMDL
MODEL 3
REMARK VINA RESULT:     -10.1      3.740      7.324
REMARK SMILES CCC[C@@H](C(=O)N1CC[C@@](C)(C(=O)OCCOC(=O)c2ccc(-c3c4nc(c(-c5c(F)cccc5F)c5ccc([nH]5)c(-c5c(F)cccc5F)c5nc(c(-c6c(F)cccc6F)c6ccc3[nH]6)C=C5)C=C4)cc2)C1)c1ccccc1
REMARK SMILES IDX 15 1 14 2 12 3 13 4 10 5 7 6 8 7 74 8 9 9 11 10 5 11 6 12
REMARK SMILES IDX 4 13 3 14 2 15 1 16 75 17 76 18 80 19 77 20 79 21 78 22
REMARK SMILES IDX 16 23 17 24 18 25 19 26 20 27 21 28 73 29 22 30 72 31 23 32
REMARK SMILES IDX 24 33 25 34 66 35 26 36 71 37 65 38 67 39 27 40 70 41 64 42
REMARK SMILES IDX 63 43 28 45 54 46 37 47 53 48 38 49 41 50 52 51 68 52 39 53
REMARK SMILES IDX 40 54 51 56 69 57 42 58 29 59 30 60 35 61 31 62 32 63 34 64
REMARK SMILES IDX 36 65 33 66 55 67 56 68 61 69 57 70 58 71 60 72 62 73 59 74
REMARK SMILES IDX 43 75 44 76 49 77 45 78 46 79 48 80 50 81 47 82
REMARK H PARENT 67 44 41 55
REMARK Flexibility Score: inf
ROOT
ATOM      1  C   UNL A   1      31.164  29.607  24.129  1.00  0.00     0.274 C 
ENDROOT
BRANCH   1   2
ATOM      2  O   UNL A   1      30.222  28.542  23.877  1.00  0.00    -0.462 OA
BRANCH   2   3
ATOM      3  C   UNL A   1      30.667  27.510  23.109  1.00  0.00     0.313 C 
ATOM      4  O   UNL A   1      30.652  27.512  21.884  1.00  0.00    -0.252 OA
BRANCH   3   5
ATOM      5  C   UNL A   1      31.038  26.284  23.944  1.00  0.00     0.084 C 
ATOM      6  N   UNL A   1      32.578  24.727  22.947  1.00  0.00    -0.341 N 
ATOM      7  C   UNL A   1      33.373  25.695  23.688  1.00  0.00     0.120 C 
ATOM      8  C   UNL A   1      31.173  25.051  23.030  1.00  0.00     0.138 C 
ATOM      9  C   UNL A   1      32.402  26.356  24.650  1.00  0.00     0.042 C 
ATOM     10  C   UNL A   1      29.907  26.079  24.960  1.00  0.00     0.026 C 
BRANCH   6  11
ATOM     11  C   UNL A   1      33.114  23.523  22.529  1.00  0.00     0.230 C 
ATOM     12  O   UNL A   1      33.438  23.417  21.339  1.00  0.00    -0.274 OA
BRANCH  11  13
ATOM     13  C   UNL A   1      33.108  22.266  23.487  1.00  0.00     0.108 C 
BRANCH  13  14
ATOM     14  C   UNL A   1      32.139  22.218  24.701  1.00  0.00     0.018 C 
BRANCH  14  15
ATOM     15  C   UNL A   1      32.398  22.936  26.034  1.00  0.00    -0.002 C 
ATOM     16  C   UNL A   1      31.183  23.278  26.874  1.00  0.00     0.004 C 
ENDBRANCH  14  15
ENDBRANCH  13  14
BRANCH  13  17
ATOM     17  C   UNL A   1      34.574  22.038  23.980  1.00  0.00    -0.036 A 
ATOM     18  C   UNL A   1      35.613  22.959  23.733  1.00  0.00     0.004 A 
ATOM     19  C   UNL A   1      34.917  20.835  24.627  1.00  0.00     0.004 A 
ATOM     20  C   UNL A   1      36.926  22.705  24.136  1.00  0.00     0.000 A 
ATOM     21  C   UNL A   1      36.240  20.568  25.001  1.00  0.00     0.000 A 
ATOM     22  C   UNL A   1      37.243  21.505  24.762  1.00  0.00     0.000 A 
ENDBRANCH  13  17
ENDBRANCH  11  13
ENDBRANCH   6  11
ENDBRANCH   3   5
ENDBRANCH   2   3
ENDBRANCH   1   2
BRANCH   1  23
ATOM     23  C   UNL A   1      31.403  29.844  25.622  1.00  0.00     0.275 C 
BRANCH  23  24
ATOM     24  O   UNL A   1      32.775  30.183  25.891  1.00  0.00    -0.458 OA
BRANCH  24  25
ATOM     25  C   UNL A   1      32.950  31.214  26.749  1.00  0.00     0.338 C 
ATOM     26  O   UNL A   1      32.156  32.103  27.000  1.00  0.00    -0.246 OA
BRANCH  25  27
ATOM     27  C   UNL A   1      34.185  31.004  27.525  1.00  0.00     0.060 A 
ATOM     28  C   UNL A   1      34.464  29.689  27.885  1.00  0.00     0.016 A 
ATOM     29  C   UNL A   1      35.029  32.041  27.935  1.00  0.00     0.016 A 
ATOM     30  C   UNL A   1      35.588  29.399  28.641  1.00  0.00     0.010 A 
ATOM     31  C   UNL A   1      36.166  31.742  28.707  1.00  0.00     0.010 A 
ATOM     32  C   UNL A   1      36.453  30.414  29.054  1.00  0.00    -0.014 A 
BRANCH  32  33
ATOM     33  C   UNL A   1      37.599  30.005  29.896  1.00  0.00     0.031 A 
ATOM     34  C   UNL A   1      38.719  29.220  29.282  1.00  0.00     0.074 A 
ATOM     35  C   UNL A   1      37.741  30.515  31.133  1.00  0.00     0.049 A 
ATOM     36  N   UNL A   1      39.838  28.813  29.823  1.00  0.00    -0.248 NA
ATOM     37  C   UNL A   1      38.569  28.874  27.860  1.00  0.00     0.031 C 
ATOM     38  C   UNL A   1      36.803  31.434  31.776  1.00  0.00     0.029 A 
ATOM     39  N   UNL A   1      38.756  30.375  32.047  1.00  0.00    -0.354 N 
ATOM     40  C   UNL A   1      40.518  28.144  28.816  1.00  0.00     0.074 A 
ATOM     41  C   UNL A   1      39.698  28.222  27.625  1.00  0.00     0.031 C 
ATOM     42  C   UNL A   1      37.304  31.801  32.969  1.00  0.00     0.029 A 
ATOM     43  C   UNL A   1      38.566  31.100  33.197  1.00  0.00     0.049 A 
ATOM     44  H   UNL A   1      39.546  29.807  31.891  1.00  0.00     0.167 HD
ATOM     45  C   UNL A   1      41.705  27.498  28.886  1.00  0.00     0.037 A 
ATOM     46  C   UNL A   1      39.317  31.171  34.314  1.00  0.00     0.037 A 
ATOM     47  C   UNL A   1      42.514  27.408  30.073  1.00  0.00     0.049 A 
ATOM     48  C   UNL A   1      40.577  30.353  34.407  1.00  0.00     0.074 A 
ATOM     49  C   UNL A   1      43.688  26.701  30.267  1.00  0.00     0.029 A 
ATOM     50  N   UNL A   1      42.230  28.048  31.269  1.00  0.00    -0.354 N 
ATOM     51  N   UNL A   1      41.166  29.632  33.485  1.00  0.00    -0.248 NA
ATOM     52  C   UNL A   1      41.259  30.331  35.711  1.00  0.00     0.031 C 
ATOM     53  C   UNL A   1      44.087  26.875  31.598  1.00  0.00     0.029 A 
ATOM     54  C   UNL A   1      43.187  27.727  32.217  1.00  0.00     0.049 A 
ATOM     55  H   UNL A   1      41.460  28.644  31.423  1.00  0.00     0.167 HD
ATOM     56  C   UNL A   1      42.282  29.070  34.093  1.00  0.00     0.074 A 
ATOM     57  C   UNL A   1      42.307  29.561  35.455  1.00  0.00     0.031 C 
ATOM     58  C   UNL A   1      43.195  28.213  33.573  1.00  0.00     0.037 A 
BRANCH  45  59
ATOM     59  C   UNL A   1      42.134  26.746  27.665  1.00  0.00     0.057 A 
ATOM     60  C   UNL A   1      41.796  25.404  27.452  1.00  0.00     0.134 A 
ATOM     61  C   UNL A   1      42.924  27.381  26.698  1.00  0.00     0.134 A 
ATOM     62  F   UNL A   1      41.066  24.733  28.355  1.00  0.00    -0.206 F 
ATOM     63  C   UNL A   1      42.251  24.713  26.326  1.00  0.00     0.040 A 
ATOM     64  C   UNL A   1      43.366  26.707  25.561  1.00  0.00     0.040 A 
ATOM     65  F   UNL A   1      43.284  28.664  26.850  1.00  0.00    -0.206 F 
ATOM     66  C   UNL A   1      43.036  25.367  25.376  1.00  0.00     0.006 A 
ENDBRANCH  45  59
BRANCH  46  67
ATOM     67  C   UNL A   1      38.870  31.997  35.467  1.00  0.00     0.057 A 
ATOM     68  C   UNL A   1      39.183  33.359  35.552  1.00  0.00     0.134 A 
ATOM     69  C   UNL A   1      38.155  31.433  36.531  1.00  0.00     0.134 A 
ATOM     70  F   UNL A   1      39.892  33.952  34.581  1.00  0.00    -0.206 F 
ATOM     71  C   UNL A   1      38.808  34.126  36.658  1.00  0.00     0.040 A 
ATOM     72  C   UNL A   1      37.752  32.194  37.629  1.00  0.00     0.040 A 
ATOM     73  F   UNL A   1      37.835  30.131  36.517  1.00  0.00    -0.206 F 
ATOM     74  C   UNL A   1      38.085  33.544  37.697  1.00  0.00     0.006 A 
ENDBRANCH  46  67
BRANCH  58  75
ATOM     75  C   UNL A   1      44.293  27.740  34.481  1.00  0.00     0.057 A 
ATOM     76  C   UNL A   1      45.484  28.462  34.626  1.00  0.00     0.134 A 
ATOM     77  C   UNL A   1      44.137  26.586  35.257  1.00  0.00     0.134 A 
ATOM     78  F   UNL A   1      45.701  29.571  33.904  1.00  0.00    -0.206 F 
ATOM     79  C   UNL A   1      46.489  28.043  35.501  1.00  0.00     0.040 A 
ATOM     80  C   UNL A   1      45.124  26.168  36.151  1.00  0.00     0.040 A 
ATOM     81  F   UNL A   1      43.017  25.852  35.171  1.00  0.00    -0.206 F 
ATOM     82  C   UNL A   1      46.306  26.897  36.272  1.00  0.00     0.006 A 
ENDBRANCH  58  75
ENDBRANCH  32  33
ENDBRANCH  25  27
ENDBRANCH  24  25
ENDBRANCH  23  24
ENDBRANCH   1  23
TORSDOF 16
ENDMDL
