MODEL 1
REMARK VINA RESULT:     -11.6      0.000      0.000
REMARK SMILES CC1=C(C(=O)OCCOC(=O)c2ccc(-c3c4nc(c(-c5c(F)cccc5F)c5ccc([nH]5)c(-c5c(F)cccc5F)c5nc(c(-c6c(F)cccc6F)c6ccc3[nH]6)C=C5)C=C4)cc2)[C@H](c2ccc(Cl)cc2)n2ncnc2N1
REMARK SMILES IDX 8 1 7 2 6 3 4 4 5 5 3 6 1 7 2 8 79 9 66 10 78 11 74 13 77 14
REMARK SMILES IDX 75 15 76 16 67 17 68 18 73 19 69 20 72 21 70 22 71 23 9 24
REMARK SMILES IDX 10 25 11 26 12 27 13 28 65 29 14 30 64 31 15 32 16 33 17 34
REMARK SMILES IDX 58 35 18 36 63 37 57 38 59 39 19 40 62 41 56 42 55 43 20 45
REMARK SMILES IDX 46 46 29 47 45 48 30 49 33 50 44 51 60 52 31 53 32 54 43 56
REMARK SMILES IDX 61 57 34 58 21 59 22 60 27 61 23 62 24 63 26 64 28 65 25 66
REMARK SMILES IDX 47 67 48 68 53 69 49 70 50 71 52 72 54 73 51 74 35 75 36 76
REMARK SMILES IDX 41 77 37 78 38 79 40 80 42 81 39 82
REMARK H PARENT 79 12 59 44 33 55
REMARK Flexibility Score: inf
ROOT
ATOM      1  C   UNL A   1      32.699  30.894  27.234  1.00  0.00     0.275 C 
ENDROOT
BRANCH   1   2
ATOM      2  C   UNL A   1      32.093  29.825  26.339  1.00  0.00     0.275 C 
BRANCH   2   3
ATOM      3  O   UNL A   1      33.034  28.760  26.122  1.00  0.00    -0.459 OA
BRANCH   3   4
ATOM      4  C   UNL A   1      32.898  28.076  24.959  1.00  0.00     0.338 C 
ATOM      5  O   UNL A   1      33.508  28.362  23.940  1.00  0.00    -0.246 OA
BRANCH   4   6
ATOM      6  C   UNL A   1      32.048  26.859  25.102  1.00  0.00     0.085 C 
ATOM      7  C   UNL A   1      30.028  27.864  23.910  1.00  0.00     0.065 C 
ATOM      8  C   UNL A   1      30.755  26.788  24.682  1.00  0.00     0.028 C 
ATOM      9  N   UNL A   1      29.978  25.682  25.000  1.00  0.00    -0.328 N 
ATOM     10  C   UNL A   1      32.675  25.714  25.933  1.00  0.00     0.181 C 
ATOM     11  C   UNL A   1      30.367  24.730  25.863  1.00  0.00     0.226 A 
ATOM     12  H   UNL A   1      29.095  25.592  24.572  1.00  0.00     0.169 HD
ATOM     13  N   UNL A   1      31.630  24.778  26.388  1.00  0.00    -0.219 N 
ATOM     14  N   UNL A   1      29.729  23.691  26.338  1.00  0.00    -0.200 NA
ATOM     15  N   UNL A   1      31.819  23.780  27.283  1.00  0.00    -0.157 NA
ATOM     16  C   UNL A   1      30.644  23.144  27.198  1.00  0.00     0.248 A 
BRANCH  10  17
ATOM     17  C   UNL A   1      33.809  24.951  25.216  1.00  0.00    -0.018 A 
ATOM     18  C   UNL A   1      35.032  24.633  25.838  1.00  0.00     0.008 A 
ATOM     19  C   UNL A   1      33.640  24.539  23.880  1.00  0.00     0.008 A 
ATOM     20  C   UNL A   1      36.019  23.903  25.164  1.00  0.00     0.021 A 
ATOM     21  C   UNL A   1      34.597  23.755  23.227  1.00  0.00     0.021 A 
ATOM     22  C   UNL A   1      35.783  23.440  23.873  1.00  0.00     0.041 A 
ATOM     23  Cl  UNL A   1      36.963  22.476  23.075  1.00  0.00    -0.084 Cl
ENDBRANCH  10  17
ENDBRANCH   4   6
ENDBRANCH   3   4
ENDBRANCH   2   3
ENDBRANCH   1   2
BRANCH   1  24
ATOM     24  O   UNL A   1      34.124  30.929  27.138  1.00  0.00    -0.458 OA
BRANCH  24  25
ATOM     25  C   UNL A   1      34.766  31.397  28.231  1.00  0.00     0.338 C 
ATOM     26  O   UNL A   1      34.360  32.215  29.039  1.00  0.00    -0.246 OA
BRANCH  25  27
ATOM     27  C   UNL A   1      36.161  30.944  28.191  1.00  0.00     0.060 A 
ATOM     28  C   UNL A   1      36.401  29.607  27.860  1.00  0.00     0.016 A 
ATOM     29  C   UNL A   1      37.175  31.765  28.706  1.00  0.00     0.016 A 
ATOM     30  C   UNL A   1      37.631  29.060  28.169  1.00  0.00     0.010 A 
ATOM     31  C   UNL A   1      38.398  31.216  29.020  1.00  0.00     0.010 A 
ATOM     32  C   UNL A   1      38.594  29.856  28.804  1.00  0.00    -0.014 A 
BRANCH  32  33
ATOM     33  C   UNL A   1      39.879  29.260  29.111  1.00  0.00     0.031 A 
ATOM     34  C   UNL A   1      40.173  29.223  30.563  1.00  0.00     0.074 A 
ATOM     35  C   UNL A   1      40.664  28.672  28.188  1.00  0.00     0.049 A 
ATOM     36  N   UNL A   1      41.126  29.825  31.192  1.00  0.00    -0.248 NA
ATOM     37  C   UNL A   1      39.203  28.546  31.440  1.00  0.00     0.031 C 
ATOM     38  C   UNL A   1      40.355  28.384  26.785  1.00  0.00     0.029 A 
ATOM     39  N   UNL A   1      41.894  28.115  28.352  1.00  0.00    -0.354 N 
ATOM     40  C   UNL A   1      40.996  29.441  32.522  1.00  0.00     0.074 A 
ATOM     41  C   UNL A   1      39.714  28.797  32.644  1.00  0.00     0.031 C 
ATOM     42  C   UNL A   1      41.275  27.521  26.296  1.00  0.00     0.029 A 
ATOM     43  C   UNL A   1      42.303  27.307  27.301  1.00  0.00     0.049 A 
ATOM     44  H   UNL A   1      42.448  28.272  29.151  1.00  0.00     0.167 HD
ATOM     45  C   UNL A   1      42.065  29.454  33.359  1.00  0.00     0.037 A 
ATOM     46  C   UNL A   1      43.380  26.482  27.291  1.00  0.00     0.037 A 
ATOM     47  C   UNL A   1      43.105  30.323  32.874  1.00  0.00     0.049 A 
ATOM     48  C   UNL A   1      44.293  26.923  28.372  1.00  0.00     0.074 A 
ATOM     49  C   UNL A   1      43.183  31.669  32.566  1.00  0.00     0.029 A 
ATOM     50  N   UNL A   1      44.199  29.745  32.281  1.00  0.00    -0.354 N 
ATOM     51  N   UNL A   1      44.970  28.037  28.347  1.00  0.00    -0.248 NA
ATOM     52  C   UNL A   1      44.131  26.322  29.686  1.00  0.00     0.031 C 
ATOM     53  C   UNL A   1      44.031  31.739  31.421  1.00  0.00     0.029 A 
ATOM     54  C   UNL A   1      44.464  30.444  31.132  1.00  0.00     0.049 A 
ATOM     55  H   UNL A   1      44.703  28.969  32.619  1.00  0.00     0.167 HD
ATOM     56  C   UNL A   1      44.927  28.501  29.653  1.00  0.00     0.074 A 
ATOM     57  C   UNL A   1      44.493  27.356  30.449  1.00  0.00     0.031 C 
ATOM     58  C   UNL A   1      44.971  29.839  29.922  1.00  0.00     0.037 A 
BRANCH  45  59
ATOM     59  C   UNL A   1      42.316  28.375  34.383  1.00  0.00     0.057 A 
ATOM     60  C   UNL A   1      42.631  27.076  33.948  1.00  0.00     0.134 A 
ATOM     61  C   UNL A   1      41.968  28.483  35.746  1.00  0.00     0.134 A 
ATOM     62  F   UNL A   1      42.954  26.840  32.668  1.00  0.00    -0.206 F 
ATOM     63  C   UNL A   1      42.536  25.962  34.790  1.00  0.00     0.040 A 
ATOM     64  C   UNL A   1      41.922  27.386  36.607  1.00  0.00     0.040 A 
ATOM     65  F   UNL A   1      41.551  29.631  36.295  1.00  0.00    -0.206 F 
ATOM     66  C   UNL A   1      42.174  26.114  36.123  1.00  0.00     0.006 A 
ENDBRANCH  45  59
BRANCH  46  67
ATOM     67  C   UNL A   1      43.547  25.174  26.618  1.00  0.00     0.057 A 
ATOM     68  C   UNL A   1      42.747  24.075  26.965  1.00  0.00     0.134 A 
ATOM     69  C   UNL A   1      44.284  25.049  25.427  1.00  0.00     0.134 A 
ATOM     70  F   UNL A   1      41.976  24.113  28.062  1.00  0.00    -0.206 F 
ATOM     71  C   UNL A   1      42.658  22.932  26.158  1.00  0.00     0.040 A 
ATOM     72  C   UNL A   1      44.210  23.912  24.617  1.00  0.00     0.040 A 
ATOM     73  F   UNL A   1      45.027  26.064  24.963  1.00  0.00    -0.206 F 
ATOM     74  C   UNL A   1      43.382  22.854  24.973  1.00  0.00     0.006 A 
ENDBRANCH  46  67
BRANCH  58  75
ATOM     75  C   UNL A   1      45.349  30.765  28.797  1.00  0.00     0.057 A 
ATOM     76  C   UNL A   1      44.445  31.267  27.848  1.00  0.00     0.134 A 
ATOM     77  C   UNL A   1      46.656  31.260  28.745  1.00  0.00     0.134 A 
ATOM     78  F   UNL A   1      43.149  30.933  27.876  1.00  0.00    -0.206 F 
ATOM     79  C   UNL A   1      44.840  32.176  26.860  1.00  0.00     0.040 A 
ATOM     80  C   UNL A   1      47.055  32.195  27.787  1.00  0.00     0.040 A 
ATOM     81  F   UNL A   1      47.563  30.869  29.654  1.00  0.00    -0.206 F 
ATOM     82  C   UNL A   1      46.149  32.647  26.831  1.00  0.00     0.006 A 
ENDBRANCH  58  75
ENDBRANCH  32  33
ENDBRANCH  25  27
ENDBRANCH  24  25
ENDBRANCH   1  24
TORSDOF 12
ENDMDL
MODEL 2
REMARK VINA RESULT:     -11.6      2.710      6.869
REMARK SMILES CC1=C(C(=O)OCCOC(=O)c2ccc(-c3c4nc(c(-c5c(F)cccc5F)c5ccc([nH]5)c(-c5c(F)cccc5F)c5nc(c(-c6c(F)cccc6F)c6ccc3[nH]6)C=C5)C=C4)cc2)[C@H](c2ccc(Cl)cc2)n2ncnc2N1
REMARK SMILES IDX 8 1 7 2 6 3 4 4 5 5 3 6 1 7 2 8 79 9 66 10 78 11 74 13 77 14
REMARK SMILES IDX 75 15 76 16 67 17 68 18 73 19 69 20 72 21 70 22 71 23 9 24
REMARK SMILES IDX 10 25 11 26 12 27 13 28 65 29 14 30 64 31 15 32 16 33 17 34
REMARK SMILES IDX 58 35 18 36 63 37 57 38 59 39 19 40 62 41 56 42 55 43 20 45
REMARK SMILES IDX 46 46 29 47 45 48 30 49 33 50 44 51 60 52 31 53 32 54 43 56
REMARK SMILES IDX 61 57 34 58 21 59 22 60 27 61 23 62 24 63 26 64 28 65 25 66
REMARK SMILES IDX 47 67 48 68 53 69 49 70 50 71 52 72 54 73 51 74 35 75 36 76
REMARK SMILES IDX 41 77 37 78 38 79 40 80 42 81 39 82
REMARK H PARENT 79 12 59 44 33 55
REMARK Flexibility Score: inf
ROOT
ATOM      1  C   UNL A   1      34.633  30.008  27.281  1.00  0.00     0.275 C 
ENDROOT
BRANCH   1   2
ATOM      2  C   UNL A   1      33.238  29.412  27.172  1.00  0.00     0.275 C 
BRANCH   2   3
ATOM      3  O   UNL A   1      33.315  27.993  26.960  1.00  0.00    -0.459 OA
BRANCH   3   4
ATOM      4  C   UNL A   1      32.128  27.343  26.865  1.00  0.00     0.338 C 
ATOM      5  O   UNL A   1      31.213  27.503  27.657  1.00  0.00    -0.246 OA
BRANCH   4   6
ATOM      6  C   UNL A   1      32.012  26.536  25.615  1.00  0.00     0.085 C 
ATOM      7  C   UNL A   1      31.746  24.304  26.823  1.00  0.00     0.065 C 
ATOM      8  C   UNL A   1      31.896  25.179  25.601  1.00  0.00     0.028 C 
ATOM      9  N   UNL A   1      31.961  24.486  24.399  1.00  0.00    -0.328 N 
ATOM     10  C   UNL A   1      32.213  27.328  24.302  1.00  0.00     0.181 C 
ATOM     11  C   UNL A   1      32.313  25.057  23.236  1.00  0.00     0.226 A 
ATOM     12  H   UNL A   1      31.739  23.527  24.401  1.00  0.00     0.169 HD
ATOM     13  N   UNL A   1      32.524  26.408  23.190  1.00  0.00    -0.219 N 
ATOM     14  N   UNL A   1      32.514  24.537  22.053  1.00  0.00    -0.200 NA
ATOM     15  N   UNL A   1      32.934  26.792  21.958  1.00  0.00    -0.157 NA
ATOM     16  C   UNL A   1      32.892  25.623  21.308  1.00  0.00     0.248 A 
BRANCH  10  17
ATOM     17  C   UNL A   1      31.035  28.251  23.925  1.00  0.00    -0.018 A 
ATOM     18  C   UNL A   1      30.987  29.615  24.273  1.00  0.00     0.008 A 
ATOM     19  C   UNL A   1      29.944  27.735  23.199  1.00  0.00     0.008 A 
ATOM     20  C   UNL A   1      29.918  30.427  23.877  1.00  0.00     0.021 A 
ATOM     21  C   UNL A   1      28.908  28.557  22.747  1.00  0.00     0.021 A 
ATOM     22  C   UNL A   1      28.899  29.902  23.088  1.00  0.00     0.041 A 
ATOM     23  Cl  UNL A   1      27.627  30.918  22.535  1.00  0.00    -0.084 Cl
ENDBRANCH  10  17
ENDBRANCH   4   6
ENDBRANCH   3   4
ENDBRANCH   2   3
ENDBRANCH   1   2
BRANCH   1  24
ATOM     24  O   UNL A   1      35.482  29.235  28.131  1.00  0.00    -0.458 OA
BRANCH  24  25
ATOM     25  C   UNL A   1      36.504  29.912  28.699  1.00  0.00     0.338 C 
ATOM     26  O   UNL A   1      36.475  31.029  29.186  1.00  0.00    -0.246 OA
BRANCH  25  27
ATOM     27  C   UNL A   1      37.754  29.187  28.440  1.00  0.00     0.060 A 
ATOM     28  C   UNL A   1      38.253  28.368  29.456  1.00  0.00     0.016 A 
ATOM     29  C   UNL A   1      38.524  29.511  27.313  1.00  0.00     0.016 A 
ATOM     30  C   UNL A   1      39.576  27.977  29.399  1.00  0.00     0.010 A 
ATOM     31  C   UNL A   1      39.845  29.128  27.262  1.00  0.00     0.010 A 
ATOM     32  C   UNL A   1      40.374  28.415  28.334  1.00  0.00    -0.014 A 
BRANCH  32  33
ATOM     33  C   UNL A   1      41.758  27.986  28.294  1.00  0.00     0.031 A 
ATOM     34  C   UNL A   1      41.945  26.684  27.609  1.00  0.00     0.074 A 
ATOM     35  C   UNL A   1      42.785  28.752  28.707  1.00  0.00     0.049 A 
ATOM     36  N   UNL A   1      42.383  25.581  28.116  1.00  0.00    -0.248 NA
ATOM     37  C   UNL A   1      41.452  26.561  26.227  1.00  0.00     0.031 C 
ATOM     38  C   UNL A   1      42.760  30.156  29.123  1.00  0.00     0.029 A 
ATOM     39  N   UNL A   1      44.110  28.444  28.748  1.00  0.00    -0.354 N 
ATOM     40  C   UNL A   1      42.409  24.672  27.064  1.00  0.00     0.074 A 
ATOM     41  C   UNL A   1      41.679  25.272  25.980  1.00  0.00     0.031 C 
ATOM     42  C   UNL A   1      44.025  30.631  29.162  1.00  0.00     0.029 A 
ATOM     43  C   UNL A   1      44.948  29.537  28.909  1.00  0.00     0.049 A 
ATOM     44  H   UNL A   1      44.445  27.521  28.669  1.00  0.00     0.167 HD
ATOM     45  C   UNL A   1      43.254  23.608  27.084  1.00  0.00     0.037 A 
ATOM     46  C   UNL A   1      46.300  29.542  28.785  1.00  0.00     0.037 A 
ATOM     47  C   UNL A   1      43.680  23.297  28.423  1.00  0.00     0.049 A 
ATOM     48  C   UNL A   1      46.767  28.141  28.914  1.00  0.00     0.074 A 
ATOM     49  C   UNL A   1      43.032  22.952  29.594  1.00  0.00     0.029 A 
ATOM     50  N   UNL A   1      44.943  23.679  28.799  1.00  0.00    -0.354 N 
ATOM     51  N   UNL A   1      46.731  27.459  30.024  1.00  0.00    -0.248 NA
ATOM     52  C   UNL A   1      46.885  27.350  27.699  1.00  0.00     0.031 C 
ATOM     53  C   UNL A   1      43.767  23.601  30.630  1.00  0.00     0.029 A 
ATOM     54  C   UNL A   1      44.848  24.255  30.039  1.00  0.00     0.049 A 
ATOM     55  H   UNL A   1      45.768  23.560  28.274  1.00  0.00     0.167 HD
ATOM     56  C   UNL A   1      46.372  26.178  29.635  1.00  0.00     0.074 A 
ATOM     57  C   UNL A   1      46.585  26.144  28.190  1.00  0.00     0.031 C 
ATOM     58  C   UNL A   1      45.668  25.363  30.475  1.00  0.00     0.037 A 
BRANCH  45  59
ATOM     59  C   UNL A   1      43.994  23.128  25.860  1.00  0.00     0.057 A 
ATOM     60  C   UNL A   1      43.967  21.761  25.534  1.00  0.00     0.134 A 
ATOM     61  C   UNL A   1      44.965  23.889  25.175  1.00  0.00     0.134 A 
ATOM     62  F   UNL A   1      43.105  20.928  26.136  1.00  0.00    -0.206 F 
ATOM     63  C   UNL A   1      44.885  21.185  24.647  1.00  0.00     0.040 A 
ATOM     64  C   UNL A   1      45.849  23.334  24.249  1.00  0.00     0.040 A 
ATOM     65  F   UNL A   1      45.183  25.183  25.438  1.00  0.00    -0.206 F 
ATOM     66  C   UNL A   1      45.834  21.972  24.006  1.00  0.00     0.006 A 
ENDBRANCH  45  59
BRANCH  46  67
ATOM     67  C   UNL A   1      47.186  30.613  28.276  1.00  0.00     0.057 A 
ATOM     68  C   UNL A   1      46.983  31.179  27.008  1.00  0.00     0.134 A 
ATOM     69  C   UNL A   1      48.063  31.307  29.127  1.00  0.00     0.134 A 
ATOM     70  F   UNL A   1      46.134  30.613  26.138  1.00  0.00    -0.206 F 
ATOM     71  C   UNL A   1      47.589  32.382  26.622  1.00  0.00     0.040 A 
ATOM     72  C   UNL A   1      48.681  32.504  28.751  1.00  0.00     0.040 A 
ATOM     73  F   UNL A   1      48.276  30.897  30.386  1.00  0.00    -0.206 F 
ATOM     74  C   UNL A   1      48.432  33.055  27.500  1.00  0.00     0.006 A 
ENDBRANCH  46  67
BRANCH  58  75
ATOM     75  C   UNL A   1      45.543  25.785  31.914  1.00  0.00     0.057 A 
ATOM     76  C   UNL A   1      46.528  25.570  32.890  1.00  0.00     0.134 A 
ATOM     77  C   UNL A   1      44.433  26.544  32.297  1.00  0.00     0.134 A 
ATOM     78  F   UNL A   1      47.674  24.943  32.596  1.00  0.00    -0.206 F 
ATOM     79  C   UNL A   1      46.387  26.041  34.200  1.00  0.00     0.040 A 
ATOM     80  C   UNL A   1      44.295  27.052  33.591  1.00  0.00     0.040 A 
ATOM     81  F   UNL A   1      43.475  26.839  31.404  1.00  0.00    -0.206 F 
ATOM     82  C   UNL A   1      45.268  26.789  34.552  1.00  0.00     0.006 A 
ENDBRANCH  58  75
ENDBRANCH  32  33
ENDBRANCH  25  27
ENDBRANCH  24  25
ENDBRANCH   1  24
TORSDOF 12
ENDMDL
MODEL 3
REMARK VINA RESULT:     -11.4      1.912      6.122
REMARK SMILES CC1=C(C(=O)OCCOC(=O)c2ccc(-c3c4nc(c(-c5c(F)cccc5F)c5ccc([nH]5)c(-c5c(F)cccc5F)c5nc(c(-c6c(F)cccc6F)c6ccc3[nH]6)C=C5)C=C4)cc2)[C@H](c2ccc(Cl)cc2)n2ncnc2N1
REMARK SMILES IDX 8 1 7 2 6 3 4 4 5 5 3 6 1 7 2 8 79 9 66 10 78 11 74 13 77 14
REMARK SMILES IDX 75 15 76 16 67 17 68 18 73 19 69 20 72 21 70 22 71 23 9 24
REMARK SMILES IDX 10 25 11 26 12 27 13 28 65 29 14 30 64 31 15 32 16 33 17 34
REMARK SMILES IDX 58 35 18 36 63 37 57 38 59 39 19 40 62 41 56 42 55 43 20 45
REMARK SMILES IDX 46 46 29 47 45 48 30 49 33 50 44 51 60 52 31 53 32 54 43 56
REMARK SMILES IDX 61 57 34 58 21 59 22 60 27 61 23 62 24 63 26 64 28 65 25 66
REMARK SMILES IDX 47 67 48 68 53 69 49 70 50 71 52 72 54 73 51 74 35 75 36 76
REMARK SMILES IDX 41 77 37 78 38 79 40 80 42 81 39 82
REMARK H PARENT 79 12 59 44 33 55
REMARK Flexibility Score: inf
ROOT
ATOM      1  C   UNL A   1      34.508  30.618  27.627  1.00  0.00     0.275 C 
ENDROOT
BRANCH   1   2
ATOM      2  C   UNL A   1      33.358  29.748  27.144  1.00  0.00     0.275 C 
BRANCH   2   3
ATOM      3  O   UNL A   1      33.848  28.474  26.693  1.00  0.00    -0.459 OA
BRANCH   3   4
ATOM      4  C   UNL A   1      33.489  28.113  25.436  1.00  0.00     0.338 C 
ATOM      5  O   UNL A   1      34.011  28.576  24.433  1.00  0.00    -0.246 OA
BRANCH   4   6
ATOM      6  C   UNL A   1      32.508  26.990  25.416  1.00  0.00     0.085 C 
ATOM      7  C   UNL A   1      30.666  28.330  24.267  1.00  0.00     0.065 C 
ATOM      8  C   UNL A   1      31.236  27.107  24.945  1.00  0.00     0.028 C 
ATOM      9  N   UNL A   1      30.331  26.067  25.114  1.00  0.00    -0.328 N 
ATOM     10  C   UNL A   1      32.969  25.703  26.141  1.00  0.00     0.181 C 
ATOM     11  C   UNL A   1      30.575  24.994  25.882  1.00  0.00     0.226 A 
ATOM     12  H   UNL A   1      29.466  26.120  24.647  1.00  0.00     0.169 HD
ATOM     13  N   UNL A   1      31.809  24.847  26.455  1.00  0.00    -0.219 N 
ATOM     14  N   UNL A   1      29.808  23.989  26.220  1.00  0.00    -0.200 NA
ATOM     15  N   UNL A   1      31.848  23.747  27.244  1.00  0.00    -0.157 NA
ATOM     16  C   UNL A   1      30.617  23.258  27.049  1.00  0.00     0.248 A 
BRANCH  10  17
ATOM     17  C   UNL A   1      34.047  24.895  25.388  1.00  0.00    -0.018 A 
ATOM     18  C   UNL A   1      35.239  24.455  25.995  1.00  0.00     0.008 A 
ATOM     19  C   UNL A   1      33.858  24.568  24.032  1.00  0.00     0.008 A 
ATOM     20  C   UNL A   1      36.174  23.691  25.286  1.00  0.00     0.021 A 
ATOM     21  C   UNL A   1      34.758  23.751  23.341  1.00  0.00     0.021 A 
ATOM     22  C   UNL A   1      35.913  23.315  23.972  1.00  0.00     0.041 A 
ATOM     23  Cl  UNL A   1      37.024  22.309  23.127  1.00  0.00    -0.084 Cl
ENDBRANCH  10  17
ENDBRANCH   4   6
ENDBRANCH   3   4
ENDBRANCH   2   3
ENDBRANCH   1   2
BRANCH   1  24
ATOM     24  O   UNL A   1      35.759  29.930  27.574  1.00  0.00    -0.458 OA
BRANCH  24  25
ATOM     25  C   UNL A   1      36.360  29.729  28.768  1.00  0.00     0.338 C 
ATOM     26  O   UNL A   1      36.025  30.174  29.852  1.00  0.00    -0.246 OA
BRANCH  25  27
ATOM     27  C   UNL A   1      37.648  29.064  28.543  1.00  0.00     0.060 A 
ATOM     28  C   UNL A   1      38.154  28.262  29.570  1.00  0.00     0.016 A 
ATOM     29  C   UNL A   1      38.437  29.430  27.442  1.00  0.00     0.016 A 
ATOM     30  C   UNL A   1      39.495  27.933  29.551  1.00  0.00     0.010 A 
ATOM     31  C   UNL A   1      39.775  29.107  27.429  1.00  0.00     0.010 A 
ATOM     32  C   UNL A   1      40.304  28.413  28.513  1.00  0.00    -0.014 A 
BRANCH  32  33
ATOM     33  C   UNL A   1      41.706  28.047  28.512  1.00  0.00     0.031 A 
ATOM     34  C   UNL A   1      41.976  26.771  27.809  1.00  0.00     0.074 A 
ATOM     35  C   UNL A   1      42.683  28.850  28.976  1.00  0.00     0.049 A 
ATOM     36  N   UNL A   1      42.446  25.677  28.309  1.00  0.00    -0.248 NA
ATOM     37  C   UNL A   1      41.536  26.655  26.408  1.00  0.00     0.031 C 
ATOM     38  C   UNL A   1      42.579  30.243  29.419  1.00  0.00     0.029 A 
ATOM     39  N   UNL A   1      44.018  28.601  29.057  1.00  0.00    -0.354 N 
ATOM     40  C   UNL A   1      42.550  24.793  27.241  1.00  0.00     0.074 A 
ATOM     41  C   UNL A   1      41.830  25.383  26.144  1.00  0.00     0.031 C 
ATOM     42  C   UNL A   1      43.819  30.774  29.511  1.00  0.00     0.029 A 
ATOM     43  C   UNL A   1      44.799  29.728  29.269  1.00  0.00     0.049 A 
ATOM     44  H   UNL A   1      44.397  27.697  28.972  1.00  0.00     0.167 HD
ATOM     45  C   UNL A   1      43.441  23.768  27.269  1.00  0.00     0.037 A 
ATOM     46  C   UNL A   1      46.152  29.796  29.192  1.00  0.00     0.037 A 
ATOM     47  C   UNL A   1      43.836  23.448  28.616  1.00  0.00     0.049 A 
ATOM     48  C   UNL A   1      46.678  28.416  29.310  1.00  0.00     0.074 A 
ATOM     49  C   UNL A   1      43.165  23.049  29.757  1.00  0.00     0.029 A 
ATOM     50  N   UNL A   1      45.066  23.879  29.043  1.00  0.00    -0.354 N 
ATOM     51  N   UNL A   1      46.636  27.709  30.404  1.00  0.00    -0.248 NA
ATOM     52  C   UNL A   1      46.874  27.656  28.085  1.00  0.00     0.031 C 
ATOM     53  C   UNL A   1      43.833  23.709  30.830  1.00  0.00     0.029 A 
ATOM     54  C   UNL A   1      44.902  24.424  30.290  1.00  0.00     0.049 A 
ATOM     55  H   UNL A   1      45.913  23.809  28.545  1.00  0.00     0.167 HD
ATOM     56  C   UNL A   1      46.350  26.421  29.978  1.00  0.00     0.074 A 
ATOM     57  C   UNL A   1      46.613  26.428  28.541  1.00  0.00     0.031 C 
ATOM     58  C   UNL A   1      45.656  25.558  30.776  1.00  0.00     0.037 A 
BRANCH  45  59
ATOM     59  C   UNL A   1      44.243  23.348  26.063  1.00  0.00     0.057 A 
ATOM     60  C   UNL A   1      44.265  21.993  25.691  1.00  0.00     0.134 A 
ATOM     61  C   UNL A   1      45.222  24.155  25.445  1.00  0.00     0.134 A 
ATOM     62  F   UNL A   1      43.400  21.120  26.227  1.00  0.00    -0.206 F 
ATOM     63  C   UNL A   1      45.233  21.470  24.825  1.00  0.00     0.040 A 
ATOM     64  C   UNL A   1      46.159  23.654  24.539  1.00  0.00     0.040 A 
ATOM     65  F   UNL A   1      45.397  25.445  25.761  1.00  0.00    -0.206 F 
ATOM     66  C   UNL A   1      46.188  22.301  24.251  1.00  0.00     0.006 A 
ENDBRANCH  45  59
BRANCH  46  67
ATOM     67  C   UNL A   1      47.006  30.917  28.735  1.00  0.00     0.057 A 
ATOM     68  C   UNL A   1      48.100  31.351  29.499  1.00  0.00     0.134 A 
ATOM     69  C   UNL A   1      46.950  31.392  27.414  1.00  0.00     0.134 A 
ATOM     70  F   UNL A   1      48.263  30.922  30.759  1.00  0.00    -0.206 F 
ATOM     71  C   UNL A   1      49.097  32.180  28.970  1.00  0.00     0.040 A 
ATOM     72  C   UNL A   1      47.934  32.226  26.875  1.00  0.00     0.040 A 
ATOM     73  F   UNL A   1      45.987  30.985  26.572  1.00  0.00    -0.206 F 
ATOM     74  C   UNL A   1      49.022  32.610  27.649  1.00  0.00     0.006 A 
ENDBRANCH  46  67
BRANCH  58  75
ATOM     75  C   UNL A   1      45.463  25.943  32.218  1.00  0.00     0.057 A 
ATOM     76  C   UNL A   1      44.331  26.606  32.716  1.00  0.00     0.134 A 
ATOM     77  C   UNL A   1      46.408  25.518  33.158  1.00  0.00     0.134 A 
ATOM     78  F   UNL A   1      43.323  26.963  31.911  1.00  0.00    -0.206 F 
ATOM     79  C   UNL A   1      44.177  26.883  34.078  1.00  0.00     0.040 A 
ATOM     80  C   UNL A   1      46.249  25.756  34.525  1.00  0.00     0.040 A 
ATOM     81  F   UNL A   1      47.490  24.828  32.764  1.00  0.00    -0.206 F 
ATOM     82  C   UNL A   1      45.137  26.453  34.989  1.00  0.00     0.006 A 
ENDBRANCH  58  75
ENDBRANCH  32  33
ENDBRANCH  25  27
ENDBRANCH  24  25
ENDBRANCH   1  24
TORSDOF 12
ENDMDL
