MODEL 1
REMARK VINA RESULT:     -10.5      0.000      0.000
REMARK SMILES Nc1cccc(C(=O)N2CCC[C@H]2C(=O)OCCOC(=O)c2ccc(-c3c4nc(c(-c5c(F)cccc5F)c5ccc([nH]5)c(-c5c(F)cccc5F)c5nc(c(-c6c(F)cccc6F)c6ccc3[nH]6)C=C5)C=C4)cc2)c1
REMARK SMILES IDX 17 1 16 2 14 3 15 4 13 5 9 6 10 7 11 8 12 9 7 10 8 11 6 12
REMARK SMILES IDX 2 13 3 14 76 15 4 16 5 17 1 18 18 21 19 22 20 23 21 24 22 25
REMARK SMILES IDX 23 26 75 27 24 28 74 29 25 30 26 31 27 32 68 33 28 34 73 35
REMARK SMILES IDX 67 36 69 37 29 38 72 39 66 40 65 41 30 43 56 44 39 45 55 46
REMARK SMILES IDX 40 47 43 48 54 49 70 50 41 51 42 52 53 54 71 55 44 56 31 57
REMARK SMILES IDX 32 58 37 59 33 60 34 61 36 62 38 63 35 64 57 65 58 66 63 67
REMARK SMILES IDX 59 68 60 69 62 70 64 71 61 72 45 73 46 74 51 75 47 76 48 77
REMARK SMILES IDX 50 78 52 79 49 80
REMARK H PARENT 1 19 1 20 69 42 43 53
REMARK Flexibility Score: inf
ROOT
ATOM      1  C   UNL A   1      33.808  33.843  28.388  1.00  0.00     0.274 C 
ENDROOT
BRANCH   1   2
ATOM      2  O   UNL A   1      34.276  34.843  29.311  1.00  0.00    -0.461 OA
BRANCH   2   3
ATOM      3  C   UNL A   1      33.301  35.586  29.892  1.00  0.00     0.328 C 
ATOM      4  O   UNL A   1      32.510  36.304  29.283  1.00  0.00    -0.250 OA
BRANCH   3   5
ATOM      5  C   UNL A   1      33.225  35.419  31.411  1.00  0.00     0.195 C 
ATOM      6  N   UNL A   1      34.369  34.903  32.160  1.00  0.00    -0.325 N 
ATOM      7  C   UNL A   1      34.912  35.920  33.040  1.00  0.00     0.121 C 
ATOM      8  C   UNL A   1      33.703  36.782  33.360  1.00  0.00     0.024 C 
ATOM      9  C   UNL A   1      32.910  36.773  32.058  1.00  0.00     0.039 C 
BRANCH   6  10
ATOM     10  C   UNL A   1      34.591  33.537  32.144  1.00  0.00     0.254 C 
ATOM     11  O   UNL A   1      33.652  32.745  32.199  1.00  0.00    -0.269 OA
BRANCH  10  12
ATOM     12  C   UNL A   1      35.971  32.986  32.266  1.00  0.00     0.042 A 
ATOM     13  C   UNL A   1      37.524  31.320  33.145  1.00  0.00     0.032 A 
ATOM     14  C   UNL A   1      38.436  31.663  32.146  1.00  0.00     0.025 A 
ATOM     15  C   UNL A   1      36.278  31.954  33.164  1.00  0.00     0.039 A 
ATOM     16  C   UNL A   1      38.140  32.671  31.227  1.00  0.00     0.003 A 
ATOM     17  C   UNL A   1      36.915  33.337  31.291  1.00  0.00     0.014 A 
BRANCH  13  18
ATOM     18  N   UNL A   1      37.779  30.258  33.998  1.00  0.00    -0.399 N 
ATOM     19  H   UNL A   1      38.703  29.947  34.137  1.00  0.00     0.156 HD
ATOM     20  H   UNL A   1      37.036  29.812  34.466  1.00  0.00     0.156 HD
ENDBRANCH  13  18
ENDBRANCH  10  12
ENDBRANCH   6  10
ENDBRANCH   3   5
ENDBRANCH   2   3
ENDBRANCH   1   2
BRANCH   1  21
ATOM     21  C   UNL A   1      34.959  32.914  28.003  1.00  0.00     0.275 C 
BRANCH  21  22
ATOM     22  O   UNL A   1      34.970  31.774  28.882  1.00  0.00    -0.458 OA
BRANCH  22  23
ATOM     23  C   UNL A   1      35.030  30.573  28.265  1.00  0.00     0.338 C 
ATOM     24  O   UNL A   1      34.119  29.974  27.719  1.00  0.00    -0.246 OA
BRANCH  23  25
ATOM     25  C   UNL A   1      36.367  29.976  28.461  1.00  0.00     0.060 A 
ATOM     26  C   UNL A   1      36.763  29.384  29.665  1.00  0.00     0.016 A 
ATOM     27  C   UNL A   1      37.270  30.073  27.401  1.00  0.00     0.016 A 
ATOM     28  C   UNL A   1      38.081  28.945  29.828  1.00  0.00     0.010 A 
ATOM     29  C   UNL A   1      38.565  29.579  27.542  1.00  0.00     0.010 A 
ATOM     30  C   UNL A   1      38.992  29.039  28.765  1.00  0.00    -0.014 A 
BRANCH  30  31
ATOM     31  C   UNL A   1      40.404  28.605  28.905  1.00  0.00     0.031 A 
ATOM     32  C   UNL A   1      41.448  29.594  29.346  1.00  0.00     0.074 A 
ATOM     33  C   UNL A   1      40.761  27.352  28.573  1.00  0.00     0.049 A 
ATOM     34  N   UNL A   1      42.752  29.481  29.342  1.00  0.00    -0.248 NA
ATOM     35  C   UNL A   1      40.957  30.888  29.848  1.00  0.00     0.031 C 
ATOM     36  C   UNL A   1      39.841  26.295  28.148  1.00  0.00     0.029 A 
ATOM     37  N   UNL A   1      41.998  26.761  28.518  1.00  0.00    -0.354 N 
ATOM     38  C   UNL A   1      43.238  30.697  29.805  1.00  0.00     0.074 A 
ATOM     39  C   UNL A   1      42.091  31.538  30.074  1.00  0.00     0.031 C 
ATOM     40  C   UNL A   1      40.547  25.187  27.874  1.00  0.00     0.029 A 
ATOM     41  C   UNL A   1      41.968  25.471  28.048  1.00  0.00     0.049 A 
ATOM     42  H   UNL A   1      42.826  27.219  28.788  1.00  0.00     0.167 HD
ATOM     43  C   UNL A   1      44.525  31.077  29.986  1.00  0.00     0.037 A 
ATOM     44  C   UNL A   1      42.974  24.627  27.754  1.00  0.00     0.037 A 
ATOM     45  C   UNL A   1      45.663  30.230  29.739  1.00  0.00     0.049 A 
ATOM     46  C   UNL A   1      44.393  25.081  27.932  1.00  0.00     0.074 A 
ATOM     47  C   UNL A   1      47.006  30.514  29.914  1.00  0.00     0.029 A 
ATOM     48  N   UNL A   1      45.588  28.928  29.266  1.00  0.00    -0.354 N 
ATOM     49  N   UNL A   1      44.843  26.237  28.356  1.00  0.00    -0.248 NA
ATOM     50  C   UNL A   1      45.446  24.117  27.581  1.00  0.00     0.031 C 
ATOM     51  C   UNL A   1      47.745  29.393  29.521  1.00  0.00     0.029 A 
ATOM     52  C   UNL A   1      46.860  28.400  29.133  1.00  0.00     0.049 A 
ATOM     53  H   UNL A   1      44.752  28.451  29.057  1.00  0.00     0.167 HD
ATOM     54  C   UNL A   1      46.227  26.137  28.335  1.00  0.00     0.074 A 
ATOM     55  C   UNL A   1      46.543  24.802  27.871  1.00  0.00     0.031 C 
ATOM     56  C   UNL A   1      47.153  27.069  28.669  1.00  0.00     0.037 A 
BRANCH  43  57
ATOM     57  C   UNL A   1      44.773  32.478  30.459  1.00  0.00     0.057 A 
ATOM     58  C   UNL A   1      44.893  32.790  31.818  1.00  0.00     0.134 A 
ATOM     59  C   UNL A   1      44.929  33.523  29.539  1.00  0.00     0.134 A 
ATOM     60  F   UNL A   1      44.743  31.837  32.751  1.00  0.00    -0.206 F 
ATOM     61  C   UNL A   1      45.142  34.096  32.247  1.00  0.00     0.040 A 
ATOM     62  C   UNL A   1      45.198  34.828  29.955  1.00  0.00     0.040 A 
ATOM     63  F   UNL A   1      44.830  33.290  28.221  1.00  0.00    -0.206 F 
ATOM     64  C   UNL A   1      45.301  35.118  31.314  1.00  0.00     0.006 A 
ENDBRANCH  43  57
BRANCH  44  65
ATOM     65  C   UNL A   1      42.666  23.271  27.238  1.00  0.00     0.057 A 
ATOM     66  C   UNL A   1      42.312  22.234  28.107  1.00  0.00     0.134 A 
ATOM     67  C   UNL A   1      42.701  22.987  25.867  1.00  0.00     0.134 A 
ATOM     68  F   UNL A   1      42.284  22.443  29.431  1.00  0.00    -0.206 F 
ATOM     69  C   UNL A   1      42.006  20.958  27.632  1.00  0.00     0.040 A 
ATOM     70  C   UNL A   1      42.375  21.722  25.377  1.00  0.00     0.040 A 
ATOM     71  F   UNL A   1      43.030  23.941  24.985  1.00  0.00    -0.206 F 
ATOM     72  C   UNL A   1      42.029  20.702  26.262  1.00  0.00     0.006 A 
ENDBRANCH  44  65
BRANCH  56  73
ATOM     73  C   UNL A   1      48.591  26.661  28.566  1.00  0.00     0.057 A 
ATOM     74  C   UNL A   1      49.352  26.935  27.424  1.00  0.00     0.134 A 
ATOM     75  C   UNL A   1      49.225  26.011  29.631  1.00  0.00     0.134 A 
ATOM     76  F   UNL A   1      48.795  27.544  26.366  1.00  0.00    -0.206 F 
ATOM     77  C   UNL A   1      50.693  26.560  27.337  1.00  0.00     0.040 A 
ATOM     78  C   UNL A   1      50.570  25.646  29.563  1.00  0.00     0.040 A 
ATOM     79  F   UNL A   1      48.550  25.724  30.754  1.00  0.00    -0.206 F 
ATOM     80  C   UNL A   1      51.307  25.917  28.410  1.00  0.00     0.006 A 
ENDBRANCH  56  73
ENDBRANCH  30  31
ENDBRANCH  23  25
ENDBRANCH  22  23
ENDBRANCH  21  22
ENDBRANCH   1  21
TORSDOF 14
ENDMDL
MODEL 2
REMARK VINA RESULT:     -10.3      4.997      9.529
REMARK SMILES Nc1cccc(C(=O)N2CCC[C@H]2C(=O)OCCOC(=O)c2ccc(-c3c4nc(c(-c5c(F)cccc5F)c5ccc([nH]5)c(-c5c(F)cccc5F)c5nc(c(-c6c(F)cccc6F)c6ccc3[nH]6)C=C5)C=C4)cc2)c1
REMARK SMILES IDX 17 1 16 2 14 3 15 4 13 5 9 6 10 7 11 8 12 9 7 10 8 11 6 12
REMARK SMILES IDX 2 13 3 14 76 15 4 16 5 17 1 18 18 21 19 22 20 23 21 24 22 25
REMARK SMILES IDX 23 26 75 27 24 28 74 29 25 30 26 31 27 32 68 33 28 34 73 35
REMARK SMILES IDX 67 36 69 37 29 38 72 39 66 40 65 41 30 43 56 44 39 45 55 46
REMARK SMILES IDX 40 47 43 48 54 49 70 50 41 51 42 52 53 54 71 55 44 56 31 57
REMARK SMILES IDX 32 58 37 59 33 60 34 61 36 62 38 63 35 64 57 65 58 66 63 67
REMARK SMILES IDX 59 68 60 69 62 70 64 71 61 72 45 73 46 74 51 75 47 76 48 77
REMARK SMILES IDX 50 78 52 79 49 80
REMARK H PARENT 1 19 1 20 69 42 43 53
REMARK Flexibility Score: inf
ROOT
ATOM      1  C   UNL A   1      31.403  30.530  25.697  1.00  0.00     0.274 C 
ENDROOT
BRANCH   1   2
ATOM      2  O   UNL A   1      32.592  29.744  25.893  1.00  0.00    -0.461 OA
BRANCH   2   3
ATOM      3  C   UNL A   1      32.685  28.641  25.108  1.00  0.00     0.328 C 
ATOM      4  O   UNL A   1      33.684  28.320  24.467  1.00  0.00    -0.250 OA
BRANCH   3   5
ATOM      5  C   UNL A   1      31.427  27.771  25.121  1.00  0.00     0.195 C 
ATOM      6  N   UNL A   1      31.155  26.841  24.027  1.00  0.00    -0.325 N 
ATOM      7  C   UNL A   1      31.216  25.468  24.487  1.00  0.00     0.121 C 
ATOM      8  C   UNL A   1      30.812  25.575  25.948  1.00  0.00     0.024 C 
ATOM      9  C   UNL A   1      31.420  26.903  26.385  1.00  0.00     0.039 C 
BRANCH   6  10
ATOM     10  C   UNL A   1      30.638  27.358  22.852  1.00  0.00     0.254 C 
ATOM     11  O   UNL A   1      31.104  27.032  21.760  1.00  0.00    -0.269 OA
BRANCH  10  12
ATOM     12  C   UNL A   1      29.647  28.472  22.876  1.00  0.00     0.042 A 
ATOM     13  C   UNL A   1      28.953  30.714  22.205  1.00  0.00     0.032 A 
ATOM     14  C   UNL A   1      27.634  30.384  22.517  1.00  0.00     0.025 A 
ATOM     15  C   UNL A   1      29.941  29.735  22.343  1.00  0.00     0.039 A 
ATOM     16  C   UNL A   1      27.316  29.123  23.027  1.00  0.00     0.003 A 
ATOM     17  C   UNL A   1      28.320  28.173  23.214  1.00  0.00     0.014 A 
BRANCH  13  18
ATOM     18  N   UNL A   1      29.254  31.931  21.613  1.00  0.00    -0.399 N 
ATOM     19  H   UNL A   1      29.019  32.772  22.067  1.00  0.00     0.156 HD
ATOM     20  H   UNL A   1      29.703  31.954  20.737  1.00  0.00     0.156 HD
ENDBRANCH  13  18
ENDBRANCH  10  12
ENDBRANCH   6  10
ENDBRANCH   3   5
ENDBRANCH   2   3
ENDBRANCH   1   2
BRANCH   1  21
ATOM     21  C   UNL A   1      31.404  31.720  26.655  1.00  0.00     0.275 C 
BRANCH  21  22
ATOM     22  O   UNL A   1      32.630  32.459  26.503  1.00  0.00    -0.458 OA
BRANCH  22  23
ATOM     23  C   UNL A   1      33.008  33.175  27.584  1.00  0.00     0.338 C 
ATOM     24  O   UNL A   1      32.515  34.212  27.995  1.00  0.00    -0.246 OA
BRANCH  23  25
ATOM     25  C   UNL A   1      34.242  32.600  28.159  1.00  0.00     0.060 A 
ATOM     26  C   UNL A   1      34.362  31.248  28.497  1.00  0.00     0.016 A 
ATOM     27  C   UNL A   1      35.295  33.480  28.414  1.00  0.00     0.016 A 
ATOM     28  C   UNL A   1      35.512  30.790  29.148  1.00  0.00     0.010 A 
ATOM     29  C   UNL A   1      36.466  33.011  29.006  1.00  0.00     0.010 A 
ATOM     30  C   UNL A   1      36.574  31.670  29.406  1.00  0.00    -0.014 A 
BRANCH  30  31
ATOM     31  C   UNL A   1      37.800  31.227  30.114  1.00  0.00     0.031 A 
ATOM     32  C   UNL A   1      38.745  30.269  29.443  1.00  0.00     0.074 A 
ATOM     33  C   UNL A   1      38.031  31.627  31.378  1.00  0.00     0.049 A 
ATOM     34  N   UNL A   1      39.755  29.608  29.950  1.00  0.00    -0.248 NA
ATOM     35  C   UNL A   1      38.513  30.011  28.013  1.00  0.00     0.031 C 
ATOM     36  C   UNL A   1      37.201  32.567  32.132  1.00  0.00     0.029 A 
ATOM     37  N   UNL A   1      39.022  31.274  32.258  1.00  0.00    -0.354 N 
ATOM     38  C   UNL A   1      40.257  28.831  28.912  1.00  0.00     0.074 A 
ATOM     39  C   UNL A   1      39.436  29.096  27.750  1.00  0.00     0.031 C 
ATOM     40  C   UNL A   1      37.716  32.714  33.363  1.00  0.00     0.029 A 
ATOM     41  C   UNL A   1      38.875  31.837  33.502  1.00  0.00     0.049 A 
ATOM     42  H   UNL A   1      39.765  30.673  32.022  1.00  0.00     0.167 HD
ATOM     43  C   UNL A   1      41.305  27.975  28.931  1.00  0.00     0.037 A 
ATOM     44  C   UNL A   1      39.572  31.640  34.636  1.00  0.00     0.037 A 
ATOM     45  C   UNL A   1      42.133  27.731  30.084  1.00  0.00     0.049 A 
ATOM     46  C   UNL A   1      40.709  30.662  34.642  1.00  0.00     0.074 A 
ATOM     47  C   UNL A   1      43.233  26.900  30.198  1.00  0.00     0.029 A 
ATOM     48  N   UNL A   1      41.951  28.326  31.323  1.00  0.00    -0.354 N 
ATOM     49  N   UNL A   1      41.166  29.922  33.661  1.00  0.00    -0.248 NA
ATOM     50  C   UNL A   1      41.422  30.482  35.915  1.00  0.00     0.031 C 
ATOM     51  C   UNL A   1      43.701  26.970  31.515  1.00  0.00     0.029 A 
ATOM     52  C   UNL A   1      42.911  27.871  32.211  1.00  0.00     0.049 A 
ATOM     53  H   UNL A   1      41.244  28.976  31.540  1.00  0.00     0.167 HD
ATOM     54  C   UNL A   1      42.226  29.199  34.192  1.00  0.00     0.074 A 
ATOM     55  C   UNL A   1      42.353  29.601  35.578  1.00  0.00     0.031 C 
ATOM     56  C   UNL A   1      43.020  28.284  33.586  1.00  0.00     0.037 A 
BRANCH  43  57
ATOM     57  C   UNL A   1      41.606  27.221  27.670  1.00  0.00     0.057 A 
ATOM     58  C   UNL A   1      41.100  25.938  27.438  1.00  0.00     0.134 A 
ATOM     59  C   UNL A   1      42.385  27.802  26.661  1.00  0.00     0.134 A 
ATOM     60  F   UNL A   1      40.357  25.320  28.369  1.00  0.00    -0.206 F 
ATOM     61  C   UNL A   1      41.371  25.250  26.252  1.00  0.00     0.040 A 
ATOM     62  C   UNL A   1      42.646  27.134  25.464  1.00  0.00     0.040 A 
ATOM     63  F   UNL A   1      42.897  29.032  26.819  1.00  0.00    -0.206 F 
ATOM     64  C   UNL A   1      42.142  25.851  25.259  1.00  0.00     0.006 A 
ENDBRANCH  43  57
BRANCH  44  65
ATOM     65  C   UNL A   1      39.191  32.375  35.867  1.00  0.00     0.057 A 
ATOM     66  C   UNL A   1      39.682  33.661  36.118  1.00  0.00     0.134 A 
ATOM     67  C   UNL A   1      38.319  31.818  36.810  1.00  0.00     0.134 A 
ATOM     68  F   UNL A   1      40.538  34.235  35.261  1.00  0.00    -0.206 F 
ATOM     69  C   UNL A   1      39.319  34.368  37.265  1.00  0.00     0.040 A 
ATOM     70  C   UNL A   1      37.931  32.522  37.950  1.00  0.00     0.040 A 
ATOM     71  F   UNL A   1      37.814  30.589  36.623  1.00  0.00    -0.206 F 
ATOM     72  C   UNL A   1      38.435  33.801  38.181  1.00  0.00     0.006 A 
ENDBRANCH  44  65
BRANCH  56  73
ATOM     73  C   UNL A   1      44.110  27.677  34.417  1.00  0.00     0.057 A 
ATOM     74  C   UNL A   1      43.928  26.469  35.099  1.00  0.00     0.134 A 
ATOM     75  C   UNL A   1      45.361  28.298  34.513  1.00  0.00     0.134 A 
ATOM     76  F   UNL A   1      42.746  25.835  35.055  1.00  0.00    -0.206 F 
ATOM     77  C   UNL A   1      44.949  25.906  35.864  1.00  0.00     0.040 A 
ATOM     78  C   UNL A   1      46.396  27.736  35.261  1.00  0.00     0.040 A 
ATOM     79  F   UNL A   1      45.599  29.456  33.879  1.00  0.00    -0.206 F 
ATOM     80  C   UNL A   1      46.189  26.538  35.944  1.00  0.00     0.006 A 
ENDBRANCH  56  73
ENDBRANCH  30  31
ENDBRANCH  23  25
ENDBRANCH  22  23
ENDBRANCH  21  22
ENDBRANCH   1  21
TORSDOF 14
ENDMDL
MODEL 3
REMARK VINA RESULT:     -10.3      4.969     10.152
REMARK SMILES Nc1cccc(C(=O)N2CCC[C@H]2C(=O)OCCOC(=O)c2ccc(-c3c4nc(c(-c5c(F)cccc5F)c5ccc([nH]5)c(-c5c(F)cccc5F)c5nc(c(-c6c(F)cccc6F)c6ccc3[nH]6)C=C5)C=C4)cc2)c1
REMARK SMILES IDX 17 1 16 2 14 3 15 4 13 5 9 6 10 7 11 8 12 9 7 10 8 11 6 12
REMARK SMILES IDX 2 13 3 14 76 15 4 16 5 17 1 18 18 21 19 22 20 23 21 24 22 25
REMARK SMILES IDX 23 26 75 27 24 28 74 29 25 30 26 31 27 32 68 33 28 34 73 35
REMARK SMILES IDX 67 36 69 37 29 38 72 39 66 40 65 41 30 43 56 44 39 45 55 46
REMARK SMILES IDX 40 47 43 48 54 49 70 50 41 51 42 52 53 54 71 55 44 56 31 57
REMARK SMILES IDX 32 58 37 59 33 60 34 61 36 62 38 63 35 64 57 65 58 66 63 67
REMARK SMILES IDX 59 68 60 69 62 70 64 71 61 72 45 73 46 74 51 75 47 76 48 77
REMARK SMILES IDX 50 78 52 79 49 80
REMARK H PARENT 1 19 1 20 69 42 43 53
REMARK Flexibility Score: inf
ROOT
ATOM      1  C   UNL A   1      37.790  20.805  24.624  1.00  0.00     0.274 C 
ENDROOT
BRANCH   1   2
ATOM      2  O   UNL A   1      37.612  21.723  25.718  1.00  0.00    -0.461 OA
BRANCH   2   3
ATOM      3  C   UNL A   1      36.518  22.520  25.623  1.00  0.00     0.328 C 
ATOM      4  O   UNL A   1      36.331  23.536  26.290  1.00  0.00    -0.250 OA
BRANCH   3   5
ATOM      5  C   UNL A   1      35.522  22.070  24.552  1.00  0.00     0.195 C 
ATOM      6  N   UNL A   1      34.109  21.889  24.878  1.00  0.00    -0.325 N 
ATOM      7  C   UNL A   1      33.289  22.862  24.182  1.00  0.00     0.121 C 
ATOM      8  C   UNL A   1      34.086  23.145  22.919  1.00  0.00     0.024 C 
ATOM      9  C   UNL A   1      35.533  23.074  23.393  1.00  0.00     0.039 C 
BRANCH   6  10
ATOM     10  C   UNL A   1      33.740  20.729  25.535  1.00  0.00     0.254 C 
ATOM     11  O   UNL A   1      33.645  20.701  26.761  1.00  0.00    -0.269 OA
BRANCH  10  12
ATOM     12  C   UNL A   1      33.646  19.433  24.804  1.00  0.00     0.042 A 
ATOM     13  C   UNL A   1      32.708  18.066  23.012  1.00  0.00     0.032 A 
ATOM     14  C   UNL A   1      33.785  17.188  23.137  1.00  0.00     0.025 A 
ATOM     15  C   UNL A   1      32.676  19.208  23.817  1.00  0.00     0.039 A 
ATOM     16  C   UNL A   1      34.775  17.406  24.097  1.00  0.00     0.003 A 
ATOM     17  C   UNL A   1      34.702  18.520  24.934  1.00  0.00     0.014 A 
BRANCH  13  18
ATOM     18  N   UNL A   1      31.777  17.900  21.999  1.00  0.00    -0.399 N 
ATOM     19  H   UNL A   1      31.547  18.656  21.411  1.00  0.00     0.156 HD
ATOM     20  H   UNL A   1      31.343  17.026  21.867  1.00  0.00     0.156 HD
ENDBRANCH  13  18
ENDBRANCH  10  12
ENDBRANCH   6  10
ENDBRANCH   3   5
ENDBRANCH   2   3
ENDBRANCH   1   2
BRANCH   1  21
ATOM     21  C   UNL A   1      38.389  19.497  25.139  1.00  0.00     0.275 C 
BRANCH  21  22
ATOM     22  O   UNL A   1      39.191  19.761  26.305  1.00  0.00    -0.458 OA
BRANCH  22  23
ATOM     23  C   UNL A   1      40.524  19.622  26.129  1.00  0.00     0.338 C 
ATOM     24  O   UNL A   1      41.121  18.628  25.751  1.00  0.00    -0.246 OA
BRANCH  23  25
ATOM     25  C   UNL A   1      41.222  20.833  26.609  1.00  0.00     0.060 A 
ATOM     26  C   UNL A   1      41.697  20.966  27.917  1.00  0.00     0.016 A 
ATOM     27  C   UNL A   1      41.346  21.894  25.710  1.00  0.00     0.016 A 
ATOM     28  C   UNL A   1      42.241  22.181  28.343  1.00  0.00     0.010 A 
ATOM     29  C   UNL A   1      41.945  23.084  26.116  1.00  0.00     0.010 A 
ATOM     30  C   UNL A   1      42.369  23.250  27.444  1.00  0.00    -0.014 A 
BRANCH  30  31
ATOM     31  C   UNL A   1      42.920  24.563  27.864  1.00  0.00     0.031 A 
ATOM     32  C   UNL A   1      41.987  25.658  28.301  1.00  0.00     0.074 A 
ATOM     33  C   UNL A   1      44.243  24.794  27.787  1.00  0.00     0.049 A 
ATOM     34  N   UNL A   1      42.237  26.925  28.513  1.00  0.00    -0.248 NA
ATOM     35  C   UNL A   1      40.582  25.277  28.515  1.00  0.00     0.031 C 
ATOM     36  C   UNL A   1      45.253  23.810  27.395  1.00  0.00     0.029 A 
ATOM     37  N   UNL A   1      44.962  25.941  28.013  1.00  0.00    -0.354 N 
ATOM     38  C   UNL A   1      41.018  27.499  28.851  1.00  0.00     0.074 A 
ATOM     39  C   UNL A   1      40.027  26.445  28.809  1.00  0.00     0.031 C 
ATOM     40  C   UNL A   1      46.461  24.396  27.407  1.00  0.00     0.029 A 
ATOM     41  C   UNL A   1      46.303  25.806  27.750  1.00  0.00     0.049 A 
ATOM     42  H   UNL A   1      44.556  26.778  28.332  1.00  0.00     0.167 HD
ATOM     43  C   UNL A   1      40.752  28.789  29.166  1.00  0.00     0.037 A 
ATOM     44  C   UNL A   1      47.287  26.724  27.746  1.00  0.00     0.037 A 
ATOM     45  C   UNL A   1      41.745  29.830  29.229  1.00  0.00     0.049 A 
ATOM     46  C   UNL A   1      46.963  28.154  28.067  1.00  0.00     0.074 A 
ATOM     47  C   UNL A   1      41.579  31.163  29.561  1.00  0.00     0.029 A 
ATOM     48  N   UNL A   1      43.093  29.650  28.957  1.00  0.00    -0.354 N 
ATOM     49  N   UNL A   1      45.806  28.689  28.370  1.00  0.00    -0.248 NA
ATOM     50  C   UNL A   1      48.079  29.109  28.034  1.00  0.00     0.031 C 
ATOM     51  C   UNL A   1      42.824  31.796  29.463  1.00  0.00     0.029 A 
ATOM     52  C   UNL A   1      43.769  30.849  29.102  1.00  0.00     0.049 A 
ATOM     53  H   UNL A   1      43.508  28.795  28.699  1.00  0.00     0.167 HD
ATOM     54  C   UNL A   1      46.054  30.039  28.577  1.00  0.00     0.074 A 
ATOM     55  C   UNL A   1      47.475  30.238  28.378  1.00  0.00     0.031 C 
ATOM     56  C   UNL A   1      45.183  31.025  28.900  1.00  0.00     0.037 A 
BRANCH  43  57
ATOM     57  C   UNL A   1      39.325  29.152  29.449  1.00  0.00     0.057 A 
ATOM     58  C   UNL A   1      38.786  29.084  30.739  1.00  0.00     0.134 A 
ATOM     59  C   UNL A   1      38.489  29.609  28.422  1.00  0.00     0.134 A 
ATOM     60  F   UNL A   1      39.530  28.643  31.765  1.00  0.00    -0.206 F 
ATOM     61  C   UNL A   1      37.460  29.442  30.995  1.00  0.00     0.040 A 
ATOM     62  C   UNL A   1      37.169  29.988  28.669  1.00  0.00     0.040 A 
ATOM     63  F   UNL A   1      38.945  29.702  27.164  1.00  0.00    -0.206 F 
ATOM     64  C   UNL A   1      36.650  29.901  29.959  1.00  0.00     0.006 A 
ENDBRANCH  43  57
BRANCH  44  65
ATOM     65  C   UNL A   1      48.671  26.314  27.404  1.00  0.00     0.057 A 
ATOM     66  C   UNL A   1      49.118  26.326  26.079  1.00  0.00     0.134 A 
ATOM     67  C   UNL A   1      49.580  25.918  28.393  1.00  0.00     0.134 A 
ATOM     68  F   UNL A   1      48.285  26.674  25.089  1.00  0.00    -0.206 F 
ATOM     69  C   UNL A   1      50.422  25.956  25.747  1.00  0.00     0.040 A 
ATOM     70  C   UNL A   1      50.893  25.568  28.078  1.00  0.00     0.040 A 
ATOM     71  F   UNL A   1      49.210  25.888  29.682  1.00  0.00    -0.206 F 
ATOM     72  C   UNL A   1      51.316  25.583  26.750  1.00  0.00     0.006 A 
ENDBRANCH  44  65
BRANCH  56  73
ATOM     73  C   UNL A   1      45.753  32.399  29.082  1.00  0.00     0.057 A 
ATOM     74  C   UNL A   1      46.249  32.830  30.318  1.00  0.00     0.134 A 
ATOM     75  C   UNL A   1      45.825  33.289  28.004  1.00  0.00     0.134 A 
ATOM     76  F   UNL A   1      46.194  32.028  31.391  1.00  0.00    -0.206 F 
ATOM     77  C   UNL A   1      46.785  34.109  30.479  1.00  0.00     0.040 A 
ATOM     78  C   UNL A   1      46.375  34.563  28.148  1.00  0.00     0.040 A 
ATOM     79  F   UNL A   1      45.369  32.933  26.794  1.00  0.00    -0.206 F 
ATOM     80  C   UNL A   1      46.853  34.978  29.391  1.00  0.00     0.006 A 
ENDBRANCH  56  73
ENDBRANCH  30  31
ENDBRANCH  23  25
ENDBRANCH  22  23
ENDBRANCH  21  22
ENDBRANCH   1  21
TORSDOF 14
ENDMDL
