MODEL 1
REMARK VINA RESULT:     -13.1      0.000      0.000
REMARK SMILES Cc1ccc(-c2ccc(/C=C(\C#N)C3N=c4ccccc4=N3)o2)cc1C(=O)OCCOC(=O)c1ccc(-c2c3nc(c(-c4c(F)cccc4F)c4ccc([nH]4)c(-c4c(F)cccc4F)c4nc(c(-c5c(F)cccc5F)c5ccc2[nH]5)C=C4)C=C3)cc1
REMARK SMILES IDX 29 1 28 2 26 3 27 4 25 5 1 6 2 7 3 8 4 9 24 10 5 11 6 12
REMARK SMILES IDX 7 13 23 14 8 15 9 16 10 17 11 18 12 19 13 20 14 21 15 22
REMARK SMILES IDX 22 23 16 24 21 25 17 26 20 27 18 28 19 29 30 30 31 31 32 32
REMARK SMILES IDX 33 33 34 34 35 35 87 36 36 37 86 38 37 39 38 40 39 41 80 42
REMARK SMILES IDX 40 43 85 44 79 45 81 46 41 47 84 48 78 49 77 50 42 52 68 53
REMARK SMILES IDX 51 54 67 55 52 56 55 57 66 58 82 59 53 60 54 61 65 63 83 64
REMARK SMILES IDX 56 65 43 66 44 67 49 68 45 69 46 70 48 71 50 72 47 73 69 74
REMARK SMILES IDX 70 75 75 76 71 77 72 78 74 79 76 80 73 81 57 82 58 83 63 84
REMARK SMILES IDX 59 85 60 86 62 87 64 88 61 89
REMARK H PARENT 81 51 55 62
REMARK Flexibility Score: inf
ROOT
ATOM      1  C   UNL A   1      33.379  35.352  29.754  1.00  0.00     0.275 C 
ENDROOT
BRANCH   1   2
ATOM      2  O   UNL A   1      33.673  33.946  29.576  1.00  0.00    -0.458 OA
BRANCH   2   3
ATOM      3  C   UNL A   1      33.342  33.522  28.326  1.00  0.00     0.338 C 
ATOM      4  O   UNL A   1      32.456  34.030  27.652  1.00  0.00    -0.246 OA
BRANCH   3   5
ATOM      5  C   UNL A   1      34.037  32.327  27.784  1.00  0.00     0.063 A 
ATOM      6  C   UNL A   1      36.267  33.430  28.430  1.00  0.00     0.045 C 
ATOM      7  C   UNL A   1      35.428  32.252  28.002  1.00  0.00    -0.037 A 
ATOM      8  C   UNL A   1      36.075  31.026  27.800  1.00  0.00     0.005 A 
ATOM      9  C   UNL A   1      35.355  29.875  27.464  1.00  0.00     0.012 A 
ATOM     10  C   UNL A   1      33.329  31.178  27.361  1.00  0.00     0.028 A 
ATOM     11  C   UNL A   1      33.973  29.922  27.253  1.00  0.00     0.018 A 
BRANCH  11  12
ATOM     12  C   UNL A   1      33.238  28.684  26.950  1.00  0.00     0.134 A 
ATOM     13  C   UNL A   1      31.960  28.248  27.211  1.00  0.00     0.051 A 
ATOM     14  O   UNL A   1      33.909  27.702  26.253  1.00  0.00    -0.457 OA
ATOM     15  C   UNL A   1      31.846  26.960  26.634  1.00  0.00     0.051 A 
ATOM     16  C   UNL A   1      33.065  26.620  26.055  1.00  0.00     0.128 A 
BRANCH  16  17
ATOM     17  C   UNL A   1      33.355  25.398  25.362  1.00  0.00     0.066 C 
ATOM     18  C   UNL A   1      33.480  25.207  24.031  1.00  0.00     0.080 C 
BRANCH  18  19
ATOM     19  C   UNL A   1      33.346  26.255  23.082  1.00  0.00     0.099 C 
ATOM     20  N   UNL A   1      33.273  27.160  22.342  1.00  0.00    -0.193 NA
ENDBRANCH  18  19
BRANCH  18  21
ATOM     21  C   UNL A   1      33.764  23.812  23.481  1.00  0.00     0.263 C 
ATOM     22  N   UNL A   1      35.175  23.727  23.013  1.00  0.00    -0.251 NA
ATOM     23  N   UNL A   1      33.488  22.747  24.486  1.00  0.00    -0.251 NA
ATOM     24  C   UNL A   1      35.645  22.743  23.698  1.00  0.00     0.086 A 
ATOM     25  C   UNL A   1      34.623  22.142  24.584  1.00  0.00     0.086 A 
ATOM     26  C   UNL A   1      37.009  22.199  23.699  1.00  0.00     0.030 A 
ATOM     27  C   UNL A   1      34.992  20.999  25.428  1.00  0.00     0.030 A 
ATOM     28  C   UNL A   1      37.268  21.174  24.520  1.00  0.00     0.002 A 
ATOM     29  C   UNL A   1      36.263  20.572  25.376  1.00  0.00     0.002 A 
ENDBRANCH  18  21
ENDBRANCH  16  17
ENDBRANCH  11  12
ENDBRANCH   3   5
ENDBRANCH   2   3
ENDBRANCH   1   2
BRANCH   1  30
ATOM     30  C   UNL A   1      33.232  35.822  31.210  1.00  0.00     0.275 C 
BRANCH  30  31
ATOM     31  O   UNL A   1      34.134  35.327  32.239  1.00  0.00    -0.458 OA
BRANCH  31  32
ATOM     32  C   UNL A   1      34.223  34.057  32.698  1.00  0.00     0.338 C 
ATOM     33  O   UNL A   1      33.291  33.488  33.250  1.00  0.00    -0.246 OA
BRANCH  32  34
ATOM     34  C   UNL A   1      35.515  33.385  32.518  1.00  0.00     0.060 A 
ATOM     35  C   UNL A   1      36.533  34.048  31.807  1.00  0.00     0.016 A 
ATOM     36  C   UNL A   1      35.743  32.172  33.154  1.00  0.00     0.016 A 
ATOM     37  C   UNL A   1      37.817  33.537  31.798  1.00  0.00     0.010 A 
ATOM     38  C   UNL A   1      37.034  31.769  33.320  1.00  0.00     0.010 A 
ATOM     39  C   UNL A   1      38.036  32.401  32.564  1.00  0.00    -0.014 A 
BRANCH  39  40
ATOM     40  C   UNL A   1      39.164  31.524  32.351  1.00  0.00     0.031 A 
ATOM     41  C   UNL A   1      38.962  30.313  31.544  1.00  0.00     0.074 A 
ATOM     42  C   UNL A   1      40.277  32.163  32.798  1.00  0.00     0.049 A 
ATOM     43  N   UNL A   1      39.726  29.286  31.575  1.00  0.00    -0.248 NA
ATOM     44  C   UNL A   1      37.814  30.086  30.662  1.00  0.00     0.031 C 
ATOM     45  C   UNL A   1      41.699  32.024  32.562  1.00  0.00     0.029 A 
ATOM     46  N   UNL A   1      40.234  33.185  33.777  1.00  0.00    -0.354 N 
ATOM     47  C   UNL A   1      39.465  28.562  30.425  1.00  0.00     0.074 A 
ATOM     48  C   UNL A   1      38.141  28.948  30.039  1.00  0.00     0.031 C 
ATOM     49  C   UNL A   1      42.362  32.605  33.590  1.00  0.00     0.029 A 
ATOM     50  C   UNL A   1      41.372  33.062  34.563  1.00  0.00     0.049 A 
ATOM     51  H   UNL A   1      39.525  33.861  33.880  1.00  0.00     0.167 HD
ATOM     52  C   UNL A   1      40.519  27.929  29.831  1.00  0.00     0.037 A 
ATOM     53  C   UNL A   1      41.166  32.565  35.819  1.00  0.00     0.037 A 
ATOM     54  C   UNL A   1      41.706  28.184  30.650  1.00  0.00     0.049 A 
ATOM     55  C   UNL A   1      41.661  31.138  35.833  1.00  0.00     0.074 A 
ATOM     56  C   UNL A   1      42.694  29.149  30.559  1.00  0.00     0.029 A 
ATOM     57  N   UNL A   1      41.714  27.727  31.962  1.00  0.00    -0.354 N 
ATOM     58  N   UNL A   1      41.550  30.297  34.832  1.00  0.00    -0.248 NA
ATOM     59  C   UNL A   1      42.513  30.648  36.907  1.00  0.00     0.031 C 
ATOM     60  C   UNL A   1      43.236  29.326  31.866  1.00  0.00     0.029 A 
ATOM     61  C   UNL A   1      42.542  28.509  32.747  1.00  0.00     0.049 A 
ATOM     62  H   UNL A   1      41.203  26.952  32.289  1.00  0.00     0.167 HD
ATOM     63  C   UNL A   1      42.385  29.233  35.060  1.00  0.00     0.074 A 
ATOM     64  C   UNL A   1      42.945  29.494  36.378  1.00  0.00     0.031 C 
ATOM     65  C   UNL A   1      42.655  28.231  34.170  1.00  0.00     0.037 A 
BRANCH  52  66
ATOM     66  C   UNL A   1      40.617  27.349  28.433  1.00  0.00     0.057 A 
ATOM     67  C   UNL A   1      40.001  26.105  28.158  1.00  0.00     0.134 A 
ATOM     68  C   UNL A   1      41.291  27.903  27.331  1.00  0.00     0.134 A 
ATOM     69  F   UNL A   1      39.276  25.460  29.083  1.00  0.00    -0.206 F 
ATOM     70  C   UNL A   1      40.083  25.455  26.919  1.00  0.00     0.040 A 
ATOM     71  C   UNL A   1      41.379  27.263  26.081  1.00  0.00     0.040 A 
ATOM     72  F   UNL A   1      41.891  29.095  27.386  1.00  0.00    -0.206 F 
ATOM     73  C   UNL A   1      40.779  26.031  25.872  1.00  0.00     0.006 A 
ENDBRANCH  52  66
BRANCH  53  74
ATOM     74  C   UNL A   1      39.925  33.119  36.482  1.00  0.00     0.057 A 
ATOM     75  C   UNL A   1      38.808  32.258  36.628  1.00  0.00     0.134 A 
ATOM     76  C   UNL A   1      39.870  34.308  37.211  1.00  0.00     0.134 A 
ATOM     77  F   UNL A   1      38.753  31.104  35.942  1.00  0.00    -0.206 F 
ATOM     78  C   UNL A   1      37.776  32.496  37.544  1.00  0.00     0.040 A 
ATOM     79  C   UNL A   1      38.815  34.579  38.106  1.00  0.00     0.040 A 
ATOM     80  F   UNL A   1      40.868  35.200  37.144  1.00  0.00    -0.206 F 
ATOM     81  C   UNL A   1      37.789  33.654  38.307  1.00  0.00     0.006 A 
ENDBRANCH  53  74
BRANCH  65  82
ATOM     82  C   UNL A   1      43.142  26.866  34.593  1.00  0.00     0.057 A 
ATOM     83  C   UNL A   1      42.287  25.852  35.046  1.00  0.00     0.134 A 
ATOM     84  C   UNL A   1      44.482  26.467  34.383  1.00  0.00     0.134 A 
ATOM     85  F   UNL A   1      40.961  26.024  35.129  1.00  0.00    -0.206 F 
ATOM     86  C   UNL A   1      42.748  24.580  35.387  1.00  0.00     0.040 A 
ATOM     87  C   UNL A   1      44.931  25.171  34.622  1.00  0.00     0.040 A 
ATOM     88  F   UNL A   1      45.415  27.302  33.901  1.00  0.00    -0.206 F 
ATOM     89  C   UNL A   1      44.072  24.231  35.165  1.00  0.00     0.006 A 
ENDBRANCH  65  82
ENDBRANCH  39  40
ENDBRANCH  32  34
ENDBRANCH  31  32
ENDBRANCH  30  31
ENDBRANCH   1  30
TORSDOF 15
ENDMDL
MODEL 2
REMARK VINA RESULT:     -13.0      5.042     10.821
REMARK SMILES Cc1ccc(-c2ccc(/C=C(\C#N)C3N=c4ccccc4=N3)o2)cc1C(=O)OCCOC(=O)c1ccc(-c2c3nc(c(-c4c(F)cccc4F)c4ccc([nH]4)c(-c4c(F)cccc4F)c4nc(c(-c5c(F)cccc5F)c5ccc2[nH]5)C=C4)C=C3)cc1
REMARK SMILES IDX 29 1 28 2 26 3 27 4 25 5 1 6 2 7 3 8 4 9 24 10 5 11 6 12
REMARK SMILES IDX 7 13 23 14 8 15 9 16 10 17 11 18 12 19 13 20 14 21 15 22
REMARK SMILES IDX 22 23 16 24 21 25 17 26 20 27 18 28 19 29 30 30 31 31 32 32
REMARK SMILES IDX 33 33 34 34 35 35 87 36 36 37 86 38 37 39 38 40 39 41 80 42
REMARK SMILES IDX 40 43 85 44 79 45 81 46 41 47 84 48 78 49 77 50 42 52 68 53
REMARK SMILES IDX 51 54 67 55 52 56 55 57 66 58 82 59 53 60 54 61 65 63 83 64
REMARK SMILES IDX 56 65 43 66 44 67 49 68 45 69 46 70 48 71 50 72 47 73 69 74
REMARK SMILES IDX 70 75 75 76 71 77 72 78 74 79 76 80 73 81 57 82 58 83 63 84
REMARK SMILES IDX 59 85 60 86 62 87 64 88 61 89
REMARK H PARENT 81 51 55 62
REMARK Flexibility Score: inf
ROOT
ATOM      1  C   UNL A   1      43.059  19.460  25.703  1.00  0.00     0.275 C 
ENDROOT
BRANCH   1   2
ATOM      2  O   UNL A   1      42.236  20.646  25.805  1.00  0.00    -0.458 OA
BRANCH   2   3
ATOM      3  C   UNL A   1      40.935  20.330  26.048  1.00  0.00     0.338 C 
ATOM      4  O   UNL A   1      40.466  19.213  25.876  1.00  0.00    -0.246 OA
BRANCH   3   5
ATOM      5  C   UNL A   1      40.015  21.419  26.465  1.00  0.00     0.063 A 
ATOM      6  C   UNL A   1      41.796  22.162  28.164  1.00  0.00     0.045 C 
ATOM      7  C   UNL A   1      40.533  22.372  27.366  1.00  0.00    -0.037 A 
ATOM      8  C   UNL A   1      39.837  23.575  27.547  1.00  0.00     0.005 A 
ATOM      9  C   UNL A   1      38.693  23.867  26.796  1.00  0.00     0.012 A 
ATOM     10  C   UNL A   1      38.811  21.687  25.774  1.00  0.00     0.028 A 
ATOM     11  C   UNL A   1      38.167  22.942  25.888  1.00  0.00     0.018 A 
BRANCH  11  12
ATOM     12  C   UNL A   1      36.992  23.301  25.078  1.00  0.00     0.134 A 
ATOM     13  C   UNL A   1      36.589  22.996  23.800  1.00  0.00     0.051 A 
ATOM     14  O   UNL A   1      36.045  24.115  25.661  1.00  0.00    -0.457 OA
ATOM     15  C   UNL A   1      35.340  23.634  23.606  1.00  0.00     0.051 A 
ATOM     16  C   UNL A   1      35.016  24.341  24.760  1.00  0.00     0.128 A 
BRANCH  16  17
ATOM     17  C   UNL A   1      33.825  25.115  24.966  1.00  0.00     0.066 C 
ATOM     18  C   UNL A   1      32.589  24.670  25.280  1.00  0.00     0.080 C 
BRANCH  18  19
ATOM     19  C   UNL A   1      32.286  23.295  25.475  1.00  0.00     0.099 C 
ATOM     20  N   UNL A   1      31.974  22.182  25.657  1.00  0.00    -0.193 NA
ENDBRANCH  18  19
BRANCH  18  21
ATOM     21  C   UNL A   1      31.436  25.657  25.429  1.00  0.00     0.263 C 
ATOM     22  N   UNL A   1      31.448  26.254  26.794  1.00  0.00    -0.251 NA
ATOM     23  N   UNL A   1      31.480  26.730  24.396  1.00  0.00    -0.251 NA
ATOM     24  C   UNL A   1      31.519  27.517  26.553  1.00  0.00     0.086 A 
ATOM     25  C   UNL A   1      31.530  27.809  25.102  1.00  0.00     0.086 A 
ATOM     26  C   UNL A   1      31.600  28.626  27.512  1.00  0.00     0.030 A 
ATOM     27  C   UNL A   1      31.597  29.205  24.654  1.00  0.00     0.030 A 
ATOM     28  C   UNL A   1      31.687  29.868  27.018  1.00  0.00     0.002 A 
ATOM     29  C   UNL A   1      31.678  30.157  25.597  1.00  0.00     0.002 A 
ENDBRANCH  18  21
ENDBRANCH  16  17
ENDBRANCH  11  12
ENDBRANCH   3   5
ENDBRANCH   2   3
ENDBRANCH   1   2
BRANCH   1  30
ATOM     30  C   UNL A   1      44.424  19.653  25.023  1.00  0.00     0.275 C 
BRANCH  30  31
ATOM     31  O   UNL A   1      45.105  20.938  25.089  1.00  0.00    -0.458 OA
BRANCH  31  32
ATOM     32  C   UNL A   1      44.751  22.077  24.452  1.00  0.00     0.338 C 
ATOM     33  O   UNL A   1      44.594  22.134  23.240  1.00  0.00    -0.246 OA
BRANCH  32  34
ATOM     34  C   UNL A   1      44.577  23.270  25.291  1.00  0.00     0.060 A 
ATOM     35  C   UNL A   1      44.754  23.154  26.682  1.00  0.00     0.016 A 
ATOM     36  C   UNL A   1      44.365  24.501  24.683  1.00  0.00     0.016 A 
ATOM     37  C   UNL A   1      44.803  24.288  27.470  1.00  0.00     0.010 A 
ATOM     38  C   UNL A   1      44.611  25.624  25.414  1.00  0.00     0.010 A 
ATOM     39  C   UNL A   1      44.731  25.506  26.808  1.00  0.00    -0.014 A 
BRANCH  39  40
ATOM     40  C   UNL A   1      44.360  26.732  27.474  1.00  0.00     0.031 A 
ATOM     41  C   UNL A   1      42.963  27.178  27.384  1.00  0.00     0.074 A 
ATOM     42  C   UNL A   1      45.405  27.113  28.255  1.00  0.00     0.049 A 
ATOM     43  N   UNL A   1      42.572  28.380  27.588  1.00  0.00    -0.248 NA
ATOM     44  C   UNL A   1      41.846  26.326  26.968  1.00  0.00     0.031 C 
ATOM     45  C   UNL A   1      45.559  27.986  29.401  1.00  0.00     0.029 A 
ATOM     46  N   UNL A   1      46.739  26.716  28.000  1.00  0.00    -0.354 N 
ATOM     47  C   UNL A   1      41.208  28.321  27.818  1.00  0.00     0.074 A 
ATOM     48  C   UNL A   1      40.781  27.107  27.189  1.00  0.00     0.031 C 
ATOM     49  C   UNL A   1      46.861  28.346  29.492  1.00  0.00     0.029 A 
ATOM     50  C   UNL A   1      47.567  27.775  28.347  1.00  0.00     0.049 A 
ATOM     51  H   UNL A   1      47.027  25.844  27.641  1.00  0.00     0.167 HD
ATOM     52  C   UNL A   1      40.689  29.192  28.732  1.00  0.00     0.037 A 
ATOM     53  C   UNL A   1      48.117  28.457  27.298  1.00  0.00     0.037 A 
ATOM     54  C   UNL A   1      41.789  30.024  29.223  1.00  0.00     0.049 A 
ATOM     55  C   UNL A   1      47.387  29.775  27.178  1.00  0.00     0.074 A 
ATOM     56  C   UNL A   1      42.606  29.903  30.334  1.00  0.00     0.029 A 
ATOM     57  N   UNL A   1      42.466  30.829  28.315  1.00  0.00    -0.354 N 
ATOM     58  N   UNL A   1      46.104  29.943  27.393  1.00  0.00    -0.248 NA
ATOM     59  C   UNL A   1      48.115  31.026  27.022  1.00  0.00     0.031 C 
ATOM     60  C   UNL A   1      43.827  30.578  30.038  1.00  0.00     0.029 A 
ATOM     61  C   UNL A   1      43.763  31.058  28.737  1.00  0.00     0.049 A 
ATOM     62  H   UNL A   1      42.076  31.188  27.485  1.00  0.00     0.167 HD
ATOM     63  C   UNL A   1      45.854  31.285  27.523  1.00  0.00     0.074 A 
ATOM     64  C   UNL A   1      47.140  31.915  27.262  1.00  0.00     0.031 C 
ATOM     65  C   UNL A   1      44.662  31.838  27.903  1.00  0.00     0.037 A 
BRANCH  52  66
ATOM     66  C   UNL A   1      39.338  29.157  29.420  1.00  0.00     0.057 A 
ATOM     67  C   UNL A   1      38.193  29.596  28.714  1.00  0.00     0.134 A 
ATOM     68  C   UNL A   1      39.068  28.748  30.738  1.00  0.00     0.134 A 
ATOM     69  F   UNL A   1      38.262  29.979  27.431  1.00  0.00    -0.206 F 
ATOM     70  C   UNL A   1      36.911  29.662  29.277  1.00  0.00     0.040 A 
ATOM     71  C   UNL A   1      37.786  28.805  31.314  1.00  0.00     0.040 A 
ATOM     72  F   UNL A   1      40.015  28.256  31.541  1.00  0.00    -0.206 F 
ATOM     73  C   UNL A   1      36.701  29.269  30.586  1.00  0.00     0.006 A 
ENDBRANCH  52  66
BRANCH  53  74
ATOM     74  C   UNL A   1      48.583  27.554  26.180  1.00  0.00     0.057 A 
ATOM     75  C   UNL A   1      47.840  27.552  24.972  1.00  0.00     0.134 A 
ATOM     76  C   UNL A   1      49.831  26.931  26.122  1.00  0.00     0.134 A 
ATOM     77  F   UNL A   1      46.614  28.099  24.935  1.00  0.00    -0.206 F 
ATOM     78  C   UNL A   1      48.361  27.091  23.756  1.00  0.00     0.040 A 
ATOM     79  C   UNL A   1      50.350  26.425  24.912  1.00  0.00     0.040 A 
ATOM     80  F   UNL A   1      50.617  26.867  27.205  1.00  0.00    -0.206 F 
ATOM     81  C   UNL A   1      49.634  26.543  23.719  1.00  0.00     0.006 A 
ENDBRANCH  53  74
BRANCH  65  82
ATOM     82  C   UNL A   1      44.268  33.254  27.560  1.00  0.00     0.057 A 
ATOM     83  C   UNL A   1      43.874  33.652  26.274  1.00  0.00     0.134 A 
ATOM     84  C   UNL A   1      44.097  34.232  28.565  1.00  0.00     0.134 A 
ATOM     85  F   UNL A   1      43.814  32.790  25.250  1.00  0.00    -0.206 F 
ATOM     86  C   UNL A   1      43.466  34.954  25.985  1.00  0.00     0.040 A 
ATOM     87  C   UNL A   1      43.592  35.504  28.305  1.00  0.00     0.040 A 
ATOM     88  F   UNL A   1      44.375  33.995  29.856  1.00  0.00    -0.206 F 
ATOM     89  C   UNL A   1      43.312  35.883  27.004  1.00  0.00     0.006 A 
ENDBRANCH  65  82
ENDBRANCH  39  40
ENDBRANCH  32  34
ENDBRANCH  31  32
ENDBRANCH  30  31
ENDBRANCH   1  30
TORSDOF 15
ENDMDL
MODEL 3
REMARK VINA RESULT:     -12.2      2.700      5.121
REMARK SMILES Cc1ccc(-c2ccc(/C=C(\C#N)C3N=c4ccccc4=N3)o2)cc1C(=O)OCCOC(=O)c1ccc(-c2c3nc(c(-c4c(F)cccc4F)c4ccc([nH]4)c(-c4c(F)cccc4F)c4nc(c(-c5c(F)cccc5F)c5ccc2[nH]5)C=C4)C=C3)cc1
REMARK SMILES IDX 29 1 28 2 26 3 27 4 25 5 1 6 2 7 3 8 4 9 24 10 5 11 6 12
REMARK SMILES IDX 7 13 23 14 8 15 9 16 10 17 11 18 12 19 13 20 14 21 15 22
REMARK SMILES IDX 22 23 16 24 21 25 17 26 20 27 18 28 19 29 30 30 31 31 32 32
REMARK SMILES IDX 33 33 34 34 35 35 87 36 36 37 86 38 37 39 38 40 39 41 80 42
REMARK SMILES IDX 40 43 85 44 79 45 81 46 41 47 84 48 78 49 77 50 42 52 68 53
REMARK SMILES IDX 51 54 67 55 52 56 55 57 66 58 82 59 53 60 54 61 65 63 83 64
REMARK SMILES IDX 56 65 43 66 44 67 49 68 45 69 46 70 48 71 50 72 47 73 69 74
REMARK SMILES IDX 70 75 75 76 71 77 72 78 74 79 76 80 73 81 57 82 58 83 63 84
REMARK SMILES IDX 59 85 60 86 62 87 64 88 61 89
REMARK H PARENT 81 51 55 62
REMARK Flexibility Score: inf
ROOT
ATOM      1  C   UNL A   1      33.118  29.336  26.159  1.00  0.00     0.275 C 
ENDROOT
BRANCH   1   2
ATOM      2  O   UNL A   1      33.749  28.534  25.133  1.00  0.00    -0.458 OA
BRANCH   2   3
ATOM      3  C   UNL A   1      32.978  27.465  24.792  1.00  0.00     0.338 C 
ATOM      4  O   UNL A   1      32.040  27.530  24.010  1.00  0.00    -0.246 OA
BRANCH   3   5
ATOM      5  C   UNL A   1      33.239  26.169  25.469  1.00  0.00     0.063 A 
ATOM      6  C   UNL A   1      30.882  26.317  26.483  1.00  0.00     0.045 C 
ATOM      7  C   UNL A   1      32.149  25.575  26.137  1.00  0.00    -0.037 A 
ATOM      8  C   UNL A   1      32.244  24.230  26.516  1.00  0.00     0.005 A 
ATOM      9  C   UNL A   1      33.362  23.460  26.174  1.00  0.00     0.012 A 
ATOM     10  C   UNL A   1      34.401  25.408  25.204  1.00  0.00     0.028 A 
ATOM     11  C   UNL A   1      34.450  24.024  25.502  1.00  0.00     0.018 A 
BRANCH  11  12
ATOM     12  C   UNL A   1      35.589  23.176  25.114  1.00  0.00     0.134 A 
ATOM     13  C   UNL A   1      35.910  22.478  23.974  1.00  0.00     0.051 A 
ATOM     14  O   UNL A   1      36.592  22.997  26.042  1.00  0.00    -0.457 OA
ATOM     15  C   UNL A   1      37.165  21.867  24.213  1.00  0.00     0.051 A 
ATOM     16  C   UNL A   1      37.575  22.180  25.506  1.00  0.00     0.128 A 
BRANCH  16  17
ATOM     17  C   UNL A   1      38.798  21.759  26.125  1.00  0.00     0.066 C 
ATOM     18  C   UNL A   1      39.706  22.519  26.774  1.00  0.00     0.080 C 
BRANCH  18  19
ATOM     19  C   UNL A   1      39.556  23.920  26.955  1.00  0.00     0.099 C 
ATOM     20  N   UNL A   1      39.384  25.074  27.055  1.00  0.00    -0.193 NA
ENDBRANCH  18  19
BRANCH  18  21
ATOM     21  C   UNL A   1      40.971  21.883  27.343  1.00  0.00     0.263 C 
ATOM     22  N   UNL A   1      40.904  20.401  27.199  1.00  0.00    -0.251 NA
ATOM     23  N   UNL A   1      42.204  22.410  26.694  1.00  0.00    -0.251 NA
ATOM     24  C   UNL A   1      41.967  20.132  26.523  1.00  0.00     0.086 A 
ATOM     25  C   UNL A   1      42.760  21.345  26.223  1.00  0.00     0.086 A 
ATOM     26  C   UNL A   1      42.433  18.828  26.037  1.00  0.00     0.030 A 
ATOM     27  C   UNL A   1      44.011  21.212  25.466  1.00  0.00     0.030 A 
ATOM     28  C   UNL A   1      43.570  18.800  25.329  1.00  0.00     0.002 A 
ATOM     29  C   UNL A   1      44.359  19.985  25.050  1.00  0.00     0.002 A 
ENDBRANCH  18  21
ENDBRANCH  16  17
ENDBRANCH  11  12
ENDBRANCH   3   5
ENDBRANCH   2   3
ENDBRANCH   1   2
BRANCH   1  30
ATOM     30  C   UNL A   1      34.026  30.363  26.854  1.00  0.00     0.275 C 
BRANCH  30  31
ATOM     31  O   UNL A   1      33.451  31.511  27.539  1.00  0.00    -0.458 OA
BRANCH  31  32
ATOM     32  C   UNL A   1      34.104  32.395  28.328  1.00  0.00     0.338 C 
ATOM     33  O   UNL A   1      33.614  33.464  28.666  1.00  0.00    -0.246 OA
BRANCH  32  34
ATOM     34  C   UNL A   1      35.457  32.018  28.754  1.00  0.00     0.060 A 
ATOM     35  C   UNL A   1      36.531  32.870  28.439  1.00  0.00     0.016 A 
ATOM     36  C   UNL A   1      35.626  30.900  29.560  1.00  0.00     0.016 A 
ATOM     37  C   UNL A   1      37.775  32.652  29.000  1.00  0.00     0.010 A 
ATOM     38  C   UNL A   1      36.784  30.794  30.271  1.00  0.00     0.010 A 
ATOM     39  C   UNL A   1      37.869  31.610  29.912  1.00  0.00    -0.014 A 
BRANCH  39  40
ATOM     40  C   UNL A   1      39.128  30.997  30.266  1.00  0.00     0.031 A 
ATOM     41  C   UNL A   1      39.516  29.757  29.578  1.00  0.00     0.074 A 
ATOM     42  C   UNL A   1      39.809  31.870  31.054  1.00  0.00     0.049 A 
ATOM     43  N   UNL A   1      40.378  28.923  30.023  1.00  0.00    -0.248 NA
ATOM     44  C   UNL A   1      38.907  29.272  28.337  1.00  0.00     0.031 C 
ATOM     45  C   UNL A   1      41.197  32.040  31.427  1.00  0.00     0.029 A 
ATOM     46  N   UNL A   1      39.167  32.874  31.818  1.00  0.00    -0.354 N 
ATOM     47  C   UNL A   1      40.764  28.140  28.948  1.00  0.00     0.074 A 
ATOM     48  C   UNL A   1      39.674  28.222  28.023  1.00  0.00     0.031 C 
ATOM     49  C   UNL A   1      41.247  32.768  32.568  1.00  0.00     0.029 A 
ATOM     50  C   UNL A   1      39.874  33.015  33.005  1.00  0.00     0.049 A 
ATOM     51  H   UNL A   1      38.365  33.382  31.555  1.00  0.00     0.167 HD
ATOM     52  C   UNL A   1      42.069  27.742  28.900  1.00  0.00     0.037 A 
ATOM     53  C   UNL A   1      39.263  32.507  34.115  1.00  0.00     0.037 A 
ATOM     54  C   UNL A   1      42.734  28.263  30.097  1.00  0.00     0.049 A 
ATOM     55  C   UNL A   1      39.970  31.221  34.478  1.00  0.00     0.074 A 
ATOM     56  C   UNL A   1      43.465  29.418  30.311  1.00  0.00     0.029 A 
ATOM     57  N   UNL A   1      42.282  27.840  31.342  1.00  0.00    -0.354 N 
ATOM     58  N   UNL A   1      40.449  30.360  33.612  1.00  0.00    -0.248 NA
ATOM     59  C   UNL A   1      40.373  30.946  35.850  1.00  0.00     0.031 C 
ATOM     60  C   UNL A   1      43.369  29.730  31.699  1.00  0.00     0.029 A 
ATOM     61  C   UNL A   1      42.542  28.796  32.307  1.00  0.00     0.049 A 
ATOM     62  H   UNL A   1      41.840  26.978  31.513  1.00  0.00     0.167 HD
ATOM     63  C   UNL A   1      41.300  29.508  34.269  1.00  0.00     0.074 A 
ATOM     64  C   UNL A   1      41.199  29.905  35.665  1.00  0.00     0.031 C 
ATOM     65  C   UNL A   1      42.103  28.573  33.674  1.00  0.00     0.037 A 
BRANCH  52  66
ATOM     66  C   UNL A   1      42.849  27.174  27.731  1.00  0.00     0.057 A 
ATOM     67  C   UNL A   1      43.173  28.018  26.642  1.00  0.00     0.134 A 
ATOM     68  C   UNL A   1      43.294  25.849  27.572  1.00  0.00     0.134 A 
ATOM     69  F   UNL A   1      42.865  29.323  26.649  1.00  0.00    -0.206 F 
ATOM     70  C   UNL A   1      43.836  27.577  25.489  1.00  0.00     0.040 A 
ATOM     71  C   UNL A   1      43.963  25.394  26.421  1.00  0.00     0.040 A 
ATOM     72  F   UNL A   1      43.124  24.920  28.516  1.00  0.00    -0.206 F 
ATOM     73  C   UNL A   1      44.232  26.258  25.370  1.00  0.00     0.006 A 
ENDBRANCH  52  66
BRANCH  53  74
ATOM     74  C   UNL A   1      37.778  32.787  34.159  1.00  0.00     0.057 A 
ATOM     75  C   UNL A   1      37.358  34.100  34.491  1.00  0.00     0.134 A 
ATOM     76  C   UNL A   1      36.790  31.951  33.635  1.00  0.00     0.134 A 
ATOM     77  F   UNL A   1      38.229  34.969  35.031  1.00  0.00    -0.206 F 
ATOM     78  C   UNL A   1      36.082  34.593  34.189  1.00  0.00     0.040 A 
ATOM     79  C   UNL A   1      35.489  32.423  33.364  1.00  0.00     0.040 A 
ATOM     80  F   UNL A   1      37.073  30.687  33.291  1.00  0.00    -0.206 F 
ATOM     81  C   UNL A   1      35.146  33.756  33.600  1.00  0.00     0.006 A 
ENDBRANCH  53  74
BRANCH  65  82
ATOM     82  C   UNL A   1      42.620  27.355  34.399  1.00  0.00     0.057 A 
ATOM     83  C   UNL A   1      43.939  27.236  34.858  1.00  0.00     0.134 A 
ATOM     84  C   UNL A   1      41.747  26.326  34.821  1.00  0.00     0.134 A 
ATOM     85  F   UNL A   1      44.842  28.212  34.689  1.00  0.00    -0.206 F 
ATOM     86  C   UNL A   1      44.388  26.123  35.569  1.00  0.00     0.040 A 
ATOM     87  C   UNL A   1      42.162  25.262  35.619  1.00  0.00     0.040 A 
ATOM     88  F   UNL A   1      40.441  26.319  34.514  1.00  0.00    -0.206 F 
ATOM     89  C   UNL A   1      43.496  25.136  35.963  1.00  0.00     0.006 A 
ENDBRANCH  65  82
ENDBRANCH  39  40
ENDBRANCH  32  34
ENDBRANCH  31  32
ENDBRANCH  30  31
ENDBRANCH   1  30
TORSDOF 15
ENDMDL
