MODEL 1
REMARK VINA RESULT:     -11.5      0.000      0.000
REMARK SMILES O=C(C[C@H]1COCC[NH2+]1)Nc1cncc(C(=O)OCCOC(=O)c2ccc(-c3c4nc(c(-c5c(F)cccc5F)c5ccc([nH]5)c(-c5c(F)cccc5F)c5nc(c(-c6c(F)cccc6F)c6ccc3[nH]6)C=C5)C=C4)cc2)c1
REMARK SMILES IDX 19 1 18 2 16 3 17 4 15 5 11 6 12 7 78 8 13 9 14 10 10 11
REMARK SMILES IDX 1 12 2 13 3 15 4 16 5 17 9 18 6 19 8 20 7 23 20 24 21 25
REMARK SMILES IDX 22 26 23 27 24 28 25 29 77 30 26 31 76 32 27 33 28 34 29 35
REMARK SMILES IDX 70 36 30 37 75 38 69 39 71 40 31 41 74 42 68 43 67 44 32 46
REMARK SMILES IDX 58 47 41 48 57 49 42 50 45 51 56 52 72 53 43 54 44 55 55 57
REMARK SMILES IDX 73 58 46 59 33 60 34 61 39 62 35 63 36 64 38 65 40 66 37 67
REMARK SMILES IDX 59 68 60 69 65 70 61 71 62 72 64 73 66 74 63 75 47 76 48 77
REMARK SMILES IDX 53 78 49 79 50 80 52 81 54 82 51 83
REMARK H PARENT 10 14 9 21 9 22 71 45 45 56
REMARK Flexibility Score: inf
ROOT
ATOM      1  C   UNL A   1      42.676  20.997  26.091  1.00  0.00     0.275 C 
ENDROOT
BRANCH   1   2
ATOM      2  O   UNL A   1      41.335  21.362  25.708  1.00  0.00    -0.458 OA
BRANCH   2   3
ATOM      3  C   UNL A   1      40.417  21.426  26.705  1.00  0.00     0.339 C 
ATOM      4  O   UNL A   1      40.577  21.108  27.869  1.00  0.00    -0.246 OA
BRANCH   3   5
ATOM      5  C   UNL A   1      39.179  22.053  26.208  1.00  0.00     0.080 A 
ATOM      6  C   UNL A   1      37.047  21.962  25.113  1.00  0.00     0.060 A 
ATOM      7  C   UNL A   1      36.926  23.331  25.355  1.00  0.00     0.137 A 
ATOM      8  C   UNL A   1      38.222  21.327  25.507  1.00  0.00     0.045 A 
ATOM      9  N   UNL A   1      37.825  24.059  26.048  1.00  0.00    -0.262 NA
ATOM     10  C   UNL A   1      38.908  23.384  26.495  1.00  0.00     0.126 A 
BRANCH   6  11
ATOM     11  N   UNL A   1      35.950  21.294  24.543  1.00  0.00    -0.324 N 
ATOM     12  O   UNL A   1      34.465  21.317  26.332  1.00  0.00    -0.274 OA
ATOM     13  C   UNL A   1      34.735  21.065  25.160  1.00  0.00     0.230 C 
ATOM     14  H   UNL A   1      36.057  20.962  23.623  1.00  0.00     0.169 HD
BRANCH  13  15
ATOM     15  C   UNL A   1      33.713  20.400  24.261  1.00  0.00     0.167 C 
BRANCH  15  16
ATOM     16  C   UNL A   1      33.064  19.129  24.846  1.00  0.00     0.218 C 
ATOM     17  C   UNL A   1      32.147  18.474  23.793  1.00  0.00     0.225 C 
ATOM     18  N   UNL A   1      34.045  18.153  25.372  1.00  0.00    -0.340 N 
ATOM     19  O   UNL A   1      32.907  17.935  22.707  1.00  0.00    -0.369 OA
ATOM     20  C   UNL A   1      34.777  17.522  24.254  1.00  0.00     0.289 C 
ATOM     21  H   UNL A   1      33.554  17.434  25.904  1.00  0.00     0.346 HD
ATOM     22  H   UNL A   1      34.708  18.637  25.978  1.00  0.00     0.346 HD
ATOM     23  C   UNL A   1      33.837  16.951  23.179  1.00  0.00     0.221 C 
ENDBRANCH  15  16
ENDBRANCH  13  15
ENDBRANCH   6  11
ENDBRANCH   3   5
ENDBRANCH   2   3
ENDBRANCH   1   2
BRANCH   1  24
ATOM     24  C   UNL A   1      43.716  21.837  25.346  1.00  0.00     0.275 C 
BRANCH  24  25
ATOM     25  O   UNL A   1      43.130  23.056  24.851  1.00  0.00    -0.458 OA
BRANCH  25  26
ATOM     26  C   UNL A   1      43.841  24.174  25.110  1.00  0.00     0.338 C 
ATOM     27  O   UNL A   1      44.909  24.510  24.624  1.00  0.00    -0.246 OA
BRANCH  26  28
ATOM     28  C   UNL A   1      43.093  25.056  26.015  1.00  0.00     0.060 A 
ATOM     29  C   UNL A   1      43.397  26.409  25.982  1.00  0.00     0.016 A 
ATOM     30  C   UNL A   1      42.285  24.550  27.026  1.00  0.00     0.016 A 
ATOM     31  C   UNL A   1      43.042  27.239  27.036  1.00  0.00     0.010 A 
ATOM     32  C   UNL A   1      41.797  25.421  28.010  1.00  0.00     0.010 A 
ATOM     33  C   UNL A   1      42.212  26.768  28.057  1.00  0.00    -0.014 A 
BRANCH  33  34
ATOM     34  C   UNL A   1      41.807  27.674  29.171  1.00  0.00     0.031 A 
ATOM     35  C   UNL A   1      42.583  27.684  30.464  1.00  0.00     0.074 A 
ATOM     36  C   UNL A   1      40.754  28.505  29.026  1.00  0.00     0.049 A 
ATOM     37  N   UNL A   1      42.279  28.240  31.610  1.00  0.00    -0.248 NA
ATOM     38  C   UNL A   1      43.861  26.954  30.476  1.00  0.00     0.031 C 
ATOM     39  C   UNL A   1      39.943  28.652  27.815  1.00  0.00     0.029 A 
ATOM     40  N   UNL A   1      40.183  29.392  29.907  1.00  0.00    -0.354 N 
ATOM     41  C   UNL A   1      43.291  27.878  32.491  1.00  0.00     0.074 A 
ATOM     42  C   UNL A   1      44.214  27.044  31.751  1.00  0.00     0.031 C 
ATOM     43  C   UNL A   1      39.014  29.596  28.013  1.00  0.00     0.029 A 
ATOM     44  C   UNL A   1      39.084  30.042  29.397  1.00  0.00     0.049 A 
ATOM     45  H   UNL A   1      40.528  29.548  30.816  1.00  0.00     0.167 HD
ATOM     46  C   UNL A   1      43.436  28.210  33.797  1.00  0.00     0.037 A 
ATOM     47  C   UNL A   1      38.191  30.859  29.985  1.00  0.00     0.037 A 
ATOM     48  C   UNL A   1      42.540  29.086  34.511  1.00  0.00     0.049 A 
ATOM     49  C   UNL A   1      38.339  31.167  31.446  1.00  0.00     0.074 A 
ATOM     50  C   UNL A   1      42.609  29.501  35.830  1.00  0.00     0.029 A 
ATOM     51  N   UNL A   1      41.420  29.691  33.961  1.00  0.00    -0.354 N 
ATOM     52  N   UNL A   1      39.270  30.777  32.282  1.00  0.00    -0.248 NA
ATOM     53  C   UNL A   1      37.301  32.014  32.050  1.00  0.00     0.031 C 
ATOM     54  C   UNL A   1      41.502  30.316  36.091  1.00  0.00     0.029 A 
ATOM     55  C   UNL A   1      40.776  30.457  34.921  1.00  0.00     0.049 A 
ATOM     56  H   UNL A   1      41.125  29.590  33.027  1.00  0.00     0.167 HD
ATOM     57  C   UNL A   1      38.944  31.346  33.505  1.00  0.00     0.074 A 
ATOM     58  C   UNL A   1      37.740  32.124  33.296  1.00  0.00     0.031 C 
ATOM     59  C   UNL A   1      39.582  31.232  34.695  1.00  0.00     0.037 A 
BRANCH  46  60
ATOM     60  C   UNL A   1      44.581  27.595  34.553  1.00  0.00     0.057 A 
ATOM     61  C   UNL A   1      45.829  28.219  34.668  1.00  0.00     0.134 A 
ATOM     62  C   UNL A   1      44.416  26.363  35.203  1.00  0.00     0.134 A 
ATOM     63  F   UNL A   1      46.061  29.393  34.063  1.00  0.00    -0.206 F 
ATOM     64  C   UNL A   1      46.879  27.629  35.377  1.00  0.00     0.040 A 
ATOM     65  C   UNL A   1      45.448  25.779  35.941  1.00  0.00     0.040 A 
ATOM     66  F   UNL A   1      43.244  25.712  35.143  1.00  0.00    -0.206 F 
ATOM     67  C   UNL A   1      46.688  26.409  36.022  1.00  0.00     0.006 A 
ENDBRANCH  46  60
BRANCH  47  68
ATOM     68  C   UNL A   1      37.048  31.397  29.201  1.00  0.00     0.057 A 
ATOM     69  C   UNL A   1      35.924  30.611  28.927  1.00  0.00     0.134 A 
ATOM     70  C   UNL A   1      37.050  32.710  28.711  1.00  0.00     0.134 A 
ATOM     71  F   UNL A   1      35.870  29.338  29.349  1.00  0.00    -0.206 F 
ATOM     72  C   UNL A   1      34.849  31.104  28.185  1.00  0.00     0.040 A 
ATOM     73  C   UNL A   1      35.969  33.227  27.996  1.00  0.00     0.040 A 
ATOM     74  F   UNL A   1      38.095  33.518  28.941  1.00  0.00    -0.206 F 
ATOM     75  C   UNL A   1      34.867  32.421  27.725  1.00  0.00     0.006 A 
ENDBRANCH  47  68
BRANCH  59  76
ATOM     76  C   UNL A   1      39.015  32.003  35.849  1.00  0.00     0.057 A 
ATOM     77  C   UNL A   1      39.298  33.361  36.046  1.00  0.00     0.134 A 
ATOM     78  C   UNL A   1      38.153  31.383  36.763  1.00  0.00     0.134 A 
ATOM     79  F   UNL A   1      40.130  34.010  35.216  1.00  0.00    -0.206 F 
ATOM     80  C   UNL A   1      38.765  34.067  37.126  1.00  0.00     0.040 A 
ATOM     81  C   UNL A   1      37.591  32.086  37.829  1.00  0.00     0.040 A 
ATOM     82  F   UNL A   1      37.835  30.087  36.628  1.00  0.00    -0.206 F 
ATOM     83  C   UNL A   1      37.903  33.431  38.017  1.00  0.00     0.006 A 
ENDBRANCH  59  76
ENDBRANCH  33  34
ENDBRANCH  26  28
ENDBRANCH  25  26
ENDBRANCH  24  25
ENDBRANCH   1  24
TORSDOF 14
ENDMDL
MODEL 2
REMARK VINA RESULT:     -11.4      5.747     10.690
REMARK SMILES O=C(C[C@H]1COCC[NH2+]1)Nc1cncc(C(=O)OCCOC(=O)c2ccc(-c3c4nc(c(-c5c(F)cccc5F)c5ccc([nH]5)c(-c5c(F)cccc5F)c5nc(c(-c6c(F)cccc6F)c6ccc3[nH]6)C=C5)C=C4)cc2)c1
REMARK SMILES IDX 19 1 18 2 16 3 17 4 15 5 11 6 12 7 78 8 13 9 14 10 10 11
REMARK SMILES IDX 1 12 2 13 3 15 4 16 5 17 9 18 6 19 8 20 7 23 20 24 21 25
REMARK SMILES IDX 22 26 23 27 24 28 25 29 77 30 26 31 76 32 27 33 28 34 29 35
REMARK SMILES IDX 70 36 30 37 75 38 69 39 71 40 31 41 74 42 68 43 67 44 32 46
REMARK SMILES IDX 58 47 41 48 57 49 42 50 45 51 56 52 72 53 43 54 44 55 55 57
REMARK SMILES IDX 73 58 46 59 33 60 34 61 39 62 35 63 36 64 38 65 40 66 37 67
REMARK SMILES IDX 59 68 60 69 65 70 61 71 62 72 64 73 66 74 63 75 47 76 48 77
REMARK SMILES IDX 53 78 49 79 50 80 52 81 54 82 51 83
REMARK H PARENT 10 14 9 21 9 22 71 45 45 56
REMARK Flexibility Score: inf
ROOT
ATOM      1  C   UNL A   1      34.236  33.931  30.056  1.00  0.00     0.275 C 
ENDROOT
BRANCH   1   2
ATOM      2  O   UNL A   1      33.940  32.693  29.378  1.00  0.00    -0.458 OA
BRANCH   2   3
ATOM      3  C   UNL A   1      34.382  32.581  28.100  1.00  0.00     0.339 C 
ATOM      4  O   UNL A   1      35.030  33.399  27.476  1.00  0.00    -0.246 OA
BRANCH   3   5
ATOM      5  C   UNL A   1      34.053  31.245  27.570  1.00  0.00     0.080 A 
ATOM      6  C   UNL A   1      32.589  29.704  26.460  1.00  0.00     0.060 A 
ATOM      7  C   UNL A   1      33.579  28.734  26.618  1.00  0.00     0.137 A 
ATOM      8  C   UNL A   1      32.819  30.970  26.994  1.00  0.00     0.045 A 
ATOM      9  N   UNL A   1      34.793  28.973  27.154  1.00  0.00    -0.262 NA
ATOM     10  C   UNL A   1      35.011  30.239  27.575  1.00  0.00     0.126 A 
BRANCH   6  11
ATOM     11  N   UNL A   1      31.446  29.365  25.717  1.00  0.00    -0.324 N 
ATOM     12  O   UNL A   1      32.336  29.312  23.570  1.00  0.00    -0.274 OA
ATOM     13  C   UNL A   1      31.405  29.143  24.354  1.00  0.00     0.230 C 
ATOM     14  H   UNL A   1      30.600  29.274  26.213  1.00  0.00     0.169 HD
BRANCH  13  15
ATOM     15  C   UNL A   1      30.046  28.702  23.850  1.00  0.00     0.167 C 
BRANCH  15  16
ATOM     16  C   UNL A   1      29.528  29.473  22.619  1.00  0.00     0.218 C 
ATOM     17  C   UNL A   1      28.018  29.220  22.436  1.00  0.00     0.225 C 
ATOM     18  N   UNL A   1      29.820  30.924  22.664  1.00  0.00    -0.340 N 
ATOM     19  O   UNL A   1      27.261  29.823  23.491  1.00  0.00    -0.369 OA
ATOM     20  C   UNL A   1      28.980  31.575  23.691  1.00  0.00     0.289 C 
ATOM     21  H   UNL A   1      29.622  31.337  21.753  1.00  0.00     0.346 HD
ATOM     22  H   UNL A   1      30.803  31.061  22.898  1.00  0.00     0.346 HD
ATOM     23  C   UNL A   1      27.487  31.238  23.533  1.00  0.00     0.221 C 
ENDBRANCH  15  16
ENDBRANCH  13  15
ENDBRANCH   6  11
ENDBRANCH   3   5
ENDBRANCH   2   3
ENDBRANCH   1   2
BRANCH   1  24
ATOM     24  C   UNL A   1      34.476  33.705  31.550  1.00  0.00     0.275 C 
BRANCH  24  25
ATOM     25  O   UNL A   1      34.738  32.315  31.821  1.00  0.00    -0.458 OA
BRANCH  25  26
ATOM     26  C   UNL A   1      35.835  32.080  32.572  1.00  0.00     0.338 C 
ATOM     27  O   UNL A   1      36.005  32.346  33.751  1.00  0.00    -0.246 OA
BRANCH  26  28
ATOM     28  C   UNL A   1      36.828  31.321  31.800  1.00  0.00     0.060 A 
ATOM     29  C   UNL A   1      37.685  30.491  32.508  1.00  0.00     0.016 A 
ATOM     30  C   UNL A   1      37.066  31.585  30.457  1.00  0.00     0.016 A 
ATOM     31  C   UNL A   1      38.871  30.050  31.937  1.00  0.00     0.010 A 
ATOM     32  C   UNL A   1      38.186  31.012  29.837  1.00  0.00     0.010 A 
ATOM     33  C   UNL A   1      39.131  30.279  30.583  1.00  0.00    -0.014 A 
BRANCH  33  34
ATOM     34  C   UNL A   1      40.394  29.775  29.967  1.00  0.00     0.031 A 
ATOM     35  C   UNL A   1      41.593  30.679  29.842  1.00  0.00     0.074 A 
ATOM     36  C   UNL A   1      40.480  28.500  29.534  1.00  0.00     0.049 A 
ATOM     37  N   UNL A   1      42.701  30.501  29.166  1.00  0.00    -0.248 NA
ATOM     38  C   UNL A   1      41.532  31.966  30.556  1.00  0.00     0.031 C 
ATOM     39  C   UNL A   1      39.425  27.489  29.641  1.00  0.00     0.029 A 
ATOM     40  N   UNL A   1      41.508  27.830  28.915  1.00  0.00    -0.354 N 
ATOM     41  C   UNL A   1      43.436  31.671  29.321  1.00  0.00     0.074 A 
ATOM     42  C   UNL A   1      42.645  32.558  30.147  1.00  0.00     0.031 C 
ATOM     43  C   UNL A   1      39.871  26.326  29.149  1.00  0.00     0.029 A 
ATOM     44  C   UNL A   1      41.198  26.532  28.587  1.00  0.00     0.049 A 
ATOM     45  H   UNL A   1      42.383  28.240  28.725  1.00  0.00     0.167 HD
ATOM     46  C   UNL A   1      44.658  31.975  28.820  1.00  0.00     0.037 A 
ATOM     47  C   UNL A   1      41.873  25.619  27.862  1.00  0.00     0.037 A 
ATOM     48  C   UNL A   1      45.462  31.063  28.044  1.00  0.00     0.049 A 
ATOM     49  C   UNL A   1      43.198  25.999  27.269  1.00  0.00     0.074 A 
ATOM     50  C   UNL A   1      46.721  31.268  27.506  1.00  0.00     0.029 A 
ATOM     51  N   UNL A   1      45.089  29.771  27.706  1.00  0.00    -0.354 N 
ATOM     52  N   UNL A   1      43.860  27.124  27.378  1.00  0.00    -0.248 NA
ATOM     53  C   UNL A   1      43.861  24.986  26.437  1.00  0.00     0.031 C 
ATOM     54  C   UNL A   1      47.088  30.117  26.800  1.00  0.00     0.029 A 
ATOM     55  C   UNL A   1      46.085  29.174  26.947  1.00  0.00     0.049 A 
ATOM     56  H   UNL A   1      44.243  29.341  27.966  1.00  0.00     0.167 HD
ATOM     57  C   UNL A   1      45.027  26.950  26.647  1.00  0.00     0.074 A 
ATOM     58  C   UNL A   1      44.990  25.603  26.116  1.00  0.00     0.031 C 
ATOM     59  C   UNL A   1      46.036  27.829  26.432  1.00  0.00     0.037 A 
BRANCH  46  60
ATOM     60  C   UNL A   1      45.187  33.362  29.058  1.00  0.00     0.057 A 
ATOM     61  C   UNL A   1      46.009  33.678  30.147  1.00  0.00     0.134 A 
ATOM     62  C   UNL A   1      44.887  34.395  28.159  1.00  0.00     0.134 A 
ATOM     63  F   UNL A   1      46.328  32.741  31.053  1.00  0.00    -0.206 F 
ATOM     64  C   UNL A   1      46.490  34.974  30.348  1.00  0.00     0.040 A 
ATOM     65  C   UNL A   1      45.388  35.687  28.333  1.00  0.00     0.040 A 
ATOM     66  F   UNL A   1      44.112  34.164  27.089  1.00  0.00    -0.206 F 
ATOM     67  C   UNL A   1      46.185  35.981  29.436  1.00  0.00     0.006 A 
ENDBRANCH  46  60
BRANCH  47  68
ATOM     68  C   UNL A   1      41.278  24.281  27.614  1.00  0.00     0.057 A 
ATOM     69  C   UNL A   1      40.251  24.105  26.680  1.00  0.00     0.134 A 
ATOM     70  C   UNL A   1      41.724  23.143  28.301  1.00  0.00     0.134 A 
ATOM     71  F   UNL A   1      39.764  25.159  26.007  1.00  0.00    -0.206 F 
ATOM     72  C   UNL A   1      39.680  22.853  26.446  1.00  0.00     0.040 A 
ATOM     73  C   UNL A   1      41.186  21.879  28.053  1.00  0.00     0.040 A 
ATOM     74  F   UNL A   1      42.707  23.240  29.207  1.00  0.00    -0.206 F 
ATOM     75  C   UNL A   1      40.155  21.733  27.129  1.00  0.00     0.006 A 
ENDBRANCH  47  68
BRANCH  59  76
ATOM     76  C   UNL A   1      47.203  27.342  25.625  1.00  0.00     0.057 A 
ATOM     77  C   UNL A   1      47.298  27.567  24.246  1.00  0.00     0.134 A 
ATOM     78  C   UNL A   1      48.258  26.658  26.244  1.00  0.00     0.134 A 
ATOM     79  F   UNL A   1      46.313  28.201  23.590  1.00  0.00    -0.206 F 
ATOM     80  C   UNL A   1      48.389  27.106  23.506  1.00  0.00     0.040 A 
ATOM     81  C   UNL A   1      49.367  26.219  25.520  1.00  0.00     0.040 A 
ATOM     82  F   UNL A   1      48.232  26.416  27.562  1.00  0.00    -0.206 F 
ATOM     83  C   UNL A   1      49.431  26.436  24.145  1.00  0.00     0.006 A 
ENDBRANCH  59  76
ENDBRANCH  33  34
ENDBRANCH  26  28
ENDBRANCH  25  26
ENDBRANCH  24  25
ENDBRANCH   1  24
TORSDOF 14
ENDMDL
MODEL 3
REMARK VINA RESULT:     -11.1      5.069      8.993
REMARK SMILES O=C(C[C@H]1COCC[NH2+]1)Nc1cncc(C(=O)OCCOC(=O)c2ccc(-c3c4nc(c(-c5c(F)cccc5F)c5ccc([nH]5)c(-c5c(F)cccc5F)c5nc(c(-c6c(F)cccc6F)c6ccc3[nH]6)C=C5)C=C4)cc2)c1
REMARK SMILES IDX 19 1 18 2 16 3 17 4 15 5 11 6 12 7 78 8 13 9 14 10 10 11
REMARK SMILES IDX 1 12 2 13 3 15 4 16 5 17 9 18 6 19 8 20 7 23 20 24 21 25
REMARK SMILES IDX 22 26 23 27 24 28 25 29 77 30 26 31 76 32 27 33 28 34 29 35
REMARK SMILES IDX 70 36 30 37 75 38 69 39 71 40 31 41 74 42 68 43 67 44 32 46
REMARK SMILES IDX 58 47 41 48 57 49 42 50 45 51 56 52 72 53 43 54 44 55 55 57
REMARK SMILES IDX 73 58 46 59 33 60 34 61 39 62 35 63 36 64 38 65 40 66 37 67
REMARK SMILES IDX 59 68 60 69 65 70 61 71 62 72 64 73 66 74 63 75 47 76 48 77
REMARK SMILES IDX 53 78 49 79 50 80 52 81 54 82 51 83
REMARK H PARENT 10 14 9 21 9 22 71 45 45 56
REMARK Flexibility Score: inf
ROOT
ATOM      1  C   UNL A   1      34.868  21.770  24.601  1.00  0.00     0.275 C 
ENDROOT
BRANCH   1   2
ATOM      2  O   UNL A   1      35.144  23.185  24.554  1.00  0.00    -0.458 OA
BRANCH   2   3
ATOM      3  C   UNL A   1      34.546  23.886  23.558  1.00  0.00     0.339 C 
ATOM      4  O   UNL A   1      34.375  23.524  22.409  1.00  0.00    -0.246 OA
BRANCH   3   5
ATOM      5  C   UNL A   1      34.014  25.155  24.086  1.00  0.00     0.080 A 
ATOM      6  C   UNL A   1      32.850  27.236  23.833  1.00  0.00     0.060 A 
ATOM      7  C   UNL A   1      33.063  27.458  25.194  1.00  0.00     0.137 A 
ATOM      8  C   UNL A   1      33.383  26.082  23.265  1.00  0.00     0.045 A 
ATOM      9  N   UNL A   1      33.653  26.572  26.021  1.00  0.00    -0.262 NA
ATOM     10  C   UNL A   1      34.072  25.421  25.448  1.00  0.00     0.126 A 
BRANCH   6  11
ATOM     11  N   UNL A   1      32.058  28.160  23.131  1.00  0.00    -0.324 N 
ATOM     12  O   UNL A   1      29.944  27.260  23.485  1.00  0.00    -0.274 OA
ATOM     13  C   UNL A   1      30.679  28.142  23.047  1.00  0.00     0.230 C 
ATOM     14  H   UNL A   1      32.527  28.885  22.659  1.00  0.00     0.169 HD
BRANCH  13  15
ATOM     15  C   UNL A   1      30.099  29.322  22.294  1.00  0.00     0.167 C 
BRANCH  15  16
ATOM     16  C   UNL A   1      28.688  29.751  22.745  1.00  0.00     0.218 C 
ATOM     17  C   UNL A   1      28.765  31.083  23.518  1.00  0.00     0.225 C 
ATOM     18  N   UNL A   1      27.715  29.840  21.634  1.00  0.00    -0.340 N 
ATOM     19  O   UNL A   1      29.130  32.163  22.654  1.00  0.00    -0.369 OA
ATOM     20  C   UNL A   1      28.028  31.006  20.781  1.00  0.00     0.289 C 
ATOM     21  H   UNL A   1      26.775  29.943  22.015  1.00  0.00     0.346 HD
ATOM     22  H   UNL A   1      27.767  28.989  21.072  1.00  0.00     0.346 HD
ATOM     23  C   UNL A   1      28.179  32.305  21.590  1.00  0.00     0.221 C 
ENDBRANCH  15  16
ENDBRANCH  13  15
ENDBRANCH   6  11
ENDBRANCH   3   5
ENDBRANCH   2   3
ENDBRANCH   1   2
BRANCH   1  24
ATOM     24  C   UNL A   1      36.104  20.976  25.032  1.00  0.00     0.275 C 
BRANCH  24  25
ATOM     25  O   UNL A   1      37.297  21.771  24.893  1.00  0.00    -0.458 OA
BRANCH  25  26
ATOM     26  C   UNL A   1      38.363  21.322  25.590  1.00  0.00     0.338 C 
ATOM     27  O   UNL A   1      38.854  20.205  25.566  1.00  0.00    -0.246 OA
BRANCH  26  28
ATOM     28  C   UNL A   1      38.977  22.421  26.347  1.00  0.00     0.060 A 
ATOM     29  C   UNL A   1      38.477  23.697  26.132  1.00  0.00     0.016 A 
ATOM     30  C   UNL A   1      40.152  22.246  27.067  1.00  0.00     0.016 A 
ATOM     31  C   UNL A   1      39.220  24.815  26.487  1.00  0.00     0.010 A 
ATOM     32  C   UNL A   1      40.824  23.373  27.559  1.00  0.00     0.010 A 
ATOM     33  C   UNL A   1      40.395  24.675  27.231  1.00  0.00    -0.014 A 
BRANCH  33  34
ATOM     34  C   UNL A   1      41.173  25.882  27.636  1.00  0.00     0.031 A 
ATOM     35  C   UNL A   1      40.542  26.937  28.508  1.00  0.00     0.074 A 
ATOM     36  C   UNL A   1      42.455  26.030  27.242  1.00  0.00     0.049 A 
ATOM     37  N   UNL A   1      40.973  28.139  28.800  1.00  0.00    -0.248 NA
ATOM     38  C   UNL A   1      39.242  26.606  29.116  1.00  0.00     0.031 C 
ATOM     39  C   UNL A   1      43.221  25.066  26.448  1.00  0.00     0.029 A 
ATOM     40  N   UNL A   1      43.348  27.052  27.459  1.00  0.00    -0.354 N 
ATOM     41  C   UNL A   1      39.975  28.726  29.570  1.00  0.00     0.074 A 
ATOM     42  C   UNL A   1      38.910  27.754  29.691  1.00  0.00     0.031 C 
ATOM     43  C   UNL A   1      44.470  25.520  26.281  1.00  0.00     0.029 A 
ATOM     44  C   UNL A   1      44.567  26.854  26.855  1.00  0.00     0.049 A 
ATOM     45  H   UNL A   1      43.136  27.850  27.997  1.00  0.00     0.167 HD
ATOM     46  C   UNL A   1      39.951  29.964  30.123  1.00  0.00     0.037 A 
ATOM     47  C   UNL A   1      45.628  27.672  26.719  1.00  0.00     0.037 A 
ATOM     48  C   UNL A   1      41.039  30.905  30.043  1.00  0.00     0.049 A 
ATOM     49  C   UNL A   1      45.555  29.058  27.290  1.00  0.00     0.074 A 
ATOM     50  C   UNL A   1      41.122  32.177  30.585  1.00  0.00     0.029 A 
ATOM     51  N   UNL A   1      42.240  30.673  29.389  1.00  0.00    -0.354 N 
ATOM     52  N   UNL A   1      44.587  29.621  27.971  1.00  0.00    -0.248 NA
ATOM     53  C   UNL A   1      46.716  29.928  27.059  1.00  0.00     0.031 C 
ATOM     54  C   UNL A   1      42.352  32.731  30.215  1.00  0.00     0.029 A 
ATOM     55  C   UNL A   1      43.060  31.786  29.493  1.00  0.00     0.049 A 
ATOM     56  H   UNL A   1      42.474  29.840  28.918  1.00  0.00     0.167 HD
ATOM     57  C   UNL A   1      45.028  30.903  28.267  1.00  0.00     0.074 A 
ATOM     58  C   UNL A   1      46.359  31.026  27.710  1.00  0.00     0.031 C 
ATOM     59  C   UNL A   1      44.386  31.890  28.938  1.00  0.00     0.037 A 
BRANCH  46  60
ATOM     60  C   UNL A   1      38.694  30.389  30.830  1.00  0.00     0.057 A 
ATOM     61  C   UNL A   1      38.474  30.139  32.191  1.00  0.00     0.134 A 
ATOM     62  C   UNL A   1      37.697  31.090  30.137  1.00  0.00     0.134 A 
ATOM     63  F   UNL A   1      39.381  29.465  32.914  1.00  0.00    -0.206 F 
ATOM     64  C   UNL A   1      37.299  30.545  32.828  1.00  0.00     0.040 A 
ATOM     65  C   UNL A   1      36.532  31.528  30.771  1.00  0.00     0.040 A 
ATOM     66  F   UNL A   1      37.843  31.372  28.834  1.00  0.00    -0.206 F 
ATOM     67  C   UNL A   1      36.327  31.247  32.119  1.00  0.00     0.006 A 
ENDBRANCH  46  60
BRANCH  47  68
ATOM     68  C   UNL A   1      46.824  27.217  25.964  1.00  0.00     0.057 A 
ATOM     69  C   UNL A   1      47.846  26.496  26.590  1.00  0.00     0.134 A 
ATOM     70  C   UNL A   1      46.972  27.489  24.596  1.00  0.00     0.134 A 
ATOM     71  F   UNL A   1      47.774  26.224  27.902  1.00  0.00    -0.206 F 
ATOM     72  C   UNL A   1      48.977  26.072  25.890  1.00  0.00     0.040 A 
ATOM     73  C   UNL A   1      48.082  27.043  23.877  1.00  0.00     0.040 A 
ATOM     74  F   UNL A   1      46.028  28.173  23.935  1.00  0.00    -0.206 F 
ATOM     75  C   UNL A   1      49.092  26.338  24.526  1.00  0.00     0.006 A 
ENDBRANCH  47  68
BRANCH  59  76
ATOM     76  C   UNL A   1      45.136  33.172  29.145  1.00  0.00     0.057 A 
ATOM     77  C   UNL A   1      45.981  33.370  30.245  1.00  0.00     0.134 A 
ATOM     78  C   UNL A   1      45.029  34.215  28.215  1.00  0.00     0.134 A 
ATOM     79  F   UNL A   1      46.114  32.417  31.180  1.00  0.00    -0.206 F 
ATOM     80  C   UNL A   1      46.672  34.569  30.426  1.00  0.00     0.040 A 
ATOM     81  C   UNL A   1      45.739  35.407  28.370  1.00  0.00     0.040 A 
ATOM     82  F   UNL A   1      44.243  34.088  27.136  1.00  0.00    -0.206 F 
ATOM     83  C   UNL A   1      46.557  35.589  29.483  1.00  0.00     0.006 A 
ENDBRANCH  59  76
ENDBRANCH  33  34
ENDBRANCH  26  28
ENDBRANCH  25  26
ENDBRANCH  24  25
ENDBRANCH   1  24
TORSDOF 14
ENDMDL
