MODEL 1
REMARK VINA RESULT:     -13.8      0.000      0.000
REMARK SMILES Cc1ccc(C)c(S(=O)(=O)N[C@H](CC2=c3ccccc3=NC2)C(=O)OCCOC(=O)c2ccc(-c3c4nc(c(-c5c(F)cccc5F)c5ccc([nH]5)c(-c5c(F)cccc5F)c5nc(c(-c6c(F)cccc6F)c6ccc3[nH]6)C=C5)C=C4)cc2)c1
REMARK SMILES IDX 26 1 25 2 23 3 24 4 12 5 11 6 8 8 9 9 10 10 7 11 1 12 2 13
REMARK SMILES IDX 3 14 85 15 4 16 5 17 6 18 13 19 14 20 15 21 22 22 16 23
REMARK SMILES IDX 20 24 21 25 17 26 19 27 18 28 27 29 28 30 29 31 30 32 31 33
REMARK SMILES IDX 32 34 84 35 33 36 83 37 34 38 35 39 36 40 77 41 37 42 82 43
REMARK SMILES IDX 76 44 78 45 38 46 81 47 75 48 74 49 39 51 65 52 48 53 64 54
REMARK SMILES IDX 49 55 52 56 63 57 79 58 50 59 51 60 62 62 80 63 53 64 40 65
REMARK SMILES IDX 41 66 46 67 42 68 43 69 45 70 47 71 44 72 66 73 67 74 72 75
REMARK SMILES IDX 68 76 69 77 71 78 73 79 70 80 54 81 55 82 60 83 56 84 57 85
REMARK SMILES IDX 59 86 61 87 58 88
REMARK H PARENT 11 7 78 50 52 61
REMARK Flexibility Score: inf
ROOT
ATOM      1  C   UNL A   1      38.284  21.467  25.396  1.00  0.00     0.274 C 
ENDROOT
BRANCH   1   2
ATOM      2  O   UNL A   1      37.517  22.615  25.785  1.00  0.00    -0.461 OA
BRANCH   2   3
ATOM      3  C   UNL A   1      36.071  22.542  25.561  1.00  0.00     0.324 C 
ATOM      4  O   UNL A   1      35.769  21.419  26.078  1.00  0.00    -0.250 OA
BRANCH   3   5
ATOM      5  C   UNL A   1      34.903  24.124  24.613  1.00  0.00     0.183 C 
BRANCH   5   6
ATOM      6  N   UNL A   1      34.553  24.508  23.001  1.00  0.00    -0.197 NA
ATOM      7  H   UNL A   1      34.995  25.415  22.849  1.00  0.00     0.142 HD
BRANCH   6   8
ATOM      8  S   UNL A   1      32.998  24.647  22.261  1.00  0.00     0.241 S 
ATOM      9  O   UNL A   1      32.288  23.415  22.527  1.00  0.00    -0.207 OA
ATOM     10  O   UNL A   1      33.321  25.033  20.899  1.00  0.00    -0.207 OA
BRANCH   8  11
ATOM     11  C   UNL A   1      31.844  25.969  22.798  1.00  0.00     0.085 A 
ATOM     12  C   UNL A   1      28.246  26.614  24.029  1.00  0.00     0.044 C 
ATOM     13  C   UNL A   1      29.666  26.817  23.572  1.00  0.00    -0.050 A 
ATOM     14  C   UNL A   1      30.101  28.136  23.435  1.00  0.00     0.004 A 
ATOM     15  C   UNL A   1      30.551  25.739  23.287  1.00  0.00     0.025 A 
ATOM     16  C   UNL A   1      31.400  28.388  23.030  1.00  0.00     0.005 A 
ATOM     17  C   UNL A   1      32.285  27.330  22.717  1.00  0.00    -0.031 A 
ATOM     18  C   UNL A   1      33.671  27.794  22.341  1.00  0.00     0.046 C 
ENDBRANCH   8  11
ENDBRANCH   6   8
ENDBRANCH   5   6
BRANCH   5  19
ATOM     19  C   UNL A   1      34.564  25.909  25.157  1.00  0.00     0.065 C 
BRANCH  19  20
ATOM     20  C   UNL A   1      33.529  26.529  26.121  1.00  0.00    -0.037 C 
ATOM     21  C   UNL A   1      33.494  27.759  26.655  1.00  0.00     0.001 A 
ATOM     22  C   UNL A   1      32.225  25.829  26.415  1.00  0.00     0.174 C 
ATOM     23  C   UNL A   1      34.392  28.863  26.795  1.00  0.00     0.010 A 
ATOM     24  C   UNL A   1      32.037  27.952  26.865  1.00  0.00     0.065 A 
ATOM     25  N   UNL A   1      31.266  26.914  26.733  1.00  0.00    -0.280 NA
ATOM     26  C   UNL A   1      33.898  30.083  27.077  1.00  0.00     0.001 A 
ATOM     27  C   UNL A   1      31.563  29.345  27.045  1.00  0.00     0.028 A 
ATOM     28  C   UNL A   1      32.469  30.333  27.131  1.00  0.00     0.002 A 
ENDBRANCH  19  20
ENDBRANCH   5  19
ENDBRANCH   3   5
ENDBRANCH   2   3
ENDBRANCH   1   2
BRANCH   1  29
ATOM     29  C   UNL A   1      39.523  21.295  26.291  1.00  0.00     0.275 C 
BRANCH  29  30
ATOM     30  O   UNL A   1      40.515  22.366  26.260  1.00  0.00    -0.458 OA
BRANCH  30  31
ATOM     31  C   UNL A   1      41.828  22.252  25.921  1.00  0.00     0.338 C 
ATOM     32  O   UNL A   1      42.368  21.219  25.563  1.00  0.00    -0.246 OA
BRANCH  31  33
ATOM     33  C   UNL A   1      42.649  23.406  26.295  1.00  0.00     0.060 A 
ATOM     34  C   UNL A   1      43.313  23.449  27.980  1.00  0.00     0.016 A 
ATOM     35  C   UNL A   1      42.298  24.961  25.453  1.00  0.00     0.016 A 
ATOM     36  C   UNL A   1      43.448  25.059  28.821  1.00  0.00     0.010 A 
ATOM     37  C   UNL A   1      42.543  26.547  26.283  1.00  0.00     0.010 A 
ATOM     38  C   UNL A   1      42.915  26.574  28.018  1.00  0.00    -0.014 A 
BRANCH  38  39
ATOM     39  C   UNL A   1      42.190  27.757  28.738  1.00  0.00     0.031 A 
ATOM     40  C   UNL A   1      43.040  28.908  28.412  1.00  0.00     0.074 A 
ATOM     41  C   UNL A   1      40.968  28.049  29.341  1.00  0.00     0.049 A 
ATOM     42  N   UNL A   1      44.171  29.123  28.993  1.00  0.00    -0.248 NA
ATOM     43  C   UNL A   1      42.877  29.613  27.130  1.00  0.00     0.031 C 
ATOM     44  C   UNL A   1      39.759  27.229  29.557  1.00  0.00     0.029 A 
ATOM     45  N   UNL A   1      40.522  29.263  29.920  1.00  0.00    -0.354 N 
ATOM     46  C   UNL A   1      44.678  30.227  28.348  1.00  0.00     0.074 A 
ATOM     47  C   UNL A   1      44.070  30.214  27.046  1.00  0.00     0.031 C 
ATOM     48  C   UNL A   1      38.700  27.979  29.994  1.00  0.00     0.029 A 
ATOM     49  C   UNL A   1      39.132  29.340  30.273  1.00  0.00     0.049 A 
ATOM     50  H   UNL A   1      41.136  30.017  30.072  1.00  0.00     0.167 HD
ATOM     51  C   UNL A   1      45.174  31.261  29.079  1.00  0.00     0.037 A 
ATOM     52  C   UNL A   1      38.426  30.380  30.861  1.00  0.00     0.037 A 
ATOM     53  C   UNL A   1      45.180  30.910  30.491  1.00  0.00     0.049 A 
ATOM     54  C   UNL A   1      39.421  31.213  31.558  1.00  0.00     0.074 A 
ATOM     55  C   UNL A   1      45.781  29.962  31.294  1.00  0.00     0.029 A 
ATOM     56  N   UNL A   1      44.077  31.354  31.174  1.00  0.00    -0.354 N 
ATOM     57  N   UNL A   1      40.077  30.828  32.610  1.00  0.00    -0.248 NA
ATOM     58  C   UNL A   1      39.982  32.324  30.820  1.00  0.00     0.031 C 
ATOM     59  C   UNL A   1      44.836  29.661  32.324  1.00  0.00     0.029 A 
ATOM     60  C   UNL A   1      43.732  30.500  32.181  1.00  0.00     0.049 A 
ATOM     61  H   UNL A   1      43.594  32.185  30.963  1.00  0.00     0.167 HD
ATOM     62  C   UNL A   1      41.365  31.253  32.352  1.00  0.00     0.074 A 
ATOM     63  C   UNL A   1      41.224  32.267  31.302  1.00  0.00     0.031 C 
ATOM     64  C   UNL A   1      42.417  30.496  32.781  1.00  0.00     0.037 A 
BRANCH  51  65
ATOM     65  C   UNL A   1      45.152  32.711  28.652  1.00  0.00     0.057 A 
ATOM     66  C   UNL A   1      46.258  33.463  28.204  1.00  0.00     0.134 A 
ATOM     67  C   UNL A   1      43.899  33.304  28.420  1.00  0.00     0.134 A 
ATOM     68  F   UNL A   1      47.517  33.023  28.266  1.00  0.00    -0.206 F 
ATOM     69  C   UNL A   1      46.128  34.694  27.558  1.00  0.00     0.040 A 
ATOM     70  C   UNL A   1      43.755  34.512  27.728  1.00  0.00     0.040 A 
ATOM     71  F   UNL A   1      42.767  32.685  28.791  1.00  0.00    -0.206 F 
ATOM     72  C   UNL A   1      44.872  35.208  27.289  1.00  0.00     0.006 A 
ENDBRANCH  51  65
BRANCH  52  73
ATOM     73  C   UNL A   1      37.014  30.947  30.813  1.00  0.00     0.057 A 
ATOM     74  C   UNL A   1      36.505  31.454  29.613  1.00  0.00     0.134 A 
ATOM     75  C   UNL A   1      36.303  31.374  31.970  1.00  0.00     0.134 A 
ATOM     76  F   UNL A   1      37.136  31.201  28.459  1.00  0.00    -0.206 F 
ATOM     77  C   UNL A   1      35.401  32.336  29.554  1.00  0.00     0.040 A 
ATOM     78  C   UNL A   1      35.190  32.250  31.926  1.00  0.00     0.040 A 
ATOM     79  F   UNL A   1      36.714  31.025  33.199  1.00  0.00    -0.206 F 
ATOM     80  C   UNL A   1      34.744  32.746  30.709  1.00  0.00     0.006 A 
ENDBRANCH  52  73
BRANCH  64  81
ATOM     81  C   UNL A   1      42.138  29.483  33.865  1.00  0.00     0.057 A 
ATOM     82  C   UNL A   1      41.924  28.156  33.477  1.00  0.00     0.134 A 
ATOM     83  C   UNL A   1      42.001  29.767  35.234  1.00  0.00     0.134 A 
ATOM     84  F   UNL A   1      42.003  27.812  32.183  1.00  0.00    -0.206 F 
ATOM     85  C   UNL A   1      41.597  27.158  34.397  1.00  0.00     0.040 A 
ATOM     86  C   UNL A   1      41.706  28.769  36.171  1.00  0.00     0.040 A 
ATOM     87  F   UNL A   1      42.115  31.018  35.699  1.00  0.00    -0.206 F 
ATOM     88  C   UNL A   1      41.498  27.460  35.752  1.00  0.00     0.006 A 
ENDBRANCH  64  81
ENDBRANCH  38  39
ENDBRANCH  31  33
ENDBRANCH  30  31
ENDBRANCH  29  30
ENDBRANCH   1  29
TORSDOF 16
ENDMDL
MODEL 2
REMARK VINA RESULT:     -13.4      2.934      7.815
REMARK SMILES Cc1ccc(C)c(S(=O)(=O)N[C@H](CC2=c3ccccc3=NC2)C(=O)OCCOC(=O)c2ccc(-c3c4nc(c(-c5c(F)cccc5F)c5ccc([nH]5)c(-c5c(F)cccc5F)c5nc(c(-c6c(F)cccc6F)c6ccc3[nH]6)C=C5)C=C4)cc2)c1
REMARK SMILES IDX 26 1 25 2 23 3 24 4 12 5 11 6 8 8 9 9 10 10 7 11 1 12 2 13
REMARK SMILES IDX 3 14 85 15 4 16 5 17 6 18 13 19 14 20 15 21 22 22 16 23
REMARK SMILES IDX 20 24 21 25 17 26 19 27 18 28 27 29 28 30 29 31 30 32 31 33
REMARK SMILES IDX 32 34 84 35 33 36 83 37 34 38 35 39 36 40 77 41 37 42 82 43
REMARK SMILES IDX 76 44 78 45 38 46 81 47 75 48 74 49 39 51 65 52 48 53 64 54
REMARK SMILES IDX 49 55 52 56 63 57 79 58 50 59 51 60 62 62 80 63 53 64 40 65
REMARK SMILES IDX 41 66 46 67 42 68 43 69 45 70 47 71 44 72 66 73 67 74 72 75
REMARK SMILES IDX 68 76 69 77 71 78 73 79 70 80 54 81 55 82 60 83 56 84 57 85
REMARK SMILES IDX 59 86 61 87 58 88
REMARK H PARENT 11 7 78 50 52 61
REMARK Flexibility Score: inf
ROOT
ATOM      1  C   UNL A   1      32.917  30.485  27.437  1.00  0.00     0.274 C 
ENDROOT
BRANCH   1   2
ATOM      2  O   UNL A   1      33.714  29.295  27.368  1.00  0.00    -0.461 OA
BRANCH   2   3
ATOM      3  C   UNL A   1      33.013  28.058  27.013  1.00  0.00     0.324 C 
ATOM      4  O   UNL A   1      31.897  28.194  27.611  1.00  0.00    -0.250 OA
BRANCH   3   5
ATOM      5  C   UNL A   1      33.839  26.521  25.703  1.00  0.00     0.183 C 
BRANCH   5   6
ATOM      6  N   UNL A   1      34.039  26.404  24.025  1.00  0.00    -0.197 NA
ATOM      7  H   UNL A   1      35.043  26.512  23.876  1.00  0.00     0.142 HD
BRANCH   6   8
ATOM      8  S   UNL A   1      33.305  27.379  22.802  1.00  0.00     0.241 S 
ATOM      9  O   UNL A   1      33.458  26.674  21.547  1.00  0.00    -0.207 OA
ATOM     10  O   UNL A   1      33.930  28.674  23.001  1.00  0.00    -0.207 OA
BRANCH   8  11
ATOM     11  C   UNL A   1      31.515  27.769  22.896  1.00  0.00     0.085 A 
ATOM     12  C   UNL A   1      28.966  30.653  22.634  1.00  0.00     0.044 C 
ATOM     13  C   UNL A   1      29.583  29.295  22.837  1.00  0.00    -0.050 A 
ATOM     14  C   UNL A   1      28.728  28.271  23.249  1.00  0.00     0.004 A 
ATOM     15  C   UNL A   1      30.966  29.031  22.629  1.00  0.00     0.025 A 
ATOM     16  C   UNL A   1      29.233  26.997  23.442  1.00  0.00     0.005 A 
ATOM     17  C   UNL A   1      30.609  26.722  23.265  1.00  0.00    -0.031 A 
ATOM     18  C   UNL A   1      30.966  25.271  23.473  1.00  0.00     0.046 C 
ENDBRANCH   8  11
ENDBRANCH   6   8
ENDBRANCH   5   6
BRANCH   5  19
ATOM     19  C   UNL A   1      33.888  24.634  25.884  1.00  0.00     0.065 C 
BRANCH  19  20
ATOM     20  C   UNL A   1      34.678  23.533  25.143  1.00  0.00    -0.037 C 
ATOM     21  C   UNL A   1      35.989  23.253  25.185  1.00  0.00     0.001 A 
ATOM     22  C   UNL A   1      33.963  22.431  24.400  1.00  0.00     0.174 C 
ATOM     23  C   UNL A   1      37.179  23.890  25.656  1.00  0.00     0.010 A 
ATOM     24  C   UNL A   1      35.993  21.800  24.877  1.00  0.00     0.065 A 
ATOM     25  N   UNL A   1      34.887  21.272  24.445  1.00  0.00    -0.280 NA
ATOM     26  C   UNL A   1      38.287  23.152  25.855  1.00  0.00     0.001 A 
ATOM     27  C   UNL A   1      37.211  21.039  25.243  1.00  0.00     0.028 A 
ATOM     28  C   UNL A   1      38.277  21.708  25.714  1.00  0.00     0.002 A 
ENDBRANCH  19  20
ENDBRANCH   5  19
ENDBRANCH   3   5
ENDBRANCH   2   3
ENDBRANCH   1   2
BRANCH   1  29
ATOM     29  C   UNL A   1      33.799  31.741  27.550  1.00  0.00     0.275 C 
BRANCH  29  30
ATOM     30  O   UNL A   1      34.839  31.728  28.575  1.00  0.00    -0.458 OA
BRANCH  30  31
ATOM     31  C   UNL A   1      34.810  32.372  29.774  1.00  0.00     0.338 C 
ATOM     32  O   UNL A   1      34.048  33.280  30.059  1.00  0.00    -0.246 OA
BRANCH  31  33
ATOM     33  C   UNL A   1      35.967  32.101  30.630  1.00  0.00     0.060 A 
ATOM     34  C   UNL A   1      37.466  33.076  30.342  1.00  0.00     0.016 A 
ATOM     35  C   UNL A   1      36.124  30.428  31.281  1.00  0.00     0.016 A 
ATOM     36  C   UNL A   1      39.085  32.272  30.567  1.00  0.00     0.010 A 
ATOM     37  C   UNL A   1      37.747  29.696  31.594  1.00  0.00     0.010 A 
ATOM     38  C   UNL A   1      39.205  30.544  31.041  1.00  0.00    -0.014 A 
BRANCH  38  39
ATOM     39  C   UNL A   1      40.274  29.543  30.494  1.00  0.00     0.031 A 
ATOM     40  C   UNL A   1      40.955  29.093  31.714  1.00  0.00     0.074 A 
ATOM     41  C   UNL A   1      40.581  28.844  29.329  1.00  0.00     0.049 A 
ATOM     42  N   UNL A   1      41.818  29.823  32.336  1.00  0.00    -0.248 NA
ATOM     43  C   UNL A   1      40.382  28.010  32.529  1.00  0.00     0.031 C 
ATOM     44  C   UNL A   1      39.926  28.803  28.006  1.00  0.00     0.029 A 
ATOM     45  N   UNL A   1      41.637  27.931  29.084  1.00  0.00    -0.354 N 
ATOM     46  C   UNL A   1      42.141  29.085  33.452  1.00  0.00     0.074 A 
ATOM     47  C   UNL A   1      40.999  28.246  33.692  1.00  0.00     0.031 C 
ATOM     48  C   UNL A   1      40.431  27.810  27.211  1.00  0.00     0.029 A 
ATOM     49  C   UNL A   1      41.582  27.193  27.852  1.00  0.00     0.049 A 
ATOM     50  H   UNL A   1      42.371  27.808  29.726  1.00  0.00     0.167 HD
ATOM     51  C   UNL A   1      43.448  28.912  33.784  1.00  0.00     0.037 A 
ATOM     52  C   UNL A   1      42.471  26.256  27.344  1.00  0.00     0.037 A 
ATOM     53  C   UNL A   1      44.292  29.699  32.899  1.00  0.00     0.049 A 
ATOM     54  C   UNL A   1      43.761  26.506  28.008  1.00  0.00     0.074 A 
ATOM     55  C   UNL A   1      44.473  31.033  32.599  1.00  0.00     0.029 A 
ATOM     56  N   UNL A   1      44.783  28.992  31.833  1.00  0.00    -0.354 N 
ATOM     57  N   UNL A   1      44.486  27.563  27.806  1.00  0.00    -0.248 NA
ATOM     58  C   UNL A   1      44.033  25.760  29.218  1.00  0.00     0.031 C 
ATOM     59  C   UNL A   1      44.812  31.083  31.211  1.00  0.00     0.029 A 
ATOM     60  C   UNL A   1      44.926  29.781  30.728  1.00  0.00     0.049 A 
ATOM     61  H   UNL A   1      45.005  28.033  31.859  1.00  0.00     0.167 HD
ATOM     62  C   UNL A   1      44.891  27.917  29.078  1.00  0.00     0.074 A 
ATOM     63  C   UNL A   1      44.686  26.711  29.887  1.00  0.00     0.031 C 
ATOM     64  C   UNL A   1      45.027  29.238  29.392  1.00  0.00     0.037 A 
BRANCH  51  65
ATOM     65  C   UNL A   1      44.006  27.698  34.493  1.00  0.00     0.057 A 
ATOM     66  C   UNL A   1      44.094  26.393  33.964  1.00  0.00     0.134 A 
ATOM     67  C   UNL A   1      44.746  27.912  35.669  1.00  0.00     0.134 A 
ATOM     68  F   UNL A   1      43.525  26.030  32.811  1.00  0.00    -0.206 F 
ATOM     69  C   UNL A   1      44.869  25.388  34.544  1.00  0.00     0.040 A 
ATOM     70  C   UNL A   1      45.567  26.927  36.229  1.00  0.00     0.040 A 
ATOM     71  F   UNL A   1      44.755  29.114  36.266  1.00  0.00    -0.206 F 
ATOM     72  C   UNL A   1      45.636  25.662  35.664  1.00  0.00     0.006 A 
ENDBRANCH  51  65
BRANCH  52  73
ATOM     73  C   UNL A   1      42.409  25.003  26.481  1.00  0.00     0.057 A 
ATOM     74  C   UNL A   1      41.753  23.860  26.954  1.00  0.00     0.134 A 
ATOM     75  C   UNL A   1      43.300  24.753  25.399  1.00  0.00     0.134 A 
ATOM     76  F   UNL A   1      40.955  23.944  28.026  1.00  0.00    -0.206 F 
ATOM     77  C   UNL A   1      41.976  22.568  26.424  1.00  0.00     0.040 A 
ATOM     78  C   UNL A   1      43.527  23.466  24.853  1.00  0.00     0.040 A 
ATOM     79  F   UNL A   1      44.051  25.739  24.885  1.00  0.00    -0.206 F 
ATOM     80  C   UNL A   1      42.870  22.362  25.380  1.00  0.00     0.006 A 
ENDBRANCH  52  73
BRANCH  64  81
ATOM     81  C   UNL A   1      45.147  30.209  28.242  1.00  0.00     0.057 A 
ATOM     82  C   UNL A   1      46.429  30.498  27.764  1.00  0.00     0.134 A 
ATOM     83  C   UNL A   1      44.083  30.911  27.651  1.00  0.00     0.134 A 
ATOM     84  F   UNL A   1      47.500  29.895  28.302  1.00  0.00    -0.206 F 
ATOM     85  C   UNL A   1      46.649  31.430  26.747  1.00  0.00     0.040 A 
ATOM     86  C   UNL A   1      44.286  31.823  26.608  1.00  0.00     0.040 A 
ATOM     87  F   UNL A   1      42.825  30.759  28.084  1.00  0.00    -0.206 F 
ATOM     88  C   UNL A   1      45.574  32.088  26.156  1.00  0.00     0.006 A 
ENDBRANCH  64  81
ENDBRANCH  38  39
ENDBRANCH  31  33
ENDBRANCH  30  31
ENDBRANCH  29  30
ENDBRANCH   1  29
TORSDOF 16
ENDMDL
MODEL 3
REMARK VINA RESULT:     -13.3      3.495      7.889
REMARK SMILES Cc1ccc(C)c(S(=O)(=O)N[C@H](CC2=c3ccccc3=NC2)C(=O)OCCOC(=O)c2ccc(-c3c4nc(c(-c5c(F)cccc5F)c5ccc([nH]5)c(-c5c(F)cccc5F)c5nc(c(-c6c(F)cccc6F)c6ccc3[nH]6)C=C5)C=C4)cc2)c1
REMARK SMILES IDX 26 1 25 2 23 3 24 4 12 5 11 6 8 8 9 9 10 10 7 11 1 12 2 13
REMARK SMILES IDX 3 14 85 15 4 16 5 17 6 18 13 19 14 20 15 21 22 22 16 23
REMARK SMILES IDX 20 24 21 25 17 26 19 27 18 28 27 29 28 30 29 31 30 32 31 33
REMARK SMILES IDX 32 34 84 35 33 36 83 37 34 38 35 39 36 40 77 41 37 42 82 43
REMARK SMILES IDX 76 44 78 45 38 46 81 47 75 48 74 49 39 51 65 52 48 53 64 54
REMARK SMILES IDX 49 55 52 56 63 57 79 58 50 59 51 60 62 62 80 63 53 64 40 65
REMARK SMILES IDX 41 66 46 67 42 68 43 69 45 70 47 71 44 72 66 73 67 74 72 75
REMARK SMILES IDX 68 76 69 77 71 78 73 79 70 80 54 81 55 82 60 83 56 84 57 85
REMARK SMILES IDX 59 86 61 87 58 88
REMARK H PARENT 11 7 78 50 52 61
REMARK Flexibility Score: inf
ROOT
ATOM      1  C   UNL A   1      33.676  30.578  27.310  1.00  0.00     0.274 C 
ENDROOT
BRANCH   1   2
ATOM      2  O   UNL A   1      34.010  29.518  26.404  1.00  0.00    -0.461 OA
BRANCH   2   3
ATOM      3  C   UNL A   1      33.417  28.207  26.684  1.00  0.00     0.324 C 
ATOM      4  O   UNL A   1      32.678  28.450  27.692  1.00  0.00    -0.250 OA
BRANCH   3   5
ATOM      5  C   UNL A   1      33.792  26.419  25.490  1.00  0.00     0.183 C 
BRANCH   5   6
ATOM      6  N   UNL A   1      34.048  26.155  23.836  1.00  0.00    -0.197 NA
ATOM      7  H   UNL A   1      35.045  26.322  23.700  1.00  0.00     0.142 HD
BRANCH   6   8
ATOM      8  S   UNL A   1      33.282  26.949  22.507  1.00  0.00     0.241 S 
ATOM      9  O   UNL A   1      33.250  26.007  21.409  1.00  0.00    -0.207 OA
ATOM     10  O   UNL A   1      34.031  28.188  22.394  1.00  0.00    -0.207 OA
BRANCH   8  11
ATOM     11  C   UNL A   1      31.550  27.532  22.665  1.00  0.00     0.085 A 
ATOM     12  C   UNL A   1      29.299  30.647  22.335  1.00  0.00     0.044 C 
ATOM     13  C   UNL A   1      29.784  29.247  22.600  1.00  0.00    -0.050 A 
ATOM     14  C   UNL A   1      28.854  28.348  23.125  1.00  0.00     0.004 A 
ATOM     15  C   UNL A   1      31.118  28.826  22.340  1.00  0.00     0.025 A 
ATOM     16  C   UNL A   1      29.236  27.042  23.379  1.00  0.00     0.005 A 
ATOM     17  C   UNL A   1      30.564  26.612  23.151  1.00  0.00    -0.031 A 
ATOM     18  C   UNL A   1      30.782  25.148  23.440  1.00  0.00     0.046 C 
ENDBRANCH   8  11
ENDBRANCH   6   8
ENDBRANCH   5   6
BRANCH   5  19
ATOM     19  C   UNL A   1      33.227  24.626  25.734  1.00  0.00     0.065 C 
BRANCH  19  20
ATOM     20  C   UNL A   1      33.999  23.312  25.988  1.00  0.00    -0.037 C 
ATOM     21  C   UNL A   1      33.616  22.045  25.769  1.00  0.00     0.001 A 
ATOM     22  C   UNL A   1      35.467  23.329  26.335  1.00  0.00     0.174 C 
ATOM     23  C   UNL A   1      32.396  21.356  25.482  1.00  0.00     0.010 A 
ATOM     24  C   UNL A   1      34.922  21.374  25.542  1.00  0.00     0.065 A 
ATOM     25  N   UNL A   1      36.000  22.042  25.826  1.00  0.00    -0.280 NA
ATOM     26  C   UNL A   1      32.446  20.114  24.967  1.00  0.00     0.001 A 
ATOM     27  C   UNL A   1      34.892  20.061  24.856  1.00  0.00     0.028 A 
ATOM     28  C   UNL A   1      33.703  19.495  24.589  1.00  0.00     0.002 A 
ENDBRANCH  19  20
ENDBRANCH   5  19
ENDBRANCH   3   5
ENDBRANCH   2   3
ENDBRANCH   1   2
BRANCH   1  29
ATOM     29  C   UNL A   1      34.937  31.311  27.799  1.00  0.00     0.275 C 
BRANCH  29  30
ATOM     30  O   UNL A   1      35.396  31.007  29.151  1.00  0.00    -0.458 OA
BRANCH  30  31
ATOM     31  C   UNL A   1      36.687  30.879  29.565  1.00  0.00     0.338 C 
ATOM     32  O   UNL A   1      37.348  31.770  30.070  1.00  0.00    -0.246 OA
BRANCH  31  33
ATOM     33  C   UNL A   1      37.351  29.661  29.094  1.00  0.00     0.060 A 
ATOM     34  C   UNL A   1      37.855  28.448  30.342  1.00  0.00     0.016 A 
ATOM     35  C   UNL A   1      38.299  29.789  27.567  1.00  0.00     0.016 A 
ATOM     36  C   UNL A   1      39.397  27.517  30.078  1.00  0.00     0.010 A 
ATOM     37  C   UNL A   1      39.768  28.773  27.292  1.00  0.00     0.010 A 
ATOM     38  C   UNL A   1      40.417  27.802  28.629  1.00  0.00    -0.014 A 
BRANCH  38  39
ATOM     39  C   UNL A   1      41.981  27.803  28.626  1.00  0.00     0.031 A 
ATOM     40  C   UNL A   1      42.306  26.679  27.739  1.00  0.00     0.074 A 
ATOM     41  C   UNL A   1      43.047  28.621  28.993  1.00  0.00     0.049 A 
ATOM     42  N   UNL A   1      42.212  25.448  28.115  1.00  0.00    -0.248 NA
ATOM     43  C   UNL A   1      42.321  26.864  26.279  1.00  0.00     0.031 C 
ATOM     44  C   UNL A   1      43.089  29.960  29.614  1.00  0.00     0.029 A 
ATOM     45  N   UNL A   1      44.439  28.397  28.852  1.00  0.00    -0.354 N 
ATOM     46  C   UNL A   1      42.513  24.726  26.983  1.00  0.00     0.074 A 
ATOM     47  C   UNL A   1      42.184  25.593  25.885  1.00  0.00     0.031 C 
ATOM     48  C   UNL A   1      44.348  30.496  29.599  1.00  0.00     0.029 A 
ATOM     49  C   UNL A   1      45.305  29.511  29.120  1.00  0.00     0.049 A 
ATOM     50  H   UNL A   1      44.794  27.520  28.582  1.00  0.00     0.167 HD
ATOM     51  C   UNL A   1      43.402  23.700  27.061  1.00  0.00     0.037 A 
ATOM     52  C   UNL A   1      46.691  29.582  29.080  1.00  0.00     0.037 A 
ATOM     53  C   UNL A   1      43.787  23.483  28.447  1.00  0.00     0.049 A 
ATOM     54  C   UNL A   1      47.181  28.201  29.230  1.00  0.00     0.074 A 
ATOM     55  C   UNL A   1      43.164  23.124  29.624  1.00  0.00     0.029 A 
ATOM     56  N   UNL A   1      44.950  24.116  28.801  1.00  0.00    -0.354 N 
ATOM     57  N   UNL A   1      47.072  27.511  30.324  1.00  0.00    -0.248 NA
ATOM     58  C   UNL A   1      47.419  27.452  28.016  1.00  0.00     0.031 C 
ATOM     59  C   UNL A   1      43.851  23.823  30.664  1.00  0.00     0.029 A 
ATOM     60  C   UNL A   1      44.931  24.507  30.109  1.00  0.00     0.049 A 
ATOM     61  H   UNL A   1      45.705  24.272  28.189  1.00  0.00     0.167 HD
ATOM     62  C   UNL A   1      46.677  26.267  29.873  1.00  0.00     0.074 A 
ATOM     63  C   UNL A   1      47.023  26.254  28.449  1.00  0.00     0.031 C 
ATOM     64  C   UNL A   1      45.815  25.526  30.630  1.00  0.00     0.037 A 
BRANCH  51  65
ATOM     65  C   UNL A   1      44.311  23.257  25.937  1.00  0.00     0.057 A 
ATOM     66  C   UNL A   1      45.334  24.025  25.342  1.00  0.00     0.134 A 
ATOM     67  C   UNL A   1      44.340  21.887  25.621  1.00  0.00     0.134 A 
ATOM     68  F   UNL A   1      45.513  25.326  25.591  1.00  0.00    -0.206 F 
ATOM     69  C   UNL A   1      46.317  23.475  24.518  1.00  0.00     0.040 A 
ATOM     70  C   UNL A   1      45.351  21.317  24.839  1.00  0.00     0.040 A 
ATOM     71  F   UNL A   1      43.428  21.046  26.132  1.00  0.00    -0.206 F 
ATOM     72  C   UNL A   1      46.348  22.111  24.289  1.00  0.00     0.006 A 
ENDBRANCH  51  65
BRANCH  52  73
ATOM     73  C   UNL A   1      47.752  30.623  28.750  1.00  0.00     0.057 A 
ATOM     74  C   UNL A   1      47.898  31.080  27.435  1.00  0.00     0.134 A 
ATOM     75  C   UNL A   1      48.878  30.883  29.581  1.00  0.00     0.134 A 
ATOM     76  F   UNL A   1      46.947  30.820  26.528  1.00  0.00    -0.206 F 
ATOM     77  C   UNL A   1      49.069  31.718  26.965  1.00  0.00     0.040 A 
ATOM     78  C   UNL A   1      50.054  31.528  29.127  1.00  0.00     0.040 A 
ATOM     79  F   UNL A   1      48.914  30.443  30.849  1.00  0.00    -0.206 F 
ATOM     80  C   UNL A   1      50.156  31.936  27.804  1.00  0.00     0.006 A 
ENDBRANCH  52  73
BRANCH  64  81
ATOM     81  C   UNL A   1      45.680  25.902  32.085  1.00  0.00     0.057 A 
ATOM     82  C   UNL A   1      44.569  26.664  32.461  1.00  0.00     0.134 A 
ATOM     83  C   UNL A   1      46.615  25.614  33.094  1.00  0.00     0.134 A 
ATOM     84  F   UNL A   1      43.650  27.010  31.547  1.00  0.00    -0.206 F 
ATOM     85  C   UNL A   1      44.387  27.115  33.770  1.00  0.00     0.040 A 
ATOM     86  C   UNL A   1      46.428  26.032  34.418  1.00  0.00     0.040 A 
ATOM     87  F   UNL A   1      47.746  24.951  32.824  1.00  0.00    -0.206 F 
ATOM     88  C   UNL A   1      45.312  26.789  34.758  1.00  0.00     0.006 A 
ENDBRANCH  64  81
ENDBRANCH  38  39
ENDBRANCH  31  33
ENDBRANCH  30  31
ENDBRANCH  29  30
ENDBRANCH   1  29
TORSDOF 16
ENDMDL
