MODEL 1
REMARK VINA RESULT:      -9.8      0.000      0.000
REMARK SMILES O=C(COCC(=O)OCCOC(=O)c1ccc(-c2c3nc(c(-c4c(F)cccc4F)c4ccc([nH]4)c(-c4c(F)cccc4F)c4nc(c(-c5c(F)cccc5F)c5ccc2[nH]5)C=C4)C=C3)cc1)/[NH+]=C1\S[C@@H]2CS(=O)(=O)C[C@H]2N1c1ccc(Cl)cc1
REMARK SMILES IDX 9 1 8 2 6 3 7 4 5 5 4 6 3 7 2 8 1 9 68 10 69 11 70 13 78 14
REMARK SMILES IDX 71 15 77 16 72 17 76 18 73 19 74 20 75 21 79 22 80 23 85 24
REMARK SMILES IDX 81 25 84 26 82 27 83 28 10 29 11 30 12 31 13 32 14 33 15 34
REMARK SMILES IDX 67 35 16 36 66 37 17 38 18 39 19 40 60 41 20 42 65 43 59 44
REMARK SMILES IDX 61 45 21 46 64 47 58 48 57 49 22 51 48 52 31 53 47 54 32 55
REMARK SMILES IDX 35 56 46 57 62 58 33 59 34 60 45 62 63 63 36 64 23 65 24 66
REMARK SMILES IDX 29 67 25 68 26 69 28 70 30 71 27 72 49 73 50 74 55 75 51 76
REMARK SMILES IDX 52 77 54 78 56 79 53 80 37 81 38 82 43 83 39 84 40 85 42 86
REMARK SMILES IDX 44 87 41 88
REMARK H PARENT 68 12 61 50 35 61
REMARK Flexibility Score: inf
ROOT
ATOM      1  C   UNL A   1      42.861  19.764  25.740  1.00  0.00     0.274 C 
ENDROOT
BRANCH   1   2
ATOM      2  O   UNL A   1      43.677  20.012  24.576  1.00  0.00    -0.460 OA
BRANCH   2   3
ATOM      3  C   UNL A   1      45.008  19.768  24.726  1.00  0.00     0.332 C 
ATOM      4  O   UNL A   1      45.525  18.657  24.750  1.00  0.00    -0.250 OA
BRANCH   3   5
ATOM      5  C   UNL A   1      45.828  21.059  24.854  1.00  0.00     0.283 C 
BRANCH   5   6
ATOM      6  O   UNL A   1      46.028  21.646  26.126  1.00  0.00    -0.358 OA
BRANCH   6   7
ATOM      7  C   UNL A   1      45.950  23.065  26.133  1.00  0.00     0.288 C 
BRANCH   7   8
ATOM      8  C   UNL A   1      45.550  23.832  27.423  1.00  0.00     0.333 C 
ATOM      9  O   UNL A   1      45.138  23.215  28.403  1.00  0.00    -0.244 OA
ATOM     10  N   UNL A   1      45.610  25.205  27.419  1.00  0.00    -0.202 N 
ATOM     11  C   UNL A   1      46.756  25.797  27.412  1.00  0.00     0.319 C 
ATOM     12  H   UNL A   1      44.780  25.735  27.420  1.00  0.00     0.316 HD
ATOM     13  S   UNL A   1      48.327  24.945  27.213  1.00  0.00    -0.029 SA
ATOM     14  N   UNL A   1      46.996  27.180  27.485  1.00  0.00    -0.217 N 
ATOM     15  C   UNL A   1      48.964  26.418  26.402  1.00  0.00     0.120 C 
ATOM     16  C   UNL A   1      48.430  27.509  27.341  1.00  0.00     0.212 C 
ATOM     17  C   UNL A   1      50.444  26.634  26.241  1.00  0.00     0.156 C 
ATOM     18  C   UNL A   1      48.862  28.790  26.665  1.00  0.00     0.188 C 
ATOM     19  S   UNL A   1      50.552  28.425  26.177  1.00  0.00     0.155 S 
ATOM     20  O   UNL A   1      50.723  28.836  24.799  1.00  0.00    -0.229 OA
ATOM     21  O   UNL A   1      51.435  28.860  27.235  1.00  0.00    -0.229 OA
BRANCH  14  22
ATOM     22  C   UNL A   1      46.198  28.066  28.243  1.00  0.00     0.128 A 
ATOM     23  C   UNL A   1      45.063  28.683  27.689  1.00  0.00     0.053 A 
ATOM     24  C   UNL A   1      46.516  28.390  29.574  1.00  0.00     0.053 A 
ATOM     25  C   UNL A   1      44.314  29.624  28.406  1.00  0.00     0.025 A 
ATOM     26  C   UNL A   1      45.765  29.326  30.301  1.00  0.00     0.025 A 
ATOM     27  C   UNL A   1      44.674  29.950  29.709  1.00  0.00     0.041 A 
ATOM     28  Cl  UNL A   1      43.766  31.122  30.578  1.00  0.00    -0.084 Cl
ENDBRANCH  14  22
ENDBRANCH   7   8
ENDBRANCH   6   7
ENDBRANCH   5   6
ENDBRANCH   3   5
ENDBRANCH   2   3
ENDBRANCH   1   2
BRANCH   1  29
ATOM     29  C   UNL A   1      42.672  21.050  26.542  1.00  0.00     0.275 C 
BRANCH  29  30
ATOM     30  O   UNL A   1      41.789  21.938  25.832  1.00  0.00    -0.458 OA
BRANCH  30  31
ATOM     31  C   UNL A   1      42.358  23.077  25.376  1.00  0.00     0.338 C 
ATOM     32  O   UNL A   1      43.029  23.214  24.369  1.00  0.00    -0.246 OA
BRANCH  31  33
ATOM     33  C   UNL A   1      42.043  24.196  26.281  1.00  0.00     0.060 A 
ATOM     34  C   UNL A   1      42.517  25.486  26.028  1.00  0.00     0.016 A 
ATOM     35  C   UNL A   1      41.354  23.919  27.462  1.00  0.00     0.016 A 
ATOM     36  C   UNL A   1      42.354  26.489  26.984  1.00  0.00     0.010 A 
ATOM     37  C   UNL A   1      41.125  24.941  28.382  1.00  0.00     0.010 A 
ATOM     38  C   UNL A   1      41.643  26.229  28.164  1.00  0.00    -0.014 A 
BRANCH  38  39
ATOM     39  C   UNL A   1      41.417  27.289  29.177  1.00  0.00     0.031 A 
ATOM     40  C   UNL A   1      42.246  27.328  30.430  1.00  0.00     0.074 A 
ATOM     41  C   UNL A   1      40.419  28.176  29.003  1.00  0.00     0.049 A 
ATOM     42  N   UNL A   1      42.070  28.037  31.517  1.00  0.00    -0.248 NA
ATOM     43  C   UNL A   1      43.419  26.440  30.471  1.00  0.00     0.031 C 
ATOM     44  C   UNL A   1      39.559  28.261  27.822  1.00  0.00     0.029 A 
ATOM     45  N   UNL A   1      39.950  29.165  29.831  1.00  0.00    -0.354 N 
ATOM     46  C   UNL A   1      43.081  27.650  32.389  1.00  0.00     0.074 A 
ATOM     47  C   UNL A   1      43.861  26.639  31.706  1.00  0.00     0.031 C 
ATOM     48  C   UNL A   1      38.673  29.254  27.996  1.00  0.00     0.029 A 
ATOM     49  C   UNL A   1      38.858  29.828  29.324  1.00  0.00     0.049 A 
ATOM     50  H   UNL A   1      40.355  29.379  30.701  1.00  0.00     0.167 HD
ATOM     51  C   UNL A   1      43.331  28.100  33.643  1.00  0.00     0.037 A 
ATOM     52  C   UNL A   1      38.070  30.765  29.882  1.00  0.00     0.037 A 
ATOM     53  C   UNL A   1      42.570  29.131  34.303  1.00  0.00     0.049 A 
ATOM     54  C   UNL A   1      38.342  31.215  31.287  1.00  0.00     0.074 A 
ATOM     55  C   UNL A   1      42.772  29.685  35.555  1.00  0.00     0.029 A 
ATOM     56  N   UNL A   1      41.462  29.766  33.760  1.00  0.00    -0.354 N 
ATOM     57  N   UNL A   1      39.290  30.836  32.107  1.00  0.00    -0.248 NA
ATOM     58  C   UNL A   1      37.422  32.214  31.849  1.00  0.00     0.031 C 
ATOM     59  C   UNL A   1      41.762  30.627  35.787  1.00  0.00     0.029 A 
ATOM     60  C   UNL A   1      40.958  30.691  34.662  1.00  0.00     0.049 A 
ATOM     61  H   UNL A   1      41.090  29.586  32.867  1.00  0.00     0.167 HD
ATOM     62  C   UNL A   1      39.097  31.563  33.273  1.00  0.00     0.074 A 
ATOM     63  C   UNL A   1      37.946  32.414  33.050  1.00  0.00     0.031 C 
ATOM     64  C   UNL A   1      39.811  31.529  34.425  1.00  0.00     0.037 A 
BRANCH  51  65
ATOM     65  C   UNL A   1      44.458  27.459  34.398  1.00  0.00     0.057 A 
ATOM     66  C   UNL A   1      45.760  27.974  34.373  1.00  0.00     0.134 A 
ATOM     67  C   UNL A   1      44.228  26.327  35.191  1.00  0.00     0.134 A 
ATOM     68  F   UNL A   1      46.053  29.049  33.625  1.00  0.00    -0.206 F 
ATOM     69  C   UNL A   1      46.796  27.375  35.092  1.00  0.00     0.040 A 
ATOM     70  C   UNL A   1      45.250  25.734  35.934  1.00  0.00     0.040 A 
ATOM     71  F   UNL A   1      43.002  25.786  35.266  1.00  0.00    -0.206 F 
ATOM     72  C   UNL A   1      46.541  26.254  35.881  1.00  0.00     0.006 A 
ENDBRANCH  51  65
BRANCH  52  73
ATOM     73  C   UNL A   1      36.938  31.329  29.106  1.00  0.00     0.057 A 
ATOM     74  C   UNL A   1      35.774  30.583  28.893  1.00  0.00     0.134 A 
ATOM     75  C   UNL A   1      36.983  32.625  28.579  1.00  0.00     0.134 A 
ATOM     76  F   UNL A   1      35.683  29.328  29.356  1.00  0.00    -0.206 F 
ATOM     77  C   UNL A   1      34.695  31.104  28.178  1.00  0.00     0.040 A 
ATOM     78  C   UNL A   1      35.902  33.167  27.883  1.00  0.00     0.040 A 
ATOM     79  F   UNL A   1      38.071  33.389  28.752  1.00  0.00    -0.206 F 
ATOM     80  C   UNL A   1      34.754  32.404  27.680  1.00  0.00     0.006 A 
ENDBRANCH  52  73
BRANCH  64  81
ATOM     81  C   UNL A   1      39.380  32.465  35.515  1.00  0.00     0.057 A 
ATOM     82  C   UNL A   1      39.888  33.766  35.615  1.00  0.00     0.134 A 
ATOM     83  C   UNL A   1      38.437  32.061  36.469  1.00  0.00     0.134 A 
ATOM     84  F   UNL A   1      40.806  34.207  34.742  1.00  0.00    -0.206 F 
ATOM     85  C   UNL A   1      39.492  34.625  36.642  1.00  0.00     0.040 A 
ATOM     86  C   UNL A   1      38.017  32.919  37.487  1.00  0.00     0.040 A 
ATOM     87  F   UNL A   1      37.908  30.829  36.425  1.00  0.00    -0.206 F 
ATOM     88  C   UNL A   1      38.550  34.203  37.579  1.00  0.00     0.006 A 
ENDBRANCH  64  81
ENDBRANCH  38  39
ENDBRANCH  31  33
ENDBRANCH  30  31
ENDBRANCH  29  30
ENDBRANCH   1  29
TORSDOF 15
ENDMDL
MODEL 2
REMARK VINA RESULT:      -9.8      4.319      9.437
REMARK SMILES O=C(COCC(=O)OCCOC(=O)c1ccc(-c2c3nc(c(-c4c(F)cccc4F)c4ccc([nH]4)c(-c4c(F)cccc4F)c4nc(c(-c5c(F)cccc5F)c5ccc2[nH]5)C=C4)C=C3)cc1)/[NH+]=C1\S[C@@H]2CS(=O)(=O)C[C@H]2N1c1ccc(Cl)cc1
REMARK SMILES IDX 9 1 8 2 6 3 7 4 5 5 4 6 3 7 2 8 1 9 68 10 69 11 70 13 78 14
REMARK SMILES IDX 71 15 77 16 72 17 76 18 73 19 74 20 75 21 79 22 80 23 85 24
REMARK SMILES IDX 81 25 84 26 82 27 83 28 10 29 11 30 12 31 13 32 14 33 15 34
REMARK SMILES IDX 67 35 16 36 66 37 17 38 18 39 19 40 60 41 20 42 65 43 59 44
REMARK SMILES IDX 61 45 21 46 64 47 58 48 57 49 22 51 48 52 31 53 47 54 32 55
REMARK SMILES IDX 35 56 46 57 62 58 33 59 34 60 45 62 63 63 36 64 23 65 24 66
REMARK SMILES IDX 29 67 25 68 26 69 28 70 30 71 27 72 49 73 50 74 55 75 51 76
REMARK SMILES IDX 52 77 54 78 56 79 53 80 37 81 38 82 43 83 39 84 40 85 42 86
REMARK SMILES IDX 44 87 41 88
REMARK H PARENT 68 12 61 50 35 61
REMARK Flexibility Score: inf
ROOT
ATOM      1  C   UNL A   1      44.147  21.365  25.336  1.00  0.00     0.274 C 
ENDROOT
BRANCH   1   2
ATOM      2  O   UNL A   1      43.050  21.284  26.270  1.00  0.00    -0.460 OA
BRANCH   2   3
ATOM      3  C   UNL A   1      42.087  20.370  25.970  1.00  0.00     0.332 C 
ATOM      4  O   UNL A   1      42.277  19.310  25.384  1.00  0.00    -0.250 OA
BRANCH   3   5
ATOM      5  C   UNL A   1      40.699  20.798  26.464  1.00  0.00     0.283 C 
BRANCH   5   6
ATOM      6  O   UNL A   1      40.397  22.173  26.619  1.00  0.00    -0.358 OA
BRANCH   6   7
ATOM      7  C   UNL A   1      39.026  22.445  26.876  1.00  0.00     0.288 C 
BRANCH   7   8
ATOM      8  C   UNL A   1      38.302  23.618  26.163  1.00  0.00     0.333 C 
ATOM      9  O   UNL A   1      38.951  24.453  25.536  1.00  0.00    -0.244 OA
ATOM     10  N   UNL A   1      36.940  23.734  26.301  1.00  0.00    -0.202 N 
ATOM     11  C   UNL A   1      36.161  22.887  25.716  1.00  0.00     0.319 C 
ATOM     12  H   UNL A   1      36.559  24.460  26.847  1.00  0.00     0.316 HD
ATOM     13  S   UNL A   1      36.739  21.415  24.861  1.00  0.00    -0.029 SA
ATOM     14  N   UNL A   1      34.756  22.906  25.689  1.00  0.00    -0.217 N 
ATOM     15  C   UNL A   1      35.203  20.605  25.327  1.00  0.00     0.120 C 
ATOM     16  C   UNL A   1      34.192  21.717  25.015  1.00  0.00     0.212 C 
ATOM     17  C   UNL A   1      34.743  19.356  24.626  1.00  0.00     0.156 C 
ATOM     18  C   UNL A   1      32.877  21.127  25.467  1.00  0.00     0.188 C 
ATOM     19  S   UNL A   1      32.963  19.448  24.836  1.00  0.00     0.155 S 
ATOM     20  O   UNL A   1      32.568  18.546  25.898  1.00  0.00    -0.229 OA
ATOM     21  O   UNL A   1      32.354  19.422  23.526  1.00  0.00    -0.229 OA
BRANCH  14  22
ATOM     22  C   UNL A   1      33.998  24.097  25.650  1.00  0.00     0.128 A 
ATOM     23  C   UNL A   1      34.338  25.153  24.787  1.00  0.00     0.053 A 
ATOM     24  C   UNL A   1      32.885  24.291  26.488  1.00  0.00     0.053 A 
ATOM     25  C   UNL A   1      33.643  26.368  24.801  1.00  0.00     0.025 A 
ATOM     26  C   UNL A   1      32.178  25.502  26.501  1.00  0.00     0.025 A 
ATOM     27  C   UNL A   1      32.568  26.542  25.666  1.00  0.00     0.041 A 
ATOM     28  Cl  UNL A   1      31.730  28.042  25.696  1.00  0.00    -0.084 Cl
ENDBRANCH  14  22
ENDBRANCH   7   8
ENDBRANCH   6   7
ENDBRANCH   5   6
ENDBRANCH   3   5
ENDBRANCH   2   3
ENDBRANCH   1   2
BRANCH   1  29
ATOM     29  C   UNL A   1      43.980  22.577  24.421  1.00  0.00     0.275 C 
BRANCH  29  30
ATOM     30  O   UNL A   1      43.252  23.609  25.113  1.00  0.00    -0.458 OA
BRANCH  30  31
ATOM     31  C   UNL A   1      43.913  24.778  25.267  1.00  0.00     0.338 C 
ATOM     32  O   UNL A   1      44.870  25.175  24.626  1.00  0.00    -0.246 OA
BRANCH  31  33
ATOM     33  C   UNL A   1      43.300  25.565  26.352  1.00  0.00     0.060 A 
ATOM     34  C   UNL A   1      43.719  26.870  26.624  1.00  0.00     0.016 A 
ATOM     35  C   UNL A   1      42.367  24.939  27.178  1.00  0.00     0.016 A 
ATOM     36  C   UNL A   1      43.250  27.531  27.760  1.00  0.00     0.010 A 
ATOM     37  C   UNL A   1      41.840  25.629  28.269  1.00  0.00     0.010 A 
ATOM     38  C   UNL A   1      42.293  26.922  28.584  1.00  0.00    -0.014 A 
BRANCH  38  39
ATOM     39  C   UNL A   1      41.744  27.618  29.773  1.00  0.00     0.031 A 
ATOM     40  C   UNL A   1      40.522  28.484  29.646  1.00  0.00     0.074 A 
ATOM     41  C   UNL A   1      42.384  27.527  30.954  1.00  0.00     0.049 A 
ATOM     42  N   UNL A   1      40.013  29.328  30.508  1.00  0.00    -0.248 NA
ATOM     43  C   UNL A   1      39.784  28.399  28.377  1.00  0.00     0.031 C 
ATOM     44  C   UNL A   1      43.564  26.702  31.215  1.00  0.00     0.029 A 
ATOM     45  N   UNL A   1      42.140  28.151  32.152  1.00  0.00    -0.354 N 
ATOM     46  C   UNL A   1      38.923  29.910  29.871  1.00  0.00     0.074 A 
ATOM     47  C   UNL A   1      38.850  29.325  28.548  1.00  0.00     0.031 C 
ATOM     48  C   UNL A   1      43.937  26.862  32.495  1.00  0.00     0.029 A 
ATOM     49  C   UNL A   1      43.066  27.850  33.122  1.00  0.00     0.049 A 
ATOM     50  H   UNL A   1      41.378  28.754  32.302  1.00  0.00     0.167 HD
ATOM     51  C   UNL A   1      38.066  30.844  30.350  1.00  0.00     0.037 A 
ATOM     52  C   UNL A   1      43.220  28.343  34.364  1.00  0.00     0.037 A 
ATOM     53  C   UNL A   1      38.127  31.396  31.680  1.00  0.00     0.049 A 
ATOM     54  C   UNL A   1      42.284  29.408  34.855  1.00  0.00     0.074 A 
ATOM     55  C   UNL A   1      37.278  32.315  32.272  1.00  0.00     0.029 A 
ATOM     56  N   UNL A   1      39.089  31.075  32.627  1.00  0.00    -0.354 N 
ATOM     57  N   UNL A   1      41.265  29.960  34.243  1.00  0.00    -0.248 NA
ATOM     58  C   UNL A   1      42.529  29.930  36.207  1.00  0.00     0.031 C 
ATOM     59  C   UNL A   1      37.749  32.581  33.564  1.00  0.00     0.029 A 
ATOM     60  C   UNL A   1      38.867  31.795  33.791  1.00  0.00     0.049 A 
ATOM     61  H   UNL A   1      39.821  30.432  32.492  1.00  0.00     0.167 HD
ATOM     62  C   UNL A   1      40.735  30.877  35.139  1.00  0.00     0.074 A 
ATOM     63  C   UNL A   1      41.538  30.799  36.342  1.00  0.00     0.031 C 
ATOM     64  C   UNL A   1      39.676  31.707  34.979  1.00  0.00     0.037 A 
BRANCH  51  65
ATOM     65  C   UNL A   1      37.005  31.353  29.419  1.00  0.00     0.057 A 
ATOM     66  C   UNL A   1      37.084  32.616  28.819  1.00  0.00     0.134 A 
ATOM     67  C   UNL A   1      35.904  30.552  29.092  1.00  0.00     0.134 A 
ATOM     68  F   UNL A   1      38.107  33.440  29.098  1.00  0.00    -0.206 F 
ATOM     69  C   UNL A   1      36.096  33.072  27.944  1.00  0.00     0.040 A 
ATOM     70  C   UNL A   1      34.923  30.986  28.199  1.00  0.00     0.040 A 
ATOM     71  F   UNL A   1      35.769  29.328  29.625  1.00  0.00    -0.206 F 
ATOM     72  C   UNL A   1      35.014  32.252  27.627  1.00  0.00     0.006 A 
ENDBRANCH  51  65
BRANCH  52  73
ATOM     73  C   UNL A   1      44.318  27.838  35.223  1.00  0.00     0.057 A 
ATOM     74  C   UNL A   1      45.591  28.416  35.172  1.00  0.00     0.134 A 
ATOM     75  C   UNL A   1      44.119  26.786  36.126  1.00  0.00     0.134 A 
ATOM     76  F   UNL A   1      45.845  29.412  34.312  1.00  0.00    -0.206 F 
ATOM     77  C   UNL A   1      46.631  27.962  35.985  1.00  0.00     0.040 A 
ATOM     78  C   UNL A   1      45.144  26.339  36.961  1.00  0.00     0.040 A 
ATOM     79  F   UNL A   1      42.921  26.193  36.222  1.00  0.00    -0.206 F 
ATOM     80  C   UNL A   1      46.405  26.927  36.890  1.00  0.00     0.006 A 
ENDBRANCH  52  73
BRANCH  64  81
ATOM     81  C   UNL A   1      39.312  32.571  36.149  1.00  0.00     0.057 A 
ATOM     82  C   UNL A   1      38.389  32.155  37.117  1.00  0.00     0.134 A 
ATOM     83  C   UNL A   1      39.901  33.832  36.315  1.00  0.00     0.134 A 
ATOM     84  F   UNL A   1      37.777  30.967  37.006  1.00  0.00    -0.206 F 
ATOM     85  C   UNL A   1      38.045  32.973  38.195  1.00  0.00     0.040 A 
ATOM     86  C   UNL A   1      39.583  34.648  37.401  1.00  0.00     0.040 A 
ATOM     87  F   UNL A   1      40.797  34.287  35.426  1.00  0.00    -0.206 F 
ATOM     88  C   UNL A   1      38.647  34.223  38.341  1.00  0.00     0.006 A 
ENDBRANCH  64  81
ENDBRANCH  38  39
ENDBRANCH  31  33
ENDBRANCH  30  31
ENDBRANCH  29  30
ENDBRANCH   1  29
TORSDOF 15
ENDMDL
MODEL 3
REMARK VINA RESULT:      -9.7      5.651     10.496
REMARK SMILES O=C(COCC(=O)OCCOC(=O)c1ccc(-c2c3nc(c(-c4c(F)cccc4F)c4ccc([nH]4)c(-c4c(F)cccc4F)c4nc(c(-c5c(F)cccc5F)c5ccc2[nH]5)C=C4)C=C3)cc1)/[NH+]=C1\S[C@@H]2CS(=O)(=O)C[C@H]2N1c1ccc(Cl)cc1
REMARK SMILES IDX 9 1 8 2 6 3 7 4 5 5 4 6 3 7 2 8 1 9 68 10 69 11 70 13 78 14
REMARK SMILES IDX 71 15 77 16 72 17 76 18 73 19 74 20 75 21 79 22 80 23 85 24
REMARK SMILES IDX 81 25 84 26 82 27 83 28 10 29 11 30 12 31 13 32 14 33 15 34
REMARK SMILES IDX 67 35 16 36 66 37 17 38 18 39 19 40 60 41 20 42 65 43 59 44
REMARK SMILES IDX 61 45 21 46 64 47 58 48 57 49 22 51 48 52 31 53 47 54 32 55
REMARK SMILES IDX 35 56 46 57 62 58 33 59 34 60 45 62 63 63 36 64 23 65 24 66
REMARK SMILES IDX 29 67 25 68 26 69 28 70 30 71 27 72 49 73 50 74 55 75 51 76
REMARK SMILES IDX 52 77 54 78 56 79 53 80 37 81 38 82 43 83 39 84 40 85 42 86
REMARK SMILES IDX 44 87 41 88
REMARK H PARENT 68 12 61 50 35 61
REMARK Flexibility Score: inf
ROOT
ATOM      1  C   UNL A   1      31.951  27.974  24.791  1.00  0.00     0.274 C 
ENDROOT
BRANCH   1   2
ATOM      2  O   UNL A   1      31.831  27.776  23.367  1.00  0.00    -0.460 OA
BRANCH   2   3
ATOM      3  C   UNL A   1      32.998  27.548  22.704  1.00  0.00     0.332 C 
ATOM      4  O   UNL A   1      34.036  28.181  22.862  1.00  0.00    -0.250 OA
BRANCH   3   5
ATOM      5  C   UNL A   1      32.892  26.379  21.717  1.00  0.00     0.283 C 
BRANCH   5   6
ATOM      6  O   UNL A   1      33.643  25.199  21.936  1.00  0.00    -0.358 OA
BRANCH   6   7
ATOM      7  C   UNL A   1      33.378  24.561  23.179  1.00  0.00     0.288 C 
BRANCH   7   8
ATOM      8  C   UNL A   1      34.480  24.454  24.267  1.00  0.00     0.333 C 
ATOM      9  O   UNL A   1      34.619  25.355  25.092  1.00  0.00    -0.244 OA
ATOM     10  N   UNL A   1      35.324  23.371  24.247  1.00  0.00    -0.202 N 
ATOM     11  C   UNL A   1      34.879  22.204  24.572  1.00  0.00     0.319 C 
ATOM     12  H   UNL A   1      36.267  23.484  23.984  1.00  0.00     0.316 HD
ATOM     13  S   UNL A   1      33.145  21.839  24.879  1.00  0.00    -0.029 SA
ATOM     14  N   UNL A   1      35.619  21.014  24.680  1.00  0.00    -0.217 N 
ATOM     15  C   UNL A   1      33.440  20.177  24.261  1.00  0.00     0.120 C 
ATOM     16  C   UNL A   1      34.762  19.845  24.967  1.00  0.00     0.212 C 
ATOM     17  C   UNL A   1      32.472  19.061  24.550  1.00  0.00     0.156 C 
ATOM     18  C   UNL A   1      35.113  18.480  24.422  1.00  0.00     0.188 C 
ATOM     19  S   UNL A   1      33.538  17.618  24.477  1.00  0.00     0.155 S 
ATOM     20  O   UNL A   1      33.342  16.954  23.205  1.00  0.00    -0.229 OA
ATOM     21  O   UNL A   1      33.442  16.924  25.741  1.00  0.00    -0.229 OA
BRANCH  14  22
ATOM     22  C   UNL A   1      36.954  20.971  25.138  1.00  0.00     0.128 A 
ATOM     23  C   UNL A   1      37.556  22.087  25.743  1.00  0.00     0.053 A 
ATOM     24  C   UNL A   1      37.749  19.821  24.988  1.00  0.00     0.053 A 
ATOM     25  C   UNL A   1      38.903  22.081  26.126  1.00  0.00     0.025 A 
ATOM     26  C   UNL A   1      39.097  19.803  25.377  1.00  0.00     0.025 A 
ATOM     27  C   UNL A   1      39.673  20.939  25.932  1.00  0.00     0.041 A 
ATOM     28  Cl  UNL A   1      41.332  20.941  26.383  1.00  0.00    -0.084 Cl
ENDBRANCH  14  22
ENDBRANCH   7   8
ENDBRANCH   6   7
ENDBRANCH   5   6
ENDBRANCH   3   5
ENDBRANCH   2   3
ENDBRANCH   1   2
BRANCH   1  29
ATOM     29  C   UNL A   1      31.697  29.438  25.148  1.00  0.00     0.275 C 
BRANCH  29  30
ATOM     30  O   UNL A   1      32.934  30.062  25.540  1.00  0.00    -0.458 OA
BRANCH  30  31
ATOM     31  C   UNL A   1      32.848  30.908  26.592  1.00  0.00     0.338 C 
ATOM     32  O   UNL A   1      31.938  31.677  26.846  1.00  0.00    -0.246 OA
BRANCH  31  33
ATOM     33  C   UNL A   1      34.040  30.773  27.447  1.00  0.00     0.060 A 
ATOM     34  C   UNL A   1      34.810  31.887  27.794  1.00  0.00     0.016 A 
ATOM     35  C   UNL A   1      34.453  29.492  27.810  1.00  0.00     0.016 A 
ATOM     36  C   UNL A   1      36.026  31.715  28.456  1.00  0.00     0.010 A 
ATOM     37  C   UNL A   1      35.630  29.328  28.539  1.00  0.00     0.010 A 
ATOM     38  C   UNL A   1      36.440  30.435  28.848  1.00  0.00    -0.014 A 
BRANCH  38  39
ATOM     39  C   UNL A   1      37.707  30.227  29.592  1.00  0.00     0.031 A 
ATOM     40  C   UNL A   1      38.794  29.368  29.011  1.00  0.00     0.074 A 
ATOM     41  C   UNL A   1      37.853  30.758  30.821  1.00  0.00     0.049 A 
ATOM     42  N   UNL A   1      39.875  28.901  29.585  1.00  0.00    -0.248 NA
ATOM     43  C   UNL A   1      38.635  28.966  27.605  1.00  0.00     0.031 C 
ATOM     44  C   UNL A   1      36.885  31.630  31.487  1.00  0.00     0.029 A 
ATOM     45  N   UNL A   1      38.867  30.624  31.736  1.00  0.00    -0.354 N 
ATOM     46  C   UNL A   1      40.504  28.116  28.626  1.00  0.00     0.074 A 
ATOM     47  C   UNL A   1      39.677  28.163  27.437  1.00  0.00     0.031 C 
ATOM     48  C   UNL A   1      37.354  31.962  32.699  1.00  0.00     0.029 A 
ATOM     49  C   UNL A   1      38.621  31.273  32.921  1.00  0.00     0.049 A 
ATOM     50  H   UNL A   1      39.690  30.114  31.560  1.00  0.00     0.167 HD
ATOM     51  C   UNL A   1      41.662  27.421  28.732  1.00  0.00     0.037 A 
ATOM     52  C   UNL A   1      39.316  31.280  34.074  1.00  0.00     0.037 A 
ATOM     53  C   UNL A   1      42.495  27.406  29.908  1.00  0.00     0.049 A 
ATOM     54  C   UNL A   1      40.573  30.468  34.180  1.00  0.00     0.074 A 
ATOM     55  C   UNL A   1      43.708  26.766  30.098  1.00  0.00     0.029 A 
ATOM     56  N   UNL A   1      42.202  28.064  31.094  1.00  0.00    -0.354 N 
ATOM     57  N   UNL A   1      41.153  29.719  33.274  1.00  0.00    -0.248 NA
ATOM     58  C   UNL A   1      41.265  30.490  35.476  1.00  0.00     0.031 C 
ATOM     59  C   UNL A   1      44.130  27.006  31.412  1.00  0.00     0.029 A 
ATOM     60  C   UNL A   1      43.201  27.829  32.026  1.00  0.00     0.049 A 
ATOM     61  H   UNL A   1      41.403  28.616  31.249  1.00  0.00     0.167 HD
ATOM     62  C   UNL A   1      42.286  29.198  33.880  1.00  0.00     0.074 A 
ATOM     63  C   UNL A   1      42.319  29.725  35.229  1.00  0.00     0.031 C 
ATOM     64  C   UNL A   1      43.218  28.359  33.365  1.00  0.00     0.037 A 
BRANCH  51  65
ATOM     65  C   UNL A   1      42.085  26.592  27.554  1.00  0.00     0.057 A 
ATOM     66  C   UNL A   1      41.709  25.251  27.414  1.00  0.00     0.134 A 
ATOM     67  C   UNL A   1      42.851  27.158  26.527  1.00  0.00     0.134 A 
ATOM     68  F   UNL A   1      40.985  24.643  28.367  1.00  0.00    -0.206 F 
ATOM     69  C   UNL A   1      42.098  24.496  26.305  1.00  0.00     0.040 A 
ATOM     70  C   UNL A   1      43.225  26.421  25.402  1.00  0.00     0.040 A 
ATOM     71  F   UNL A   1      43.239  28.441  26.594  1.00  0.00    -0.206 F 
ATOM     72  C   UNL A   1      42.853  25.083  25.292  1.00  0.00     0.006 A 
ENDBRANCH  51  65
BRANCH  52  73
ATOM     73  C   UNL A   1      38.825  32.078  35.223  1.00  0.00     0.057 A 
ATOM     74  C   UNL A   1      38.153  31.464  36.285  1.00  0.00     0.134 A 
ATOM     75  C   UNL A   1      39.030  33.461  35.298  1.00  0.00     0.134 A 
ATOM     76  F   UNL A   1      37.908  30.146  36.258  1.00  0.00    -0.206 F 
ATOM     77  C   UNL A   1      37.698  32.199  37.382  1.00  0.00     0.040 A 
ATOM     78  C   UNL A   1      38.602  34.203  36.399  1.00  0.00     0.040 A 
ATOM     79  F   UNL A   1      39.670  34.105  34.311  1.00  0.00    -0.206 F 
ATOM     80  C   UNL A   1      37.931  33.571  37.444  1.00  0.00     0.006 A 
ENDBRANCH  52  73
BRANCH  64  81
ATOM     81  C   UNL A   1      44.365  27.992  34.258  1.00  0.00     0.057 A 
ATOM     82  C   UNL A   1      44.334  26.850  35.069  1.00  0.00     0.134 A 
ATOM     83  C   UNL A   1      45.519  28.785  34.299  1.00  0.00     0.134 A 
ATOM     84  F   UNL A   1      43.250  26.059  35.087  1.00  0.00    -0.206 F 
ATOM     85  C   UNL A   1      45.400  26.524  35.909  1.00  0.00     0.040 A 
ATOM     86  C   UNL A   1      46.600  28.457  35.118  1.00  0.00     0.040 A 
ATOM     87  F   UNL A   1      45.613  29.889  33.543  1.00  0.00    -0.206 F 
ATOM     88  C   UNL A   1      46.540  27.328  35.931  1.00  0.00     0.006 A 
ENDBRANCH  64  81
ENDBRANCH  38  39
ENDBRANCH  31  33
ENDBRANCH  30  31
ENDBRANCH  29  30
ENDBRANCH   1  29
TORSDOF 15
ENDMDL
