MODEL 1
REMARK VINA RESULT:     -10.6      0.000      0.000
REMARK SMILES Cc1ccc(CNC(=O)NC[C@@H](CC(C)C)C(=O)OCCOC(=O)c2ccc(-c3c4nc(c(-c5c(F)cccc5F)c5ccc([nH]5)c(-c5c(F)cccc5F)c5nc(c(-c6c(F)cccc6F)c6ccc3[nH]6)C=C5)C=C4)cc2)s1
REMARK SMILES IDX 20 1 19 2 17 3 18 4 12 5 11 6 10 7 7 8 8 9 9 11 6 13 5 14
REMARK SMILES IDX 1 15 2 16 3 17 79 18 4 19 13 20 14 21 15 22 16 23 21 24
REMARK SMILES IDX 22 25 23 26 24 27 25 28 26 29 78 30 27 31 77 32 28 33 29 34
REMARK SMILES IDX 30 35 71 36 31 37 76 38 70 39 72 40 32 41 75 42 69 43 68 44
REMARK SMILES IDX 33 46 59 47 42 48 58 49 43 50 46 51 57 52 73 53 44 54 45 55
REMARK SMILES IDX 56 57 74 58 47 59 34 60 35 61 40 62 36 63 37 64 39 65 41 66
REMARK SMILES IDX 38 67 60 68 61 69 66 70 62 71 63 72 65 73 67 74 64 75 48 76
REMARK SMILES IDX 49 77 54 78 50 79 51 80 53 81 55 82 52 83
REMARK H PARENT 7 10 10 12 72 45 46 56
REMARK Flexibility Score: inf
ROOT
ATOM      1  C   UNL A   1      31.290  29.061  24.455  1.00  0.00     0.274 C 
ENDROOT
BRANCH   1   2
ATOM      2  O   UNL A   1      30.745  27.859  25.038  1.00  0.00    -0.462 OA
BRANCH   2   3
ATOM      3  C   UNL A   1      30.304  26.920  24.163  1.00  0.00     0.310 C 
ATOM      4  O   UNL A   1      29.214  26.957  23.600  1.00  0.00    -0.252 OA
BRANCH   3   5
ATOM      5  C   UNL A   1      31.271  25.766  23.963  1.00  0.00     0.119 C 
BRANCH   5   6
ATOM      6  C   UNL A   1      30.651  24.367  24.068  1.00  0.00     0.133 C 
BRANCH   6   7
ATOM      7  N   UNL A   1      30.308  24.055  25.455  1.00  0.00    -0.337 N 
ATOM      8  N   UNL A   1      31.446  22.086  26.128  1.00  0.00    -0.333 N 
ATOM      9  C   UNL A   1      30.643  23.125  26.354  1.00  0.00     0.315 C 
ATOM     10  H   UNL A   1      31.623  21.559  26.940  1.00  0.00     0.165 HD
ATOM     11  O   UNL A   1      30.165  23.240  27.486  1.00  0.00    -0.249 OA
ATOM     12  H   UNL A   1      29.661  24.700  25.822  1.00  0.00     0.165 HD
BRANCH   8  13
ATOM     13  C   UNL A   1      32.113  21.557  24.965  1.00  0.00     0.164 C 
BRANCH  13  14
ATOM     14  C   UNL A   1      33.453  22.191  24.733  1.00  0.00     0.024 A 
ATOM     15  C   UNL A   1      37.004  23.703  25.473  1.00  0.00     0.056 C 
ATOM     16  C   UNL A   1      35.708  23.201  24.940  1.00  0.00     0.002 A 
ATOM     17  C   UNL A   1      35.261  23.193  23.637  1.00  0.00     0.015 A 
ATOM     18  S   UNL A   1      34.546  22.541  26.007  1.00  0.00    -0.144 S 
ATOM     19  C   UNL A   1      33.966  22.614  23.518  1.00  0.00     0.017 A 
ENDBRANCH  13  14
ENDBRANCH   8  13
ENDBRANCH   6   7
ENDBRANCH   5   6
BRANCH   5  20
ATOM     20  C   UNL A   1      32.146  26.006  22.713  1.00  0.00     0.020 C 
BRANCH  20  21
ATOM     21  C   UNL A   1      33.611  26.454  22.910  1.00  0.00    -0.017 C 
ATOM     22  C   UNL A   1      33.915  27.840  22.341  1.00  0.00     0.007 C 
ATOM     23  C   UNL A   1      33.943  26.448  24.408  1.00  0.00     0.007 C 
ENDBRANCH  20  21
ENDBRANCH   5  20
ENDBRANCH   3   5
ENDBRANCH   2   3
ENDBRANCH   1   2
BRANCH   1  24
ATOM     24  C   UNL A   1      31.416  30.193  25.476  1.00  0.00     0.275 C 
BRANCH  24  25
ATOM     25  O   UNL A   1      32.530  29.982  26.363  1.00  0.00    -0.458 OA
BRANCH  25  26
ATOM     26  C   UNL A   1      32.971  31.102  26.973  1.00  0.00     0.338 C 
ATOM     27  O   UNL A   1      32.355  32.140  27.152  1.00  0.00    -0.246 OA
BRANCH  26  28
ATOM     28  C   UNL A   1      34.310  30.888  27.532  1.00  0.00     0.060 A 
ATOM     29  C   UNL A   1      34.728  29.573  27.750  1.00  0.00     0.016 A 
ATOM     30  C   UNL A   1      35.085  31.964  27.960  1.00  0.00     0.016 A 
ATOM     31  C   UNL A   1      35.919  29.321  28.419  1.00  0.00     0.010 A 
ATOM     32  C   UNL A   1      36.286  31.712  28.627  1.00  0.00     0.010 A 
ATOM     33  C   UNL A   1      36.697  30.390  28.876  1.00  0.00    -0.014 A 
BRANCH  33  34
ATOM     34  C   UNL A   1      37.911  30.122  29.675  1.00  0.00     0.031 A 
ATOM     35  C   UNL A   1      39.000  29.264  29.104  1.00  0.00     0.074 A 
ATOM     36  C   UNL A   1      38.041  30.668  30.896  1.00  0.00     0.049 A 
ATOM     37  N   UNL A   1      40.096  28.832  29.670  1.00  0.00    -0.248 NA
ATOM     38  C   UNL A   1      38.831  28.836  27.706  1.00  0.00     0.031 C 
ATOM     39  C   UNL A   1      37.076  31.567  31.527  1.00  0.00     0.029 A 
ATOM     40  N   UNL A   1      39.043  30.542  31.823  1.00  0.00    -0.354 N 
ATOM     41  C   UNL A   1      40.740  28.067  28.709  1.00  0.00     0.074 A 
ATOM     42  C   UNL A   1      39.908  28.085  27.524  1.00  0.00     0.031 C 
ATOM     43  C   UNL A   1      37.532  31.910  32.743  1.00  0.00     0.029 A 
ATOM     44  C   UNL A   1      38.798  31.225  32.988  1.00  0.00     0.049 A 
ATOM     45  H   UNL A   1      39.859  30.013  31.669  1.00  0.00     0.167 HD
ATOM     46  C   UNL A   1      41.918  27.408  28.807  1.00  0.00     0.037 A 
ATOM     47  C   UNL A   1      39.506  31.269  34.131  1.00  0.00     0.037 A 
ATOM     48  C   UNL A   1      42.745  27.398  29.984  1.00  0.00     0.049 A 
ATOM     49  C   UNL A   1      40.782  30.484  34.236  1.00  0.00     0.074 A 
ATOM     50  C   UNL A   1      43.950  26.748  30.192  1.00  0.00     0.029 A 
ATOM     51  N   UNL A   1      42.451  28.079  31.156  1.00  0.00    -0.354 N 
ATOM     52  N   UNL A   1      41.366  29.733  33.334  1.00  0.00    -0.248 NA
ATOM     53  C   UNL A   1      41.492  30.544  35.521  1.00  0.00     0.031 C 
ATOM     54  C   UNL A   1      44.370  27.016  31.500  1.00  0.00     0.029 A 
ATOM     55  C   UNL A   1      43.444  27.858  32.095  1.00  0.00     0.049 A 
ATOM     56  H   UNL A   1      41.652  28.638  31.300  1.00  0.00     0.167 HD
ATOM     57  C   UNL A   1      42.519  29.246  33.933  1.00  0.00     0.074 A 
ATOM     58  C   UNL A   1      42.558  29.794  35.274  1.00  0.00     0.031 C 
ATOM     59  C   UNL A   1      43.462  28.418  33.421  1.00  0.00     0.037 A 
BRANCH  46  60
ATOM     60  C   UNL A   1      42.359  26.616  27.614  1.00  0.00     0.057 A 
ATOM     61  C   UNL A   1      42.012  25.270  27.453  1.00  0.00     0.134 A 
ATOM     62  C   UNL A   1      43.139  27.210  26.613  1.00  0.00     0.134 A 
ATOM     63  F   UNL A   1      41.284  24.639  28.387  1.00  0.00    -0.206 F 
ATOM     64  C   UNL A   1      42.441  24.534  26.346  1.00  0.00     0.040 A 
ATOM     65  C   UNL A   1      43.559  26.491  25.494  1.00  0.00     0.040 A 
ATOM     66  F   UNL A   1      43.508  28.496  26.711  1.00  0.00    -0.206 F 
ATOM     67  C   UNL A   1      43.214  25.147  25.360  1.00  0.00     0.006 A 
ENDBRANCH  46  60
BRANCH  47  68
ATOM     68  C   UNL A   1      39.013  32.077  35.272  1.00  0.00     0.057 A 
ATOM     69  C   UNL A   1      39.285  33.446  35.357  1.00  0.00     0.134 A 
ATOM     70  C   UNL A   1      38.256  31.501  36.299  1.00  0.00     0.134 A 
ATOM     71  F   UNL A   1      40.024  34.046  34.413  1.00  0.00    -0.206 F 
ATOM     72  C   UNL A   1      38.827  34.215  36.427  1.00  0.00     0.040 A 
ATOM     73  C   UNL A   1      37.775  32.261  37.365  1.00  0.00     0.040 A 
ATOM     74  F   UNL A   1      37.963  30.192  36.272  1.00  0.00    -0.206 F 
ATOM     75  C   UNL A   1      38.065  33.624  37.432  1.00  0.00     0.006 A 
ENDBRANCH  47  68
BRANCH  59  76
ATOM     76  C   UNL A   1      44.624  28.085  34.305  1.00  0.00     0.057 A 
ATOM     77  C   UNL A   1      44.616  26.958  35.136  1.00  0.00     0.134 A 
ATOM     78  C   UNL A   1      45.773  28.886  34.305  1.00  0.00     0.134 A 
ATOM     79  F   UNL A   1      43.538  26.161  35.190  1.00  0.00    -0.206 F 
ATOM     80  C   UNL A   1      45.706  26.648  35.949  1.00  0.00     0.040 A 
ATOM     81  C   UNL A   1      46.876  28.576  35.100  1.00  0.00     0.040 A 
ATOM     82  F   UNL A   1      45.842  29.977  33.527  1.00  0.00    -0.206 F 
ATOM     83  C   UNL A   1      46.843  27.456  35.929  1.00  0.00     0.006 A 
ENDBRANCH  59  76
ENDBRANCH  33  34
ENDBRANCH  26  28
ENDBRANCH  25  26
ENDBRANCH  24  25
ENDBRANCH   1  24
TORSDOF 17
ENDMDL
MODEL 2
REMARK VINA RESULT:     -10.5      3.476      7.203
REMARK SMILES Cc1ccc(CNC(=O)NC[C@@H](CC(C)C)C(=O)OCCOC(=O)c2ccc(-c3c4nc(c(-c5c(F)cccc5F)c5ccc([nH]5)c(-c5c(F)cccc5F)c5nc(c(-c6c(F)cccc6F)c6ccc3[nH]6)C=C5)C=C4)cc2)s1
REMARK SMILES IDX 20 1 19 2 17 3 18 4 12 5 11 6 10 7 7 8 8 9 9 11 6 13 5 14
REMARK SMILES IDX 1 15 2 16 3 17 79 18 4 19 13 20 14 21 15 22 16 23 21 24
REMARK SMILES IDX 22 25 23 26 24 27 25 28 26 29 78 30 27 31 77 32 28 33 29 34
REMARK SMILES IDX 30 35 71 36 31 37 76 38 70 39 72 40 32 41 75 42 69 43 68 44
REMARK SMILES IDX 33 46 59 47 42 48 58 49 43 50 46 51 57 52 73 53 44 54 45 55
REMARK SMILES IDX 56 57 74 58 47 59 34 60 35 61 40 62 36 63 37 64 39 65 41 66
REMARK SMILES IDX 38 67 60 68 61 69 66 70 62 71 63 72 65 73 67 74 64 75 48 76
REMARK SMILES IDX 49 77 54 78 50 79 51 80 53 81 55 82 52 83
REMARK H PARENT 7 10 10 12 72 45 46 56
REMARK Flexibility Score: inf
ROOT
ATOM      1  C   UNL A   1      32.886  29.504  25.535  1.00  0.00     0.274 C 
ENDROOT
BRANCH   1   2
ATOM      2  O   UNL A   1      31.937  28.682  24.824  1.00  0.00    -0.462 OA
BRANCH   2   3
ATOM      3  C   UNL A   1      32.097  28.614  23.479  1.00  0.00     0.310 C 
ATOM      4  O   UNL A   1      33.102  28.986  22.882  1.00  0.00    -0.252 OA
BRANCH   3   5
ATOM      5  C   UNL A   1      30.884  28.069  22.745  1.00  0.00     0.119 C 
BRANCH   5   6
ATOM      6  C   UNL A   1      30.958  26.584  22.371  1.00  0.00     0.133 C 
BRANCH   6   7
ATOM      7  N   UNL A   1      31.802  26.388  21.192  1.00  0.00    -0.337 N 
ATOM      8  N   UNL A   1      32.891  24.286  21.338  1.00  0.00    -0.333 N 
ATOM      9  C   UNL A   1      32.601  25.429  20.716  1.00  0.00     0.315 C 
ATOM     10  H   UNL A   1      33.440  23.683  20.789  1.00  0.00     0.165 HD
ATOM     11  O   UNL A   1      33.114  25.621  19.611  1.00  0.00    -0.249 OA
ATOM     12  H   UNL A   1      31.773  27.168  20.592  1.00  0.00     0.165 HD
BRANCH   8  13
ATOM     13  C   UNL A   1      32.584  23.733  22.634  1.00  0.00     0.164 C 
BRANCH  13  14
ATOM     14  C   UNL A   1      33.665  23.992  23.640  1.00  0.00     0.024 A 
ATOM     15  C   UNL A   1      37.108  23.725  25.517  1.00  0.00     0.056 C 
ATOM     16  C   UNL A   1      35.739  23.998  25.000  1.00  0.00     0.002 A 
ATOM     17  C   UNL A   1      34.790  24.865  25.497  1.00  0.00     0.015 A 
ATOM     18  S   UNL A   1      35.169  23.167  23.619  1.00  0.00    -0.144 S 
ATOM     19  C   UNL A   1      33.599  24.860  24.717  1.00  0.00     0.017 A 
ENDBRANCH  13  14
ENDBRANCH   8  13
ENDBRANCH   6   7
ENDBRANCH   5   6
BRANCH   5  20
ATOM     20  C   UNL A   1      29.583  28.505  23.455  1.00  0.00     0.020 C 
BRANCH  20  21
ATOM     21  C   UNL A   1      28.919  29.834  23.034  1.00  0.00    -0.017 C 
ATOM     22  C   UNL A   1      29.331  30.317  21.644  1.00  0.00     0.007 C 
ATOM     23  C   UNL A   1      27.394  29.670  23.073  1.00  0.00     0.007 C 
ENDBRANCH  20  21
ENDBRANCH   5  20
ENDBRANCH   3   5
ENDBRANCH   2   3
ENDBRANCH   1   2
BRANCH   1  24
ATOM     24  C   UNL A   1      34.013  28.678  26.158  1.00  0.00     0.275 C 
BRANCH  24  25
ATOM     25  O   UNL A   1      34.105  28.899  27.577  1.00  0.00    -0.458 OA
BRANCH  25  26
ATOM     26  C   UNL A   1      34.672  30.075  27.919  1.00  0.00     0.338 C 
ATOM     27  O   UNL A   1      34.123  31.160  28.022  1.00  0.00    -0.246 OA
BRANCH  26  28
ATOM     28  C   UNL A   1      36.079  29.879  28.284  1.00  0.00     0.060 A 
ATOM     29  C   UNL A   1      37.049  30.099  27.302  1.00  0.00     0.016 A 
ATOM     30  C   UNL A   1      36.427  29.358  29.528  1.00  0.00     0.016 A 
ATOM     31  C   UNL A   1      38.378  29.778  27.550  1.00  0.00     0.010 A 
ATOM     32  C   UNL A   1      37.765  29.043  29.781  1.00  0.00     0.010 A 
ATOM     33  C   UNL A   1      38.741  29.233  28.786  1.00  0.00    -0.014 A 
BRANCH  33  34
ATOM     34  C   UNL A   1      40.135  28.799  29.012  1.00  0.00     0.031 A 
ATOM     35  C   UNL A   1      41.105  29.734  29.668  1.00  0.00     0.074 A 
ATOM     36  C   UNL A   1      40.516  27.561  28.652  1.00  0.00     0.049 A 
ATOM     37  N   UNL A   1      42.388  29.587  29.873  1.00  0.00    -0.248 NA
ATOM     38  C   UNL A   1      40.556  31.008  30.160  1.00  0.00     0.031 C 
ATOM     39  C   UNL A   1      39.644  26.546  28.063  1.00  0.00     0.029 A 
ATOM     40  N   UNL A   1      41.741  26.952  28.729  1.00  0.00    -0.354 N 
ATOM     41  C   UNL A   1      42.806  30.752  30.500  1.00  0.00     0.074 A 
ATOM     42  C   UNL A   1      41.642  31.603  30.634  1.00  0.00     0.031 C 
ATOM     43  C   UNL A   1      40.364  25.437  27.829  1.00  0.00     0.029 A 
ATOM     44  C   UNL A   1      41.752  25.680  28.214  1.00  0.00     0.049 A 
ATOM     45  H   UNL A   1      42.537  27.385  29.116  1.00  0.00     0.167 HD
ATOM     46  C   UNL A   1      44.048  31.082  30.923  1.00  0.00     0.037 A 
ATOM     47  C   UNL A   1      42.774  24.821  28.051  1.00  0.00     0.037 A 
ATOM     48  C   UNL A   1      45.200  30.230  30.793  1.00  0.00     0.049 A 
ATOM     49  C   UNL A   1      44.154  25.231  28.476  1.00  0.00     0.074 A 
ATOM     50  C   UNL A   1      46.508  30.477  31.176  1.00  0.00     0.029 A 
ATOM     51  N   UNL A   1      45.179  28.958  30.241  1.00  0.00    -0.354 N 
ATOM     52  N   UNL A   1      44.548  26.350  29.034  1.00  0.00    -0.248 NA
ATOM     53  C   UNL A   1      45.235  24.263  28.239  1.00  0.00     0.031 C 
ATOM     54  C   UNL A   1      47.281  29.362  30.829  1.00  0.00     0.029 A 
ATOM     55  C   UNL A   1      46.450  28.410  30.261  1.00  0.00     0.049 A 
ATOM     56  H   UNL A   1      44.377  28.510  29.885  1.00  0.00     0.167 HD
ATOM     57  C   UNL A   1      45.915  26.215  29.233  1.00  0.00     0.074 A 
ATOM     58  C   UNL A   1      46.282  24.902  28.743  1.00  0.00     0.031 C 
ATOM     59  C   UNL A   1      46.789  27.100  29.772  1.00  0.00     0.037 A 
BRANCH  46  60
ATOM     60  C   UNL A   1      44.224  32.438  31.535  1.00  0.00     0.057 A 
ATOM     61  C   UNL A   1      44.044  32.658  32.906  1.00  0.00     0.134 A 
ATOM     62  C   UNL A   1      44.580  33.536  30.743  1.00  0.00     0.134 A 
ATOM     63  F   UNL A   1      43.682  31.650  33.715  1.00  0.00    -0.206 F 
ATOM     64  C   UNL A   1      44.193  33.929  33.465  1.00  0.00     0.040 A 
ATOM     65  C   UNL A   1      44.750  34.807  31.293  1.00  0.00     0.040 A 
ATOM     66  F   UNL A   1      44.764  33.392  29.422  1.00  0.00    -0.206 F 
ATOM     67  C   UNL A   1      44.551  35.007  32.658  1.00  0.00     0.006 A 
ENDBRANCH  46  60
BRANCH  47  68
ATOM     68  C   UNL A   1      42.529  23.492  27.441  1.00  0.00     0.057 A 
ATOM     69  C   UNL A   1      42.196  22.387  28.232  1.00  0.00     0.134 A 
ATOM     70  C   UNL A   1      42.615  23.297  26.058  1.00  0.00     0.134 A 
ATOM     71  F   UNL A   1      42.120  22.510  29.565  1.00  0.00    -0.206 F 
ATOM     72  C   UNL A   1      41.964  21.132  27.670  1.00  0.00     0.040 A 
ATOM     73  C   UNL A   1      42.368  22.052  25.480  1.00  0.00     0.040 A 
ATOM     74  F   UNL A   1      42.930  24.320  25.249  1.00  0.00    -0.206 F 
ATOM     75  C   UNL A   1      42.044  20.963  26.288  1.00  0.00     0.006 A 
ENDBRANCH  47  68
BRANCH  59  76
ATOM     76  C   UNL A   1      48.216  26.659  29.884  1.00  0.00     0.057 A 
ATOM     77  C   UNL A   1      49.152  26.934  28.880  1.00  0.00     0.134 A 
ATOM     78  C   UNL A   1      48.664  25.976  31.022  1.00  0.00     0.134 A 
ATOM     79  F   UNL A   1      48.779  27.573  27.760  1.00  0.00    -0.206 F 
ATOM     80  C   UNL A   1      50.482  26.530  28.995  1.00  0.00     0.040 A 
ATOM     81  C   UNL A   1      49.995  25.583  31.157  1.00  0.00     0.040 A 
ATOM     82  F   UNL A   1      47.816  25.687  32.020  1.00  0.00    -0.206 F 
ATOM     83  C   UNL A   1      50.908  25.856  30.140  1.00  0.00     0.006 A 
ENDBRANCH  59  76
ENDBRANCH  33  34
ENDBRANCH  26  28
ENDBRANCH  25  26
ENDBRANCH  24  25
ENDBRANCH   1  24
TORSDOF 17
ENDMDL
MODEL 3
REMARK VINA RESULT:     -10.5      2.372      7.449
REMARK SMILES Cc1ccc(CNC(=O)NC[C@@H](CC(C)C)C(=O)OCCOC(=O)c2ccc(-c3c4nc(c(-c5c(F)cccc5F)c5ccc([nH]5)c(-c5c(F)cccc5F)c5nc(c(-c6c(F)cccc6F)c6ccc3[nH]6)C=C5)C=C4)cc2)s1
REMARK SMILES IDX 20 1 19 2 17 3 18 4 12 5 11 6 10 7 7 8 8 9 9 11 6 13 5 14
REMARK SMILES IDX 1 15 2 16 3 17 79 18 4 19 13 20 14 21 15 22 16 23 21 24
REMARK SMILES IDX 22 25 23 26 24 27 25 28 26 29 78 30 27 31 77 32 28 33 29 34
REMARK SMILES IDX 30 35 71 36 31 37 76 38 70 39 72 40 32 41 75 42 69 43 68 44
REMARK SMILES IDX 33 46 59 47 42 48 58 49 43 50 46 51 57 52 73 53 44 54 45 55
REMARK SMILES IDX 56 57 74 58 47 59 34 60 35 61 40 62 36 63 37 64 39 65 41 66
REMARK SMILES IDX 38 67 60 68 61 69 66 70 62 71 63 72 65 73 67 74 64 75 48 76
REMARK SMILES IDX 49 77 54 78 50 79 51 80 53 81 55 82 52 83
REMARK H PARENT 7 10 10 12 72 45 46 56
REMARK Flexibility Score: inf
ROOT
ATOM      1  C   UNL A   1      31.667  31.642  26.895  1.00  0.00     0.274 C 
ENDROOT
BRANCH   1   2
ATOM      2  O   UNL A   1      32.106  30.810  25.801  1.00  0.00    -0.462 OA
BRANCH   2   3
ATOM      3  C   UNL A   1      32.935  29.786  26.126  1.00  0.00     0.310 C 
ATOM      4  O   UNL A   1      33.688  29.786  27.095  1.00  0.00    -0.252 OA
BRANCH   3   5
ATOM      5  C   UNL A   1      32.889  28.627  25.146  1.00  0.00     0.119 C 
BRANCH   5   6
ATOM      6  C   UNL A   1      33.058  29.010  23.670  1.00  0.00     0.133 C 
BRANCH   6   7
ATOM      7  N   UNL A   1      32.486  27.983  22.800  1.00  0.00    -0.337 N 
ATOM      8  N   UNL A   1      30.122  28.164  22.810  1.00  0.00    -0.333 N 
ATOM      9  C   UNL A   1      31.265  27.619  22.397  1.00  0.00     0.315 C 
ATOM     10  H   UNL A   1      29.337  27.802  22.340  1.00  0.00     0.165 HD
ATOM     11  O   UNL A   1      31.195  26.699  21.577  1.00  0.00    -0.249 OA
ATOM     12  H   UNL A   1      33.185  27.410  22.408  1.00  0.00     0.165 HD
BRANCH   8  13
ATOM     13  C   UNL A   1      29.772  29.162  23.790  1.00  0.00     0.164 C 
BRANCH  13  14
ATOM     14  C   UNL A   1      29.212  30.407  23.167  1.00  0.00     0.024 A 
ATOM     15  C   UNL A   1      27.705  32.833  20.468  1.00  0.00     0.056 C 
ATOM     16  C   UNL A   1      28.272  32.127  21.651  1.00  0.00     0.002 A 
ATOM     17  C   UNL A   1      28.504  32.622  22.915  1.00  0.00     0.015 A 
ATOM     18  S   UNL A   1      28.739  30.488  21.521  1.00  0.00    -0.144 S 
ATOM     19  C   UNL A   1      29.046  31.634  23.786  1.00  0.00     0.017 A 
ENDBRANCH  13  14
ENDBRANCH   8  13
ENDBRANCH   6   7
ENDBRANCH   5   6
BRANCH   5  20
ATOM     20  C   UNL A   1      33.794  27.473  25.633  1.00  0.00     0.020 C 
BRANCH  20  21
ATOM     21  C   UNL A   1      33.333  26.018  25.391  1.00  0.00    -0.017 C 
ATOM     22  C   UNL A   1      34.393  24.970  25.728  1.00  0.00     0.007 C 
ATOM     23  C   UNL A   1      32.076  25.743  26.226  1.00  0.00     0.007 C 
ENDBRANCH  20  21
ENDBRANCH   5  20
ENDBRANCH   3   5
ENDBRANCH   2   3
ENDBRANCH   1   2
BRANCH   1  24
ATOM     24  C   UNL A   1      32.219  33.064  26.797  1.00  0.00     0.275 C 
BRANCH  24  25
ATOM     25  O   UNL A   1      32.157  33.742  28.066  1.00  0.00    -0.458 OA
BRANCH  25  26
ATOM     26  C   UNL A   1      33.234  34.510  28.335  1.00  0.00     0.338 C 
ATOM     27  O   UNL A   1      33.285  35.728  28.372  1.00  0.00    -0.246 OA
BRANCH  26  28
ATOM     28  C   UNL A   1      34.378  33.674  28.714  1.00  0.00     0.060 A 
ATOM     29  C   UNL A   1      34.124  32.491  29.414  1.00  0.00     0.016 A 
ATOM     30  C   UNL A   1      35.683  34.113  28.504  1.00  0.00     0.016 A 
ATOM     31  C   UNL A   1      35.176  31.745  29.930  1.00  0.00     0.010 A 
ATOM     32  C   UNL A   1      36.743  33.360  29.017  1.00  0.00     0.010 A 
ATOM     33  C   UNL A   1      36.492  32.185  29.748  1.00  0.00    -0.014 A 
BRANCH  33  34
ATOM     34  C   UNL A   1      37.604  31.447  30.382  1.00  0.00     0.031 A 
ATOM     35  C   UNL A   1      37.929  31.693  31.825  1.00  0.00     0.074 A 
ATOM     36  C   UNL A   1      38.299  30.544  29.670  1.00  0.00     0.049 A 
ATOM     37  N   UNL A   1      38.915  31.224  32.543  1.00  0.00    -0.248 NA
ATOM     38  C   UNL A   1      37.019  32.588  32.558  1.00  0.00     0.031 C 
ATOM     39  C   UNL A   1      38.033  30.178  28.279  1.00  0.00     0.029 A 
ATOM     40  N   UNL A   1      39.374  29.771  30.024  1.00  0.00    -0.354 N 
ATOM     41  C   UNL A   1      38.759  31.778  33.805  1.00  0.00     0.074 A 
ATOM     42  C   UNL A   1      37.587  32.627  33.754  1.00  0.00     0.031 C 
ATOM     43  C   UNL A   1      38.926  29.251  27.895  1.00  0.00     0.029 A 
ATOM     44  C   UNL A   1      39.846  28.989  28.999  1.00  0.00     0.049 A 
ATOM     45  H   UNL A   1      39.770  29.776  30.925  1.00  0.00     0.167 HD
ATOM     46  C   UNL A   1      39.525  31.596  34.906  1.00  0.00     0.037 A 
ATOM     47  C   UNL A   1      40.916  28.176  28.953  1.00  0.00     0.037 A 
ATOM     48  C   UNL A   1      40.685  30.746  34.954  1.00  0.00     0.049 A 
ATOM     49  C   UNL A   1      41.785  28.033  30.169  1.00  0.00     0.074 A 
ATOM     50  C   UNL A   1      41.540  30.505  36.016  1.00  0.00     0.029 A 
ATOM     51  N   UNL A   1      41.150  29.991  33.887  1.00  0.00    -0.354 N 
ATOM     52  N   UNL A   1      41.651  28.590  31.349  1.00  0.00    -0.248 NA
ATOM     53  C   UNL A   1      42.959  27.158  30.046  1.00  0.00     0.031 C 
ATOM     54  C   UNL A   1      42.537  29.623  35.582  1.00  0.00     0.029 A 
ATOM     55  C   UNL A   1      42.284  29.291  34.260  1.00  0.00     0.049 A 
ATOM     56  H   UNL A   1      40.734  29.958  32.995  1.00  0.00     0.167 HD
ATOM     57  C   UNL A   1      42.709  28.119  32.114  1.00  0.00     0.074 A 
ATOM     58  C   UNL A   1      43.472  27.225  31.267  1.00  0.00     0.031 C 
ATOM     59  C   UNL A   1      43.023  28.403  33.401  1.00  0.00     0.037 A 
BRANCH  46  60
ATOM     60  C   UNL A   1      39.145  32.361  36.137  1.00  0.00     0.057 A 
ATOM     61  C   UNL A   1      38.265  31.835  37.090  1.00  0.00     0.134 A 
ATOM     62  C   UNL A   1      39.668  33.638  36.372  1.00  0.00     0.134 A 
ATOM     63  F   UNL A   1      37.714  30.624  36.912  1.00  0.00    -0.206 F 
ATOM     64  C   UNL A   1      37.903  32.561  38.227  1.00  0.00     0.040 A 
ATOM     65  C   UNL A   1      39.329  34.367  37.512  1.00  0.00     0.040 A 
ATOM     66  F   UNL A   1      40.514  34.199  35.495  1.00  0.00    -0.206 F 
ATOM     67  C   UNL A   1      38.439  33.830  38.441  1.00  0.00     0.006 A 
ENDBRANCH  46  60
BRANCH  47  68
ATOM     68  C   UNL A   1      41.232  27.445  27.702  1.00  0.00     0.057 A 
ATOM     69  C   UNL A   1      40.714  26.168  27.464  1.00  0.00     0.134 A 
ATOM     70  C   UNL A   1      42.052  28.007  26.717  1.00  0.00     0.134 A 
ATOM     71  F   UNL A   1      39.940  25.572  28.382  1.00  0.00    -0.206 F 
ATOM     72  C   UNL A   1      41.006  25.471  26.291  1.00  0.00     0.040 A 
ATOM     73  C   UNL A   1      42.338  27.329  25.532  1.00  0.00     0.040 A 
ATOM     74  F   UNL A   1      42.578  29.229  26.890  1.00  0.00    -0.206 F 
ATOM     75  C   UNL A   1      41.816  26.054  25.318  1.00  0.00     0.006 A 
ENDBRANCH  47  68
BRANCH  59  76
ATOM     76  C   UNL A   1      44.224  27.714  33.974  1.00  0.00     0.057 A 
ATOM     77  C   UNL A   1      44.134  26.443  34.554  1.00  0.00     0.134 A 
ATOM     78  C   UNL A   1      45.486  28.318  33.919  1.00  0.00     0.134 A 
ATOM     79  F   UNL A   1      42.949  25.820  34.648  1.00  0.00    -0.206 F 
ATOM     80  C   UNL A   1      45.258  25.802  35.076  1.00  0.00     0.040 A 
ATOM     81  C   UNL A   1      46.620  27.679  34.422  1.00  0.00     0.040 A 
ATOM     82  F   UNL A   1      45.636  29.533  33.372  1.00  0.00    -0.206 F 
ATOM     83  C   UNL A   1      46.507  26.419  35.006  1.00  0.00     0.006 A 
ENDBRANCH  59  76
ENDBRANCH  33  34
ENDBRANCH  26  28
ENDBRANCH  25  26
ENDBRANCH  24  25
ENDBRANCH   1  24
TORSDOF 17
ENDMDL
