MODEL 1
REMARK VINA RESULT:     -11.5      0.000      0.000
REMARK SMILES Cc1sc(-c2ccco2)nc1C(=O)N[C@@H](C(=O)OCCOC(=O)c1ccc(-c2c3nc(c(-c4c(F)cccc4F)c4ccc([nH]4)c(-c4c(F)cccc4F)c4nc(c(-c5c(F)cccc5F)c5ccc2[nH]5)C=C4)C=C3)cc1)C(C)C
REMARK SMILES IDX 19 1 18 2 16 3 17 4 15 5 14 6 12 7 13 8 11 10 1 11 2 12 3 13
REMARK SMILES IDX 4 14 10 15 5 16 6 17 9 18 7 19 8 20 78 21 79 22 80 23 20 24
REMARK SMILES IDX 21 25 22 26 23 27 24 28 25 29 77 30 26 31 76 32 27 33 28 34
REMARK SMILES IDX 29 35 70 36 30 37 75 38 69 39 71 40 31 41 74 42 68 43 67 44
REMARK SMILES IDX 32 46 58 47 41 48 57 49 42 50 45 51 56 52 72 53 43 54 44 55
REMARK SMILES IDX 55 57 73 58 46 59 33 60 34 61 39 62 35 63 36 64 38 65 40 66
REMARK SMILES IDX 37 67 59 68 60 69 65 70 61 71 62 72 64 73 66 74 63 75 47 76
REMARK SMILES IDX 48 77 53 78 49 79 50 80 52 81 54 82 51 83
REMARK H PARENT 14 9 71 45 45 56
REMARK Flexibility Score: inf
ROOT
ATOM      1  C   UNL A   1      31.384  29.548  24.831  1.00  0.00     0.274 C 
ENDROOT
BRANCH   1   2
ATOM      2  O   UNL A   1      30.457  29.856  23.764  1.00  0.00    -0.461 OA
BRANCH   2   3
ATOM      3  C   UNL A   1      30.317  28.942  22.756  1.00  0.00     0.329 C 
ATOM      4  O   UNL A   1      29.916  29.212  21.632  1.00  0.00    -0.250 OA
BRANCH   3   5
ATOM      5  C   UNL A   1      30.714  27.505  23.207  1.00  0.00     0.195 C 
BRANCH   5   6
ATOM      6  N   UNL A   1      31.582  26.940  22.185  1.00  0.00    -0.337 N 
ATOM      7  C   UNL A   1      32.685  26.130  22.300  1.00  0.00     0.271 C 
ATOM      8  O   UNL A   1      33.401  26.058  21.299  1.00  0.00    -0.267 OA
ATOM      9  H   UNL A   1      31.339  27.176  21.260  1.00  0.00     0.164 HD
BRANCH   7  10
ATOM     10  C   UNL A   1      32.951  25.294  23.491  1.00  0.00     0.142 A 
ATOM     11  C   UNL A   1      33.968  26.856  25.387  1.00  0.00     0.059 C 
ATOM     12  C   UNL A   1      33.423  25.617  24.765  1.00  0.00     0.035 A 
ATOM     13  S   UNL A   1      33.375  24.213  25.774  1.00  0.00    -0.115 S 
ATOM     14  C   UNL A   1      33.101  23.247  24.401  1.00  0.00     0.160 A 
ATOM     15  N   UNL A   1      32.843  23.906  23.298  1.00  0.00    -0.227 NA
BRANCH  14  16
ATOM     16  C   UNL A   1      33.266  21.826  24.439  1.00  0.00     0.162 A 
ATOM     17  C   UNL A   1      32.451  20.872  23.848  1.00  0.00     0.053 A 
ATOM     18  O   UNL A   1      34.332  21.192  25.024  1.00  0.00    -0.462 OA
ATOM     19  C   UNL A   1      33.059  19.613  24.063  1.00  0.00     0.043 A 
ATOM     20  C   UNL A   1      34.187  19.861  24.805  1.00  0.00     0.196 A 
ENDBRANCH  14  16
ENDBRANCH   7  10
ENDBRANCH   5   6
BRANCH   5  21
ATOM     21  C   UNL A   1      29.510  26.602  23.553  1.00  0.00     0.017 C 
ATOM     22  C   UNL A   1      29.663  25.956  24.936  1.00  0.00     0.010 C 
ATOM     23  C   UNL A   1      28.207  27.420  23.558  1.00  0.00     0.010 C 
ENDBRANCH   5  21
ENDBRANCH   3   5
ENDBRANCH   2   3
ENDBRANCH   1   2
BRANCH   1  24
ATOM     24  C   UNL A   1      31.413  30.676  25.857  1.00  0.00     0.275 C 
BRANCH  24  25
ATOM     25  O   UNL A   1      32.599  30.522  26.651  1.00  0.00    -0.458 OA
BRANCH  25  26
ATOM     26  C   UNL A   1      33.124  31.650  27.173  1.00  0.00     0.338 C 
ATOM     27  O   UNL A   1      32.594  32.747  27.275  1.00  0.00    -0.246 OA
BRANCH  26  28
ATOM     28  C   UNL A   1      34.463  31.340  27.699  1.00  0.00     0.060 A 
ATOM     29  C   UNL A   1      34.769  30.018  28.014  1.00  0.00     0.016 A 
ATOM     30  C   UNL A   1      35.372  32.355  27.986  1.00  0.00     0.016 A 
ATOM     31  C   UNL A   1      35.939  29.709  28.696  1.00  0.00     0.010 A 
ATOM     32  C   UNL A   1      36.594  32.030  28.585  1.00  0.00     0.010 A 
ATOM     33  C   UNL A   1      36.875  30.708  28.979  1.00  0.00    -0.014 A 
BRANCH  33  34
ATOM     34  C   UNL A   1      38.097  30.381  29.761  1.00  0.00     0.031 A 
ATOM     35  C   UNL A   1      39.174  29.541  29.133  1.00  0.00     0.074 A 
ATOM     36  C   UNL A   1      38.279  30.864  31.007  1.00  0.00     0.049 A 
ATOM     37  N   UNL A   1      40.195  28.947  29.694  1.00  0.00    -0.248 NA
ATOM     38  C   UNL A   1      39.084  29.337  27.678  1.00  0.00     0.031 C 
ATOM     39  C   UNL A   1      37.371  31.770  31.713  1.00  0.00     0.029 A 
ATOM     40  N   UNL A   1      39.305  30.665  31.899  1.00  0.00    -0.354 N 
ATOM     41  C   UNL A   1      40.822  28.238  28.678  1.00  0.00     0.074 A 
ATOM     42  C   UNL A   1      40.082  28.492  27.461  1.00  0.00     0.031 C 
ATOM     43  C   UNL A   1      37.898  32.076  32.909  1.00  0.00     0.029 A 
ATOM     44  C   UNL A   1      39.125  31.313  33.096  1.00  0.00     0.049 A 
ATOM     45  H   UNL A   1      40.093  30.110  31.697  1.00  0.00     0.167 HD
ATOM     46  C   UNL A   1      41.910  27.437  28.759  1.00  0.00     0.037 A 
ATOM     47  C   UNL A   1      39.838  31.256  34.237  1.00  0.00     0.037 A 
ATOM     48  C   UNL A   1      42.683  27.242  29.957  1.00  0.00     0.049 A 
ATOM     49  C   UNL A   1      41.020  30.334  34.319  1.00  0.00     0.074 A 
ATOM     50  C   UNL A   1      43.793  26.437  30.148  1.00  0.00     0.029 A 
ATOM     51  N   UNL A   1      42.440  27.884  31.161  1.00  0.00    -0.354 N 
ATOM     52  N   UNL A   1      41.537  29.570  33.386  1.00  0.00    -0.248 NA
ATOM     53  C   UNL A   1      41.695  30.237  35.621  1.00  0.00     0.031 C 
ATOM     54  C   UNL A   1      44.210  26.579  31.477  1.00  0.00     0.029 A 
ATOM     55  C   UNL A   1      43.376  27.493  32.102  1.00  0.00     0.049 A 
ATOM     56  H   UNL A   1      41.710  28.524  31.323  1.00  0.00     0.167 HD
ATOM     57  C   UNL A   1      42.594  28.901  33.988  1.00  0.00     0.074 A 
ATOM     58  C   UNL A   1      42.662  29.368  35.357  1.00  0.00     0.031 C 
ATOM     59  C   UNL A   1      43.426  27.973  33.457  1.00  0.00     0.037 A 
BRANCH  46  60
ATOM     60  C   UNL A   1      42.294  26.673  27.530  1.00  0.00     0.057 A 
ATOM     61  C   UNL A   1      43.156  27.197  26.561  1.00  0.00     0.134 A 
ATOM     62  C   UNL A   1      41.799  25.377  27.325  1.00  0.00     0.134 A 
ATOM     63  F   UNL A   1      43.646  28.440  26.690  1.00  0.00    -0.206 F 
ATOM     64  C   UNL A   1      43.501  26.467  25.422  1.00  0.00     0.040 A 
ATOM     65  C   UNL A   1      42.151  24.631  26.202  1.00  0.00     0.040 A 
ATOM     66  F   UNL A   1      40.967  24.819  28.218  1.00  0.00    -0.206 F 
ATOM     67  C   UNL A   1      43.002  25.177  25.243  1.00  0.00     0.006 A 
ENDBRANCH  46  60
BRANCH  47  68
ATOM     68  C   UNL A   1      39.408  32.043  35.421  1.00  0.00     0.057 A 
ATOM     69  C   UNL A   1      38.519  31.509  36.360  1.00  0.00     0.134 A 
ATOM     70  C   UNL A   1      39.870  33.347  35.637  1.00  0.00     0.134 A 
ATOM     71  F   UNL A   1      38.020  30.276  36.192  1.00  0.00    -0.206 F 
ATOM     72  C   UNL A   1      38.101  32.246  37.470  1.00  0.00     0.040 A 
ATOM     73  C   UNL A   1      39.482  34.085  36.755  1.00  0.00     0.040 A 
ATOM     74  F   UNL A   1      40.722  33.916  34.771  1.00  0.00    -0.206 F 
ATOM     75  C   UNL A   1      38.590  33.535  37.673  1.00  0.00     0.006 A 
ENDBRANCH  47  68
BRANCH  59  76
ATOM     76  C   UNL A   1      44.487  27.419  34.357  1.00  0.00     0.057 A 
ATOM     77  C   UNL A   1      45.698  28.090  34.559  1.00  0.00     0.134 A 
ATOM     78  C   UNL A   1      44.281  26.220  35.051  1.00  0.00     0.134 A 
ATOM     79  F   UNL A   1      45.956  29.236  33.910  1.00  0.00    -0.206 F 
ATOM     80  C   UNL A   1      46.678  27.581  35.412  1.00  0.00     0.040 A 
ATOM     81  C   UNL A   1      45.246  25.709  35.919  1.00  0.00     0.040 A 
ATOM     82  F   UNL A   1      43.139  25.534  34.900  1.00  0.00    -0.206 F 
ATOM     83  C   UNL A   1      46.450  26.389  36.099  1.00  0.00     0.006 A 
ENDBRANCH  59  76
ENDBRANCH  33  34
ENDBRANCH  26  28
ENDBRANCH  25  26
ENDBRANCH  24  25
ENDBRANCH   1  24
TORSDOF 15
ENDMDL
MODEL 2
REMARK VINA RESULT:     -11.4      3.739      8.946
REMARK SMILES Cc1sc(-c2ccco2)nc1C(=O)N[C@@H](C(=O)OCCOC(=O)c1ccc(-c2c3nc(c(-c4c(F)cccc4F)c4ccc([nH]4)c(-c4c(F)cccc4F)c4nc(c(-c5c(F)cccc5F)c5ccc2[nH]5)C=C4)C=C3)cc1)C(C)C
REMARK SMILES IDX 19 1 18 2 16 3 17 4 15 5 14 6 12 7 13 8 11 10 1 11 2 12 3 13
REMARK SMILES IDX 4 14 10 15 5 16 6 17 9 18 7 19 8 20 78 21 79 22 80 23 20 24
REMARK SMILES IDX 21 25 22 26 23 27 24 28 25 29 77 30 26 31 76 32 27 33 28 34
REMARK SMILES IDX 29 35 70 36 30 37 75 38 69 39 71 40 31 41 74 42 68 43 67 44
REMARK SMILES IDX 32 46 58 47 41 48 57 49 42 50 45 51 56 52 72 53 43 54 44 55
REMARK SMILES IDX 55 57 73 58 46 59 33 60 34 61 39 62 35 63 36 64 38 65 40 66
REMARK SMILES IDX 37 67 59 68 60 69 65 70 61 71 62 72 64 73 66 74 63 75 47 76
REMARK SMILES IDX 48 77 53 78 49 79 50 80 52 81 54 82 51 83
REMARK H PARENT 14 9 71 45 45 56
REMARK Flexibility Score: inf
ROOT
ATOM      1  C   UNL A   1      34.370  20.956  25.451  1.00  0.00     0.274 C 
ENDROOT
BRANCH   1   2
ATOM      2  O   UNL A   1      33.851  22.191  24.906  1.00  0.00    -0.461 OA
BRANCH   2   3
ATOM      3  C   UNL A   1      33.394  23.134  25.784  1.00  0.00     0.329 C 
ATOM      4  O   UNL A   1      33.454  23.028  27.003  1.00  0.00    -0.250 OA
BRANCH   3   5
ATOM      5  C   UNL A   1      32.768  24.360  25.056  1.00  0.00     0.195 C 
BRANCH   5   6
ATOM      6  N   UNL A   1      31.379  24.469  25.476  1.00  0.00    -0.337 N 
ATOM      7  C   UNL A   1      30.665  25.554  25.921  1.00  0.00     0.271 C 
ATOM      8  O   UNL A   1      29.605  25.295  26.495  1.00  0.00    -0.267 OA
ATOM      9  H   UNL A   1      30.868  23.628  25.434  1.00  0.00     0.164 HD
BRANCH   7  10
ATOM     10  C   UNL A   1      31.057  26.950  25.635  1.00  0.00     0.142 A 
ATOM     11  C   UNL A   1      30.160  27.583  23.213  1.00  0.00     0.059 C 
ATOM     12  C   UNL A   1      30.793  27.785  24.546  1.00  0.00     0.035 A 
ATOM     13  S   UNL A   1      31.402  29.371  24.871  1.00  0.00    -0.115 S 
ATOM     14  C   UNL A   1      32.258  28.759  26.207  1.00  0.00     0.160 A 
ATOM     15  N   UNL A   1      31.964  27.526  26.541  1.00  0.00    -0.227 NA
BRANCH  14  16
ATOM     16  C   UNL A   1      33.307  29.506  26.831  1.00  0.00     0.162 A 
ATOM     17  C   UNL A   1      34.594  29.071  27.110  1.00  0.00     0.053 A 
ATOM     18  O   UNL A   1      33.204  30.827  27.187  1.00  0.00    -0.462 OA
ATOM     19  C   UNL A   1      35.305  30.176  27.633  1.00  0.00     0.043 A 
ATOM     20  C   UNL A   1      34.406  31.213  27.681  1.00  0.00     0.196 A 
ENDBRANCH  14  16
ENDBRANCH   7  10
ENDBRANCH   5   6
BRANCH   5  21
ATOM     21  C   UNL A   1      32.942  24.332  23.522  1.00  0.00     0.017 C 
ATOM     22  C   UNL A   1      31.606  24.100  22.804  1.00  0.00     0.010 C 
ATOM     23  C   UNL A   1      33.520  25.666  23.020  1.00  0.00     0.010 C 
ENDBRANCH   5  21
ENDBRANCH   3   5
ENDBRANCH   2   3
ENDBRANCH   1   2
BRANCH   1  24
ATOM     24  C   UNL A   1      35.791  20.705  24.955  1.00  0.00     0.275 C 
BRANCH  24  25
ATOM     25  O   UNL A   1      36.663  21.627  25.625  1.00  0.00    -0.458 OA
BRANCH  25  26
ATOM     26  C   UNL A   1      37.980  21.335  25.601  1.00  0.00     0.338 C 
ATOM     27  O   UNL A   1      38.525  20.369  25.087  1.00  0.00    -0.246 OA
BRANCH  26  28
ATOM     28  C   UNL A   1      38.713  22.435  26.246  1.00  0.00     0.060 A 
ATOM     29  C   UNL A   1      38.239  23.736  26.091  1.00  0.00     0.016 A 
ATOM     30  C   UNL A   1      39.919  22.205  26.902  1.00  0.00     0.016 A 
ATOM     31  C   UNL A   1      39.003  24.819  26.509  1.00  0.00     0.010 A 
ATOM     32  C   UNL A   1      40.641  23.291  27.409  1.00  0.00     0.010 A 
ATOM     33  C   UNL A   1      40.208  24.612  27.186  1.00  0.00    -0.014 A 
BRANCH  33  34
ATOM     34  C   UNL A   1      41.049  25.775  27.577  1.00  0.00     0.031 A 
ATOM     35  C   UNL A   1      40.475  26.834  28.476  1.00  0.00     0.074 A 
ATOM     36  C   UNL A   1      42.335  25.871  27.180  1.00  0.00     0.049 A 
ATOM     37  N   UNL A   1      40.934  28.027  28.749  1.00  0.00    -0.248 NA
ATOM     38  C   UNL A   1      39.207  26.508  29.150  1.00  0.00     0.031 C 
ATOM     39  C   UNL A   1      43.062  24.876  26.390  1.00  0.00     0.029 A 
ATOM     40  N   UNL A   1      43.264  26.859  27.403  1.00  0.00    -0.354 N 
ATOM     41  C   UNL A   1      39.978  28.621  29.562  1.00  0.00     0.074 A 
ATOM     42  C   UNL A   1      38.922  27.651  29.758  1.00  0.00     0.031 C 
ATOM     43  C   UNL A   1      44.329  25.286  26.226  1.00  0.00     0.029 A 
ATOM     44  C   UNL A   1      44.478  26.613  26.811  1.00  0.00     0.049 A 
ATOM     45  H   UNL A   1      43.075  27.665  27.936  1.00  0.00     0.167 HD
ATOM     46  C   UNL A   1      39.977  29.869  30.086  1.00  0.00     0.037 A 
ATOM     47  C   UNL A   1      45.571  27.392  26.701  1.00  0.00     0.037 A 
ATOM     48  C   UNL A   1      41.060  30.806  29.947  1.00  0.00     0.049 A 
ATOM     49  C   UNL A   1      45.538  28.786  27.258  1.00  0.00     0.074 A 
ATOM     50  C   UNL A   1      41.151  32.101  30.425  1.00  0.00     0.029 A 
ATOM     51  N   UNL A   1      42.256  30.532  29.301  1.00  0.00    -0.354 N 
ATOM     52  N   UNL A   1      44.580  29.386  27.922  1.00  0.00    -0.248 NA
ATOM     53  C   UNL A   1      46.721  29.623  27.017  1.00  0.00     0.031 C 
ATOM     54  C   UNL A   1      42.397  32.618  30.050  1.00  0.00     0.029 A 
ATOM     55  C   UNL A   1      43.091  31.633  29.364  1.00  0.00     0.049 A 
ATOM     56  H   UNL A   1      42.479  29.679  28.861  1.00  0.00     0.167 HD
ATOM     57  C   UNL A   1      45.043  30.670  28.176  1.00  0.00     0.074 A 
ATOM     58  C   UNL A   1      46.377  30.754  27.618  1.00  0.00     0.031 C 
ATOM     59  C   UNL A   1      44.414  31.693  28.804  1.00  0.00     0.037 A 
BRANCH  46  60
ATOM     60  C   UNL A   1      38.745  30.308  30.815  1.00  0.00     0.057 A 
ATOM     61  C   UNL A   1      37.743  31.068  30.202  1.00  0.00     0.134 A 
ATOM     62  C   UNL A   1      38.556  29.944  32.155  1.00  0.00     0.134 A 
ATOM     63  F   UNL A   1      37.876  31.466  28.927  1.00  0.00    -0.206 F 
ATOM     64  C   UNL A   1      36.602  31.466  30.901  1.00  0.00     0.040 A 
ATOM     65  C   UNL A   1      37.412  30.318  32.858  1.00  0.00     0.040 A 
ATOM     66  F   UNL A   1      39.480  29.215  32.799  1.00  0.00    -0.206 F 
ATOM     67  C   UNL A   1      36.431  31.086  32.232  1.00  0.00     0.006 A 
ENDBRANCH  46  60
BRANCH  47  68
ATOM     68  C   UNL A   1      46.765  26.896  25.970  1.00  0.00     0.057 A 
ATOM     69  C   UNL A   1      46.947  27.173  24.611  1.00  0.00     0.134 A 
ATOM     70  C   UNL A   1      47.747  26.130  26.612  1.00  0.00     0.134 A 
ATOM     71  F   UNL A   1      46.028  27.877  23.937  1.00  0.00    -0.206 F 
ATOM     72  C   UNL A   1      48.063  26.702  23.914  1.00  0.00     0.040 A 
ATOM     73  C   UNL A   1      48.878  25.676  25.934  1.00  0.00     0.040 A 
ATOM     74  F   UNL A   1      47.628  25.830  27.914  1.00  0.00    -0.206 F 
ATOM     75  C   UNL A   1      49.035  25.957  24.579  1.00  0.00     0.006 A 
ENDBRANCH  47  68
BRANCH  59  76
ATOM     76  C   UNL A   1      45.171  32.978  28.932  1.00  0.00     0.057 A 
ATOM     77  C   UNL A   1      46.033  33.215  30.009  1.00  0.00     0.134 A 
ATOM     78  C   UNL A   1      45.060  33.974  27.954  1.00  0.00     0.134 A 
ATOM     79  F   UNL A   1      46.169  32.303  30.984  1.00  0.00    -0.206 F 
ATOM     80  C   UNL A   1      46.752  34.406  30.117  1.00  0.00     0.040 A 
ATOM     81  C   UNL A   1      45.786  35.163  28.042  1.00  0.00     0.040 A 
ATOM     82  F   UNL A   1      44.252  33.804  26.898  1.00  0.00    -0.206 F 
ATOM     83  C   UNL A   1      46.632  35.382  29.128  1.00  0.00     0.006 A 
ENDBRANCH  59  76
ENDBRANCH  33  34
ENDBRANCH  26  28
ENDBRANCH  25  26
ENDBRANCH  24  25
ENDBRANCH   1  24
TORSDOF 15
ENDMDL
MODEL 3
REMARK VINA RESULT:     -11.4      1.382      2.342
REMARK SMILES Cc1sc(-c2ccco2)nc1C(=O)N[C@@H](C(=O)OCCOC(=O)c1ccc(-c2c3nc(c(-c4c(F)cccc4F)c4ccc([nH]4)c(-c4c(F)cccc4F)c4nc(c(-c5c(F)cccc5F)c5ccc2[nH]5)C=C4)C=C3)cc1)C(C)C
REMARK SMILES IDX 19 1 18 2 16 3 17 4 15 5 14 6 12 7 13 8 11 10 1 11 2 12 3 13
REMARK SMILES IDX 4 14 10 15 5 16 6 17 9 18 7 19 8 20 78 21 79 22 80 23 20 24
REMARK SMILES IDX 21 25 22 26 23 27 24 28 25 29 77 30 26 31 76 32 27 33 28 34
REMARK SMILES IDX 29 35 70 36 30 37 75 38 69 39 71 40 31 41 74 42 68 43 67 44
REMARK SMILES IDX 32 46 58 47 41 48 57 49 42 50 45 51 56 52 72 53 43 54 44 55
REMARK SMILES IDX 55 57 73 58 46 59 33 60 34 61 39 62 35 63 36 64 38 65 40 66
REMARK SMILES IDX 37 67 59 68 60 69 65 70 61 71 62 72 64 73 66 74 63 75 47 76
REMARK SMILES IDX 48 77 53 78 49 79 50 80 52 81 54 82 51 83
REMARK H PARENT 14 9 71 45 45 56
REMARK Flexibility Score: inf
ROOT
ATOM      1  C   UNL A   1      32.889  29.223  24.504  1.00  0.00     0.274 C 
ENDROOT
BRANCH   1   2
ATOM      2  O   UNL A   1      33.048  27.790  24.616  1.00  0.00    -0.461 OA
BRANCH   2   3
ATOM      3  C   UNL A   1      32.851  27.036  23.492  1.00  0.00     0.329 C 
ATOM      4  O   UNL A   1      33.122  27.407  22.357  1.00  0.00    -0.250 OA
BRANCH   3   5
ATOM      5  C   UNL A   1      32.224  25.648  23.819  1.00  0.00     0.195 C 
BRANCH   5   6
ATOM      6  N   UNL A   1      32.445  24.778  22.673  1.00  0.00    -0.337 N 
ATOM      7  C   UNL A   1      33.310  23.725  22.509  1.00  0.00     0.271 C 
ATOM      8  O   UNL A   1      33.502  23.370  21.343  1.00  0.00    -0.267 OA
ATOM      9  H   UNL A   1      31.882  24.976  21.890  1.00  0.00     0.164 HD
BRANCH   7  10
ATOM     10  C   UNL A   1      33.890  22.972  23.641  1.00  0.00     0.142 A 
ATOM     11  C   UNL A   1      31.891  21.968  25.078  1.00  0.00     0.059 C 
ATOM     12  C   UNL A   1      33.296  22.210  24.651  1.00  0.00     0.035 A 
ATOM     13  S   UNL A   1      34.526  21.448  25.599  1.00  0.00    -0.115 S 
ATOM     14  C   UNL A   1      35.695  22.439  24.865  1.00  0.00     0.160 A 
ATOM     15  N   UNL A   1      35.271  23.137  23.839  1.00  0.00    -0.227 NA
BRANCH  14  16
ATOM     16  C   UNL A   1      37.009  22.583  25.415  1.00  0.00     0.162 A 
ATOM     17  C   UNL A   1      37.543  23.708  26.024  1.00  0.00     0.053 A 
ATOM     18  O   UNL A   1      37.929  21.568  25.483  1.00  0.00    -0.462 OA
ATOM     19  C   UNL A   1      38.828  23.355  26.501  1.00  0.00     0.043 A 
ATOM     20  C   UNL A   1      39.023  22.049  26.124  1.00  0.00     0.196 A 
ENDBRANCH  14  16
ENDBRANCH   7  10
ENDBRANCH   5   6
BRANCH   5  21
ATOM     21  C   UNL A   1      30.744  25.717  24.257  1.00  0.00     0.017 C 
ATOM     22  C   UNL A   1      30.610  25.933  25.769  1.00  0.00     0.010 C 
ATOM     23  C   UNL A   1      30.026  26.880  23.551  1.00  0.00     0.010 C 
ENDBRANCH   5  21
ENDBRANCH   3   5
ENDBRANCH   2   3
ENDBRANCH   1   2
BRANCH   1  24
ATOM     24  C   UNL A   1      31.747  29.706  25.393  1.00  0.00     0.275 C 
BRANCH  24  25
ATOM     25  O   UNL A   1      32.261  29.880  26.722  1.00  0.00    -0.458 OA
BRANCH  25  26
ATOM     26  C   UNL A   1      32.770  31.094  27.015  1.00  0.00     0.338 C 
ATOM     27  O   UNL A   1      32.219  32.181  26.922  1.00  0.00    -0.246 OA
BRANCH  26  28
ATOM     28  C   UNL A   1      34.123  30.912  27.564  1.00  0.00     0.060 A 
ATOM     29  C   UNL A   1      34.595  29.617  27.765  1.00  0.00     0.016 A 
ATOM     30  C   UNL A   1      34.879  32.003  27.983  1.00  0.00     0.016 A 
ATOM     31  C   UNL A   1      35.777  29.397  28.462  1.00  0.00     0.010 A 
ATOM     32  C   UNL A   1      36.117  31.784  28.598  1.00  0.00     0.010 A 
ATOM     33  C   UNL A   1      36.561  30.476  28.876  1.00  0.00    -0.014 A 
BRANCH  33  34
ATOM     34  C   UNL A   1      37.794  30.236  29.673  1.00  0.00     0.031 A 
ATOM     35  C   UNL A   1      38.930  29.464  29.063  1.00  0.00     0.074 A 
ATOM     36  C   UNL A   1      37.931  30.740  30.917  1.00  0.00     0.049 A 
ATOM     37  N   UNL A   1      39.982  28.943  29.639  1.00  0.00    -0.248 NA
ATOM     38  C   UNL A   1      38.869  29.243  27.609  1.00  0.00     0.031 C 
ATOM     39  C   UNL A   1      36.958  31.590  31.606  1.00  0.00     0.029 A 
ATOM     40  N   UNL A   1      38.958  30.616  31.820  1.00  0.00    -0.354 N 
ATOM     41  C   UNL A   1      40.665  28.269  28.636  1.00  0.00     0.074 A 
ATOM     42  C   UNL A   1      39.923  28.464  27.409  1.00  0.00     0.031 C 
ATOM     43  C   UNL A   1      37.451  31.940  32.804  1.00  0.00     0.029 A 
ATOM     44  C   UNL A   1      38.724  31.260  33.010  1.00  0.00     0.049 A 
ATOM     45  H   UNL A   1      39.783  30.112  31.632  1.00  0.00     0.167 HD
ATOM     46  C   UNL A   1      41.801  27.540  28.735  1.00  0.00     0.037 A 
ATOM     47  C   UNL A   1      39.427  31.259  34.159  1.00  0.00     0.037 A 
ATOM     48  C   UNL A   1      42.573  27.406  29.941  1.00  0.00     0.049 A 
ATOM     49  C   UNL A   1      40.666  30.417  34.260  1.00  0.00     0.074 A 
ATOM     50  C   UNL A   1      43.731  26.677  30.151  1.00  0.00     0.029 A 
ATOM     51  N   UNL A   1      42.276  28.040  31.137  1.00  0.00    -0.354 N 
ATOM     52  N   UNL A   1      41.241  29.682  33.339  1.00  0.00    -0.248 NA
ATOM     53  C   UNL A   1      41.332  30.374  35.569  1.00  0.00     0.031 C 
ATOM     54  C   UNL A   1      44.124  26.857  31.483  1.00  0.00     0.029 A 
ATOM     55  C   UNL A   1      43.225  27.719  32.091  1.00  0.00     0.049 A 
ATOM     56  H   UNL A   1      41.504  28.633  31.286  1.00  0.00     0.167 HD
ATOM     57  C   UNL A   1      42.333  29.088  33.957  1.00  0.00     0.074 A 
ATOM     58  C   UNL A   1      42.356  29.569  35.323  1.00  0.00     0.031 C 
ATOM     59  C   UNL A   1      43.230  28.212  33.443  1.00  0.00     0.037 A 
BRANCH  46  60
ATOM     60  C   UNL A   1      42.248  26.794  27.516  1.00  0.00     0.057 A 
ATOM     61  C   UNL A   1      43.020  27.389  26.513  1.00  0.00     0.134 A 
ATOM     62  C   UNL A   1      41.906  25.443  27.356  1.00  0.00     0.134 A 
ATOM     63  F   UNL A   1      43.361  28.685  26.598  1.00  0.00    -0.206 F 
ATOM     64  C   UNL A   1      43.425  26.674  25.385  1.00  0.00     0.040 A 
ATOM     65  C   UNL A   1      42.321  24.713  26.243  1.00  0.00     0.040 A 
ATOM     66  F   UNL A   1      41.166  24.815  28.282  1.00  0.00    -0.206 F 
ATOM     67  C   UNL A   1      43.080  25.330  25.251  1.00  0.00     0.006 A 
ENDBRANCH  46  60
BRANCH  47  68
ATOM     68  C   UNL A   1      38.934  32.025  35.331  1.00  0.00     0.057 A 
ATOM     69  C   UNL A   1      39.162  33.400  35.444  1.00  0.00     0.134 A 
ATOM     70  C   UNL A   1      38.229  31.399  36.367  1.00  0.00     0.134 A 
ATOM     71  F   UNL A   1      39.854  34.050  34.499  1.00  0.00    -0.206 F 
ATOM     72  C   UNL A   1      38.709  34.126  36.549  1.00  0.00     0.040 A 
ATOM     73  C   UNL A   1      37.749  32.116  37.463  1.00  0.00     0.040 A 
ATOM     74  F   UNL A   1      37.980  30.082  36.318  1.00  0.00    -0.206 F 
ATOM     75  C   UNL A   1      37.994  33.484  37.558  1.00  0.00     0.006 A 
ENDBRANCH  47  68
BRANCH  59  76
ATOM     76  C   UNL A   1      44.315  27.735  34.358  1.00  0.00     0.057 A 
ATOM     77  C   UNL A   1      44.174  26.564  35.111  1.00  0.00     0.134 A 
ATOM     78  C   UNL A   1      45.522  28.437  34.461  1.00  0.00     0.134 A 
ATOM     79  F   UNL A   1      43.034  25.858  35.063  1.00  0.00    -0.206 F 
ATOM     80  C   UNL A   1      45.194  26.112  35.949  1.00  0.00     0.040 A 
ATOM     81  C   UNL A   1      46.556  27.986  35.283  1.00  0.00     0.040 A 
ATOM     82  F   UNL A   1      45.716  29.564  33.761  1.00  0.00    -0.206 F 
ATOM     83  C   UNL A   1      46.392  26.822  36.032  1.00  0.00     0.006 A 
ENDBRANCH  59  76
ENDBRANCH  33  34
ENDBRANCH  26  28
ENDBRANCH  25  26
ENDBRANCH  24  25
ENDBRANCH   1  24
TORSDOF 15
ENDMDL
