MODEL 1
REMARK VINA RESULT:     -11.5      0.000      0.000
REMARK SMILES CC(C)[C@H](NC(=O)Cc1cccc2ccccc12)C(=O)OCCOC(=O)c1ccc(-c2c3nc(c(-c4c(F)cccc4F)c4ccc([nH]4)c(-c4c(F)cccc4F)c4nc(c(-c5c(F)cccc5F)c5ccc2[nH]5)C=C4)C=C3)cc1
REMARK SMILES IDX 22 1 21 2 19 3 20 4 4 5 2 6 1 7 3 8 5 9 6 10 7 12 8 13 9 14
REMARK SMILES IDX 10 15 18 16 11 17 13 18 17 19 12 20 14 21 16 22 15 23 23 24
REMARK SMILES IDX 24 25 25 26 26 27 27 28 28 29 80 30 29 31 79 32 30 33 31 34
REMARK SMILES IDX 32 35 73 36 33 37 78 38 72 39 74 40 34 41 77 42 71 43 70 44
REMARK SMILES IDX 35 46 61 47 44 48 60 49 45 50 48 51 59 52 75 53 46 54 47 55
REMARK SMILES IDX 58 57 76 58 49 59 36 60 37 61 42 62 38 63 39 64 41 65 43 66
REMARK SMILES IDX 40 67 62 68 63 69 68 70 64 71 65 72 67 73 69 74 66 75 50 76
REMARK SMILES IDX 51 77 56 78 52 79 53 80 55 81 57 82 54 83
REMARK H PARENT 5 11 74 45 48 56
REMARK Flexibility Score: inf
ROOT
ATOM      1  C   UNL A   1      31.959  29.205  25.040  1.00  0.00     0.274 C 
ENDROOT
BRANCH   1   2
ATOM      2  O   UNL A   1      31.786  28.030  25.857  1.00  0.00    -0.461 OA
BRANCH   2   3
ATOM      3  C   UNL A   1      32.709  27.055  25.649  1.00  0.00     0.329 C 
ATOM      4  O   UNL A   1      33.920  27.251  25.597  1.00  0.00    -0.250 OA
BRANCH   3   5
ATOM      5  C   UNL A   1      32.095  25.678  25.348  1.00  0.00     0.194 C 
BRANCH   5   6
ATOM      6  C   UNL A   1      31.520  25.640  23.901  1.00  0.00     0.017 C 
ATOM      7  C   UNL A   1      31.899  24.367  23.133  1.00  0.00     0.010 C 
ATOM      8  C   UNL A   1      30.003  25.841  23.862  1.00  0.00     0.010 C 
ENDBRANCH   5   6
BRANCH   5   9
ATOM      9  N   UNL A   1      31.064  25.164  26.266  1.00  0.00    -0.342 N 
ATOM     10  C   UNL A   1      31.000  23.942  26.883  1.00  0.00     0.225 C 
ATOM     11  H   UNL A   1      30.322  25.780  26.464  1.00  0.00     0.164 HD
ATOM     12  O   UNL A   1      29.897  23.534  27.246  1.00  0.00    -0.275 OA
BRANCH  10  13
ATOM     13  C   UNL A   1      32.266  23.184  27.183  1.00  0.00     0.136 C 
BRANCH  13  14
ATOM     14  C   UNL A   1      33.031  22.381  26.134  1.00  0.00    -0.031 A 
ATOM     15  C   UNL A   1      32.321  21.249  25.661  1.00  0.00     0.005 A 
ATOM     16  C   UNL A   1      34.397  22.532  25.748  1.00  0.00    -0.015 A 
ATOM     17  C   UNL A   1      32.932  20.258  24.902  1.00  0.00     0.001 A 
ATOM     18  C   UNL A   1      35.026  21.467  25.039  1.00  0.00    -0.018 A 
ATOM     19  C   UNL A   1      35.203  23.665  26.003  1.00  0.00     0.009 A 
ATOM     20  C   UNL A   1      34.288  20.353  24.626  1.00  0.00     0.009 A 
ATOM     21  C   UNL A   1      36.398  21.514  24.740  1.00  0.00     0.009 A 
ATOM     22  C   UNL A   1      36.568  23.704  25.693  1.00  0.00     0.001 A 
ATOM     23  C   UNL A   1      37.172  22.617  25.084  1.00  0.00     0.001 A 
ENDBRANCH  13  14
ENDBRANCH  10  13
ENDBRANCH   5   9
ENDBRANCH   3   5
ENDBRANCH   2   3
ENDBRANCH   1   2
BRANCH   1  24
ATOM     24  C   UNL A   1      31.503  30.486  25.738  1.00  0.00     0.275 C 
BRANCH  24  25
ATOM     25  O   UNL A   1      32.059  30.600  27.060  1.00  0.00    -0.458 OA
BRANCH  25  26
ATOM     26  C   UNL A   1      32.782  31.721  27.272  1.00  0.00     0.338 C 
ATOM     27  O   UNL A   1      32.390  32.877  27.251  1.00  0.00    -0.246 OA
BRANCH  26  28
ATOM     28  C   UNL A   1      34.172  31.387  27.598  1.00  0.00     0.060 A 
ATOM     29  C   UNL A   1      34.521  30.044  27.732  1.00  0.00     0.016 A 
ATOM     30  C   UNL A   1      35.052  32.392  28.001  1.00  0.00     0.016 A 
ATOM     31  C   UNL A   1      35.705  29.703  28.378  1.00  0.00     0.010 A 
ATOM     32  C   UNL A   1      36.272  32.043  28.592  1.00  0.00     0.010 A 
ATOM     33  C   UNL A   1      36.581  30.696  28.843  1.00  0.00    -0.014 A 
BRANCH  33  34
ATOM     34  C   UNL A   1      37.754  30.319  29.678  1.00  0.00     0.031 A 
ATOM     35  C   UNL A   1      38.895  29.538  29.076  1.00  0.00     0.074 A 
ATOM     36  C   UNL A   1      37.844  30.727  30.959  1.00  0.00     0.049 A 
ATOM     37  N   UNL A   1      39.937  29.010  29.668  1.00  0.00    -0.248 NA
ATOM     38  C   UNL A   1      38.860  29.318  27.621  1.00  0.00     0.031 C 
ATOM     39  C   UNL A   1      36.852  31.535  31.665  1.00  0.00     0.029 A 
ATOM     40  N   UNL A   1      38.840  30.535  31.884  1.00  0.00    -0.354 N 
ATOM     41  C   UNL A   1      40.638  28.336  28.675  1.00  0.00     0.074 A 
ATOM     42  C   UNL A   1      39.923  28.548  27.435  1.00  0.00     0.031 C 
ATOM     43  C   UNL A   1      37.314  31.821  32.894  1.00  0.00     0.029 A 
ATOM     44  C   UNL A   1      38.604  31.164  33.080  1.00  0.00     0.049 A 
ATOM     45  H   UNL A   1      39.646  29.997  31.707  1.00  0.00     0.167 HD
ATOM     46  C   UNL A   1      41.767  27.596  28.789  1.00  0.00     0.037 A 
ATOM     47  C   UNL A   1      39.335  31.197  34.209  1.00  0.00     0.037 A 
ATOM     48  C   UNL A   1      42.525  27.435  29.999  1.00  0.00     0.049 A 
ATOM     49  C   UNL A   1      40.609  30.413  34.299  1.00  0.00     0.074 A 
ATOM     50  C   UNL A   1      43.663  26.675  30.215  1.00  0.00     0.029 A 
ATOM     51  N   UNL A   1      42.243  28.079  31.192  1.00  0.00    -0.354 N 
ATOM     52  N   UNL A   1      41.190  29.677  33.386  1.00  0.00    -0.248 NA
ATOM     53  C   UNL A   1      41.312  30.440  35.591  1.00  0.00     0.031 C 
ATOM     54  C   UNL A   1      44.072  26.863  31.542  1.00  0.00     0.029 A 
ATOM     55  C   UNL A   1      43.192  27.748  32.143  1.00  0.00     0.049 A 
ATOM     56  H   UNL A   1      41.479  28.683  31.341  1.00  0.00     0.167 HD
ATOM     57  C   UNL A   1      42.310  29.132  33.996  1.00  0.00     0.074 A 
ATOM     58  C   UNL A   1      42.349  29.650  35.347  1.00  0.00     0.031 C 
ATOM     59  C   UNL A   1      43.213  28.263  33.485  1.00  0.00     0.037 A 
BRANCH  46  60
ATOM     60  C   UNL A   1      42.233  26.869  27.568  1.00  0.00     0.057 A 
ATOM     61  C   UNL A   1      41.840  25.555  27.294  1.00  0.00     0.134 A 
ATOM     62  C   UNL A   1      43.059  27.511  26.636  1.00  0.00     0.134 A 
ATOM     63  F   UNL A   1      41.061  24.885  28.157  1.00  0.00    -0.206 F 
ATOM     64  C   UNL A   1      42.259  24.900  26.134  1.00  0.00     0.040 A 
ATOM     65  C   UNL A   1      43.476  26.871  25.469  1.00  0.00     0.040 A 
ATOM     66  F   UNL A   1      43.470  28.770  26.846  1.00  0.00    -0.206 F 
ATOM     67  C   UNL A   1      43.075  25.560  25.216  1.00  0.00     0.006 A 
ENDBRANCH  46  60
BRANCH  47  68
ATOM     68  C   UNL A   1      38.859  31.993  35.362  1.00  0.00     0.057 A 
ATOM     69  C   UNL A   1      39.091  33.370  35.424  1.00  0.00     0.134 A 
ATOM     70  C   UNL A   1      38.153  31.400  36.413  1.00  0.00     0.134 A 
ATOM     71  F   UNL A   1      39.776  33.984  34.449  1.00  0.00    -0.206 F 
ATOM     72  C   UNL A   1      38.635  34.134  36.498  1.00  0.00     0.040 A 
ATOM     73  C   UNL A   1      37.681  32.154  37.487  1.00  0.00     0.040 A 
ATOM     74  F   UNL A   1      37.906  30.082  36.403  1.00  0.00    -0.206 F 
ATOM     75  C   UNL A   1      37.923  33.526  37.531  1.00  0.00     0.006 A 
ENDBRANCH  47  68
BRANCH  59  76
ATOM     76  C   UNL A   1      44.302  27.805  34.400  1.00  0.00     0.057 A 
ATOM     77  C   UNL A   1      44.140  26.669  35.201  1.00  0.00     0.134 A 
ATOM     78  C   UNL A   1      45.523  28.484  34.466  1.00  0.00     0.134 A 
ATOM     79  F   UNL A   1      42.985  25.986  35.186  1.00  0.00    -0.206 F 
ATOM     80  C   UNL A   1      45.156  26.227  36.048  1.00  0.00     0.040 A 
ATOM     81  C   UNL A   1      46.550  28.047  35.304  1.00  0.00     0.040 A 
ATOM     82  F   UNL A   1      45.734  29.580  33.723  1.00  0.00    -0.206 F 
ATOM     83  C   UNL A   1      46.367  26.917  36.098  1.00  0.00     0.006 A 
ENDBRANCH  59  76
ENDBRANCH  33  34
ENDBRANCH  26  28
ENDBRANCH  25  26
ENDBRANCH  24  25
ENDBRANCH   1  24
TORSDOF 15
ENDMDL
MODEL 2
REMARK VINA RESULT:     -11.4      3.898      8.866
REMARK SMILES CC(C)[C@H](NC(=O)Cc1cccc2ccccc12)C(=O)OCCOC(=O)c1ccc(-c2c3nc(c(-c4c(F)cccc4F)c4ccc([nH]4)c(-c4c(F)cccc4F)c4nc(c(-c5c(F)cccc5F)c5ccc2[nH]5)C=C4)C=C3)cc1
REMARK SMILES IDX 22 1 21 2 19 3 20 4 4 5 2 6 1 7 3 8 5 9 6 10 7 12 8 13 9 14
REMARK SMILES IDX 10 15 18 16 11 17 13 18 17 19 12 20 14 21 16 22 15 23 23 24
REMARK SMILES IDX 24 25 25 26 26 27 27 28 28 29 80 30 29 31 79 32 30 33 31 34
REMARK SMILES IDX 32 35 73 36 33 37 78 38 72 39 74 40 34 41 77 42 71 43 70 44
REMARK SMILES IDX 35 46 61 47 44 48 60 49 45 50 48 51 59 52 75 53 46 54 47 55
REMARK SMILES IDX 58 57 76 58 49 59 36 60 37 61 42 62 38 63 39 64 41 65 43 66
REMARK SMILES IDX 40 67 62 68 63 69 68 70 64 71 65 72 67 73 69 74 66 75 50 76
REMARK SMILES IDX 51 77 56 78 52 79 53 80 55 81 57 82 54 83
REMARK H PARENT 5 11 74 45 48 56
REMARK Flexibility Score: inf
ROOT
ATOM      1  C   UNL A   1      35.708  19.968  25.001  1.00  0.00     0.274 C 
ENDROOT
BRANCH   1   2
ATOM      2  O   UNL A   1      34.729  20.962  24.636  1.00  0.00    -0.461 OA
BRANCH   2   3
ATOM      3  C   UNL A   1      33.603  20.952  25.396  1.00  0.00     0.329 C 
ATOM      4  O   UNL A   1      33.030  19.931  25.766  1.00  0.00    -0.250 OA
BRANCH   3   5
ATOM      5  C   UNL A   1      33.018  22.350  25.651  1.00  0.00     0.194 C 
BRANCH   5   6
ATOM      6  C   UNL A   1      34.051  23.249  26.393  1.00  0.00     0.017 C 
ATOM      7  C   UNL A   1      34.732  22.541  27.572  1.00  0.00     0.010 C 
ATOM      8  C   UNL A   1      35.109  23.835  25.455  1.00  0.00     0.010 C 
ENDBRANCH   5   6
BRANCH   5   9
ATOM      9  N   UNL A   1      31.732  22.443  26.364  1.00  0.00    -0.342 N 
ATOM     10  C   UNL A   1      30.788  23.434  26.299  1.00  0.00     0.225 C 
ATOM     11  H   UNL A   1      31.522  21.694  26.966  1.00  0.00     0.164 HD
ATOM     12  O   UNL A   1      30.017  23.563  27.251  1.00  0.00    -0.275 OA
BRANCH  10  13
ATOM     13  C   UNL A   1      30.654  24.265  25.050  1.00  0.00     0.136 C 
BRANCH  13  14
ATOM     14  C   UNL A   1      31.587  25.423  24.709  1.00  0.00    -0.031 A 
ATOM     15  C   UNL A   1      32.277  25.251  23.483  1.00  0.00     0.005 A 
ATOM     16  C   UNL A   1      31.969  26.510  25.553  1.00  0.00    -0.015 A 
ATOM     17  C   UNL A   1      33.348  26.058  23.119  1.00  0.00     0.001 A 
ATOM     18  C   UNL A   1      33.120  27.274  25.200  1.00  0.00    -0.018 A 
ATOM     19  C   UNL A   1      31.296  26.914  26.729  1.00  0.00     0.009 A 
ATOM     20  C   UNL A   1      33.788  27.039  23.994  1.00  0.00     0.009 A 
ATOM     21  C   UNL A   1      33.607  28.276  26.056  1.00  0.00     0.009 A 
ATOM     22  C   UNL A   1      31.786  27.920  27.570  1.00  0.00     0.001 A 
ATOM     23  C   UNL A   1      32.957  28.585  27.246  1.00  0.00     0.001 A 
ENDBRANCH  13  14
ENDBRANCH  10  13
ENDBRANCH   5   9
ENDBRANCH   3   5
ENDBRANCH   2   3
ENDBRANCH   1   2
BRANCH   1  24
ATOM     24  C   UNL A   1      37.133  20.373  24.626  1.00  0.00     0.275 C 
BRANCH  24  25
ATOM     25  O   UNL A   1      37.619  21.443  25.454  1.00  0.00    -0.458 OA
BRANCH  25  26
ATOM     26  C   UNL A   1      38.882  21.278  25.905  1.00  0.00     0.338 C 
ATOM     27  O   UNL A   1      39.608  20.309  25.751  1.00  0.00    -0.246 OA
BRANCH  26  28
ATOM     28  C   UNL A   1      39.344  22.480  26.607  1.00  0.00     0.060 A 
ATOM     29  C   UNL A   1      38.789  23.710  26.257  1.00  0.00     0.016 A 
ATOM     30  C   UNL A   1      40.475  22.418  27.421  1.00  0.00     0.016 A 
ATOM     31  C   UNL A   1      39.434  24.885  26.626  1.00  0.00     0.010 A 
ATOM     32  C   UNL A   1      41.084  23.605  27.844  1.00  0.00     0.010 A 
ATOM     33  C   UNL A   1      40.606  24.848  27.398  1.00  0.00    -0.014 A 
BRANCH  33  34
ATOM     34  C   UNL A   1      41.375  26.100  27.640  1.00  0.00     0.031 A 
ATOM     35  C   UNL A   1      40.809  27.179  28.528  1.00  0.00     0.074 A 
ATOM     36  C   UNL A   1      42.611  26.256  27.128  1.00  0.00     0.049 A 
ATOM     37  N   UNL A   1      41.267  28.385  28.757  1.00  0.00    -0.248 NA
ATOM     38  C   UNL A   1      39.566  26.866  29.250  1.00  0.00     0.031 C 
ATOM     39  C   UNL A   1      43.317  25.279  26.300  1.00  0.00     0.029 A 
ATOM     40  N   UNL A   1      43.503  27.291  27.257  1.00  0.00    -0.354 N 
ATOM     41  C   UNL A   1      40.334  28.996  29.585  1.00  0.00     0.074 A 
ATOM     42  C   UNL A   1      39.299  28.019  29.848  1.00  0.00     0.031 C 
ATOM     43  C   UNL A   1      44.554  25.735  26.043  1.00  0.00     0.029 A 
ATOM     44  C   UNL A   1      44.704  27.060  26.637  1.00  0.00     0.049 A 
ATOM     45  H   UNL A   1      43.299  28.121  27.748  1.00  0.00     0.167 HD
ATOM     46  C   UNL A   1      40.332  30.260  30.070  1.00  0.00     0.037 A 
ATOM     47  C   UNL A   1      45.800  27.833  26.540  1.00  0.00     0.037 A 
ATOM     48  C   UNL A   1      41.386  31.217  29.876  1.00  0.00     0.049 A 
ATOM     49  C   UNL A   1      45.799  29.212  27.129  1.00  0.00     0.074 A 
ATOM     50  C   UNL A   1      41.454  32.533  30.302  1.00  0.00     0.029 A 
ATOM     51  N   UNL A   1      42.580  30.946  29.228  1.00  0.00    -0.354 N 
ATOM     52  N   UNL A   1      44.854  29.819  27.801  1.00  0.00    -0.248 NA
ATOM     53  C   UNL A   1      47.007  30.023  26.918  1.00  0.00     0.031 C 
ATOM     54  C   UNL A   1      42.693  33.058  29.915  1.00  0.00     0.029 A 
ATOM     55  C   UNL A   1      43.397  32.063  29.257  1.00  0.00     0.049 A 
ATOM     56  H   UNL A   1      42.813  30.085  28.809  1.00  0.00     0.167 HD
ATOM     57  C   UNL A   1      45.339  31.091  28.070  1.00  0.00     0.074 A 
ATOM     58  C   UNL A   1      46.677  31.157  27.521  1.00  0.00     0.031 C 
ATOM     59  C   UNL A   1      44.721  32.117  28.699  1.00  0.00     0.037 A 
BRANCH  46  60
ATOM     60  C   UNL A   1      39.123  30.696  30.838  1.00  0.00     0.057 A 
ATOM     61  C   UNL A   1      38.022  31.287  30.210  1.00  0.00     0.134 A 
ATOM     62  C   UNL A   1      39.051  30.485  32.221  1.00  0.00     0.134 A 
ATOM     63  F   UNL A   1      38.041  31.527  28.890  1.00  0.00    -0.206 F 
ATOM     64  C   UNL A   1      36.889  31.661  30.935  1.00  0.00     0.040 A 
ATOM     65  C   UNL A   1      37.920  30.844  32.954  1.00  0.00     0.040 A 
ATOM     66  F   UNL A   1      40.077  29.923  32.877  1.00  0.00    -0.206 F 
ATOM     67  C   UNL A   1      36.835  31.434  32.310  1.00  0.00     0.006 A 
ENDBRANCH  46  60
BRANCH  47  68
ATOM     68  C   UNL A   1      46.993  27.321  25.831  1.00  0.00     0.057 A 
ATOM     69  C   UNL A   1      47.980  26.605  26.516  1.00  0.00     0.134 A 
ATOM     70  C   UNL A   1      47.165  27.522  24.457  1.00  0.00     0.134 A 
ATOM     71  F   UNL A   1      47.870  26.400  27.836  1.00  0.00    -0.206 F 
ATOM     72  C   UNL A   1      49.102  26.105  25.856  1.00  0.00     0.040 A 
ATOM     73  C   UNL A   1      48.276  27.016  23.783  1.00  0.00     0.040 A 
ATOM     74  F   UNL A   1      46.249  28.203  23.754  1.00  0.00    -0.206 F 
ATOM     75  C   UNL A   1      49.248  26.306  24.485  1.00  0.00     0.006 A 
ENDBRANCH  47  68
BRANCH  59  76
ATOM     76  C   UNL A   1      45.478  33.400  28.804  1.00  0.00     0.057 A 
ATOM     77  C   UNL A   1      46.329  33.648  29.888  1.00  0.00     0.134 A 
ATOM     78  C   UNL A   1      45.378  34.382  27.814  1.00  0.00     0.134 A 
ATOM     79  F   UNL A   1      46.456  32.746  30.872  1.00  0.00    -0.206 F 
ATOM     80  C   UNL A   1      47.050  34.838  29.988  1.00  0.00     0.040 A 
ATOM     81  C   UNL A   1      46.100  35.573  27.898  1.00  0.00     0.040 A 
ATOM     82  F   UNL A   1      44.575  34.201  26.754  1.00  0.00    -0.206 F 
ATOM     83  C   UNL A   1      46.938  35.803  28.988  1.00  0.00     0.006 A 
ENDBRANCH  59  76
ENDBRANCH  33  34
ENDBRANCH  26  28
ENDBRANCH  25  26
ENDBRANCH  24  25
ENDBRANCH   1  24
TORSDOF 15
ENDMDL
MODEL 3
REMARK VINA RESULT:     -11.3      1.067      1.933
REMARK SMILES CC(C)[C@H](NC(=O)Cc1cccc2ccccc12)C(=O)OCCOC(=O)c1ccc(-c2c3nc(c(-c4c(F)cccc4F)c4ccc([nH]4)c(-c4c(F)cccc4F)c4nc(c(-c5c(F)cccc5F)c5ccc2[nH]5)C=C4)C=C3)cc1
REMARK SMILES IDX 22 1 21 2 19 3 20 4 4 5 2 6 1 7 3 8 5 9 6 10 7 12 8 13 9 14
REMARK SMILES IDX 10 15 18 16 11 17 13 18 17 19 12 20 14 21 16 22 15 23 23 24
REMARK SMILES IDX 24 25 25 26 26 27 27 28 28 29 80 30 29 31 79 32 30 33 31 34
REMARK SMILES IDX 32 35 73 36 33 37 78 38 72 39 74 40 34 41 77 42 71 43 70 44
REMARK SMILES IDX 35 46 61 47 44 48 60 49 45 50 48 51 59 52 75 53 46 54 47 55
REMARK SMILES IDX 58 57 76 58 49 59 36 60 37 61 42 62 38 63 39 64 41 65 43 66
REMARK SMILES IDX 40 67 62 68 63 69 68 70 64 71 65 72 67 73 69 74 66 75 50 76
REMARK SMILES IDX 51 77 56 78 52 79 53 80 55 81 57 82 54 83
REMARK H PARENT 5 11 74 45 48 56
REMARK Flexibility Score: inf
ROOT
ATOM      1  C   UNL A   1      31.472  28.487  25.485  1.00  0.00     0.274 C 
ENDROOT
BRANCH   1   2
ATOM      2  O   UNL A   1      31.041  27.283  26.151  1.00  0.00    -0.461 OA
BRANCH   2   3
ATOM      3  C   UNL A   1      30.685  26.272  25.316  1.00  0.00     0.329 C 
ATOM      4  O   UNL A   1      29.524  25.955  25.072  1.00  0.00    -0.250 OA
BRANCH   3   5
ATOM      5  C   UNL A   1      31.877  25.457  24.790  1.00  0.00     0.194 C 
BRANCH   5   6
ATOM      6  C   UNL A   1      32.952  25.278  25.903  1.00  0.00     0.017 C 
ATOM      7  C   UNL A   1      32.904  23.899  26.574  1.00  0.00     0.010 C 
ATOM      8  C   UNL A   1      34.371  25.569  25.408  1.00  0.00     0.010 C 
ENDBRANCH   5   6
BRANCH   5   9
ATOM      9  N   UNL A   1      32.554  25.929  23.569  1.00  0.00    -0.342 N 
ATOM     10  C   UNL A   1      33.167  25.191  22.591  1.00  0.00     0.225 C 
ATOM     11  H   UNL A   1      32.569  26.905  23.439  1.00  0.00     0.164 HD
ATOM     12  O   UNL A   1      34.028  25.742  21.904  1.00  0.00    -0.275 OA
BRANCH  10  13
ATOM     13  C   UNL A   1      32.716  23.780  22.319  1.00  0.00     0.136 C 
BRANCH  13  14
ATOM     14  C   UNL A   1      33.203  22.576  23.120  1.00  0.00    -0.031 A 
ATOM     15  C   UNL A   1      32.153  21.744  23.583  1.00  0.00     0.005 A 
ATOM     16  C   UNL A   1      34.525  22.325  23.596  1.00  0.00    -0.015 A 
ATOM     17  C   UNL A   1      32.363  20.749  24.531  1.00  0.00     0.001 A 
ATOM     18  C   UNL A   1      34.705  21.356  24.626  1.00  0.00    -0.018 A 
ATOM     19  C   UNL A   1      35.701  22.955  23.129  1.00  0.00     0.009 A 
ATOM     20  C   UNL A   1      33.627  20.585  25.075  1.00  0.00     0.009 A 
ATOM     21  C   UNL A   1      35.967  21.156  25.212  1.00  0.00     0.009 A 
ATOM     22  C   UNL A   1      36.955  22.742  23.715  1.00  0.00     0.001 A 
ATOM     23  C   UNL A   1      37.083  21.860  24.774  1.00  0.00     0.001 A 
ENDBRANCH  13  14
ENDBRANCH  10  13
ENDBRANCH   5   9
ENDBRANCH   3   5
ENDBRANCH   2   3
ENDBRANCH   1   2
BRANCH   1  24
ATOM     24  C   UNL A   1      31.669  29.659  26.447  1.00  0.00     0.275 C 
BRANCH  24  25
ATOM     25  O   UNL A   1      32.798  30.470  26.076  1.00  0.00    -0.458 OA
BRANCH  25  26
ATOM     26  C   UNL A   1      33.234  31.304  27.045  1.00  0.00     0.338 C 
ATOM     27  O   UNL A   1      32.610  32.195  27.599  1.00  0.00    -0.246 OA
BRANCH  26  28
ATOM     28  C   UNL A   1      34.613  30.981  27.425  1.00  0.00     0.060 A 
ATOM     29  C   UNL A   1      34.952  29.645  27.631  1.00  0.00     0.016 A 
ATOM     30  C   UNL A   1      35.485  32.001  27.806  1.00  0.00     0.016 A 
ATOM     31  C   UNL A   1      36.115  29.330  28.325  1.00  0.00     0.010 A 
ATOM     32  C   UNL A   1      36.687  31.676  28.446  1.00  0.00     0.010 A 
ATOM     33  C   UNL A   1      36.982  30.341  28.768  1.00  0.00    -0.014 A 
BRANCH  33  34
ATOM     34  C   UNL A   1      38.130  29.999  29.653  1.00  0.00     0.031 A 
ATOM     35  C   UNL A   1      39.286  29.191  29.118  1.00  0.00     0.074 A 
ATOM     36  C   UNL A   1      38.184  30.462  30.916  1.00  0.00     0.049 A 
ATOM     37  N   UNL A   1      40.310  28.689  29.763  1.00  0.00    -0.248 NA
ATOM     38  C   UNL A   1      39.293  28.909  27.674  1.00  0.00     0.031 C 
ATOM     39  C   UNL A   1      37.174  31.302  31.558  1.00  0.00     0.029 A 
ATOM     40  N   UNL A   1      39.152  30.310  31.878  1.00  0.00    -0.354 N 
ATOM     41  C   UNL A   1      41.037  27.971  28.821  1.00  0.00     0.074 A 
ATOM     42  C   UNL A   1      40.359  28.130  27.553  1.00  0.00     0.031 C 
ATOM     43  C   UNL A   1      37.601  31.640  32.786  1.00  0.00     0.029 A 
ATOM     44  C   UNL A   1      38.883  30.991  33.038  1.00  0.00     0.049 A 
ATOM     45  H   UNL A   1      39.961  29.764  31.747  1.00  0.00     0.167 HD
ATOM     46  C   UNL A   1      42.160  27.235  29.000  1.00  0.00     0.037 A 
ATOM     47  C   UNL A   1      39.581  31.072  34.185  1.00  0.00     0.037 A 
ATOM     48  C   UNL A   1      42.883  27.126  30.237  1.00  0.00     0.049 A 
ATOM     49  C   UNL A   1      40.850  30.291  34.346  1.00  0.00     0.074 A 
ATOM     50  C   UNL A   1      44.012  26.375  30.519  1.00  0.00     0.029 A 
ATOM     51  N   UNL A   1      42.567  27.822  31.393  1.00  0.00    -0.354 N 
ATOM     52  N   UNL A   1      41.455  29.515  33.483  1.00  0.00    -0.248 NA
ATOM     53  C   UNL A   1      41.516  30.373  35.655  1.00  0.00     0.031 C 
ATOM     54  C   UNL A   1      44.383  26.621  31.847  1.00  0.00     0.029 A 
ATOM     55  C   UNL A   1      43.488  27.532  32.384  1.00  0.00     0.049 A 
ATOM     56  H   UNL A   1      41.802  28.433  31.493  1.00  0.00     0.167 HD
ATOM     57  C   UNL A   1      42.556  28.996  34.149  1.00  0.00     0.074 A 
ATOM     58  C   UNL A   1      42.557  29.572  35.477  1.00  0.00     0.031 C 
ATOM     59  C   UNL A   1      43.471  28.105  33.702  1.00  0.00     0.037 A 
BRANCH  46  60
ATOM     60  C   UNL A   1      42.660  26.455  27.825  1.00  0.00     0.057 A 
ATOM     61  C   UNL A   1      42.211  25.159  27.553  1.00  0.00     0.134 A 
ATOM     62  C   UNL A   1      43.578  27.029  26.935  1.00  0.00     0.134 A 
ATOM     63  F   UNL A   1      41.344  24.553  28.378  1.00  0.00    -0.206 F 
ATOM     64  C   UNL A   1      42.664  24.454  26.436  1.00  0.00     0.040 A 
ATOM     65  C   UNL A   1      44.029  26.339  25.810  1.00  0.00     0.040 A 
ATOM     66  F   UNL A   1      44.045  28.268  27.145  1.00  0.00    -0.206 F 
ATOM     67  C   UNL A   1      43.572  25.047  25.558  1.00  0.00     0.006 A 
ENDBRANCH  46  60
BRANCH  47  68
ATOM     68  C   UNL A   1      39.074  31.918  35.288  1.00  0.00     0.057 A 
ATOM     69  C   UNL A   1      39.364  33.285  35.332  1.00  0.00     0.134 A 
ATOM     70  C   UNL A   1      38.280  31.383  36.308  1.00  0.00     0.134 A 
ATOM     71  F   UNL A   1      40.134  33.842  34.386  1.00  0.00    -0.206 F 
ATOM     72  C   UNL A   1      38.880  34.096  36.358  1.00  0.00     0.040 A 
ATOM     73  C   UNL A   1      37.780  32.186  37.334  1.00  0.00     0.040 A 
ATOM     74  F   UNL A   1      37.974  30.078  36.314  1.00  0.00    -0.206 F 
ATOM     75  C   UNL A   1      38.081  33.546  37.360  1.00  0.00     0.006 A 
ENDBRANCH  47  68
BRANCH  59  76
ATOM     76  C   UNL A   1      44.533  27.686  34.667  1.00  0.00     0.057 A 
ATOM     77  C   UNL A   1      45.733  28.398  34.771  1.00  0.00     0.134 A 
ATOM     78  C   UNL A   1      44.349  26.585  35.510  1.00  0.00     0.134 A 
ATOM     79  F   UNL A   1      45.967  29.455  33.980  1.00  0.00    -0.206 F 
ATOM     80  C   UNL A   1      46.724  28.021  35.678  1.00  0.00     0.040 A 
ATOM     81  C   UNL A   1      45.330  26.203  36.426  1.00  0.00     0.040 A 
ATOM     82  F   UNL A   1      43.220  25.864  35.452  1.00  0.00    -0.206 F 
ATOM     83  C   UNL A   1      46.521  26.921  36.511  1.00  0.00     0.006 A 
ENDBRANCH  59  76
ENDBRANCH  33  34
ENDBRANCH  26  28
ENDBRANCH  25  26
ENDBRANCH  24  25
ENDBRANCH   1  24
TORSDOF 15
ENDMDL
