MODEL 1
REMARK VINA RESULT:     -11.5      0.000      0.000
REMARK SMILES O=C(OCCOC(=O)c1cc(-c2cc(Cl)ccc2Cl)cc([N+](=O)[O-])c1)c1ccc(-c2c3nc(c(-c4c(F)cccc4F)c4ccc([nH]4)c(-c4c(F)cccc4F)c4nc(c(-c5c(F)cccc5F)c5ccc2[nH]5)C=C4)C=C3)cc1
REMARK SMILES IDX 4 1 3 2 2 3 1 4 26 5 27 6 79 7 28 8 78 9 29 10 30 11 31 12
REMARK SMILES IDX 72 13 32 14 77 15 71 16 73 17 33 18 76 19 70 20 69 21 34 23
REMARK SMILES IDX 60 24 43 25 59 26 44 27 47 28 58 29 74 30 45 31 46 32 57 34
REMARK SMILES IDX 75 35 48 36 35 37 36 38 41 39 37 40 38 41 40 42 42 43 39 44
REMARK SMILES IDX 61 45 62 46 67 47 63 48 64 49 66 50 68 51 65 52 49 53 50 54
REMARK SMILES IDX 55 55 51 56 52 57 54 58 56 59 53 60 5 61 6 62 7 63 8 64 9 65
REMARK SMILES IDX 10 66 25 67 11 68 21 69 20 70 12 71 13 72 18 73 14 74 17 75
REMARK SMILES IDX 19 76 15 77 16 78 22 79 23 80 24 81
REMARK H PARENT 73 22 47 33
REMARK Flexibility Score: inf
ROOT
ATOM      1  C   UNL A   1      31.531  26.192  22.248  1.00  0.00     0.275 C 
ENDROOT
BRANCH   1   2
ATOM      2  O   UNL A   1      31.828  27.206  23.225  1.00  0.00    -0.458 OA
BRANCH   2   3
ATOM      3  C   UNL A   1      31.971  27.122  24.567  1.00  0.00     0.338 C 
ATOM      4  O   UNL A   1      31.118  26.512  25.211  1.00  0.00    -0.246 OA
BRANCH   3   5
ATOM      5  C   UNL A   1      33.033  27.839  25.346  1.00  0.00     0.060 A 
ATOM      6  C   UNL A   1      34.062  28.622  24.821  1.00  0.00     0.016 A 
ATOM      7  C   UNL A   1      32.955  27.724  26.747  1.00  0.00     0.016 A 
ATOM      8  C   UNL A   1      34.925  29.337  25.653  1.00  0.00     0.010 A 
ATOM      9  C   UNL A   1      33.805  28.448  27.588  1.00  0.00     0.010 A 
ATOM     10  C   UNL A   1      34.797  29.266  27.039  1.00  0.00    -0.014 A 
BRANCH  10  11
ATOM     11  C   UNL A   1      35.802  29.924  27.896  1.00  0.00     0.031 A 
ATOM     12  C   UNL A   1      35.401  31.163  28.634  1.00  0.00     0.074 A 
ATOM     13  C   UNL A   1      37.022  29.385  28.078  1.00  0.00     0.049 A 
ATOM     14  N   UNL A   1      36.107  31.897  29.452  1.00  0.00    -0.248 NA
ATOM     15  C   UNL A   1      34.007  31.608  28.470  1.00  0.00     0.031 C 
ATOM     16  C   UNL A   1      37.470  28.101  27.546  1.00  0.00     0.029 A 
ATOM     17  N   UNL A   1      38.117  29.858  28.755  1.00  0.00    -0.354 N 
ATOM     18  C   UNL A   1      35.231  32.852  29.940  1.00  0.00     0.074 A 
ATOM     19  C   UNL A   1      33.964  32.661  29.271  1.00  0.00     0.031 C 
ATOM     20  C   UNL A   1      38.771  27.931  27.837  1.00  0.00     0.029 A 
ATOM     21  C   UNL A   1      39.245  29.093  28.571  1.00  0.00     0.049 A 
ATOM     22  H   UNL A   1      38.099  30.666  29.317  1.00  0.00     0.167 HD
ATOM     23  C   UNL A   1      35.457  33.778  30.898  1.00  0.00     0.037 A 
ATOM     24  C   UNL A   1      40.520  29.319  28.936  1.00  0.00     0.037 A 
ATOM     25  C   UNL A   1      36.729  33.967  31.539  1.00  0.00     0.049 A 
ATOM     26  C   UNL A   1      40.801  30.493  29.824  1.00  0.00     0.074 A 
ATOM     27  C   UNL A   1      37.072  34.877  32.522  1.00  0.00     0.029 A 
ATOM     28  N   UNL A   1      37.875  33.242  31.243  1.00  0.00    -0.354 N 
ATOM     29  N   UNL A   1      39.961  31.376  30.305  1.00  0.00    -0.248 NA
ATOM     30  C   UNL A   1      42.189  30.667  30.270  1.00  0.00     0.031 C 
ATOM     31  C   UNL A   1      38.440  34.744  32.775  1.00  0.00     0.029 A 
ATOM     32  C   UNL A   1      38.938  33.712  31.994  1.00  0.00     0.049 A 
ATOM     33  H   UNL A   1      37.923  32.502  30.595  1.00  0.00     0.167 HD
ATOM     34  C   UNL A   1      40.702  32.172  31.162  1.00  0.00     0.074 A 
ATOM     35  C   UNL A   1      42.063  31.675  31.121  1.00  0.00     0.031 C 
ATOM     36  C   UNL A   1      40.284  33.203  31.936  1.00  0.00     0.037 A 
BRANCH  23  37
ATOM     37  C   UNL A   1      34.307  34.656  31.281  1.00  0.00     0.057 A 
ATOM     38  C   UNL A   1      33.803  35.635  30.415  1.00  0.00     0.134 A 
ATOM     39  C   UNL A   1      33.695  34.521  32.531  1.00  0.00     0.134 A 
ATOM     40  F   UNL A   1      34.365  35.834  29.212  1.00  0.00    -0.206 F 
ATOM     41  C   UNL A   1      32.741  36.461  30.786  1.00  0.00     0.040 A 
ATOM     42  C   UNL A   1      32.618  35.325  32.906  1.00  0.00     0.040 A 
ATOM     43  F   UNL A   1      34.137  33.609  33.411  1.00  0.00    -0.206 F 
ATOM     44  C   UNL A   1      32.141  36.301  32.033  1.00  0.00     0.006 A 
ENDBRANCH  23  37
BRANCH  24  45
ATOM     45  C   UNL A   1      41.617  28.442  28.461  1.00  0.00     0.057 A 
ATOM     46  C   UNL A   1      42.105  28.501  27.153  1.00  0.00     0.134 A 
ATOM     47  C   UNL A   1      42.160  27.468  29.308  1.00  0.00     0.134 A 
ATOM     48  F   UNL A   1      41.595  29.385  26.283  1.00  0.00    -0.206 F 
ATOM     49  C   UNL A   1      43.086  27.616  26.698  1.00  0.00     0.040 A 
ATOM     50  C   UNL A   1      43.162  26.595  28.877  1.00  0.00     0.040 A 
ATOM     51  F   UNL A   1      41.693  27.326  30.556  1.00  0.00    -0.206 F 
ATOM     52  C   UNL A   1      43.622  26.663  27.564  1.00  0.00     0.006 A 
ENDBRANCH  24  45
BRANCH  36  53
ATOM     53  C   UNL A   1      41.305  33.824  32.840  1.00  0.00     0.057 A 
ATOM     54  C   UNL A   1      42.171  34.831  32.399  1.00  0.00     0.134 A 
ATOM     55  C   UNL A   1      41.399  33.421  34.178  1.00  0.00     0.134 A 
ATOM     56  F   UNL A   1      42.141  35.245  31.123  1.00  0.00    -0.206 F 
ATOM     57  C   UNL A   1      43.113  35.401  33.254  1.00  0.00     0.040 A 
ATOM     58  C   UNL A   1      42.314  34.007  35.050  1.00  0.00     0.040 A 
ATOM     59  F   UNL A   1      40.592  32.465  34.662  1.00  0.00    -0.206 F 
ATOM     60  C   UNL A   1      43.180  34.995  34.586  1.00  0.00     0.006 A 
ENDBRANCH  36  53
ENDBRANCH  10  11
ENDBRANCH   3   5
ENDBRANCH   2   3
ENDBRANCH   1   2
BRANCH   1  61
ATOM     61  C   UNL A   1      32.713  25.780  21.363  1.00  0.00     0.275 C 
BRANCH  61  62
ATOM     62  O   UNL A   1      33.789  25.143  22.073  1.00  0.00    -0.458 OA
BRANCH  62  63
ATOM     63  C   UNL A   1      33.520  23.892  22.523  1.00  0.00     0.338 C 
ATOM     64  O   UNL A   1      33.093  22.953  21.866  1.00  0.00    -0.246 OA
BRANCH  63  65
ATOM     65  C   UNL A   1      33.932  23.765  23.935  1.00  0.00     0.067 A 
ATOM     66  C   UNL A   1      35.301  23.630  24.225  1.00  0.00     0.025 A 
ATOM     67  C   UNL A   1      32.982  23.687  24.953  1.00  0.00     0.101 A 
ATOM     68  C   UNL A   1      35.744  23.491  25.552  1.00  0.00    -0.009 A 
ATOM     69  C   UNL A   1      33.425  23.520  26.272  1.00  0.00     0.270 A 
ATOM     70  C   UNL A   1      34.789  23.508  26.579  1.00  0.00     0.094 A 
BRANCH  68  71
ATOM     71  C   UNL A   1      37.143  23.163  25.868  1.00  0.00     0.002 A 
ATOM     72  C   UNL A   1      38.008  24.124  26.420  1.00  0.00     0.030 A 
ATOM     73  C   UNL A   1      37.659  21.866  25.634  1.00  0.00     0.048 A 
ATOM     74  C   UNL A   1      39.333  23.797  26.725  1.00  0.00     0.041 A 
ATOM     75  C   UNL A   1      38.981  21.545  25.952  1.00  0.00     0.023 A 
ATOM     76  Cl  UNL A   1      36.704  20.607  24.919  1.00  0.00    -0.084 Cl
ATOM     77  Cl  UNL A   1      40.376  24.990  27.397  1.00  0.00    -0.084 Cl
ATOM     78  C   UNL A   1      39.821  22.513  26.495  1.00  0.00     0.022 A 
ENDBRANCH  68  71
BRANCH  69  79
ATOM     79  N   UNL A   1      32.463  23.209  27.333  1.00  0.00     0.062 N 
ATOM     80  O   UNL A   1      31.346  23.739  27.276  1.00  0.00    -0.258 OA
ATOM     81  O   UNL A   1      32.842  22.460  28.246  1.00  0.00    -0.258 OA
ENDBRANCH  69  79
ENDBRANCH  63  65
ENDBRANCH  62  63
ENDBRANCH  61  62
ENDBRANCH   1  61
TORSDOF 13
ENDMDL
MODEL 2
REMARK VINA RESULT:     -11.5      3.298      5.584
REMARK SMILES O=C(OCCOC(=O)c1cc(-c2cc(Cl)ccc2Cl)cc([N+](=O)[O-])c1)c1ccc(-c2c3nc(c(-c4c(F)cccc4F)c4ccc([nH]4)c(-c4c(F)cccc4F)c4nc(c(-c5c(F)cccc5F)c5ccc2[nH]5)C=C4)C=C3)cc1
REMARK SMILES IDX 4 1 3 2 2 3 1 4 26 5 27 6 79 7 28 8 78 9 29 10 30 11 31 12
REMARK SMILES IDX 72 13 32 14 77 15 71 16 73 17 33 18 76 19 70 20 69 21 34 23
REMARK SMILES IDX 60 24 43 25 59 26 44 27 47 28 58 29 74 30 45 31 46 32 57 34
REMARK SMILES IDX 75 35 48 36 35 37 36 38 41 39 37 40 38 41 40 42 42 43 39 44
REMARK SMILES IDX 61 45 62 46 67 47 63 48 64 49 66 50 68 51 65 52 49 53 50 54
REMARK SMILES IDX 55 55 51 56 52 57 54 58 56 59 53 60 5 61 6 62 7 63 8 64 9 65
REMARK SMILES IDX 10 66 25 67 11 68 21 69 20 70 12 71 13 72 18 73 14 74 17 75
REMARK SMILES IDX 19 76 15 77 16 78 22 79 23 80 24 81
REMARK H PARENT 73 22 47 33
REMARK Flexibility Score: inf
ROOT
ATOM      1  C   UNL A   1      31.552  31.901  26.869  1.00  0.00     0.275 C 
ENDROOT
BRANCH   1   2
ATOM      2  O   UNL A   1      32.221  33.174  26.924  1.00  0.00    -0.458 OA
BRANCH   2   3
ATOM      3  C   UNL A   1      32.977  33.731  27.897  1.00  0.00     0.338 C 
ATOM      4  O   UNL A   1      32.691  34.863  28.286  1.00  0.00    -0.246 OA
BRANCH   3   5
ATOM      5  C   UNL A   1      34.229  33.114  28.446  1.00  0.00     0.060 A 
ATOM      6  C   UNL A   1      35.535  33.379  28.034  1.00  0.00     0.016 A 
ATOM      7  C   UNL A   1      34.053  32.198  29.501  1.00  0.00     0.016 A 
ATOM      8  C   UNL A   1      36.631  32.829  28.701  1.00  0.00     0.010 A 
ATOM      9  C   UNL A   1      35.144  31.653  30.184  1.00  0.00     0.010 A 
ATOM     10  C   UNL A   1      36.446  31.974  29.785  1.00  0.00    -0.014 A 
BRANCH  10  11
ATOM     11  C   UNL A   1      37.614  31.301  30.388  1.00  0.00     0.031 A 
ATOM     12  C   UNL A   1      38.035  31.711  31.765  1.00  0.00     0.074 A 
ATOM     13  C   UNL A   1      38.238  30.290  29.755  1.00  0.00     0.049 A 
ATOM     14  N   UNL A   1      39.014  31.251  32.495  1.00  0.00    -0.248 NA
ATOM     15  C   UNL A   1      37.215  32.740  32.428  1.00  0.00     0.031 C 
ATOM     16  C   UNL A   1      37.819  29.694  28.490  1.00  0.00     0.029 A 
ATOM     17  N   UNL A   1      39.368  29.589  30.088  1.00  0.00    -0.354 N 
ATOM     18  C   UNL A   1      38.895  31.891  33.718  1.00  0.00     0.074 A 
ATOM     19  C   UNL A   1      37.801  32.830  33.610  1.00  0.00     0.031 C 
ATOM     20  C   UNL A   1      38.730  28.783  28.107  1.00  0.00     0.029 A 
ATOM     21  C   UNL A   1      39.793  28.736  29.097  1.00  0.00     0.049 A 
ATOM     22  H   UNL A   1      39.832  29.687  30.951  1.00  0.00     0.167 HD
ATOM     23  C   UNL A   1      39.610  31.677  34.844  1.00  0.00     0.037 A 
ATOM     24  C   UNL A   1      40.925  28.015  28.994  1.00  0.00     0.037 A 
ATOM     25  C   UNL A   1      40.707  30.753  34.928  1.00  0.00     0.049 A 
ATOM     26  C   UNL A   1      41.838  27.963  30.180  1.00  0.00     0.074 A 
ATOM     27  C   UNL A   1      41.503  30.457  36.019  1.00  0.00     0.029 A 
ATOM     28  N   UNL A   1      41.174  29.988  33.868  1.00  0.00    -0.354 N 
ATOM     29  N   UNL A   1      41.703  28.549  31.345  1.00  0.00    -0.248 NA
ATOM     30  C   UNL A   1      43.024  27.106  30.065  1.00  0.00     0.031 C 
ATOM     31  C   UNL A   1      42.491  29.560  35.601  1.00  0.00     0.029 A 
ATOM     32  C   UNL A   1      42.276  29.252  34.267  1.00  0.00     0.049 A 
ATOM     33  H   UNL A   1      40.779  29.972  32.966  1.00  0.00     0.167 HD
ATOM     34  C   UNL A   1      42.747  28.082  32.125  1.00  0.00     0.074 A 
ATOM     35  C   UNL A   1      43.516  27.177  31.294  1.00  0.00     0.031 C 
ATOM     36  C   UNL A   1      43.026  28.357  33.423  1.00  0.00     0.037 A 
BRANCH  23  37
ATOM     37  C   UNL A   1      39.230  32.473  36.054  1.00  0.00     0.057 A 
ATOM     38  C   UNL A   1      39.764  33.745  36.299  1.00  0.00     0.134 A 
ATOM     39  C   UNL A   1      38.320  31.962  36.984  1.00  0.00     0.134 A 
ATOM     40  F   UNL A   1      40.664  34.280  35.459  1.00  0.00    -0.206 F 
ATOM     41  C   UNL A   1      39.417  34.474  37.438  1.00  0.00     0.040 A 
ATOM     42  C   UNL A   1      37.948  32.690  38.115  1.00  0.00     0.040 A 
ATOM     43  F   UNL A   1      37.781  30.745  36.812  1.00  0.00    -0.206 F 
ATOM     44  C   UNL A   1      38.501  33.948  38.346  1.00  0.00     0.006 A 
ENDBRANCH  23  37
BRANCH  24  45
ATOM     45  C   UNL A   1      41.267  27.305  27.737  1.00  0.00     0.057 A 
ATOM     46  C   UNL A   1      40.978  25.952  27.544  1.00  0.00     0.134 A 
ATOM     47  C   UNL A   1      41.958  27.969  26.716  1.00  0.00     0.134 A 
ATOM     48  F   UNL A   1      40.355  25.252  28.504  1.00  0.00    -0.206 F 
ATOM     49  C   UNL A   1      41.375  25.277  26.386  1.00  0.00     0.040 A 
ATOM     50  C   UNL A   1      42.335  27.316  25.540  1.00  0.00     0.040 A 
ATOM     51  F   UNL A   1      42.312  29.252  26.868  1.00  0.00    -0.206 F 
ATOM     52  C   UNL A   1      42.050  25.963  25.377  1.00  0.00     0.006 A 
ENDBRANCH  24  45
BRANCH  36  53
ATOM     53  C   UNL A   1      44.181  27.625  34.033  1.00  0.00     0.057 A 
ATOM     54  C   UNL A   1      44.034  26.362  34.616  1.00  0.00     0.134 A 
ATOM     55  C   UNL A   1      45.463  28.189  34.009  1.00  0.00     0.134 A 
ATOM     56  F   UNL A   1      42.827  25.780  34.685  1.00  0.00    -0.206 F 
ATOM     57  C   UNL A   1      45.121  25.692  35.177  1.00  0.00     0.040 A 
ATOM     58  C   UNL A   1      46.563  27.515  34.537  1.00  0.00     0.040 A 
ATOM     59  F   UNL A   1      45.669  29.395  33.459  1.00  0.00    -0.206 F 
ATOM     60  C   UNL A   1      46.391  26.266  35.130  1.00  0.00     0.006 A 
ENDBRANCH  36  53
ENDBRANCH  10  11
ENDBRANCH   3   5
ENDBRANCH   2   3
ENDBRANCH   1   2
BRANCH   1  61
ATOM     61  C   UNL A   1      32.460  30.706  26.554  1.00  0.00     0.275 C 
BRANCH  61  62
ATOM     62  O   UNL A   1      31.778  29.585  25.966  1.00  0.00    -0.458 OA
BRANCH  62  63
ATOM     63  C   UNL A   1      32.504  28.878  25.065  1.00  0.00     0.338 C 
ATOM     64  O   UNL A   1      33.142  29.327  24.124  1.00  0.00    -0.246 OA
BRANCH  63  65
ATOM     65  C   UNL A   1      32.524  27.451  25.444  1.00  0.00     0.067 A 
ATOM     66  C   UNL A   1      33.650  26.682  25.101  1.00  0.00     0.025 A 
ATOM     67  C   UNL A   1      31.416  26.854  26.044  1.00  0.00     0.101 A 
ATOM     68  C   UNL A   1      33.712  25.316  25.425  1.00  0.00    -0.009 A 
ATOM     69  C   UNL A   1      31.469  25.487  26.341  1.00  0.00     0.270 A 
ATOM     70  C   UNL A   1      32.632  24.743  26.114  1.00  0.00     0.094 A 
BRANCH  68  71
ATOM     71  C   UNL A   1      34.788  24.449  24.918  1.00  0.00     0.002 A 
ATOM     72  C   UNL A   1      35.951  24.218  25.672  1.00  0.00     0.030 A 
ATOM     73  C   UNL A   1      34.682  23.817  23.656  1.00  0.00     0.048 A 
ATOM     74  C   UNL A   1      36.962  23.385  25.183  1.00  0.00     0.041 A 
ATOM     75  C   UNL A   1      35.692  22.978  23.180  1.00  0.00     0.023 A 
ATOM     76  Cl  UNL A   1      33.316  24.058  22.614  1.00  0.00    -0.084 Cl
ATOM     77  Cl  UNL A   1      38.380  23.117  26.122  1.00  0.00    -0.084 Cl
ATOM     78  C   UNL A   1      36.836  22.764  23.943  1.00  0.00     0.022 A 
ENDBRANCH  68  71
BRANCH  69  79
ATOM     79  N   UNL A   1      30.255  24.780  26.760  1.00  0.00     0.062 N 
ATOM     80  O   UNL A   1      30.383  23.651  27.250  1.00  0.00    -0.258 OA
ATOM     81  O   UNL A   1      29.168  25.345  26.563  1.00  0.00    -0.258 OA
ENDBRANCH  69  79
ENDBRANCH  63  65
ENDBRANCH  62  63
ENDBRANCH  61  62
ENDBRANCH   1  61
TORSDOF 13
ENDMDL
MODEL 3
REMARK VINA RESULT:     -11.4      3.499      7.134
REMARK SMILES O=C(OCCOC(=O)c1cc(-c2cc(Cl)ccc2Cl)cc([N+](=O)[O-])c1)c1ccc(-c2c3nc(c(-c4c(F)cccc4F)c4ccc([nH]4)c(-c4c(F)cccc4F)c4nc(c(-c5c(F)cccc5F)c5ccc2[nH]5)C=C4)C=C3)cc1
REMARK SMILES IDX 4 1 3 2 2 3 1 4 26 5 27 6 79 7 28 8 78 9 29 10 30 11 31 12
REMARK SMILES IDX 72 13 32 14 77 15 71 16 73 17 33 18 76 19 70 20 69 21 34 23
REMARK SMILES IDX 60 24 43 25 59 26 44 27 47 28 58 29 74 30 45 31 46 32 57 34
REMARK SMILES IDX 75 35 48 36 35 37 36 38 41 39 37 40 38 41 40 42 42 43 39 44
REMARK SMILES IDX 61 45 62 46 67 47 63 48 64 49 66 50 68 51 65 52 49 53 50 54
REMARK SMILES IDX 55 55 51 56 52 57 54 58 56 59 53 60 5 61 6 62 7 63 8 64 9 65
REMARK SMILES IDX 10 66 25 67 11 68 21 69 20 70 12 71 13 72 18 73 14 74 17 75
REMARK SMILES IDX 19 76 15 77 16 78 22 79 23 80 24 81
REMARK H PARENT 73 22 47 33
REMARK Flexibility Score: inf
ROOT
ATOM      1  C   UNL A   1      32.398  29.941  26.960  1.00  0.00     0.275 C 
ENDROOT
BRANCH   1   2
ATOM      2  O   UNL A   1      33.828  30.009  27.104  1.00  0.00    -0.458 OA
BRANCH   2   3
ATOM      3  C   UNL A   1      34.592  30.617  28.039  1.00  0.00     0.338 C 
ATOM      4  O   UNL A   1      34.185  31.665  28.540  1.00  0.00    -0.246 OA
BRANCH   3   5
ATOM      5  C   UNL A   1      35.974  30.171  28.416  1.00  0.00     0.060 A 
ATOM      6  C   UNL A   1      36.382  29.695  29.663  1.00  0.00     0.016 A 
ATOM      7  C   UNL A   1      36.938  30.217  27.391  1.00  0.00     0.016 A 
ATOM      8  C   UNL A   1      37.671  29.198  29.862  1.00  0.00     0.010 A 
ATOM      9  C   UNL A   1      38.226  29.707  27.576  1.00  0.00     0.010 A 
ATOM     10  C   UNL A   1      38.597  29.188  28.821  1.00  0.00    -0.014 A 
BRANCH  10  11
ATOM     11  C   UNL A   1      39.990  28.781  29.092  1.00  0.00     0.031 A 
ATOM     12  C   UNL A   1      40.904  29.773  29.742  1.00  0.00     0.074 A 
ATOM     13  C   UNL A   1      40.411  27.528  28.839  1.00  0.00     0.049 A 
ATOM     14  N   UNL A   1      42.154  29.633  30.088  1.00  0.00    -0.248 NA
ATOM     15  C   UNL A   1      40.319  31.078  30.096  1.00  0.00     0.031 C 
ATOM     16  C   UNL A   1      39.572  26.431  28.363  1.00  0.00     0.029 A 
ATOM     17  N   UNL A   1      41.658  26.966  28.938  1.00  0.00    -0.354 N 
ATOM     18  C   UNL A   1      42.488  30.805  30.746  1.00  0.00     0.074 A 
ATOM     19  C   UNL A   1      41.339  31.680  30.684  1.00  0.00     0.031 C 
ATOM     20  C   UNL A   1      40.343  25.357  28.122  1.00  0.00     0.029 A 
ATOM     21  C   UNL A   1      41.725  25.692  28.424  1.00  0.00     0.049 A 
ATOM     22  H   UNL A   1      42.430  27.429  29.336  1.00  0.00     0.167 HD
ATOM     23  C   UNL A   1      43.641  31.103  31.385  1.00  0.00     0.037 A 
ATOM     24  C   UNL A   1      42.788  24.897  28.204  1.00  0.00     0.037 A 
ATOM     25  C   UNL A   1      44.781  30.229  31.421  1.00  0.00     0.049 A 
ATOM     26  C   UNL A   1      44.121  25.342  28.722  1.00  0.00     0.074 A 
ATOM     27  C   UNL A   1      46.002  30.429  32.038  1.00  0.00     0.029 A 
ATOM     28  N   UNL A   1      44.845  28.992  30.794  1.00  0.00    -0.354 N 
ATOM     29  N   UNL A   1      44.423  26.441  29.370  1.00  0.00    -0.248 NA
ATOM     30  C   UNL A   1      45.245  24.417  28.537  1.00  0.00     0.031 C 
ATOM     31  C   UNL A   1      46.825  29.342  31.730  1.00  0.00     0.029 A 
ATOM     32  C   UNL A   1      46.099  28.436  30.973  1.00  0.00     0.049 A 
ATOM     33  H   UNL A   1      44.105  28.573  30.296  1.00  0.00     0.167 HD
ATOM     34  C   UNL A   1      45.754  26.313  29.728  1.00  0.00     0.074 A 
ATOM     35  C   UNL A   1      46.205  25.035  29.210  1.00  0.00     0.031 C 
ATOM     36  C   UNL A   1      46.525  27.164  30.448  1.00  0.00     0.037 A 
BRANCH  23  37
ATOM     37  C   UNL A   1      43.716  32.431  32.072  1.00  0.00     0.057 A 
ATOM     38  C   UNL A   1      43.338  32.593  33.411  1.00  0.00     0.134 A 
ATOM     39  C   UNL A   1      44.173  33.561  31.386  1.00  0.00     0.134 A 
ATOM     40  F   UNL A   1      42.864  31.554  34.116  1.00  0.00    -0.206 F 
ATOM     41  C   UNL A   1      43.396  33.838  34.039  1.00  0.00     0.040 A 
ATOM     42  C   UNL A   1      44.257  34.806  32.009  1.00  0.00     0.040 A 
ATOM     43  F   UNL A   1      44.540  33.474  30.098  1.00  0.00    -0.206 F 
ATOM     44  C   UNL A   1      43.863  34.948  33.338  1.00  0.00     0.006 A 
ENDBRANCH  23  37
BRANCH  24  45
ATOM     45  C   UNL A   1      42.647  23.623  27.457  1.00  0.00     0.057 A 
ATOM     46  C   UNL A   1      42.738  23.563  26.064  1.00  0.00     0.134 A 
ATOM     47  C   UNL A   1      42.348  22.435  28.135  1.00  0.00     0.134 A 
ATOM     48  F   UNL A   1      42.981  24.676  25.356  1.00  0.00    -0.206 F 
ATOM     49  C   UNL A   1      42.526  22.370  25.368  1.00  0.00     0.040 A 
ATOM     50  C   UNL A   1      42.163  21.229  27.456  1.00  0.00     0.040 A 
ATOM     51  F   UNL A   1      42.192  22.442  29.466  1.00  0.00    -0.206 F 
ATOM     52  C   UNL A   1      42.244  21.196  26.066  1.00  0.00     0.006 A 
ENDBRANCH  24  45
BRANCH  36  53
ATOM     53  C   UNL A   1      47.918  26.711  30.760  1.00  0.00     0.057 A 
ATOM     54  C   UNL A   1      49.011  27.073  29.964  1.00  0.00     0.134 A 
ATOM     55  C   UNL A   1      48.166  25.924  31.891  1.00  0.00     0.134 A 
ATOM     56  F   UNL A   1      48.833  27.810  28.857  1.00  0.00    -0.206 F 
ATOM     57  C   UNL A   1      50.303  26.646  30.270  1.00  0.00     0.040 A 
ATOM     58  C   UNL A   1      49.457  25.519  32.225  1.00  0.00     0.040 A 
ATOM     59  F   UNL A   1      47.161  25.550  32.697  1.00  0.00    -0.206 F 
ATOM     60  C   UNL A   1      50.529  25.874  31.409  1.00  0.00     0.006 A 
ENDBRANCH  36  53
ENDBRANCH  10  11
ENDBRANCH   3   5
ENDBRANCH   2   3
ENDBRANCH   1   2
BRANCH   1  61
ATOM     61  C   UNL A   1      31.766  28.612  27.391  1.00  0.00     0.275 C 
BRANCH  61  62
ATOM     62  O   UNL A   1      32.525  27.449  27.016  1.00  0.00    -0.458 OA
BRANCH  62  63
ATOM     63  C   UNL A   1      31.803  26.451  26.447  1.00  0.00     0.338 C 
ATOM     64  O   UNL A   1      30.656  26.129  26.720  1.00  0.00    -0.246 OA
BRANCH  63  65
ATOM     65  C   UNL A   1      32.564  25.853  25.332  1.00  0.00     0.067 A 
ATOM     66  C   UNL A   1      33.371  24.733  25.594  1.00  0.00     0.025 A 
ATOM     67  C   UNL A   1      32.558  26.439  24.066  1.00  0.00     0.101 A 
ATOM     68  C   UNL A   1      34.127  24.136  24.571  1.00  0.00    -0.009 A 
ATOM     69  C   UNL A   1      33.333  25.859  23.055  1.00  0.00     0.270 A 
ATOM     70  C   UNL A   1      34.042  24.674  23.278  1.00  0.00     0.094 A 
BRANCH  68  71
ATOM     71  C   UNL A   1      35.118  23.086  24.854  1.00  0.00     0.002 A 
ATOM     72  C   UNL A   1      36.398  23.406  25.341  1.00  0.00     0.030 A 
ATOM     73  C   UNL A   1      34.810  21.719  24.653  1.00  0.00     0.048 A 
ATOM     74  C   UNL A   1      37.327  22.397  25.615  1.00  0.00     0.041 A 
ATOM     75  C   UNL A   1      35.741  20.718  24.940  1.00  0.00     0.023 A 
ATOM     76  Cl  UNL A   1      33.282  21.201  24.017  1.00  0.00    -0.084 Cl
ATOM     77  Cl  UNL A   1      38.889  22.811  26.207  1.00  0.00    -0.084 Cl
ATOM     78  C   UNL A   1      37.003  21.058  25.419  1.00  0.00     0.022 A 
ENDBRANCH  68  71
BRANCH  69  79
ATOM     79  N   UNL A   1      33.530  26.566  21.786  1.00  0.00     0.062 N 
ATOM     80  O   UNL A   1      33.231  25.975  20.741  1.00  0.00    -0.258 OA
ATOM     81  O   UNL A   1      34.023  27.704  21.836  1.00  0.00    -0.258 OA
ENDBRANCH  69  79
ENDBRANCH  63  65
ENDBRANCH  62  63
ENDBRANCH  61  62
ENDBRANCH   1  61
TORSDOF 13
ENDMDL
