MODEL 1
REMARK VINA RESULT:     -10.4      0.000      0.000
REMARK SMILES CC(C)(Cn1ccnc1C(N)=S)C(=O)OCCOC(=O)c1ccc(-c2c3nc(c(-c4c(F)cccc4F)c4ccc([nH]4)c(-c4c(F)cccc4F)c4nc(c(-c5c(F)cccc5F)c5ccc2[nH]5)C=C4)C=C3)cc1
REMARK SMILES IDX 16 1 15 2 13 3 14 4 2 5 1 6 3 7 4 8 5 9 6 10 9 11 7 12 8 13
REMARK SMILES IDX 10 14 12 15 11 16 17 19 18 20 19 21 20 22 21 23 22 24 74 25
REMARK SMILES IDX 23 26 73 27 24 28 25 29 26 30 67 31 27 32 72 33 66 34 68 35
REMARK SMILES IDX 28 36 71 37 65 38 64 39 29 41 55 42 38 43 54 44 39 45 42 46
REMARK SMILES IDX 53 47 69 48 40 49 41 50 52 52 70 53 43 54 30 55 31 56 36 57
REMARK SMILES IDX 32 58 33 59 35 60 37 61 34 62 56 63 57 64 62 65 58 66 59 67
REMARK SMILES IDX 61 68 63 69 60 70 44 71 45 72 50 73 46 74 47 75 49 76 51 77
REMARK SMILES IDX 48 78
REMARK H PARENT 11 17 11 18 68 40 42 51
REMARK Flexibility Score: inf
ROOT
ATOM      1  C   UNL A   1      37.067  30.446  32.146  1.00  0.00     0.274 C 
ENDROOT
BRANCH   1   2
ATOM      2  O   UNL A   1      36.228  31.357  32.895  1.00  0.00    -0.462 OA
BRANCH   2   3
ATOM      3  C   UNL A   1      36.670  32.648  32.952  1.00  0.00     0.313 C 
ATOM      4  O   UNL A   1      37.788  32.960  33.357  1.00  0.00    -0.252 OA
BRANCH   3   5
ATOM      5  C   UNL A   1      35.628  33.689  32.498  1.00  0.00     0.080 C 
ATOM      6  C   UNL A   1      35.503  34.775  33.587  1.00  0.00     0.025 C 
ATOM      7  C   UNL A   1      34.318  32.872  32.497  1.00  0.00     0.025 C 
BRANCH   5   8
ATOM      8  C   UNL A   1      35.795  34.293  31.064  1.00  0.00     0.142 C 
BRANCH   8   9
ATOM      9  N   UNL A   1      34.703  34.304  30.097  1.00  0.00    -0.328 N 
ATOM     10  C   UNL A   1      34.533  33.315  29.148  1.00  0.00     0.108 A 
ATOM     11  C   UNL A   1      33.588  35.129  30.011  1.00  0.00     0.167 A 
ATOM     12  C   UNL A   1      33.421  33.665  28.431  1.00  0.00     0.131 A 
ATOM     13  N   UNL A   1      32.870  34.804  28.939  1.00  0.00    -0.235 NA
BRANCH  11  14
ATOM     14  C   UNL A   1      33.141  36.249  30.815  1.00  0.00     0.140 C 
ATOM     15  S   UNL A   1      32.256  36.103  32.215  1.00  0.00    -0.057 S 
BRANCH  14  16
ATOM     16  N   UNL A   1      33.399  37.487  30.286  1.00  0.00    -0.387 N 
ATOM     17  H   UNL A   1      32.801  38.242  30.486  1.00  0.00     0.157 HD
ATOM     18  H   UNL A   1      34.185  37.621  29.707  1.00  0.00     0.157 HD
ENDBRANCH  14  16
ENDBRANCH  11  14
ENDBRANCH   8   9
ENDBRANCH   5   8
ENDBRANCH   3   5
ENDBRANCH   2   3
ENDBRANCH   1   2
BRANCH   1  19
ATOM     19  C   UNL A   1      37.067  30.777  30.650  1.00  0.00     0.275 C 
BRANCH  19  20
ATOM     20  O   UNL A   1      36.646  29.711  29.780  1.00  0.00    -0.458 OA
BRANCH  20  21
ATOM     21  C   UNL A   1      36.979  29.900  28.487  1.00  0.00     0.338 C 
ATOM     22  O   UNL A   1      36.301  30.429  27.633  1.00  0.00    -0.246 OA
BRANCH  21  23
ATOM     23  C   UNL A   1      38.112  29.101  28.053  1.00  0.00     0.060 A 
ATOM     24  C   UNL A   1      38.275  27.887  28.741  1.00  0.00     0.016 A 
ATOM     25  C   UNL A   1      39.122  29.656  27.273  1.00  0.00     0.016 A 
ATOM     26  C   UNL A   1      39.515  27.309  28.794  1.00  0.00     0.010 A 
ATOM     27  C   UNL A   1      40.356  29.047  27.287  1.00  0.00     0.010 A 
ATOM     28  C   UNL A   1      40.553  27.921  28.099  1.00  0.00    -0.014 A 
BRANCH  28  29
ATOM     29  C   UNL A   1      41.829  27.237  28.106  1.00  0.00     0.031 A 
ATOM     30  C   UNL A   1      42.638  27.496  29.334  1.00  0.00     0.074 A 
ATOM     31  C   UNL A   1      42.113  26.309  27.177  1.00  0.00     0.049 A 
ATOM     32  N   UNL A   1      43.890  27.801  29.439  1.00  0.00    -0.248 NA
ATOM     33  C   UNL A   1      41.907  27.526  30.619  1.00  0.00     0.031 C 
ATOM     34  C   UNL A   1      41.241  25.806  26.111  1.00  0.00     0.029 A 
ATOM     35  N   UNL A   1      43.187  25.487  27.104  1.00  0.00    -0.354 N 
ATOM     36  C   UNL A   1      44.141  27.889  30.807  1.00  0.00     0.074 A 
ATOM     37  C   UNL A   1      42.869  27.856  31.475  1.00  0.00     0.031 C 
ATOM     38  C   UNL A   1      41.697  24.600  25.711  1.00  0.00     0.029 A 
ATOM     39  C   UNL A   1      42.934  24.311  26.418  1.00  0.00     0.049 A 
ATOM     40  H   UNL A   1      44.061  25.703  27.500  1.00  0.00     0.167 HD
ATOM     41  C   UNL A   1      45.389  27.762  31.327  1.00  0.00     0.037 A 
ATOM     42  C   UNL A   1      43.625  23.153  26.551  1.00  0.00     0.037 A 
ATOM     43  C   UNL A   1      46.410  28.041  30.361  1.00  0.00     0.049 A 
ATOM     44  C   UNL A   1      44.915  23.478  27.222  1.00  0.00     0.074 A 
ATOM     45  C   UNL A   1      46.717  29.145  29.585  1.00  0.00     0.029 A 
ATOM     46  N   UNL A   1      47.086  26.989  29.792  1.00  0.00    -0.354 N 
ATOM     47  N   UNL A   1      45.873  24.172  26.672  1.00  0.00    -0.248 NA
ATOM     48  C   UNL A   1      44.951  23.418  28.678  1.00  0.00     0.031 C 
ATOM     49  C   UNL A   1      47.121  28.608  28.329  1.00  0.00     0.029 A 
ATOM     50  C   UNL A   1      47.083  27.218  28.438  1.00  0.00     0.049 A 
ATOM     51  H   UNL A   1      47.491  26.225  30.261  1.00  0.00     0.167 HD
ATOM     52  C   UNL A   1      46.380  24.961  27.696  1.00  0.00     0.074 A 
ATOM     53  C   UNL A   1      45.831  24.392  28.924  1.00  0.00     0.031 C 
ATOM     54  C   UNL A   1      46.957  26.174  27.448  1.00  0.00     0.037 A 
BRANCH  41  55
ATOM     55  C   UNL A   1      45.651  27.066  32.632  1.00  0.00     0.057 A 
ATOM     56  C   UNL A   1      46.406  27.698  33.629  1.00  0.00     0.134 A 
ATOM     57  C   UNL A   1      45.408  25.689  32.835  1.00  0.00     0.134 A 
ATOM     58  F   UNL A   1      46.737  28.993  33.523  1.00  0.00    -0.206 F 
ATOM     59  C   UNL A   1      46.912  27.001  34.735  1.00  0.00     0.040 A 
ATOM     60  C   UNL A   1      45.858  24.998  33.959  1.00  0.00     0.040 A 
ATOM     61  F   UNL A   1      44.807  24.927  31.911  1.00  0.00    -0.206 F 
ATOM     62  C   UNL A   1      46.637  25.648  34.902  1.00  0.00     0.006 A 
ENDBRANCH  41  55
BRANCH  42  63
ATOM     63  C   UNL A   1      43.096  21.772  26.447  1.00  0.00     0.057 A 
ATOM     64  C   UNL A   1      43.644  20.858  25.539  1.00  0.00     0.134 A 
ATOM     65  C   UNL A   1      42.193  21.236  27.384  1.00  0.00     0.134 A 
ATOM     66  F   UNL A   1      44.555  21.257  24.639  1.00  0.00    -0.206 F 
ATOM     67  C   UNL A   1      43.315  19.496  25.560  1.00  0.00     0.040 A 
ATOM     68  C   UNL A   1      41.841  19.883  27.406  1.00  0.00     0.040 A 
ATOM     69  F   UNL A   1      41.676  21.985  28.369  1.00  0.00    -0.206 F 
ATOM     70  C   UNL A   1      42.411  19.003  26.498  1.00  0.00     0.006 A 
ENDBRANCH  42  63
BRANCH  54  71
ATOM     71  C   UNL A   1      47.212  26.569  26.020  1.00  0.00     0.057 A 
ATOM     72  C   UNL A   1      46.319  27.338  25.256  1.00  0.00     0.134 A 
ATOM     73  C   UNL A   1      48.470  26.330  25.460  1.00  0.00     0.134 A 
ATOM     74  F   UNL A   1      45.138  27.721  25.749  1.00  0.00    -0.206 F 
ATOM     75  C   UNL A   1      46.645  27.805  23.980  1.00  0.00     0.040 A 
ATOM     76  C   UNL A   1      48.823  26.821  24.199  1.00  0.00     0.040 A 
ATOM     77  F   UNL A   1      49.404  25.660  26.154  1.00  0.00    -0.206 F 
ATOM     78  C   UNL A   1      47.905  27.553  23.451  1.00  0.00     0.006 A 
ENDBRANCH  54  71
ENDBRANCH  28  29
ENDBRANCH  21  23
ENDBRANCH  20  21
ENDBRANCH  19  20
ENDBRANCH   1  19
TORSDOF 15
ENDMDL
MODEL 2
REMARK VINA RESULT:     -10.3      3.688      4.845
REMARK SMILES CC(C)(Cn1ccnc1C(N)=S)C(=O)OCCOC(=O)c1ccc(-c2c3nc(c(-c4c(F)cccc4F)c4ccc([nH]4)c(-c4c(F)cccc4F)c4nc(c(-c5c(F)cccc5F)c5ccc2[nH]5)C=C4)C=C3)cc1
REMARK SMILES IDX 16 1 15 2 13 3 14 4 2 5 1 6 3 7 4 8 5 9 6 10 9 11 7 12 8 13
REMARK SMILES IDX 10 14 12 15 11 16 17 19 18 20 19 21 20 22 21 23 22 24 74 25
REMARK SMILES IDX 23 26 73 27 24 28 25 29 26 30 67 31 27 32 72 33 66 34 68 35
REMARK SMILES IDX 28 36 71 37 65 38 64 39 29 41 55 42 38 43 54 44 39 45 42 46
REMARK SMILES IDX 53 47 69 48 40 49 41 50 52 52 70 53 43 54 30 55 31 56 36 57
REMARK SMILES IDX 32 58 33 59 35 60 37 61 34 62 56 63 57 64 62 65 58 66 59 67
REMARK SMILES IDX 61 68 63 69 60 70 44 71 45 72 50 73 46 74 47 75 49 76 51 77
REMARK SMILES IDX 48 78
REMARK H PARENT 11 17 11 18 68 40 42 51
REMARK Flexibility Score: inf
ROOT
ATOM      1  C   UNL A   1      33.600  29.111  27.271  1.00  0.00     0.274 C 
ENDROOT
BRANCH   1   2
ATOM      2  O   UNL A   1      33.193  28.201  26.221  1.00  0.00    -0.462 OA
BRANCH   2   3
ATOM      3  C   UNL A   1      32.719  28.792  25.086  1.00  0.00     0.313 C 
ATOM      4  O   UNL A   1      32.065  29.833  25.090  1.00  0.00    -0.252 OA
BRANCH   3   5
ATOM      5  C   UNL A   1      33.042  28.017  23.793  1.00  0.00     0.080 C 
ATOM      6  C   UNL A   1      33.633  26.642  24.170  1.00  0.00     0.025 C 
ATOM      7  C   UNL A   1      34.176  28.861  23.171  1.00  0.00     0.025 C 
BRANCH   5   8
ATOM      8  C   UNL A   1      31.908  27.909  22.720  1.00  0.00     0.142 C 
BRANCH   8   9
ATOM      9  N   UNL A   1      30.532  27.584  23.079  1.00  0.00    -0.328 N 
ATOM     10  C   UNL A   1      30.170  26.374  23.638  1.00  0.00     0.108 A 
ATOM     11  C   UNL A   1      29.397  28.386  23.105  1.00  0.00     0.167 A 
ATOM     12  C   UNL A   1      28.815  26.436  23.830  1.00  0.00     0.131 A 
ATOM     13  N   UNL A   1      28.341  27.660  23.460  1.00  0.00    -0.235 NA
BRANCH  11  14
ATOM     14  C   UNL A   1      29.183  29.782  22.775  1.00  0.00     0.140 C 
ATOM     15  S   UNL A   1      28.274  30.311  21.487  1.00  0.00    -0.057 S 
BRANCH  14  16
ATOM     16  N   UNL A   1      29.882  30.676  23.542  1.00  0.00    -0.387 N 
ATOM     17  H   UNL A   1      30.028  30.496  24.498  1.00  0.00     0.157 HD
ATOM     18  H   UNL A   1      30.240  31.499  23.136  1.00  0.00     0.157 HD
ENDBRANCH  14  16
ENDBRANCH  11  14
ENDBRANCH   8   9
ENDBRANCH   5   8
ENDBRANCH   3   5
ENDBRANCH   2   3
ENDBRANCH   1   2
BRANCH   1  19
ATOM     19  C   UNL A   1      35.109  29.370  27.242  1.00  0.00     0.275 C 
BRANCH  19  20
ATOM     20  O   UNL A   1      35.762  29.369  28.524  1.00  0.00    -0.458 OA
BRANCH  20  21
ATOM     21  C   UNL A   1      36.954  30.000  28.528  1.00  0.00     0.338 C 
ATOM     22  O   UNL A   1      37.142  31.197  28.573  1.00  0.00    -0.246 OA
BRANCH  21  23
ATOM     23  C   UNL A   1      38.063  29.157  28.116  1.00  0.00     0.060 A 
ATOM     24  C   UNL A   1      38.227  27.986  28.876  1.00  0.00     0.016 A 
ATOM     25  C   UNL A   1      39.058  29.644  27.274  1.00  0.00     0.016 A 
ATOM     26  C   UNL A   1      39.460  27.393  28.933  1.00  0.00     0.010 A 
ATOM     27  C   UNL A   1      40.283  29.017  27.293  1.00  0.00     0.010 A 
ATOM     28  C   UNL A   1      40.486  27.942  28.170  1.00  0.00    -0.014 A 
BRANCH  28  29
ATOM     29  C   UNL A   1      41.752  27.239  28.187  1.00  0.00     0.031 A 
ATOM     30  C   UNL A   1      42.551  27.477  29.426  1.00  0.00     0.074 A 
ATOM     31  C   UNL A   1      42.033  26.314  27.254  1.00  0.00     0.049 A 
ATOM     32  N   UNL A   1      43.806  27.763  29.547  1.00  0.00    -0.248 NA
ATOM     33  C   UNL A   1      41.806  27.509  30.703  1.00  0.00     0.031 C 
ATOM     34  C   UNL A   1      41.165  25.831  26.175  1.00  0.00     0.029 A 
ATOM     35  N   UNL A   1      43.095  25.476  27.187  1.00  0.00    -0.354 N 
ATOM     36  C   UNL A   1      44.043  27.838  30.918  1.00  0.00     0.074 A 
ATOM     37  C   UNL A   1      42.763  27.819  31.572  1.00  0.00     0.031 C 
ATOM     38  C   UNL A   1      41.609  24.621  25.771  1.00  0.00     0.029 A 
ATOM     39  C   UNL A   1      42.833  24.309  26.490  1.00  0.00     0.049 A 
ATOM     40  H   UNL A   1      43.968  25.676  27.595  1.00  0.00     0.167 HD
ATOM     41  C   UNL A   1      45.283  27.689  31.452  1.00  0.00     0.037 A 
ATOM     42  C   UNL A   1      43.505  23.140  26.623  1.00  0.00     0.037 A 
ATOM     43  C   UNL A   1      46.319  27.960  30.499  1.00  0.00     0.049 A 
ATOM     44  C   UNL A   1      44.792  23.441  27.310  1.00  0.00     0.074 A 
ATOM     45  C   UNL A   1      46.651  29.064  29.734  1.00  0.00     0.029 A 
ATOM     46  N   UNL A   1      46.985  26.902  29.930  1.00  0.00    -0.354 N 
ATOM     47  N   UNL A   1      45.767  24.124  26.776  1.00  0.00    -0.248 NA
ATOM     48  C   UNL A   1      44.811  23.370  28.767  1.00  0.00     0.031 C 
ATOM     49  C   UNL A   1      47.061  28.530  28.479  1.00  0.00     0.029 A 
ATOM     50  C   UNL A   1      47.001  27.140  28.578  1.00  0.00     0.049 A 
ATOM     51  H   UNL A   1      47.374  26.129  30.398  1.00  0.00     0.167 HD
ATOM     52  C   UNL A   1      46.273  24.899  27.811  1.00  0.00     0.074 A 
ATOM     53  C   UNL A   1      45.702  24.329  29.029  1.00  0.00     0.031 C 
ATOM     54  C   UNL A   1      46.871  26.105  27.579  1.00  0.00     0.037 A 
BRANCH  41  55
ATOM     55  C   UNL A   1      45.520  26.979  32.754  1.00  0.00     0.057 A 
ATOM     56  C   UNL A   1      46.284  27.588  33.759  1.00  0.00     0.134 A 
ATOM     57  C   UNL A   1      45.242  25.608  32.948  1.00  0.00     0.134 A 
ATOM     58  F   UNL A   1      46.646  28.875  33.662  1.00  0.00    -0.206 F 
ATOM     59  C   UNL A   1      46.765  26.874  34.864  1.00  0.00     0.040 A 
ATOM     60  C   UNL A   1      45.669  24.901  34.072  1.00  0.00     0.040 A 
ATOM     61  F   UNL A   1      44.630  24.866  32.016  1.00  0.00    -0.206 F 
ATOM     62  C   UNL A   1      46.457  25.526  35.023  1.00  0.00     0.006 A 
ENDBRANCH  41  55
BRANCH  42  63
ATOM     63  C   UNL A   1      42.957  21.768  26.503  1.00  0.00     0.057 A 
ATOM     64  C   UNL A   1      43.522  20.842  25.617  1.00  0.00     0.134 A 
ATOM     65  C   UNL A   1      42.011  21.250  27.408  1.00  0.00     0.134 A 
ATOM     66  F   UNL A   1      44.472  21.222  24.750  1.00  0.00    -0.206 F 
ATOM     67  C   UNL A   1      43.169  19.485  25.630  1.00  0.00     0.040 A 
ATOM     68  C   UNL A   1      41.636  19.902  27.421  1.00  0.00     0.040 A 
ATOM     69  F   UNL A   1      41.472  22.010  28.372  1.00  0.00    -0.206 F 
ATOM     70  C   UNL A   1      42.224  19.011  26.536  1.00  0.00     0.006 A 
ENDBRANCH  42  63
BRANCH  54  71
ATOM     71  C   UNL A   1      47.148  26.506  26.157  1.00  0.00     0.057 A 
ATOM     72  C   UNL A   1      46.272  27.288  25.386  1.00  0.00     0.134 A 
ATOM     73  C   UNL A   1      48.411  26.258  25.611  1.00  0.00     0.134 A 
ATOM     74  F   UNL A   1      45.088  27.680  25.867  1.00  0.00    -0.206 F 
ATOM     75  C   UNL A   1      46.619  27.760  24.117  1.00  0.00     0.040 A 
ATOM     76  C   UNL A   1      48.784  26.753  24.358  1.00  0.00     0.040 A 
ATOM     77  F   UNL A   1      49.329  25.574  26.313  1.00  0.00    -0.206 F 
ATOM     78  C   UNL A   1      47.883  27.499  23.602  1.00  0.00     0.006 A 
ENDBRANCH  54  71
ENDBRANCH  28  29
ENDBRANCH  21  23
ENDBRANCH  20  21
ENDBRANCH  19  20
ENDBRANCH   1  19
TORSDOF 15
ENDMDL
MODEL 3
REMARK VINA RESULT:     -10.1      4.380      6.096
REMARK SMILES CC(C)(Cn1ccnc1C(N)=S)C(=O)OCCOC(=O)c1ccc(-c2c3nc(c(-c4c(F)cccc4F)c4ccc([nH]4)c(-c4c(F)cccc4F)c4nc(c(-c5c(F)cccc5F)c5ccc2[nH]5)C=C4)C=C3)cc1
REMARK SMILES IDX 16 1 15 2 13 3 14 4 2 5 1 6 3 7 4 8 5 9 6 10 9 11 7 12 8 13
REMARK SMILES IDX 10 14 12 15 11 16 17 19 18 20 19 21 20 22 21 23 22 24 74 25
REMARK SMILES IDX 23 26 73 27 24 28 25 29 26 30 67 31 27 32 72 33 66 34 68 35
REMARK SMILES IDX 28 36 71 37 65 38 64 39 29 41 55 42 38 43 54 44 39 45 42 46
REMARK SMILES IDX 53 47 69 48 40 49 41 50 52 52 70 53 43 54 30 55 31 56 36 57
REMARK SMILES IDX 32 58 33 59 35 60 37 61 34 62 56 63 57 64 62 65 58 66 59 67
REMARK SMILES IDX 61 68 63 69 60 70 44 71 45 72 50 73 46 74 47 75 49 76 51 77
REMARK SMILES IDX 48 78
REMARK H PARENT 11 17 11 18 68 40 42 51
REMARK Flexibility Score: inf
ROOT
ATOM      1  C   UNL A   1      31.881  29.390  27.264  1.00  0.00     0.274 C 
ENDROOT
BRANCH   1   2
ATOM      2  O   UNL A   1      32.433  28.265  26.539  1.00  0.00    -0.462 OA
BRANCH   2   3
ATOM      3  C   UNL A   1      31.683  27.125  26.570  1.00  0.00     0.313 C 
ATOM      4  O   UNL A   1      30.695  26.986  27.287  1.00  0.00    -0.252 OA
BRANCH   3   5
ATOM      5  C   UNL A   1      32.208  26.003  25.651  1.00  0.00     0.080 C 
ATOM      6  C   UNL A   1      32.060  24.652  26.380  1.00  0.00     0.025 C 
ATOM      7  C   UNL A   1      33.715  26.325  25.558  1.00  0.00     0.025 C 
BRANCH   5   8
ATOM      8  C   UNL A   1      31.655  25.959  24.187  1.00  0.00     0.142 C 
BRANCH   8   9
ATOM      9  N   UNL A   1      31.042  27.122  23.556  1.00  0.00    -0.328 N 
ATOM     10  C   UNL A   1      29.674  27.296  23.475  1.00  0.00     0.108 A 
ATOM     11  C   UNL A   1      31.618  28.297  23.086  1.00  0.00     0.167 A 
ATOM     12  C   UNL A   1      29.482  28.485  22.822  1.00  0.00     0.131 A 
ATOM     13  N   UNL A   1      30.681  29.073  22.548  1.00  0.00    -0.235 NA
BRANCH  11  14
ATOM     14  C   UNL A   1      32.991  28.758  23.040  1.00  0.00     0.140 C 
ATOM     15  S   UNL A   1      34.150  28.150  22.014  1.00  0.00    -0.057 S 
BRANCH  14  16
ATOM     16  N   UNL A   1      33.329  29.680  23.995  1.00  0.00    -0.387 N 
ATOM     17  H   UNL A   1      33.038  30.616  23.901  1.00  0.00     0.157 HD
ATOM     18  H   UNL A   1      33.862  29.407  24.778  1.00  0.00     0.157 HD
ENDBRANCH  14  16
ENDBRANCH  11  14
ENDBRANCH   8   9
ENDBRANCH   5   8
ENDBRANCH   3   5
ENDBRANCH   2   3
ENDBRANCH   1   2
BRANCH   1  19
ATOM     19  C   UNL A   1      32.727  30.653  27.079  1.00  0.00     0.275 C 
BRANCH  19  20
ATOM     20  O   UNL A   1      34.147  30.440  26.996  1.00  0.00    -0.458 OA
BRANCH  20  21
ATOM     21  C   UNL A   1      34.872  31.314  27.724  1.00  0.00     0.338 C 
ATOM     22  O   UNL A   1      34.800  32.523  27.688  1.00  0.00    -0.246 OA
BRANCH  21  23
ATOM     23  C   UNL A   1      36.045  30.724  28.346  1.00  0.00     0.060 A 
ATOM     24  C   UNL A   1      36.979  31.650  28.839  1.00  0.00     0.016 A 
ATOM     25  C   UNL A   1      36.357  29.381  28.155  1.00  0.00     0.016 A 
ATOM     26  C   UNL A   1      38.288  31.271  28.977  1.00  0.00     0.010 A 
ATOM     27  C   UNL A   1      37.662  28.989  28.342  1.00  0.00     0.010 A 
ATOM     28  C   UNL A   1      38.621  29.952  28.686  1.00  0.00    -0.014 A 
BRANCH  28  29
ATOM     29  C   UNL A   1      39.996  29.565  28.925  1.00  0.00     0.031 A 
ATOM     30  C   UNL A   1      40.349  29.484  30.374  1.00  0.00     0.074 A 
ATOM     31  C   UNL A   1      40.770  29.128  27.917  1.00  0.00     0.049 A 
ATOM     32  N   UNL A   1      41.384  29.953  30.991  1.00  0.00    -0.248 NA
ATOM     33  C   UNL A   1      39.337  28.890  31.274  1.00  0.00     0.031 C 
ATOM     34  C   UNL A   1      40.389  28.915  26.518  1.00  0.00     0.029 A 
ATOM     35  N   UNL A   1      42.019  28.609  27.975  1.00  0.00    -0.354 N 
ATOM     36  C   UNL A   1      41.238  29.561  32.320  1.00  0.00     0.074 A 
ATOM     37  C   UNL A   1      39.905  29.042  32.466  1.00  0.00     0.031 C 
ATOM     38  C   UNL A   1      41.268  28.057  25.956  1.00  0.00     0.029 A 
ATOM     39  C   UNL A   1      42.310  27.756  26.924  1.00  0.00     0.049 A 
ATOM     40  H   UNL A   1      42.658  28.816  28.694  1.00  0.00     0.167 HD
ATOM     41  C   UNL A   1      42.291  29.479  33.175  1.00  0.00     0.037 A 
ATOM     42  C   UNL A   1      43.253  26.783  26.931  1.00  0.00     0.037 A 
ATOM     43  C   UNL A   1      43.397  30.287  32.751  1.00  0.00     0.049 A 
ATOM     44  C   UNL A   1      44.172  27.062  28.070  1.00  0.00     0.074 A 
ATOM     45  C   UNL A   1      43.553  31.638  32.500  1.00  0.00     0.029 A 
ATOM     46  N   UNL A   1      44.475  29.674  32.161  1.00  0.00    -0.354 N 
ATOM     47  N   UNL A   1      44.991  28.076  28.120  1.00  0.00    -0.248 NA
ATOM     48  C   UNL A   1      43.849  26.462  29.359  1.00  0.00     0.031 C 
ATOM     49  C   UNL A   1      44.405  31.702  31.360  1.00  0.00     0.029 A 
ATOM     50  C   UNL A   1      44.752  30.393  31.025  1.00  0.00     0.049 A 
ATOM     51  H   UNL A   1      44.952  28.878  32.488  1.00  0.00     0.167 HD
ATOM     52  C   UNL A   1      44.961  28.498  29.443  1.00  0.00     0.074 A 
ATOM     53  C   UNL A   1      44.309  27.415  30.175  1.00  0.00     0.031 C 
ATOM     54  C   UNL A   1      45.198  29.798  29.787  1.00  0.00     0.037 A 
BRANCH  41  55
ATOM     55  C   UNL A   1      42.402  28.402  34.215  1.00  0.00     0.057 A 
ATOM     56  C   UNL A   1      42.739  27.093  33.841  1.00  0.00     0.134 A 
ATOM     57  C   UNL A   1      41.929  28.553  35.537  1.00  0.00     0.134 A 
ATOM     58  F   UNL A   1      43.158  26.821  32.596  1.00  0.00    -0.206 F 
ATOM     59  C   UNL A   1      42.585  26.007  34.712  1.00  0.00     0.040 A 
ATOM     60  C   UNL A   1      41.825  27.487  36.430  1.00  0.00     0.040 A 
ATOM     61  F   UNL A   1      41.455  29.719  35.996  1.00  0.00    -0.206 F 
ATOM     62  C   UNL A   1      42.128  26.203  36.011  1.00  0.00     0.006 A 
ENDBRANCH  41  55
BRANCH  42  63
ATOM     63  C   UNL A   1      43.200  25.472  26.241  1.00  0.00     0.057 A 
ATOM     64  C   UNL A   1      44.162  25.123  25.285  1.00  0.00     0.134 A 
ATOM     65  C   UNL A   1      42.343  24.434  26.653  1.00  0.00     0.134 A 
ATOM     66  F   UNL A   1      45.061  26.025  24.864  1.00  0.00    -0.206 F 
ATOM     67  C   UNL A   1      44.266  23.823  24.771  1.00  0.00     0.040 A 
ATOM     68  C   UNL A   1      42.423  23.137  26.136  1.00  0.00     0.040 A 
ATOM     69  F   UNL A   1      41.446  24.613  27.634  1.00  0.00    -0.206 F 
ATOM     70  C   UNL A   1      43.396  22.824  25.199  1.00  0.00     0.006 A 
ENDBRANCH  42  63
BRANCH  54  71
ATOM     71  C   UNL A   1      45.683  30.745  28.724  1.00  0.00     0.057 A 
ATOM     72  C   UNL A   1      44.826  31.465  27.877  1.00  0.00     0.134 A 
ATOM     73  C   UNL A   1      47.039  31.083  28.678  1.00  0.00     0.134 A 
ATOM     74  F   UNL A   1      43.501  31.301  27.929  1.00  0.00    -0.206 F 
ATOM     75  C   UNL A   1      45.300  32.439  26.994  1.00  0.00     0.040 A 
ATOM     76  C   UNL A   1      47.523  32.079  27.825  1.00  0.00     0.040 A 
ATOM     77  F   UNL A   1      47.913  30.487  29.504  1.00  0.00    -0.206 F 
ATOM     78  C   UNL A   1      46.653  32.754  26.972  1.00  0.00     0.006 A 
ENDBRANCH  54  71
ENDBRANCH  28  29
ENDBRANCH  21  23
ENDBRANCH  20  21
ENDBRANCH  19  20
ENDBRANCH   1  19
TORSDOF 15
ENDMDL
