MODEL 1
REMARK VINA RESULT:     -11.8      0.000      0.000
REMARK SMILES O=C(OCCOC(=O)[C@H]1C[C@H]2CCCC[C@@H]2[N@@H+]1CC[C@@H]1CCCO1)c1ccc(-c2c3nc(c(-c4c(F)cccc4F)c4ccc([nH]4)c(-c4c(F)cccc4F)c4nc(c(-c5c(F)cccc5F)c5ccc2[nH]5)C=C4)C=C3)cc1
REMARK SMILES IDX 5 1 4 2 3 3 2 4 1 5 25 6 26 7 78 8 27 9 77 10 28 11 29 12
REMARK SMILES IDX 30 13 71 14 31 15 76 16 70 17 72 18 32 19 75 20 69 21 68 22
REMARK SMILES IDX 33 24 59 25 42 26 58 27 43 28 46 29 57 30 73 31 44 32 45 33
REMARK SMILES IDX 56 35 74 36 47 37 34 38 35 39 40 40 36 41 37 42 39 43 41 44
REMARK SMILES IDX 38 45 60 46 61 47 66 48 62 49 63 50 65 51 67 52 64 53 48 54
REMARK SMILES IDX 49 55 54 56 50 57 51 58 53 59 55 60 52 61 6 62 7 63 8 64
REMARK SMILES IDX 9 65 10 66 17 67 11 68 16 69 12 71 15 72 13 73 14 74 18 75
REMARK SMILES IDX 19 76 20 77 21 78 24 79 22 80 23 81
REMARK H PARENT 72 23 46 34 17 70
REMARK Flexibility Score: inf
ROOT
ATOM      1  C   UNL A   1      32.445  31.009  26.741  1.00  0.00     0.274 C 
ENDROOT
BRANCH   1   2
ATOM      2  C   UNL A   1      31.487  32.177  27.010  1.00  0.00     0.275 C 
BRANCH   2   3
ATOM      3  O   UNL A   1      32.119  33.451  27.193  1.00  0.00    -0.458 OA
BRANCH   3   4
ATOM      4  C   UNL A   1      32.888  33.902  28.207  1.00  0.00     0.338 C 
ATOM      5  O   UNL A   1      32.460  34.844  28.875  1.00  0.00    -0.246 OA
BRANCH   4   6
ATOM      6  C   UNL A   1      34.287  33.430  28.492  1.00  0.00     0.060 A 
ATOM      7  C   UNL A   1      35.491  33.872  27.928  1.00  0.00     0.016 A 
ATOM      8  C   UNL A   1      34.377  32.455  29.492  1.00  0.00     0.016 A 
ATOM      9  C   UNL A   1      36.751  33.456  28.431  1.00  0.00     0.010 A 
ATOM     10  C   UNL A   1      35.616  32.066  30.000  1.00  0.00     0.010 A 
ATOM     11  C   UNL A   1      36.838  32.586  29.515  1.00  0.00    -0.014 A 
BRANCH  11  12
ATOM     12  C   UNL A   1      38.114  32.152  30.208  1.00  0.00     0.031 A 
ATOM     13  C   UNL A   1      38.749  30.878  29.692  1.00  0.00     0.074 A 
ATOM     14  C   UNL A   1      38.577  32.697  31.366  1.00  0.00     0.049 A 
ATOM     15  N   UNL A   1      39.531  30.024  30.298  1.00  0.00    -0.248 NA
ATOM     16  C   UNL A   1      38.371  30.475  28.321  1.00  0.00     0.031 C 
ATOM     17  C   UNL A   1      38.084  33.914  32.022  1.00  0.00     0.029 A 
ATOM     18  N   UNL A   1      39.506  32.212  32.281  1.00  0.00    -0.354 N 
ATOM     19  C   UNL A   1      39.747  29.011  29.371  1.00  0.00     0.074 A 
ATOM     20  C   UNL A   1      38.856  29.247  28.260  1.00  0.00     0.031 C 
ATOM     21  C   UNL A   1      38.634  34.028  33.249  1.00  0.00     0.029 A 
ATOM     22  C   UNL A   1      39.480  32.866  33.509  1.00  0.00     0.049 A 
ATOM     23  H   UNL A   1      40.124  31.474  32.078  1.00  0.00     0.167 HD
ATOM     24  C   UNL A   1      40.700  28.050  29.372  1.00  0.00     0.037 A 
ATOM     25  C   UNL A   1      39.979  32.498  34.717  1.00  0.00     0.037 A 
ATOM     26  C   UNL A   1      41.651  27.892  30.430  1.00  0.00     0.049 A 
ATOM     27  C   UNL A   1      40.798  31.238  34.806  1.00  0.00     0.074 A 
ATOM     28  C   UNL A   1      42.814  27.147  30.452  1.00  0.00     0.029 A 
ATOM     29  N   UNL A   1      41.537  28.510  31.663  1.00  0.00    -0.354 N 
ATOM     30  N   UNL A   1      41.093  30.376  33.867  1.00  0.00    -0.248 NA
ATOM     31  C   UNL A   1      41.389  30.923  36.118  1.00  0.00     0.031 C 
ATOM     32  C   UNL A   1      43.398  27.298  31.716  1.00  0.00     0.029 A 
ATOM     33  C   UNL A   1      42.598  28.143  32.467  1.00  0.00     0.049 A 
ATOM     34  H   UNL A   1      40.811  29.120  31.927  1.00  0.00     0.167 HD
ATOM     35  C   UNL A   1      42.013  29.509  34.438  1.00  0.00     0.074 A 
ATOM     36  C   UNL A   1      42.136  29.869  35.832  1.00  0.00     0.031 C 
ATOM     37  C   UNL A   1      42.754  28.554  33.832  1.00  0.00     0.037 A 
BRANCH  24  38
ATOM     38  C   UNL A   1      40.849  27.228  28.125  1.00  0.00     0.057 A 
ATOM     39  C   UNL A   1      41.694  27.653  27.087  1.00  0.00     0.134 A 
ATOM     40  C   UNL A   1      40.179  26.013  27.955  1.00  0.00     0.134 A 
ATOM     41  F   UNL A   1      42.369  28.810  27.189  1.00  0.00    -0.206 F 
ATOM     42  C   UNL A   1      41.824  26.930  25.904  1.00  0.00     0.040 A 
ATOM     43  C   UNL A   1      40.327  25.263  26.786  1.00  0.00     0.040 A 
ATOM     44  F   UNL A   1      39.370  25.539  28.913  1.00  0.00    -0.206 F 
ATOM     45  C   UNL A   1      41.140  25.727  25.752  1.00  0.00     0.006 A 
ENDBRANCH  24  38
BRANCH  25  46
ATOM     46  C   UNL A   1      39.735  33.227  36.008  1.00  0.00     0.057 A 
ATOM     47  C   UNL A   1      38.586  33.009  36.771  1.00  0.00     0.134 A 
ATOM     48  C   UNL A   1      40.491  34.364  36.348  1.00  0.00     0.134 A 
ATOM     49  F   UNL A   1      37.721  32.047  36.420  1.00  0.00    -0.206 F 
ATOM     50  C   UNL A   1      38.232  33.855  37.833  1.00  0.00     0.040 A 
ATOM     51  C   UNL A   1      40.195  35.175  37.447  1.00  0.00     0.040 A 
ATOM     52  F   UNL A   1      41.434  34.812  35.514  1.00  0.00    -0.206 F 
ATOM     53  C   UNL A   1      39.050  34.928  38.190  1.00  0.00     0.006 A 
ENDBRANCH  25  46
BRANCH  37  54
ATOM     54  C   UNL A   1      43.892  27.982  34.608  1.00  0.00     0.057 A 
ATOM     55  C   UNL A   1      45.127  28.622  34.721  1.00  0.00     0.134 A 
ATOM     56  C   UNL A   1      43.713  26.772  35.292  1.00  0.00     0.134 A 
ATOM     57  F   UNL A   1      45.366  29.763  34.056  1.00  0.00    -0.206 F 
ATOM     58  C   UNL A   1      46.149  28.080  35.499  1.00  0.00     0.040 A 
ATOM     59  C   UNL A   1      44.716  26.233  36.092  1.00  0.00     0.040 A 
ATOM     60  F   UNL A   1      42.549  26.107  35.208  1.00  0.00    -0.206 F 
ATOM     61  C   UNL A   1      45.939  26.890  36.199  1.00  0.00     0.006 A 
ENDBRANCH  37  54
ENDBRANCH  11  12
ENDBRANCH   4   6
ENDBRANCH   3   4
ENDBRANCH   2   3
ENDBRANCH   1   2
BRANCH   1  62
ATOM     62  O   UNL A   1      31.853  29.972  25.941  1.00  0.00    -0.458 OA
BRANCH  62  63
ATOM     63  C   UNL A   1      31.799  28.709  26.471  1.00  0.00     0.365 C 
ATOM     64  O   UNL A   1      31.551  28.478  27.647  1.00  0.00    -0.245 OA
BRANCH  63  65
ATOM     65  C   UNL A   1      32.097  27.594  25.421  1.00  0.00     0.295 C 
ATOM     66  C   UNL A   1      33.317  26.720  25.780  1.00  0.00     0.087 C 
ATOM     67  N   UNL A   1      30.933  26.645  25.334  1.00  0.00    -0.320 N 
ATOM     68  C   UNL A   1      32.803  25.310  25.615  1.00  0.00     0.054 C 
ATOM     69  C   UNL A   1      31.373  25.476  26.095  1.00  0.00     0.188 C 
ATOM     70  H   UNL A   1      30.081  27.038  25.736  1.00  0.00     0.349 HD
ATOM     71  C   UNL A   1      33.473  24.192  26.354  1.00  0.00     0.010 C 
ATOM     72  C   UNL A   1      30.498  24.238  26.136  1.00  0.00     0.065 C 
ATOM     73  C   UNL A   1      32.781  22.878  26.074  1.00  0.00     0.001 C 
ATOM     74  C   UNL A   1      31.264  22.922  26.236  1.00  0.00     0.006 C 
BRANCH  67  75
ATOM     75  C   UNL A   1      30.423  26.390  23.958  1.00  0.00     0.265 C 
BRANCH  75  76
ATOM     76  C   UNL A   1      30.567  27.384  22.756  1.00  0.00     0.093 C 
BRANCH  76  77
ATOM     77  C   UNL A   1      29.684  28.643  22.764  1.00  0.00     0.123 C 
ATOM     78  C   UNL A   1      28.202  28.435  23.016  1.00  0.00     0.034 C 
ATOM     79  O   UNL A   1      29.724  29.414  21.559  1.00  0.00    -0.378 OA
ATOM     80  C   UNL A   1      27.632  29.794  22.650  1.00  0.00     0.031 C 
ATOM     81  C   UNL A   1      28.640  30.363  21.661  1.00  0.00     0.160 C 
ENDBRANCH  76  77
ENDBRANCH  75  76
ENDBRANCH  67  75
ENDBRANCH  63  65
ENDBRANCH  62  63
ENDBRANCH   1  62
TORSDOF 14
ENDMDL
MODEL 2
REMARK VINA RESULT:     -11.4      5.627     10.347
REMARK SMILES O=C(OCCOC(=O)[C@H]1C[C@H]2CCCC[C@@H]2[N@@H+]1CC[C@@H]1CCCO1)c1ccc(-c2c3nc(c(-c4c(F)cccc4F)c4ccc([nH]4)c(-c4c(F)cccc4F)c4nc(c(-c5c(F)cccc5F)c5ccc2[nH]5)C=C4)C=C3)cc1
REMARK SMILES IDX 5 1 4 2 3 3 2 4 1 5 25 6 26 7 78 8 27 9 77 10 28 11 29 12
REMARK SMILES IDX 30 13 71 14 31 15 76 16 70 17 72 18 32 19 75 20 69 21 68 22
REMARK SMILES IDX 33 24 59 25 42 26 58 27 43 28 46 29 57 30 73 31 44 32 45 33
REMARK SMILES IDX 56 35 74 36 47 37 34 38 35 39 40 40 36 41 37 42 39 43 41 44
REMARK SMILES IDX 38 45 60 46 61 47 66 48 62 49 63 50 65 51 67 52 64 53 48 54
REMARK SMILES IDX 49 55 54 56 50 57 51 58 53 59 55 60 52 61 6 62 7 63 8 64
REMARK SMILES IDX 9 65 10 66 17 67 11 68 16 69 12 71 15 72 13 73 14 74 18 75
REMARK SMILES IDX 19 76 20 77 21 78 24 79 22 80 23 81
REMARK H PARENT 72 23 46 34 17 70
REMARK Flexibility Score: inf
ROOT
ATOM      1  C   UNL A   1      37.994  19.830  24.632  1.00  0.00     0.274 C 
ENDROOT
BRANCH   1   2
ATOM      2  C   UNL A   1      38.872  19.328  25.785  1.00  0.00     0.275 C 
BRANCH   2   3
ATOM      3  O   UNL A   1      40.202  18.942  25.413  1.00  0.00    -0.458 OA
BRANCH   3   4
ATOM      4  C   UNL A   1      41.395  19.377  25.874  1.00  0.00     0.338 C 
ATOM      5  O   UNL A   1      42.347  18.599  25.821  1.00  0.00    -0.246 OA
BRANCH   4   6
ATOM      6  C   UNL A   1      41.612  20.691  26.571  1.00  0.00     0.060 A 
ATOM      7  C   UNL A   1      41.407  21.009  27.920  1.00  0.00     0.016 A 
ATOM      8  C   UNL A   1      42.134  21.701  25.755  1.00  0.00     0.016 A 
ATOM      9  C   UNL A   1      41.830  22.246  28.471  1.00  0.00     0.010 A 
ATOM     10  C   UNL A   1      42.570  22.907  26.304  1.00  0.00     0.010 A 
ATOM     11  C   UNL A   1      42.471  23.199  27.683  1.00  0.00    -0.014 A 
BRANCH  11  12
ATOM     12  C   UNL A   1      43.060  24.507  28.171  1.00  0.00     0.031 A 
ATOM     13  C   UNL A   1      42.080  25.643  28.373  1.00  0.00     0.074 A 
ATOM     14  C   UNL A   1      44.395  24.773  28.219  1.00  0.00     0.049 A 
ATOM     15  N   UNL A   1      42.272  26.935  28.342  1.00  0.00    -0.248 NA
ATOM     16  C   UNL A   1      40.665  25.253  28.551  1.00  0.00     0.031 C 
ATOM     17  C   UNL A   1      45.488  23.810  28.039  1.00  0.00     0.029 A 
ATOM     18  N   UNL A   1      45.068  25.986  28.312  1.00  0.00    -0.354 N 
ATOM     19  C   UNL A   1      41.012  27.493  28.519  1.00  0.00     0.074 A 
ATOM     20  C   UNL A   1      40.051  26.419  28.443  1.00  0.00     0.031 C 
ATOM     21  C   UNL A   1      46.664  24.465  27.941  1.00  0.00     0.029 A 
ATOM     22  C   UNL A   1      46.420  25.904  27.992  1.00  0.00     0.049 A 
ATOM     23  H   UNL A   1      44.629  26.825  28.579  1.00  0.00     0.167 HD
ATOM     24  C   UNL A   1      40.687  28.762  28.858  1.00  0.00     0.037 A 
ATOM     25  C   UNL A   1      47.311  26.875  27.661  1.00  0.00     0.037 A 
ATOM     26  C   UNL A   1      41.658  29.797  29.038  1.00  0.00     0.049 A 
ATOM     27  C   UNL A   1      46.869  28.313  27.730  1.00  0.00     0.074 A 
ATOM     28  C   UNL A   1      41.509  31.041  29.622  1.00  0.00     0.029 A 
ATOM     29  N   UNL A   1      42.977  29.692  28.633  1.00  0.00    -0.354 N 
ATOM     30  N   UNL A   1      45.696  28.803  28.038  1.00  0.00    -0.248 NA
ATOM     31  C   UNL A   1      47.892  29.335  27.445  1.00  0.00     0.031 C 
ATOM     32  C   UNL A   1      42.741  31.701  29.549  1.00  0.00     0.029 A 
ATOM     33  C   UNL A   1      43.650  30.861  28.929  1.00  0.00     0.049 A 
ATOM     34  H   UNL A   1      43.375  28.903  28.199  1.00  0.00     0.167 HD
ATOM     35  C   UNL A   1      45.881  30.175  28.125  1.00  0.00     0.074 A 
ATOM     36  C   UNL A   1      47.240  30.453  27.720  1.00  0.00     0.031 C 
ATOM     37  C   UNL A   1      45.020  31.110  28.584  1.00  0.00     0.037 A 
BRANCH  24  38
ATOM     38  C   UNL A   1      39.254  29.034  29.213  1.00  0.00     0.057 A 
ATOM     39  C   UNL A   1      38.350  29.484  28.236  1.00  0.00     0.134 A 
ATOM     40  C   UNL A   1      38.760  28.834  30.505  1.00  0.00     0.134 A 
ATOM     41  F   UNL A   1      38.760  29.693  26.974  1.00  0.00    -0.206 F 
ATOM     42  C   UNL A   1      37.024  29.780  28.544  1.00  0.00     0.040 A 
ATOM     43  C   UNL A   1      37.424  29.096  30.818  1.00  0.00     0.040 A 
ATOM     44  F   UNL A   1      39.563  28.390  31.482  1.00  0.00    -0.206 F 
ATOM     45  C   UNL A   1      36.556  29.582  29.840  1.00  0.00     0.006 A 
ENDBRANCH  24  38
BRANCH  25  46
ATOM     46  C   UNL A   1      48.711  26.630  27.174  1.00  0.00     0.057 A 
ATOM     47  C   UNL A   1      49.007  26.516  25.814  1.00  0.00     0.134 A 
ATOM     48  C   UNL A   1      49.720  26.209  28.059  1.00  0.00     0.134 A 
ATOM     49  F   UNL A   1      48.053  26.741  24.899  1.00  0.00    -0.206 F 
ATOM     50  C   UNL A   1      50.250  26.044  25.365  1.00  0.00     0.040 A 
ATOM     51  C   UNL A   1      50.988  25.805  27.633  1.00  0.00     0.040 A 
ATOM     52  F   UNL A   1      49.436  26.014  29.351  1.00  0.00    -0.206 F 
ATOM     53  C   UNL A   1      51.254  25.709  26.275  1.00  0.00     0.006 A 
ENDBRANCH  25  46
BRANCH  37  54
ATOM     54  C   UNL A   1      45.575  32.465  28.869  1.00  0.00     0.057 A 
ATOM     55  C   UNL A   1      46.244  32.774  30.054  1.00  0.00     0.134 A 
ATOM     56  C   UNL A   1      45.464  33.467  27.895  1.00  0.00     0.134 A 
ATOM     57  F   UNL A   1      46.345  31.865  31.036  1.00  0.00    -0.206 F 
ATOM     58  C   UNL A   1      46.795  34.039  30.260  1.00  0.00     0.040 A 
ATOM     59  C   UNL A   1      46.032  34.724  28.077  1.00  0.00     0.040 A 
ATOM     60  F   UNL A   1      44.820  33.228  26.741  1.00  0.00    -0.206 F 
ATOM     61  C   UNL A   1      46.702  35.012  29.264  1.00  0.00     0.006 A 
ENDBRANCH  37  54
ENDBRANCH  11  12
ENDBRANCH   4   6
ENDBRANCH   3   4
ENDBRANCH   2   3
ENDBRANCH   1   2
BRANCH   1  62
ATOM     62  O   UNL A   1      36.755  20.403  25.079  1.00  0.00    -0.458 OA
BRANCH  62  63
ATOM     63  C   UNL A   1      36.732  21.747  25.348  1.00  0.00     0.365 C 
ATOM     64  O   UNL A   1      37.738  22.440  25.417  1.00  0.00    -0.245 OA
BRANCH  63  65
ATOM     65  C   UNL A   1      35.291  22.301  25.568  1.00  0.00     0.295 C 
ATOM     66  C   UNL A   1      35.229  23.841  25.648  1.00  0.00     0.087 C 
ATOM     67  N   UNL A   1      34.410  21.921  24.409  1.00  0.00    -0.320 N 
ATOM     68  C   UNL A   1      34.115  24.200  24.692  1.00  0.00     0.054 C 
ATOM     69  C   UNL A   1      34.320  23.148  23.618  1.00  0.00     0.188 C 
ATOM     70  H   UNL A   1      34.806  21.161  23.855  1.00  0.00     0.349 HD
ATOM     71  C   UNL A   1      34.084  25.568  24.081  1.00  0.00     0.010 C 
ATOM     72  C   UNL A   1      33.406  23.192  22.409  1.00  0.00     0.065 C 
ATOM     73  C   UNL A   1      32.913  25.701  23.135  1.00  0.00     0.001 C 
ATOM     74  C   UNL A   1      32.785  24.558  22.131  1.00  0.00     0.006 C 
BRANCH  67  75
ATOM     75  C   UNL A   1      33.123  21.271  24.777  1.00  0.00     0.265 C 
BRANCH  75  76
ATOM     76  C   UNL A   1      32.618  19.904  24.201  1.00  0.00     0.093 C 
BRANCH  76  77
ATOM     77  C   UNL A   1      33.114  18.618  24.882  1.00  0.00     0.123 C 
ATOM     78  C   UNL A   1      34.260  17.886  24.208  1.00  0.00     0.034 C 
ATOM     79  O   UNL A   1      32.116  17.607  25.059  1.00  0.00    -0.378 OA
ATOM     80  C   UNL A   1      34.263  16.563  24.952  1.00  0.00     0.031 C 
ATOM     81  C   UNL A   1      32.829  16.411  25.441  1.00  0.00     0.160 C 
ENDBRANCH  76  77
ENDBRANCH  75  76
ENDBRANCH  67  75
ENDBRANCH  63  65
ENDBRANCH  62  63
ENDBRANCH   1  62
TORSDOF 14
ENDMDL
MODEL 3
REMARK VINA RESULT:     -11.3      4.356      9.088
REMARK SMILES O=C(OCCOC(=O)[C@H]1C[C@H]2CCCC[C@@H]2[N@@H+]1CC[C@@H]1CCCO1)c1ccc(-c2c3nc(c(-c4c(F)cccc4F)c4ccc([nH]4)c(-c4c(F)cccc4F)c4nc(c(-c5c(F)cccc5F)c5ccc2[nH]5)C=C4)C=C3)cc1
REMARK SMILES IDX 5 1 4 2 3 3 2 4 1 5 25 6 26 7 78 8 27 9 77 10 28 11 29 12
REMARK SMILES IDX 30 13 71 14 31 15 76 16 70 17 72 18 32 19 75 20 69 21 68 22
REMARK SMILES IDX 33 24 59 25 42 26 58 27 43 28 46 29 57 30 73 31 44 32 45 33
REMARK SMILES IDX 56 35 74 36 47 37 34 38 35 39 40 40 36 41 37 42 39 43 41 44
REMARK SMILES IDX 38 45 60 46 61 47 66 48 62 49 63 50 65 51 67 52 64 53 48 54
REMARK SMILES IDX 49 55 54 56 50 57 51 58 53 59 55 60 52 61 6 62 7 63 8 64
REMARK SMILES IDX 9 65 10 66 17 67 11 68 16 69 12 71 15 72 13 73 14 74 18 75
REMARK SMILES IDX 19 76 20 77 21 78 24 79 22 80 23 81
REMARK H PARENT 72 23 46 34 17 70
REMARK Flexibility Score: inf
ROOT
ATOM      1  C   UNL A   1      34.911  22.693  24.233  1.00  0.00     0.274 C 
ENDROOT
BRANCH   1   2
ATOM      2  C   UNL A   1      35.719  21.543  24.847  1.00  0.00     0.275 C 
BRANCH   2   3
ATOM      3  O   UNL A   1      37.114  21.536  24.516  1.00  0.00    -0.458 OA
BRANCH   3   4
ATOM      4  C   UNL A   1      38.178  21.135  25.246  1.00  0.00     0.338 C 
ATOM      5  O   UNL A   1      38.415  19.928  25.296  1.00  0.00    -0.246 OA
BRANCH   4   6
ATOM      6  C   UNL A   1      39.011  22.041  26.110  1.00  0.00     0.060 A 
ATOM      7  C   UNL A   1      40.058  21.702  26.977  1.00  0.00     0.016 A 
ATOM      8  C   UNL A   1      38.716  23.402  25.976  1.00  0.00     0.016 A 
ATOM      9  C   UNL A   1      40.872  22.688  27.591  1.00  0.00     0.010 A 
ATOM     10  C   UNL A   1      39.532  24.370  26.562  1.00  0.00     0.010 A 
ATOM     11  C   UNL A   1      40.659  24.043  27.351  1.00  0.00    -0.014 A 
BRANCH  11  12
ATOM     12  C   UNL A   1      41.518  25.183  27.860  1.00  0.00     0.031 A 
ATOM     13  C   UNL A   1      40.775  26.368  28.439  1.00  0.00     0.074 A 
ATOM     14  C   UNL A   1      42.855  25.294  27.627  1.00  0.00     0.049 A 
ATOM     15  N   UNL A   1      41.135  27.620  28.539  1.00  0.00    -0.248 NA
ATOM     16  C   UNL A   1      39.392  26.106  28.891  1.00  0.00     0.031 C 
ATOM     17  C   UNL A   1      43.736  24.264  27.065  1.00  0.00     0.029 A 
ATOM     18  N   UNL A   1      43.696  26.397  27.723  1.00  0.00    -0.354 N 
ATOM     19  C   UNL A   1      40.035  28.271  29.083  1.00  0.00     0.074 A 
ATOM     20  C   UNL A   1      38.939  27.332  29.090  1.00  0.00     0.031 C 
ATOM     21  C   UNL A   1      44.943  24.798  26.783  1.00  0.00     0.029 A 
ATOM     22  C   UNL A   1      44.922  26.227  27.085  1.00  0.00     0.049 A 
ATOM     23  H   UNL A   1      43.448  27.223  28.198  1.00  0.00     0.167 HD
ATOM     24  C   UNL A   1      39.973  29.495  29.658  1.00  0.00     0.037 A 
ATOM     25  C   UNL A   1      45.847  27.138  26.689  1.00  0.00     0.037 A 
ATOM     26  C   UNL A   1      41.096  30.377  29.744  1.00  0.00     0.049 A 
ATOM     27  C   UNL A   1      45.637  28.584  27.055  1.00  0.00     0.074 A 
ATOM     28  C   UNL A   1      41.253  31.517  30.510  1.00  0.00     0.029 A 
ATOM     29  N   UNL A   1      42.267  30.200  29.028  1.00  0.00    -0.354 N 
ATOM     30  N   UNL A   1      44.640  29.139  27.694  1.00  0.00    -0.248 NA
ATOM     31  C   UNL A   1      46.708  29.525  26.679  1.00  0.00     0.031 C 
ATOM     32  C   UNL A   1      42.521  32.046  30.239  1.00  0.00     0.029 A 
ATOM     33  C   UNL A   1      43.146  31.227  29.314  1.00  0.00     0.049 A 
ATOM     34  H   UNL A   1      42.447  29.456  28.410  1.00  0.00     0.167 HD
ATOM     35  C   UNL A   1      45.031  30.450  27.921  1.00  0.00     0.074 A 
ATOM     36  C   UNL A   1      46.295  30.645  27.249  1.00  0.00     0.031 C 
ATOM     37  C   UNL A   1      44.430  31.383  28.693  1.00  0.00     0.037 A 
BRANCH  24  38
ATOM     38  C   UNL A   1      38.704  29.855  30.374  1.00  0.00     0.057 A 
ATOM     39  C   UNL A   1      38.500  29.462  31.708  1.00  0.00     0.134 A 
ATOM     40  C   UNL A   1      37.694  30.601  29.761  1.00  0.00     0.134 A 
ATOM     41  F   UNL A   1      39.433  28.746  32.356  1.00  0.00    -0.206 F 
ATOM     42  C   UNL A   1      37.318  29.749  32.385  1.00  0.00     0.040 A 
ATOM     43  C   UNL A   1      36.517  30.923  30.441  1.00  0.00     0.040 A 
ATOM     44  F   UNL A   1      37.829  31.023  28.496  1.00  0.00    -0.206 F 
ATOM     45  C   UNL A   1      36.321  30.487  31.752  1.00  0.00     0.006 A 
ENDBRANCH  24  38
BRANCH  25  46
ATOM     46  C   UNL A   1      47.059  26.830  25.857  1.00  0.00     0.057 A 
ATOM     47  C   UNL A   1      48.272  26.450  26.438  1.00  0.00     0.134 A 
ATOM     48  C   UNL A   1      47.116  27.196  24.500  1.00  0.00     0.134 A 
ATOM     49  F   UNL A   1      48.346  26.240  27.759  1.00  0.00    -0.206 F 
ATOM     50  C   UNL A   1      49.464  26.405  25.697  1.00  0.00     0.040 A 
ATOM     51  C   UNL A   1      48.276  27.087  23.729  1.00  0.00     0.040 A 
ATOM     52  F   UNL A   1      46.085  27.834  23.938  1.00  0.00    -0.206 F 
ATOM     53  C   UNL A   1      49.464  26.701  24.333  1.00  0.00     0.006 A 
ENDBRANCH  25  46
BRANCH  37  54
ATOM     54  C   UNL A   1      45.219  32.606  29.021  1.00  0.00     0.057 A 
ATOM     55  C   UNL A   1      46.167  32.642  30.044  1.00  0.00     0.134 A 
ATOM     56  C   UNL A   1      45.040  33.761  28.247  1.00  0.00     0.134 A 
ATOM     57  F   UNL A   1      46.351  31.578  30.840  1.00  0.00    -0.206 F 
ATOM     58  C   UNL A   1      46.922  33.790  30.284  1.00  0.00     0.040 A 
ATOM     59  C   UNL A   1      45.805  34.904  28.460  1.00  0.00     0.040 A 
ATOM     60  F   UNL A   1      44.133  33.785  27.258  1.00  0.00    -0.206 F 
ATOM     61  C   UNL A   1      46.752  34.919  29.481  1.00  0.00     0.006 A 
ENDBRANCH  37  54
ENDBRANCH  11  12
ENDBRANCH   4   6
ENDBRANCH   3   4
ENDBRANCH   2   3
ENDBRANCH   1   2
BRANCH   1  62
ATOM     62  O   UNL A   1      33.573  22.777  24.752  1.00  0.00    -0.458 OA
BRANCH  62  63
ATOM     63  C   UNL A   1      33.321  23.714  25.721  1.00  0.00     0.365 C 
ATOM     64  O   UNL A   1      33.634  23.574  26.896  1.00  0.00    -0.245 OA
BRANCH  63  65
ATOM     65  C   UNL A   1      32.584  24.975  25.173  1.00  0.00     0.295 C 
ATOM     66  C   UNL A   1      31.547  25.557  26.156  1.00  0.00     0.087 C 
ATOM     67  N   UNL A   1      33.572  26.083  24.927  1.00  0.00    -0.320 N 
ATOM     68  C   UNL A   1      31.879  27.030  26.190  1.00  0.00     0.054 C 
ATOM     69  C   UNL A   1      33.391  26.977  26.070  1.00  0.00     0.188 C 
ATOM     70  H   UNL A   1      34.533  25.742  24.883  1.00  0.00     0.349 HD
ATOM     71  C   UNL A   1      31.480  27.845  27.383  1.00  0.00     0.010 C 
ATOM     72  C   UNL A   1      34.145  28.292  26.117  1.00  0.00     0.065 C 
ATOM     73  C   UNL A   1      31.939  29.277  27.225  1.00  0.00     0.001 C 
ATOM     74  C   UNL A   1      33.403  29.425  26.820  1.00  0.00     0.006 C 
BRANCH  67  75
ATOM     75  C   UNL A   1      33.503  26.705  23.577  1.00  0.00     0.265 C 
BRANCH  75  76
ATOM     76  C   UNL A   1      32.361  26.452  22.535  1.00  0.00     0.093 C 
BRANCH  76  77
ATOM     77  C   UNL A   1      31.206  27.466  22.487  1.00  0.00     0.123 C 
ATOM     78  C   UNL A   1      31.460  28.823  23.116  1.00  0.00     0.034 C 
ATOM     79  O   UNL A   1      29.991  27.024  23.102  1.00  0.00    -0.378 OA
ATOM     80  C   UNL A   1      30.062  29.412  23.161  1.00  0.00     0.031 C 
ATOM     81  C   UNL A   1      29.150  28.194  23.201  1.00  0.00     0.160 C 
ENDBRANCH  76  77
ENDBRANCH  75  76
ENDBRANCH  67  75
ENDBRANCH  63  65
ENDBRANCH  62  63
ENDBRANCH   1  62
TORSDOF 14
ENDMDL
