MODEL 1
REMARK VINA RESULT:     -11.1      0.000      0.000
REMARK SMILES C[C@H]1Cc2ccccc2N1/C=C\C(=O)OCCOC(=O)c1ccc(-c2c3nc(c(-c4c(F)cccc4F)c4ccc([nH]4)c(-c4c(F)cccc4F)c4nc(c(-c5c(F)cccc5F)c5ccc2[nH]5)C=C4)C=C3)cc1
REMARK SMILES IDX 17 1 16 2 15 3 13 4 14 5 12 6 11 7 10 8 1 9 2 10 3 11 4 12
REMARK SMILES IDX 9 13 5 14 8 15 6 16 7 17 18 18 19 19 20 20 21 21 22 22 74 23
REMARK SMILES IDX 23 24 73 25 24 26 25 27 26 28 67 29 27 30 72 31 66 32 68 33
REMARK SMILES IDX 28 34 71 35 65 36 64 37 29 39 55 40 38 41 54 42 39 43 42 44
REMARK SMILES IDX 53 45 69 46 40 47 41 48 52 50 70 51 43 52 30 53 31 54 36 55
REMARK SMILES IDX 32 56 33 57 35 58 37 59 34 60 56 61 57 62 62 63 58 64 59 65
REMARK SMILES IDX 61 66 63 67 60 68 44 69 45 70 50 71 46 72 47 73 49 74 51 75
REMARK SMILES IDX 48 76
REMARK H PARENT 68 38 42 49
REMARK Flexibility Score: inf
ROOT
ATOM      1  C   UNL A   1      31.741  30.900  26.507  1.00  0.00     0.275 C 
ENDROOT
BRANCH   1   2
ATOM      2  C   UNL A   1      31.653  29.540  25.817  1.00  0.00     0.275 C 
BRANCH   2   3
ATOM      3  O   UNL A   1      32.809  29.340  24.986  1.00  0.00    -0.459 OA
BRANCH   3   4
ATOM      4  C   UNL A   1      33.429  28.146  25.026  1.00  0.00     0.332 C 
ATOM      5  O   UNL A   1      34.010  27.663  25.986  1.00  0.00    -0.247 OA
BRANCH   4   6
ATOM      6  C   UNL A   1      33.243  27.398  23.770  1.00  0.00     0.111 C 
ATOM      7  C   UNL A   1      32.135  26.980  23.141  1.00  0.00     0.094 C 
BRANCH   7   8
ATOM      8  N   UNL A   1      30.774  27.093  23.348  1.00  0.00    -0.344 N 
ATOM      9  C   UNL A   1      30.218  26.062  25.542  1.00  0.00     0.032 C 
ATOM     10  C   UNL A   1      29.866  26.161  24.056  1.00  0.00     0.088 C 
ATOM     11  C   UNL A   1      28.412  26.657  23.888  1.00  0.00     0.062 C 
ATOM     12  C   UNL A   1      28.603  27.966  23.213  1.00  0.00    -0.022 A 
ATOM     13  C   UNL A   1      29.951  28.163  22.906  1.00  0.00     0.044 A 
ATOM     14  C   UNL A   1      27.617  28.880  22.871  1.00  0.00     0.006 A 
ATOM     15  C   UNL A   1      30.322  29.317  22.228  1.00  0.00     0.026 A 
ATOM     16  C   UNL A   1      27.997  30.037  22.199  1.00  0.00     0.000 A 
ATOM     17  C   UNL A   1      29.342  30.255  21.877  1.00  0.00     0.002 A 
ENDBRANCH   7   8
ENDBRANCH   4   6
ENDBRANCH   3   4
ENDBRANCH   2   3
ENDBRANCH   1   2
BRANCH   1  18
ATOM     18  O   UNL A   1      33.084  31.393  26.422  1.00  0.00    -0.458 OA
BRANCH  18  19
ATOM     19  C   UNL A   1      33.413  32.364  27.309  1.00  0.00     0.338 C 
ATOM     20  O   UNL A   1      32.746  33.328  27.638  1.00  0.00    -0.246 OA
BRANCH  19  21
ATOM     21  C   UNL A   1      34.653  31.944  27.986  1.00  0.00     0.060 A 
ATOM     22  C   UNL A   1      35.718  32.834  28.141  1.00  0.00     0.016 A 
ATOM     23  C   UNL A   1      34.764  30.615  28.414  1.00  0.00     0.016 A 
ATOM     24  C   UNL A   1      36.906  32.383  28.703  1.00  0.00     0.010 A 
ATOM     25  C   UNL A   1      35.953  30.165  28.984  1.00  0.00     0.010 A 
ATOM     26  C   UNL A   1      37.029  31.049  29.128  1.00  0.00    -0.014 A 
BRANCH  26  27
ATOM     27  C   UNL A   1      38.263  30.643  29.827  1.00  0.00     0.031 A 
ATOM     28  C   UNL A   1      38.525  31.049  31.242  1.00  0.00     0.074 A 
ATOM     29  C   UNL A   1      39.115  29.840  29.165  1.00  0.00     0.049 A 
ATOM     30  N   UNL A   1      39.443  30.610  32.063  1.00  0.00    -0.248 NA
ATOM     31  C   UNL A   1      37.650  32.086  31.808  1.00  0.00     0.031 C 
ATOM     32  C   UNL A   1      38.961  29.431  27.766  1.00  0.00     0.029 A 
ATOM     33  N   UNL A   1      40.248  29.200  29.581  1.00  0.00    -0.354 N 
ATOM     34  C   UNL A   1      39.243  31.294  33.254  1.00  0.00     0.074 A 
ATOM     35  C   UNL A   1      38.152  32.220  33.028  1.00  0.00     0.031 C 
ATOM     36  C   UNL A   1      39.937  28.567  27.455  1.00  0.00     0.029 A 
ATOM     37  C   UNL A   1      40.786  28.375  28.625  1.00  0.00     0.049 A 
ATOM     38  H   UNL A   1      40.641  29.320  30.476  1.00  0.00     0.167 HD
ATOM     39  C   UNL A   1      39.901  31.140  34.429  1.00  0.00     0.037 A 
ATOM     40  C   UNL A   1      41.833  27.535  28.700  1.00  0.00     0.037 A 
ATOM     41  C   UNL A   1      41.005  30.233  34.620  1.00  0.00     0.049 A 
ATOM     42  C   UNL A   1      42.554  27.399  30.010  1.00  0.00     0.074 A 
ATOM     43  C   UNL A   1      41.729  29.975  35.771  1.00  0.00     0.029 A 
ATOM     44  N   UNL A   1      41.556  29.440  33.619  1.00  0.00    -0.354 N 
ATOM     45  N   UNL A   1      42.299  27.979  31.159  1.00  0.00    -0.248 NA
ATOM     46  C   UNL A   1      43.697  26.480  30.035  1.00  0.00     0.031 C 
ATOM     47  C   UNL A   1      42.746  29.064  35.455  1.00  0.00     0.029 A 
ATOM     48  C   UNL A   1      42.626  28.716  34.119  1.00  0.00     0.049 A 
ATOM     49  H   UNL A   1      41.232  29.400  32.690  1.00  0.00     0.167 HD
ATOM     50  C   UNL A   1      43.239  27.482  32.049  1.00  0.00     0.074 A 
ATOM     51  C   UNL A   1      44.048  26.532  31.312  1.00  0.00     0.031 C 
ATOM     52  C   UNL A   1      43.425  27.787  33.358  1.00  0.00     0.037 A 
BRANCH  39  53
ATOM     53  C   UNL A   1      39.443  31.978  35.589  1.00  0.00     0.057 A 
ATOM     54  C   UNL A   1      39.987  33.247  35.823  1.00  0.00     0.134 A 
ATOM     55  C   UNL A   1      38.474  31.517  36.492  1.00  0.00     0.134 A 
ATOM     56  F   UNL A   1      40.925  33.747  35.006  1.00  0.00    -0.206 F 
ATOM     57  C   UNL A   1      39.580  34.029  36.907  1.00  0.00     0.040 A 
ATOM     58  C   UNL A   1      38.040  32.299  37.564  1.00  0.00     0.040 A 
ATOM     59  F   UNL A   1      37.907  30.312  36.324  1.00  0.00    -0.206 F 
ATOM     60  C   UNL A   1      38.598  33.558  37.777  1.00  0.00     0.006 A 
ENDBRANCH  39  53
BRANCH  40  61
ATOM     61  C   UNL A   1      42.226  26.731  27.517  1.00  0.00     0.057 A 
ATOM     62  C   UNL A   1      41.773  25.418  27.347  1.00  0.00     0.134 A 
ATOM     63  C   UNL A   1      43.061  27.261  26.526  1.00  0.00     0.134 A 
ATOM     64  F   UNL A   1      40.982  24.850  28.268  1.00  0.00    -0.206 F 
ATOM     65  C   UNL A   1      42.135  24.659  26.233  1.00  0.00     0.040 A 
ATOM     66  C   UNL A   1      43.410  26.523  25.394  1.00  0.00     0.040 A 
ATOM     67  F   UNL A   1      43.520  28.517  26.629  1.00  0.00    -0.206 F 
ATOM     68  C   UNL A   1      42.948  25.216  25.247  1.00  0.00     0.006 A 
ENDBRANCH  40  61
BRANCH  52  69
ATOM     69  C   UNL A   1      44.542  27.070  34.058  1.00  0.00     0.057 A 
ATOM     70  C   UNL A   1      44.326  25.824  34.659  1.00  0.00     0.134 A 
ATOM     71  C   UNL A   1      45.837  27.604  34.123  1.00  0.00     0.134 A 
ATOM     72  F   UNL A   1      43.109  25.258  34.639  1.00  0.00    -0.206 F 
ATOM     73  C   UNL A   1      45.360  25.130  35.291  1.00  0.00     0.040 A 
ATOM     74  C   UNL A   1      46.884  26.907  34.725  1.00  0.00     0.040 A 
ATOM     75  F   UNL A   1      46.113  28.785  33.550  1.00  0.00    -0.206 F 
ATOM     76  C   UNL A   1      46.645  25.666  35.314  1.00  0.00     0.006 A 
ENDBRANCH  52  69
ENDBRANCH  26  27
ENDBRANCH  19  21
ENDBRANCH  18  19
ENDBRANCH   1  18
TORSDOF 12
ENDMDL
MODEL 2
REMARK VINA RESULT:     -10.9      5.660     10.237
REMARK SMILES C[C@H]1Cc2ccccc2N1/C=C\C(=O)OCCOC(=O)c1ccc(-c2c3nc(c(-c4c(F)cccc4F)c4ccc([nH]4)c(-c4c(F)cccc4F)c4nc(c(-c5c(F)cccc5F)c5ccc2[nH]5)C=C4)C=C3)cc1
REMARK SMILES IDX 17 1 16 2 15 3 13 4 14 5 12 6 11 7 10 8 1 9 2 10 3 11 4 12
REMARK SMILES IDX 9 13 5 14 8 15 6 16 7 17 18 18 19 19 20 20 21 21 22 22 74 23
REMARK SMILES IDX 23 24 73 25 24 26 25 27 26 28 67 29 27 30 72 31 66 32 68 33
REMARK SMILES IDX 28 34 71 35 65 36 64 37 29 39 55 40 38 41 54 42 39 43 42 44
REMARK SMILES IDX 53 45 69 46 40 47 41 48 52 50 70 51 43 52 30 53 31 54 36 55
REMARK SMILES IDX 32 56 33 57 35 58 37 59 34 60 56 61 57 62 62 63 58 64 59 65
REMARK SMILES IDX 61 66 63 67 60 68 44 69 45 70 50 71 46 72 47 73 49 74 51 75
REMARK SMILES IDX 48 76
REMARK H PARENT 68 38 42 49
REMARK Flexibility Score: inf
ROOT
ATOM      1  C   UNL A   1      39.570  19.748  26.042  1.00  0.00     0.275 C 
ENDROOT
BRANCH   1   2
ATOM      2  C   UNL A   1      38.398  20.090  25.124  1.00  0.00     0.275 C 
BRANCH   2   3
ATOM      3  O   UNL A   1      38.144  21.504  25.164  1.00  0.00    -0.459 OA
BRANCH   3   4
ATOM      4  C   UNL A   1      36.945  21.953  24.751  1.00  0.00     0.332 C 
ATOM      5  O   UNL A   1      36.667  22.348  23.629  1.00  0.00    -0.247 OA
BRANCH   4   6
ATOM      6  C   UNL A   1      35.925  21.821  25.806  1.00  0.00     0.111 C 
ATOM      7  C   UNL A   1      34.670  21.349  25.773  1.00  0.00     0.094 C 
BRANCH   7   8
ATOM      8  N   UNL A   1      33.849  20.779  24.820  1.00  0.00    -0.344 N 
ATOM      9  C   UNL A   1      33.290  22.507  23.119  1.00  0.00     0.032 C 
ATOM     10  C   UNL A   1      32.755  21.410  24.043  1.00  0.00     0.088 C 
ATOM     11  C   UNL A   1      32.040  20.320  23.214  1.00  0.00     0.062 C 
ATOM     12  C   UNL A   1      32.896  19.131  23.452  1.00  0.00    -0.022 A 
ATOM     13  C   UNL A   1      33.894  19.429  24.382  1.00  0.00     0.044 A 
ATOM     14  C   UNL A   1      32.746  17.870  22.894  1.00  0.00     0.006 A 
ATOM     15  C   UNL A   1      34.771  18.422  24.770  1.00  0.00     0.026 A 
ATOM     16  C   UNL A   1      33.633  16.869  23.279  1.00  0.00     0.000 A 
ATOM     17  C   UNL A   1      34.639  17.143  24.214  1.00  0.00     0.002 A 
ENDBRANCH   7   8
ENDBRANCH   4   6
ENDBRANCH   3   4
ENDBRANCH   2   3
ENDBRANCH   1   2
BRANCH   1  18
ATOM     18  O   UNL A   1      40.679  19.298  25.254  1.00  0.00    -0.458 OA
BRANCH  18  19
ATOM     19  C   UNL A   1      41.852  19.150  25.917  1.00  0.00     0.338 C 
ATOM     20  O   UNL A   1      42.549  18.153  25.982  1.00  0.00    -0.246 OA
BRANCH  19  21
ATOM     21  C   UNL A   1      42.267  20.483  26.388  1.00  0.00     0.060 A 
ATOM     22  C   UNL A   1      42.344  20.765  27.754  1.00  0.00     0.016 A 
ATOM     23  C   UNL A   1      42.522  21.478  25.437  1.00  0.00     0.016 A 
ATOM     24  C   UNL A   1      42.652  22.056  28.166  1.00  0.00     0.010 A 
ATOM     25  C   UNL A   1      42.837  22.771  25.851  1.00  0.00     0.010 A 
ATOM     26  C   UNL A   1      42.901  23.064  27.218  1.00  0.00    -0.014 A 
BRANCH  26  27
ATOM     27  C   UNL A   1      43.339  24.389  27.697  1.00  0.00     0.031 A 
ATOM     28  C   UNL A   1      44.776  24.799  27.641  1.00  0.00     0.074 A 
ATOM     29  C   UNL A   1      42.389  25.238  28.125  1.00  0.00     0.049 A 
ATOM     30  N   UNL A   1      45.296  25.985  27.819  1.00  0.00    -0.248 NA
ATOM     31  C   UNL A   1      45.758  23.742  27.356  1.00  0.00     0.031 C 
ATOM     32  C   UNL A   1      40.968  24.906  28.256  1.00  0.00     0.029 A 
ATOM     33  N   UNL A   1      42.464  26.552  28.493  1.00  0.00    -0.354 N 
ATOM     34  C   UNL A   1      46.664  25.829  27.641  1.00  0.00     0.074 A 
ATOM     35  C   UNL A   1      46.897  24.419  27.400  1.00  0.00     0.031 C 
ATOM     36  C   UNL A   1      40.296  26.005  28.626  1.00  0.00     0.029 A 
ATOM     37  C   UNL A   1      41.240  27.108  28.769  1.00  0.00     0.049 A 
ATOM     38  H   UNL A   1      43.311  27.051  28.554  1.00  0.00     0.167 HD
ATOM     39  C   UNL A   1      47.625  26.784  27.660  1.00  0.00     0.037 A 
ATOM     40  C   UNL A   1      40.916  28.376  29.077  1.00  0.00     0.037 A 
ATOM     41  C   UNL A   1      47.371  28.176  27.933  1.00  0.00     0.049 A 
ATOM     42  C   UNL A   1      42.005  29.409  29.106  1.00  0.00     0.074 A 
ATOM     43  C   UNL A   1      48.262  29.235  27.952  1.00  0.00     0.029 A 
ATOM     44  N   UNL A   1      46.124  28.701  28.253  1.00  0.00    -0.354 N 
ATOM     45  N   UNL A   1      43.284  29.271  28.844  1.00  0.00    -0.248 NA
ATOM     46  C   UNL A   1      41.603  30.774  29.460  1.00  0.00     0.031 C 
ATOM     47  C   UNL A   1      47.564  30.390  28.329  1.00  0.00     0.029 A 
ATOM     48  C   UNL A   1      46.228  30.061  28.497  1.00  0.00     0.049 A 
ATOM     49  H   UNL A   1      45.289  28.182  28.299  1.00  0.00     0.167 HD
ATOM     50  C   UNL A   1      43.837  30.536  28.984  1.00  0.00     0.074 A 
ATOM     51  C   UNL A   1      42.747  31.430  29.323  1.00  0.00     0.031 C 
ATOM     52  C   UNL A   1      45.129  30.926  28.850  1.00  0.00     0.037 A 
BRANCH  39  53
ATOM     53  C   UNL A   1      49.035  26.346  27.381  1.00  0.00     0.057 A 
ATOM     54  C   UNL A   1      49.891  25.962  28.420  1.00  0.00     0.134 A 
ATOM     55  C   UNL A   1      49.556  26.325  26.078  1.00  0.00     0.134 A 
ATOM     56  F   UNL A   1      49.464  25.967  29.692  1.00  0.00    -0.206 F 
ATOM     57  C   UNL A   1      51.209  25.567  28.176  1.00  0.00     0.040 A 
ATOM     58  C   UNL A   1      50.862  25.908  25.818  1.00  0.00     0.040 A 
ATOM     59  F   UNL A   1      48.789  26.675  25.035  1.00  0.00    -0.206 F 
ATOM     60  C   UNL A   1      51.695  25.532  26.870  1.00  0.00     0.006 A 
ENDBRANCH  39  53
BRANCH  40  61
ATOM     61  C   UNL A   1      39.502  28.741  29.332  1.00  0.00     0.057 A 
ATOM     62  C   UNL A   1      38.684  29.238  28.312  1.00  0.00     0.134 A 
ATOM     63  C   UNL A   1      38.933  28.595  30.603  1.00  0.00     0.134 A 
ATOM     64  F   UNL A   1      39.173  29.414  27.076  1.00  0.00    -0.206 F 
ATOM     65  C   UNL A   1      37.350  29.579  28.545  1.00  0.00     0.040 A 
ATOM     66  C   UNL A   1      37.595  28.905  30.844  1.00  0.00     0.040 A 
ATOM     67  F   UNL A   1      39.666  28.114  31.619  1.00  0.00    -0.206 F 
ATOM     68  C   UNL A   1      36.800  29.401  29.813  1.00  0.00     0.006 A 
ENDBRANCH  40  61
BRANCH  52  69
ATOM     69  C   UNL A   1      45.411  32.384  29.067  1.00  0.00     0.057 A 
ATOM     70  C   UNL A   1      45.305  33.297  28.011  1.00  0.00     0.134 A 
ATOM     71  C   UNL A   1      45.772  32.887  30.324  1.00  0.00     0.134 A 
ATOM     72  F   UNL A   1      44.969  32.882  26.780  1.00  0.00    -0.206 F 
ATOM     73  C   UNL A   1      45.537  34.660  28.200  1.00  0.00     0.040 A 
ATOM     74  C   UNL A   1      45.978  34.251  30.532  1.00  0.00     0.040 A 
ATOM     75  F   UNL A   1      45.873  32.066  31.380  1.00  0.00    -0.206 F 
ATOM     76  C   UNL A   1      45.862  35.142  29.466  1.00  0.00     0.006 A 
ENDBRANCH  52  69
ENDBRANCH  26  27
ENDBRANCH  19  21
ENDBRANCH  18  19
ENDBRANCH   1  18
TORSDOF 12
ENDMDL
MODEL 3
REMARK VINA RESULT:     -10.9      1.754      2.735
REMARK SMILES C[C@H]1Cc2ccccc2N1/C=C\C(=O)OCCOC(=O)c1ccc(-c2c3nc(c(-c4c(F)cccc4F)c4ccc([nH]4)c(-c4c(F)cccc4F)c4nc(c(-c5c(F)cccc5F)c5ccc2[nH]5)C=C4)C=C3)cc1
REMARK SMILES IDX 17 1 16 2 15 3 13 4 14 5 12 6 11 7 10 8 1 9 2 10 3 11 4 12
REMARK SMILES IDX 9 13 5 14 8 15 6 16 7 17 18 18 19 19 20 20 21 21 22 22 74 23
REMARK SMILES IDX 23 24 73 25 24 26 25 27 26 28 67 29 27 30 72 31 66 32 68 33
REMARK SMILES IDX 28 34 71 35 65 36 64 37 29 39 55 40 38 41 54 42 39 43 42 44
REMARK SMILES IDX 53 45 69 46 40 47 41 48 52 50 70 51 43 52 30 53 31 54 36 55
REMARK SMILES IDX 32 56 33 57 35 58 37 59 34 60 56 61 57 62 62 63 58 64 59 65
REMARK SMILES IDX 61 66 63 67 60 68 44 69 45 70 50 71 46 72 47 73 49 74 51 75
REMARK SMILES IDX 48 76
REMARK H PARENT 68 38 42 49
REMARK Flexibility Score: inf
ROOT
ATOM      1  C   UNL A   1      32.390  33.296  27.023  1.00  0.00     0.275 C 
ENDROOT
BRANCH   1   2
ATOM      2  C   UNL A   1      31.695  31.944  26.873  1.00  0.00     0.275 C 
BRANCH   2   3
ATOM      3  O   UNL A   1      32.617  30.886  27.184  1.00  0.00    -0.459 OA
BRANCH   3   4
ATOM      4  C   UNL A   1      32.330  29.641  26.763  1.00  0.00     0.332 C 
ATOM      5  O   UNL A   1      31.662  28.811  27.361  1.00  0.00    -0.247 OA
BRANCH   4   6
ATOM      6  C   UNL A   1      32.838  29.398  25.402  1.00  0.00     0.111 C 
ATOM      7  C   UNL A   1      32.218  29.006  24.279  1.00  0.00     0.094 C 
BRANCH   7   8
ATOM      8  N   UNL A   1      30.918  28.717  23.913  1.00  0.00    -0.344 N 
ATOM      9  C   UNL A   1      30.281  26.528  24.907  1.00  0.00     0.032 C 
ATOM     10  C   UNL A   1      30.303  27.395  23.647  1.00  0.00     0.088 C 
ATOM     11  C   UNL A   1      28.864  27.610  23.126  1.00  0.00     0.062 C 
ATOM     12  C   UNL A   1      28.688  29.076  23.286  1.00  0.00    -0.022 A 
ATOM     13  C   UNL A   1      29.880  29.665  23.712  1.00  0.00     0.044 A 
ATOM     14  C   UNL A   1      27.543  29.812  23.021  1.00  0.00     0.006 A 
ATOM     15  C   UNL A   1      29.925  31.045  23.875  1.00  0.00     0.026 A 
ATOM     16  C   UNL A   1      27.591  31.192  23.194  1.00  0.00     0.000 A 
ATOM     17  C   UNL A   1      28.777  31.806  23.618  1.00  0.00     0.002 A 
ENDBRANCH   7   8
ENDBRANCH   4   6
ENDBRANCH   3   4
ENDBRANCH   2   3
ENDBRANCH   1   2
BRANCH   1  18
ATOM     18  O   UNL A   1      32.143  33.818  28.335  1.00  0.00    -0.458 OA
BRANCH  18  19
ATOM     19  C   UNL A   1      32.938  34.846  28.720  1.00  0.00     0.338 C 
ATOM     20  O   UNL A   1      32.657  36.031  28.754  1.00  0.00    -0.246 OA
BRANCH  19  21
ATOM     21  C   UNL A   1      34.160  34.267  29.306  1.00  0.00     0.060 A 
ATOM     22  C   UNL A   1      34.090  33.449  30.436  1.00  0.00     0.016 A 
ATOM     23  C   UNL A   1      35.396  34.604  28.743  1.00  0.00     0.016 A 
ATOM     24  C   UNL A   1      35.266  32.990  31.018  1.00  0.00     0.010 A 
ATOM     25  C   UNL A   1      36.574  34.139  29.322  1.00  0.00     0.010 A 
ATOM     26  C   UNL A   1      36.513  33.331  30.463  1.00  0.00    -0.014 A 
BRANCH  26  27
ATOM     27  C   UNL A   1      37.729  32.728  31.040  1.00  0.00     0.031 A 
ATOM     28  C   UNL A   1      38.282  33.194  32.349  1.00  0.00     0.074 A 
ATOM     29  C   UNL A   1      38.285  31.699  30.377  1.00  0.00     0.049 A 
ATOM     30  N   UNL A   1      39.204  32.640  33.092  1.00  0.00    -0.248 NA
ATOM     31  C   UNL A   1      37.737  34.447  32.892  1.00  0.00     0.031 C 
ATOM     32  C   UNL A   1      37.838  31.207  29.071  1.00  0.00     0.029 A 
ATOM     33  N   UNL A   1      39.312  30.865  30.719  1.00  0.00    -0.354 N 
ATOM     34  C   UNL A   1      39.334  33.457  34.206  1.00  0.00     0.074 A 
ATOM     35  C   UNL A   1      38.436  34.578  34.011  1.00  0.00     0.031 C 
ATOM     36  C   UNL A   1      38.555  30.123  28.745  1.00  0.00     0.029 A 
ATOM     37  C   UNL A   1      39.515  29.856  29.810  1.00  0.00     0.049 A 
ATOM     38  H   UNL A   1      39.852  30.976  31.535  1.00  0.00     0.167 HD
ATOM     39  C   UNL A   1      40.118  33.271  35.296  1.00  0.00     0.037 A 
ATOM     40  C   UNL A   1      40.365  28.815  29.851  1.00  0.00     0.037 A 
ATOM     41  C   UNL A   1      41.027  32.162  35.452  1.00  0.00     0.049 A 
ATOM     42  C   UNL A   1      41.234  28.644  31.064  1.00  0.00     0.074 A 
ATOM     43  C   UNL A   1      41.849  31.857  36.523  1.00  0.00     0.029 A 
ATOM     44  N   UNL A   1      41.242  31.179  34.493  1.00  0.00    -0.354 N 
ATOM     45  N   UNL A   1      41.283  29.369  32.156  1.00  0.00    -0.248 NA
ATOM     46  C   UNL A   1      42.153  27.501  31.054  1.00  0.00     0.031 C 
ATOM     47  C   UNL A   1      42.595  30.719  36.193  1.00  0.00     0.029 A 
ATOM     48  C   UNL A   1      42.203  30.284  34.936  1.00  0.00     0.049 A 
ATOM     49  H   UNL A   1      40.779  31.126  33.626  1.00  0.00     0.167 HD
ATOM     50  C   UNL A   1      42.225  28.761  32.972  1.00  0.00     0.074 A 
ATOM     51  C   UNL A   1      42.698  27.590  32.259  1.00  0.00     0.031 C 
ATOM     52  C   UNL A   1      42.668  29.135  34.198  1.00  0.00     0.037 A 
BRANCH  39  53
ATOM     53  C   UNL A   1      40.025  34.292  36.394  1.00  0.00     0.057 A 
ATOM     54  C   UNL A   1      40.840  35.431  36.392  1.00  0.00     0.134 A 
ATOM     55  C   UNL A   1      39.140  34.137  37.471  1.00  0.00     0.134 A 
ATOM     56  F   UNL A   1      41.716  35.640  35.398  1.00  0.00    -0.206 F 
ATOM     57  C   UNL A   1      40.773  36.380  37.414  1.00  0.00     0.040 A 
ATOM     58  C   UNL A   1      39.046  35.091  38.485  1.00  0.00     0.040 A 
ATOM     59  F   UNL A   1      38.327  33.072  37.533  1.00  0.00    -0.206 F 
ATOM     60  C   UNL A   1      39.869  36.215  38.461  1.00  0.00     0.006 A 
ENDBRANCH  39  53
BRANCH  40  61
ATOM     61  C   UNL A   1      40.398  27.839  28.736  1.00  0.00     0.057 A 
ATOM     62  C   UNL A   1      41.173  28.067  27.593  1.00  0.00     0.134 A 
ATOM     63  C   UNL A   1      39.660  26.651  28.790  1.00  0.00     0.134 A 
ATOM     64  F   UNL A   1      41.893  29.192  27.476  1.00  0.00    -0.206 F 
ATOM     65  C   UNL A   1      41.213  27.149  26.542  1.00  0.00     0.040 A 
ATOM     66  C   UNL A   1      39.710  25.712  27.759  1.00  0.00     0.040 A 
ATOM     67  F   UNL A   1      38.905  26.372  29.863  1.00  0.00    -0.206 F 
ATOM     68  C   UNL A   1      40.488  25.962  26.629  1.00  0.00     0.006 A 
ENDBRANCH  40  61
BRANCH  52  69
ATOM     69  C   UNL A   1      43.707  28.256  34.830  1.00  0.00     0.057 A 
ATOM     70  C   UNL A   1      45.071  28.514  34.647  1.00  0.00     0.134 A 
ATOM     71  C   UNL A   1      43.358  27.164  35.636  1.00  0.00     0.134 A 
ATOM     72  F   UNL A   1      45.474  29.541  33.882  1.00  0.00    -0.206 F 
ATOM     73  C   UNL A   1      46.050  27.723  35.249  1.00  0.00     0.040 A 
ATOM     74  C   UNL A   1      44.327  26.384  36.268  1.00  0.00     0.040 A 
ATOM     75  F   UNL A   1      42.068  26.875  35.867  1.00  0.00    -0.206 F 
ATOM     76  C   UNL A   1      45.679  26.663  36.072  1.00  0.00     0.006 A 
ENDBRANCH  52  69
ENDBRANCH  26  27
ENDBRANCH  19  21
ENDBRANCH  18  19
ENDBRANCH   1  18
TORSDOF 12
ENDMDL
