MODEL 1
REMARK VINA RESULT:     -10.0      0.000      0.000
REMARK SMILES C=C(C)CN(CC)C(=O)C[N@H+]1CC[C@@H](C(=O)OCCOC(=O)c2ccc(-c3c4nc(c(-c5c(F)cccc5F)c5ccc([nH]5)c(-c5c(F)cccc5F)c5nc(c(-c6c(F)cccc6F)c6ccc3[nH]6)C=C5)C=C4)cc2)[C@@H]1C
REMARK SMILES IDX 17 1 15 2 16 3 14 4 11 5 12 6 77 7 13 9 78 10 10 11 8 12
REMARK SMILES IDX 9 13 5 14 4 15 2 16 1 17 3 18 6 19 7 20 18 21 19 22 20 23
REMARK SMILES IDX 21 24 22 25 23 26 24 27 76 28 25 29 75 30 26 31 27 32 28 33
REMARK SMILES IDX 69 34 29 35 74 36 68 37 70 38 30 39 73 40 67 41 66 42 31 44
REMARK SMILES IDX 57 45 40 46 56 47 41 48 44 49 55 50 71 51 42 52 43 53 54 55
REMARK SMILES IDX 72 56 45 57 32 58 33 59 38 60 34 61 35 62 37 63 39 64 36 65
REMARK SMILES IDX 58 66 59 67 64 68 60 69 61 70 63 71 65 72 62 73 46 74 47 75
REMARK SMILES IDX 52 76 48 77 49 78 51 79 53 80 50 81
REMARK H PARENT 11 8 70 43 44 54
REMARK Flexibility Score: inf
ROOT
ATOM      1  O   UNL A   1      32.075  31.004  26.016  1.00  0.00    -0.462 OA
ENDROOT
BRANCH   1   2
ATOM      2  C   UNL A   1      32.407  29.821  26.583  1.00  0.00     0.315 C 
ATOM      3  O   UNL A   1      33.218  29.685  27.495  1.00  0.00    -0.252 OA
BRANCH   2   4
ATOM      4  C   UNL A   1      31.699  28.634  25.972  1.00  0.00     0.162 C 
ATOM      5  N   UNL A   1      32.153  26.630  24.689  1.00  0.00    -0.324 N 
ATOM      6  C   UNL A   1      31.414  26.302  25.921  1.00  0.00     0.264 C 
ATOM      7  C   UNL A   1      32.230  28.114  24.626  1.00  0.00     0.195 C 
ATOM      8  H   UNL A   1      31.691  26.282  23.849  1.00  0.00     0.348 HD
ATOM      9  C   UNL A   1      31.734  27.426  26.886  1.00  0.00     0.083 C 
ATOM     10  C   UNL A   1      31.333  28.582  23.474  1.00  0.00     0.076 C 
BRANCH   5  11
ATOM     11  C   UNL A   1      33.486  25.987  24.729  1.00  0.00     0.364 C 
BRANCH  11  12
ATOM     12  C   UNL A   1      33.873  25.164  23.493  1.00  0.00     0.278 C 
ATOM     13  O   UNL A   1      33.803  25.726  22.391  1.00  0.00    -0.268 OA
BRANCH  12  14
ATOM     14  N   UNL A   1      34.373  23.871  23.615  1.00  0.00    -0.334 N 
BRANCH  14  15
ATOM     15  C   UNL A   1      33.605  22.796  22.987  1.00  0.00     0.149 C 
BRANCH  15  16
ATOM     16  C   UNL A   1      32.910  21.933  24.020  1.00  0.00    -0.061 C 
ATOM     17  C   UNL A   1      33.326  20.704  24.372  1.00  0.00     0.009 C 
ATOM     18  C   UNL A   1      31.703  22.555  24.668  1.00  0.00     0.041 C 
ENDBRANCH  15  16
ENDBRANCH  14  15
BRANCH  14  19
ATOM     19  C   UNL A   1      35.669  23.511  24.194  1.00  0.00     0.116 C 
ATOM     20  C   UNL A   1      36.611  22.881  23.181  1.00  0.00     0.027 C 
ENDBRANCH  14  19
ENDBRANCH  12  14
ENDBRANCH  11  12
ENDBRANCH   5  11
ENDBRANCH   2   4
ENDBRANCH   1   2
BRANCH   1  21
ATOM     21  C   UNL A   1      31.400  31.958  26.859  1.00  0.00     0.274 C 
BRANCH  21  22
ATOM     22  C   UNL A   1      32.115  33.309  26.845  1.00  0.00     0.275 C 
BRANCH  22  23
ATOM     23  O   UNL A   1      32.199  33.860  28.173  1.00  0.00    -0.458 OA
BRANCH  23  24
ATOM     24  C   UNL A   1      33.280  34.638  28.402  1.00  0.00     0.338 C 
ATOM     25  O   UNL A   1      33.341  35.854  28.393  1.00  0.00    -0.246 OA
BRANCH  24  26
ATOM     26  C   UNL A   1      34.424  33.797  28.778  1.00  0.00     0.060 A 
ATOM     27  C   UNL A   1      34.173  32.577  29.408  1.00  0.00     0.016 A 
ATOM     28  C   UNL A   1      35.729  34.268  28.641  1.00  0.00     0.016 A 
ATOM     29  C   UNL A   1      35.218  31.844  29.958  1.00  0.00     0.010 A 
ATOM     30  C   UNL A   1      36.786  33.510  29.157  1.00  0.00     0.010 A 
ATOM     31  C   UNL A   1      36.534  32.307  29.841  1.00  0.00    -0.014 A 
BRANCH  31  32
ATOM     32  C   UNL A   1      37.635  31.543  30.474  1.00  0.00     0.031 A 
ATOM     33  C   UNL A   1      37.956  31.750  31.926  1.00  0.00     0.074 A 
ATOM     34  C   UNL A   1      38.323  30.640  29.753  1.00  0.00     0.049 A 
ATOM     35  N   UNL A   1      38.938  31.253  32.634  1.00  0.00    -0.248 NA
ATOM     36  C   UNL A   1      37.054  32.633  32.682  1.00  0.00     0.031 C 
ATOM     37  C   UNL A   1      38.071  30.312  28.349  1.00  0.00     0.029 A 
ATOM     38  N   UNL A   1      39.375  29.833  30.104  1.00  0.00    -0.354 N 
ATOM     39  C   UNL A   1      38.790  31.783  33.909  1.00  0.00     0.074 A 
ATOM     40  C   UNL A   1      37.628  32.646  33.876  1.00  0.00     0.031 C 
ATOM     41  C   UNL A   1      38.941  29.365  27.960  1.00  0.00     0.029 A 
ATOM     42  C   UNL A   1      39.840  29.061  29.068  1.00  0.00     0.049 A 
ATOM     43  H   UNL A   1      39.758  29.810  31.010  1.00  0.00     0.167 HD
ATOM     44  C   UNL A   1      39.556  31.569  35.005  1.00  0.00     0.037 A 
ATOM     45  C   UNL A   1      40.892  28.225  29.010  1.00  0.00     0.037 A 
ATOM     46  C   UNL A   1      40.698  30.693  35.042  1.00  0.00     0.049 A 
ATOM     47  C   UNL A   1      41.751  28.036  30.226  1.00  0.00     0.074 A 
ATOM     48  C   UNL A   1      41.539  30.413  36.105  1.00  0.00     0.029 A 
ATOM     49  N   UNL A   1      41.154  29.950  33.963  1.00  0.00    -0.354 N 
ATOM     50  N   UNL A   1      41.626  28.573  31.416  1.00  0.00    -0.248 NA
ATOM     51  C   UNL A   1      42.905  27.136  30.090  1.00  0.00     0.031 C 
ATOM     52  C   UNL A   1      42.520  29.519  35.662  1.00  0.00     0.029 A 
ATOM     53  C   UNL A   1      42.272  29.220  34.333  1.00  0.00     0.049 A 
ATOM     54  H   UNL A   1      40.744  29.943  33.068  1.00  0.00     0.167 HD
ATOM     55  C   UNL A   1      42.677  28.072  32.171  1.00  0.00     0.074 A 
ATOM     56  C   UNL A   1      43.421  27.175  31.310  1.00  0.00     0.031 C 
ATOM     57  C   UNL A   1      43.000  28.335  33.460  1.00  0.00     0.037 A 
BRANCH  44  58
ATOM     58  C   UNL A   1      39.196  32.323  36.249  1.00  0.00     0.057 A 
ATOM     59  C   UNL A   1      39.741  33.580  36.535  1.00  0.00     0.134 A 
ATOM     60  C   UNL A   1      38.280  31.789  37.164  1.00  0.00     0.134 A 
ATOM     61  F   UNL A   1      40.637  34.138  35.707  1.00  0.00    -0.206 F 
ATOM     62  C   UNL A   1      39.401  34.273  37.699  1.00  0.00     0.040 A 
ATOM     63  C   UNL A   1      37.918  32.480  38.321  1.00  0.00     0.040 A 
ATOM     64  F   UNL A   1      37.722  30.589  36.945  1.00  0.00    -0.206 F 
ATOM     65  C   UNL A   1      38.484  33.724  38.593  1.00  0.00     0.006 A 
ENDBRANCH  44  58
BRANCH  45  66
ATOM     66  C   UNL A   1      41.205  27.528  27.740  1.00  0.00     0.057 A 
ATOM     67  C   UNL A   1      40.670  26.269  27.456  1.00  0.00     0.134 A 
ATOM     68  C   UNL A   1      42.032  28.116  26.776  1.00  0.00     0.134 A 
ATOM     69  F   UNL A   1      39.887  25.649  28.351  1.00  0.00    -0.206 F 
ATOM     70  C   UNL A   1      40.949  25.613  26.255  1.00  0.00     0.040 A 
ATOM     71  C   UNL A   1      42.303  27.481  25.563  1.00  0.00     0.040 A 
ATOM     72  F   UNL A   1      42.573  29.323  26.992  1.00  0.00    -0.206 F 
ATOM     73  C   UNL A   1      41.762  26.224  25.302  1.00  0.00     0.006 A 
ENDBRANCH  45  66
BRANCH  57  74
ATOM     74  C   UNL A   1      44.200  27.633  34.017  1.00  0.00     0.057 A 
ATOM     75  C   UNL A   1      45.477  28.201  33.949  1.00  0.00     0.134 A 
ATOM     76  C   UNL A   1      44.072  26.391  34.650  1.00  0.00     0.134 A 
ATOM     77  F   UNL A   1      45.665  29.382  33.341  1.00  0.00    -0.206 F 
ATOM     78  C   UNL A   1      46.591  27.550  34.482  1.00  0.00     0.040 A 
ATOM     79  C   UNL A   1      45.175  25.738  35.202  1.00  0.00     0.040 A 
ATOM     80  F   UNL A   1      42.873  25.798  34.749  1.00  0.00    -0.206 F 
ATOM     81  C   UNL A   1      46.440  26.318  35.114  1.00  0.00     0.006 A 
ENDBRANCH  57  74
ENDBRANCH  31  32
ENDBRANCH  24  26
ENDBRANCH  23  24
ENDBRANCH  22  23
ENDBRANCH  21  22
ENDBRANCH   1  21
TORSDOF 17
ENDMDL
MODEL 2
REMARK VINA RESULT:      -9.9      1.157      2.043
REMARK SMILES C=C(C)CN(CC)C(=O)C[N@H+]1CC[C@@H](C(=O)OCCOC(=O)c2ccc(-c3c4nc(c(-c5c(F)cccc5F)c5ccc([nH]5)c(-c5c(F)cccc5F)c5nc(c(-c6c(F)cccc6F)c6ccc3[nH]6)C=C5)C=C4)cc2)[C@@H]1C
REMARK SMILES IDX 17 1 15 2 16 3 14 4 11 5 12 6 77 7 13 9 78 10 10 11 8 12
REMARK SMILES IDX 9 13 5 14 4 15 2 16 1 17 3 18 6 19 7 20 18 21 19 22 20 23
REMARK SMILES IDX 21 24 22 25 23 26 24 27 76 28 25 29 75 30 26 31 27 32 28 33
REMARK SMILES IDX 69 34 29 35 74 36 68 37 70 38 30 39 73 40 67 41 66 42 31 44
REMARK SMILES IDX 57 45 40 46 56 47 41 48 44 49 55 50 71 51 42 52 43 53 54 55
REMARK SMILES IDX 72 56 45 57 32 58 33 59 38 60 34 61 35 62 37 63 39 64 36 65
REMARK SMILES IDX 58 66 59 67 64 68 60 69 61 70 63 71 65 72 62 73 46 74 47 75
REMARK SMILES IDX 52 76 48 77 49 78 51 79 53 80 50 81
REMARK H PARENT 11 8 70 43 44 54
REMARK Flexibility Score: inf
ROOT
ATOM      1  O   UNL A   1      32.490  30.884  26.662  1.00  0.00    -0.462 OA
ENDROOT
BRANCH   1   2
ATOM      2  C   UNL A   1      32.084  29.593  26.643  1.00  0.00     0.315 C 
ATOM      3  O   UNL A   1      31.688  28.970  27.624  1.00  0.00    -0.252 OA
BRANCH   2   4
ATOM      4  C   UNL A   1      32.182  28.946  25.281  1.00  0.00     0.162 C 
ATOM      5  N   UNL A   1      31.424  26.990  24.070  1.00  0.00    -0.324 N 
ATOM      6  C   UNL A   1      31.069  28.222  23.342  1.00  0.00     0.264 C 
ATOM      7  C   UNL A   1      32.248  27.411  25.234  1.00  0.00     0.195 C 
ATOM      8  H   UNL A   1      31.958  26.336  23.499  1.00  0.00     0.348 HD
ATOM      9  C   UNL A   1      30.999  29.302  24.403  1.00  0.00     0.083 C 
ATOM     10  C   UNL A   1      33.685  26.939  24.985  1.00  0.00     0.076 C 
BRANCH   5  11
ATOM     11  C   UNL A   1      30.186  26.281  24.468  1.00  0.00     0.364 C 
BRANCH  11  12
ATOM     12  C   UNL A   1      30.377  25.037  25.346  1.00  0.00     0.278 C 
ATOM     13  O   UNL A   1      30.076  25.136  26.545  1.00  0.00    -0.268 OA
BRANCH  12  14
ATOM     14  N   UNL A   1      30.781  23.823  24.799  1.00  0.00    -0.334 N 
BRANCH  14  15
ATOM     15  C   UNL A   1      30.933  22.695  25.718  1.00  0.00     0.149 C 
BRANCH  15  16
ATOM     16  C   UNL A   1      32.390  22.444  26.051  1.00  0.00    -0.061 C 
ATOM     17  C   UNL A   1      33.105  23.203  26.899  1.00  0.00     0.009 C 
ATOM     18  C   UNL A   1      33.006  21.247  25.380  1.00  0.00     0.041 C 
ENDBRANCH  15  16
ENDBRANCH  14  15
BRANCH  14  19
ATOM     19  C   UNL A   1      30.928  23.541  23.370  1.00  0.00     0.116 C 
ATOM     20  C   UNL A   1      32.327  23.831  22.854  1.00  0.00     0.027 C 
ENDBRANCH  14  19
ENDBRANCH  12  14
ENDBRANCH  11  12
ENDBRANCH   5  11
ENDBRANCH   2   4
ENDBRANCH   1   2
BRANCH   1  21
ATOM     21  C   UNL A   1      31.457  31.887  26.682  1.00  0.00     0.274 C 
BRANCH  21  22
ATOM     22  C   UNL A   1      32.055  33.294  26.727  1.00  0.00     0.275 C 
BRANCH  22  23
ATOM     23  O   UNL A   1      32.141  33.773  28.082  1.00  0.00    -0.458 OA
BRANCH  23  24
ATOM     24  C   UNL A   1      33.199  34.573  28.340  1.00  0.00     0.338 C 
ATOM     25  O   UNL A   1      33.230  35.791  28.355  1.00  0.00    -0.246 OA
BRANCH  24  26
ATOM     26  C   UNL A   1      34.360  33.754  28.713  1.00  0.00     0.060 A 
ATOM     27  C   UNL A   1      34.133  32.498  29.277  1.00  0.00     0.016 A 
ATOM     28  C   UNL A   1      35.651  34.275  28.642  1.00  0.00     0.016 A 
ATOM     29  C   UNL A   1      35.184  31.775  29.825  1.00  0.00     0.010 A 
ATOM     30  C   UNL A   1      36.718  33.529  29.156  1.00  0.00     0.010 A 
ATOM     31  C   UNL A   1      36.486  32.287  29.774  1.00  0.00    -0.014 A 
BRANCH  31  32
ATOM     32  C   UNL A   1      37.593  31.531  30.406  1.00  0.00     0.031 A 
ATOM     33  C   UNL A   1      37.920  31.747  31.856  1.00  0.00     0.074 A 
ATOM     34  C   UNL A   1      38.281  30.626  29.687  1.00  0.00     0.049 A 
ATOM     35  N   UNL A   1      38.908  31.259  32.562  1.00  0.00    -0.248 NA
ATOM     36  C   UNL A   1      37.019  32.631  32.610  1.00  0.00     0.031 C 
ATOM     37  C   UNL A   1      38.025  30.288  28.286  1.00  0.00     0.029 A 
ATOM     38  N   UNL A   1      39.338  29.825  30.038  1.00  0.00    -0.354 N 
ATOM     39  C   UNL A   1      38.764  31.795  33.834  1.00  0.00     0.074 A 
ATOM     40  C   UNL A   1      37.599  32.654  33.801  1.00  0.00     0.031 C 
ATOM     41  C   UNL A   1      38.896  29.343  27.898  1.00  0.00     0.029 A 
ATOM     42  C   UNL A   1      39.801  29.049  29.005  1.00  0.00     0.049 A 
ATOM     43  H   UNL A   1      39.726  29.809  30.942  1.00  0.00     0.167 HD
ATOM     44  C   UNL A   1      39.536  31.591  34.928  1.00  0.00     0.037 A 
ATOM     45  C   UNL A   1      40.856  28.217  28.947  1.00  0.00     0.037 A 
ATOM     46  C   UNL A   1      40.681  30.720  34.964  1.00  0.00     0.049 A 
ATOM     47  C   UNL A   1      41.722  28.038  30.160  1.00  0.00     0.074 A 
ATOM     48  C   UNL A   1      41.528  30.449  36.025  1.00  0.00     0.029 A 
ATOM     49  N   UNL A   1      41.135  29.972  33.888  1.00  0.00    -0.354 N 
ATOM     50  N   UNL A   1      41.600  28.581  31.347  1.00  0.00    -0.248 NA
ATOM     51  C   UNL A   1      42.878  27.142  30.023  1.00  0.00     0.031 C 
ATOM     52  C   UNL A   1      42.511  29.556  35.583  1.00  0.00     0.029 A 
ATOM     53  C   UNL A   1      42.257  29.248  34.256  1.00  0.00     0.049 A 
ATOM     54  H   UNL A   1      40.721  29.958  32.995  1.00  0.00     0.167 HD
ATOM     55  C   UNL A   1      42.657  28.089  32.100  1.00  0.00     0.074 A 
ATOM     56  C   UNL A   1      43.400  27.190  31.240  1.00  0.00     0.031 C 
ATOM     57  C   UNL A   1      42.984  28.361  33.385  1.00  0.00     0.037 A 
BRANCH  44  58
ATOM     58  C   UNL A   1      39.179  32.351  36.169  1.00  0.00     0.057 A 
ATOM     59  C   UNL A   1      38.290  31.838  37.121  1.00  0.00     0.134 A 
ATOM     60  C   UNL A   1      39.744  33.607  36.420  1.00  0.00     0.134 A 
ATOM     61  F   UNL A   1      37.702  30.647  36.930  1.00  0.00    -0.206 F 
ATOM     62  C   UNL A   1      37.962  32.556  38.272  1.00  0.00     0.040 A 
ATOM     63  C   UNL A   1      39.439  34.327  37.576  1.00  0.00     0.040 A 
ATOM     64  F   UNL A   1      40.604  34.153  35.546  1.00  0.00    -0.206 F 
ATOM     65  C   UNL A   1      38.541  33.803  38.504  1.00  0.00     0.006 A 
ENDBRANCH  44  58
BRANCH  45  66
ATOM     66  C   UNL A   1      41.166  27.513  27.679  1.00  0.00     0.057 A 
ATOM     67  C   UNL A   1      41.954  28.113  26.693  1.00  0.00     0.134 A 
ATOM     68  C   UNL A   1      40.695  26.218  27.436  1.00  0.00     0.134 A 
ATOM     69  F   UNL A   1      42.416  29.361  26.864  1.00  0.00    -0.206 F 
ATOM     70  C   UNL A   1      42.262  27.450  25.504  1.00  0.00     0.040 A 
ATOM     71  C   UNL A   1      41.011  25.536  26.260  1.00  0.00     0.040 A 
ATOM     72  F   UNL A   1      39.936  25.591  28.346  1.00  0.00    -0.206 F 
ATOM     73  C   UNL A   1      41.795  26.154  25.289  1.00  0.00     0.006 A 
ENDBRANCH  45  66
BRANCH  57  74
ATOM     74  C   UNL A   1      44.190  27.666  33.941  1.00  0.00     0.057 A 
ATOM     75  C   UNL A   1      45.459  28.255  33.896  1.00  0.00     0.134 A 
ATOM     76  C   UNL A   1      44.074  26.412  34.550  1.00  0.00     0.134 A 
ATOM     77  F   UNL A   1      45.635  29.449  33.311  1.00  0.00    -0.206 F 
ATOM     78  C   UNL A   1      46.578  27.610  34.427  1.00  0.00     0.040 A 
ATOM     79  C   UNL A   1      45.182  25.765  35.100  1.00  0.00     0.040 A 
ATOM     80  F   UNL A   1      42.884  25.799  34.627  1.00  0.00    -0.206 F 
ATOM     81  C   UNL A   1      46.439  26.365  35.035  1.00  0.00     0.006 A 
ENDBRANCH  57  74
ENDBRANCH  31  32
ENDBRANCH  24  26
ENDBRANCH  23  24
ENDBRANCH  22  23
ENDBRANCH  21  22
ENDBRANCH   1  21
TORSDOF 17
ENDMDL
MODEL 3
REMARK VINA RESULT:      -9.9      4.401      8.755
REMARK SMILES C=C(C)CN(CC)C(=O)C[N@H+]1CC[C@@H](C(=O)OCCOC(=O)c2ccc(-c3c4nc(c(-c5c(F)cccc5F)c5ccc([nH]5)c(-c5c(F)cccc5F)c5nc(c(-c6c(F)cccc6F)c6ccc3[nH]6)C=C5)C=C4)cc2)[C@@H]1C
REMARK SMILES IDX 17 1 15 2 16 3 14 4 11 5 12 6 77 7 13 9 78 10 10 11 8 12
REMARK SMILES IDX 9 13 5 14 4 15 2 16 1 17 3 18 6 19 7 20 18 21 19 22 20 23
REMARK SMILES IDX 21 24 22 25 23 26 24 27 76 28 25 29 75 30 26 31 27 32 28 33
REMARK SMILES IDX 69 34 29 35 74 36 68 37 70 38 30 39 73 40 67 41 66 42 31 44
REMARK SMILES IDX 57 45 40 46 56 47 41 48 44 49 55 50 71 51 42 52 43 53 54 55
REMARK SMILES IDX 72 56 45 57 32 58 33 59 38 60 34 61 35 62 37 63 39 64 36 65
REMARK SMILES IDX 58 66 59 67 64 68 60 69 61 70 63 71 65 72 62 73 46 74 47 75
REMARK SMILES IDX 52 76 48 77 49 78 51 79 53 80 50 81
REMARK H PARENT 11 8 70 43 44 54
REMARK Flexibility Score: inf
ROOT
ATOM      1  O   UNL A   1      36.317  19.572  24.866  1.00  0.00    -0.462 OA
ENDROOT
BRANCH   1   2
ATOM      2  C   UNL A   1      35.093  20.145  24.940  1.00  0.00     0.315 C 
ATOM      3  O   UNL A   1      34.034  19.563  24.723  1.00  0.00    -0.252 OA
BRANCH   2   4
ATOM      4  C   UNL A   1      35.130  21.612  25.297  1.00  0.00     0.162 C 
ATOM      5  N   UNL A   1      33.718  23.580  25.319  1.00  0.00    -0.324 N 
ATOM      6  C   UNL A   1      34.306  23.348  26.650  1.00  0.00     0.264 C 
ATOM      7  C   UNL A   1      34.329  22.576  24.407  1.00  0.00     0.195 C 
ATOM      8  H   UNL A   1      33.908  24.516  24.962  1.00  0.00     0.348 HD
ATOM      9  C   UNL A   1      34.606  21.864  26.697  1.00  0.00     0.083 C 
ATOM     10  C   UNL A   1      35.258  23.321  23.443  1.00  0.00     0.076 C 
BRANCH   5  11
ATOM     11  C   UNL A   1      32.244  23.457  25.404  1.00  0.00     0.364 C 
BRANCH  11  12
ATOM     12  C   UNL A   1      31.511  24.622  26.082  1.00  0.00     0.278 C 
ATOM     13  O   UNL A   1      31.158  24.464  27.259  1.00  0.00    -0.268 OA
BRANCH  12  14
ATOM     14  N   UNL A   1      31.334  25.840  25.431  1.00  0.00    -0.334 N 
BRANCH  14  15
ATOM     15  C   UNL A   1      32.422  26.812  25.528  1.00  0.00     0.149 C 
BRANCH  15  16
ATOM     16  C   UNL A   1      31.997  28.046  26.297  1.00  0.00    -0.061 C 
ATOM     17  C   UNL A   1      31.599  28.028  27.581  1.00  0.00     0.009 C 
ATOM     18  C   UNL A   1      32.067  29.338  25.529  1.00  0.00     0.041 C 
ENDBRANCH  15  16
ENDBRANCH  14  15
BRANCH  14  19
ATOM     19  C   UNL A   1      30.219  26.177  24.543  1.00  0.00     0.116 C 
ATOM     20  C   UNL A   1      30.679  26.659  23.178  1.00  0.00     0.027 C 
ENDBRANCH  14  19
ENDBRANCH  12  14
ENDBRANCH  11  12
ENDBRANCH   5  11
ENDBRANCH   2   4
ENDBRANCH   1   2
BRANCH   1  21
ATOM     21  C   UNL A   1      37.451  20.458  24.929  1.00  0.00     0.274 C 
BRANCH  21  22
ATOM     22  C   UNL A   1      38.763  19.674  24.965  1.00  0.00     0.275 C 
BRANCH  22  23
ATOM     23  O   UNL A   1      39.477  19.922  26.190  1.00  0.00    -0.458 OA
BRANCH  23  24
ATOM     24  C   UNL A   1      40.820  19.809  26.103  1.00  0.00     0.338 C 
ATOM     25  O   UNL A   1      41.464  18.898  25.613  1.00  0.00    -0.246 OA
BRANCH  24  26
ATOM     26  C   UNL A   1      41.454  21.030  26.616  1.00  0.00     0.060 A 
ATOM     27  C   UNL A   1      41.471  21.240  27.996  1.00  0.00     0.016 A 
ATOM     28  C   UNL A   1      41.896  22.024  25.743  1.00  0.00     0.016 A 
ATOM     29  C   UNL A   1      41.878  22.464  28.514  1.00  0.00     0.010 A 
ATOM     30  C   UNL A   1      42.346  23.241  26.266  1.00  0.00     0.010 A 
ATOM     31  C   UNL A   1      42.314  23.477  27.653  1.00  0.00    -0.014 A 
BRANCH  31  32
ATOM     32  C   UNL A   1      42.698  24.795  28.211  1.00  0.00     0.031 A 
ATOM     33  C   UNL A   1      41.652  25.847  28.444  1.00  0.00     0.074 A 
ATOM     34  C   UNL A   1      43.980  25.034  28.541  1.00  0.00     0.049 A 
ATOM     35  N   UNL A   1      41.800  27.088  28.830  1.00  0.00    -0.248 NA
ATOM     36  C   UNL A   1      40.255  25.450  28.210  1.00  0.00     0.031 C 
ATOM     37  C   UNL A   1      45.078  24.075  28.412  1.00  0.00     0.029 A 
ATOM     38  N   UNL A   1      44.574  26.158  29.054  1.00  0.00    -0.354 N 
ATOM     39  C   UNL A   1      40.522  27.630  28.859  1.00  0.00     0.074 A 
ATOM     40  C   UNL A   1      39.611  26.584  28.444  1.00  0.00     0.031 C 
ATOM     41  C   UNL A   1      46.212  24.650  28.842  1.00  0.00     0.029 A 
ATOM     42  C   UNL A   1      45.930  26.030  29.226  1.00  0.00     0.049 A 
ATOM     43  H   UNL A   1      44.076  26.978  29.277  1.00  0.00     0.167 HD
ATOM     44  C   UNL A   1      40.145  28.885  29.200  1.00  0.00     0.037 A 
ATOM     45  C   UNL A   1      46.847  26.931  29.619  1.00  0.00     0.037 A 
ATOM     46  C   UNL A   1      41.051  29.916  29.634  1.00  0.00     0.049 A 
ATOM     47  C   UNL A   1      46.411  28.329  29.951  1.00  0.00     0.074 A 
ATOM     48  C   UNL A   1      40.764  31.221  29.998  1.00  0.00     0.029 A 
ATOM     49  N   UNL A   1      42.421  29.755  29.768  1.00  0.00    -0.354 N 
ATOM     50  N   UNL A   1      45.205  28.842  29.937  1.00  0.00    -0.248 NA
ATOM     51  C   UNL A   1      47.464  29.277  30.342  1.00  0.00     0.031 C 
ATOM     52  C   UNL A   1      41.967  31.857  30.329  1.00  0.00     0.029 A 
ATOM     53  C   UNL A   1      42.996  30.939  30.199  1.00  0.00     0.049 A 
ATOM     54  H   UNL A   1      42.913  28.922  29.584  1.00  0.00     0.167 HD
ATOM     55  C   UNL A   1      45.351  30.167  30.322  1.00  0.00     0.074 A 
ATOM     56  C   UNL A   1      46.762  30.375  30.580  1.00  0.00     0.031 C 
ATOM     57  C   UNL A   1      44.403  31.126  30.446  1.00  0.00     0.037 A 
BRANCH  44  58
ATOM     58  C   UNL A   1      38.689  29.217  29.085  1.00  0.00     0.057 A 
ATOM     59  C   UNL A   1      38.110  29.595  27.868  1.00  0.00     0.134 A 
ATOM     60  C   UNL A   1      37.852  29.142  30.205  1.00  0.00     0.134 A 
ATOM     61  F   UNL A   1      38.861  29.702  26.761  1.00  0.00    -0.206 F 
ATOM     62  C   UNL A   1      36.752  29.906  27.773  1.00  0.00     0.040 A 
ATOM     63  C   UNL A   1      36.490  29.432  30.120  1.00  0.00     0.040 A 
ATOM     64  F   UNL A   1      38.346  28.785  31.401  1.00  0.00    -0.206 F 
ATOM     65  C   UNL A   1      35.937  29.821  28.901  1.00  0.00     0.006 A 
ENDBRANCH  44  58
BRANCH  45  66
ATOM     66  C   UNL A   1      48.275  26.542  29.688  1.00  0.00     0.057 A 
ATOM     67  C   UNL A   1      49.139  26.766  28.613  1.00  0.00     0.134 A 
ATOM     68  C   UNL A   1      48.811  25.954  30.840  1.00  0.00     0.134 A 
ATOM     69  F   UNL A   1      48.677  27.308  27.476  1.00  0.00    -0.206 F 
ATOM     70  C   UNL A   1      50.489  26.415  28.678  1.00  0.00     0.040 A 
ATOM     71  C   UNL A   1      50.162  25.616  30.926  1.00  0.00     0.040 A 
ATOM     72  F   UNL A   1      48.031  25.716  31.904  1.00  0.00    -0.206 F 
ATOM     73  C   UNL A   1      51.004  25.845  29.840  1.00  0.00     0.006 A 
ENDBRANCH  45  66
BRANCH  57  74
ATOM     74  C   UNL A   1      44.861  32.480  30.894  1.00  0.00     0.057 A 
ATOM     75  C   UNL A   1      45.221  33.472  29.974  1.00  0.00     0.134 A 
ATOM     76  C   UNL A   1      44.916  32.803  32.255  1.00  0.00     0.134 A 
ATOM     77  F   UNL A   1      45.203  33.217  28.658  1.00  0.00    -0.206 F 
ATOM     78  C   UNL A   1      45.634  34.737  30.394  1.00  0.00     0.040 A 
ATOM     79  C   UNL A   1      45.311  34.070  32.687  1.00  0.00     0.040 A 
ATOM     80  F   UNL A   1      44.580  31.896  33.184  1.00  0.00    -0.206 F 
ATOM     81  C   UNL A   1      45.675  35.040  31.754  1.00  0.00     0.006 A 
ENDBRANCH  57  74
ENDBRANCH  31  32
ENDBRANCH  24  26
ENDBRANCH  23  24
ENDBRANCH  22  23
ENDBRANCH  21  22
ENDBRANCH   1  21
TORSDOF 17
ENDMDL
