MODEL 1
REMARK VINA RESULT:     -11.3      0.000      0.000
REMARK SMILES O=C(CSc1nc2[nH]cnc2c(=O)[nH]1)NCCC(=O)OCCOC(=O)c1ccc(-c2c3nc(c(-c4c(F)cccc4F)c4ccc([nH]4)c(-c4c(F)cccc4F)c4nc(c(-c5c(F)cccc5F)c5ccc2[nH]5)C=C4)C=C3)cc1
REMARK SMILES IDX 20 1 18 2 19 3 17 4 16 5 15 6 1 7 2 8 3 10 4 11 5 12 6 13
REMARK SMILES IDX 14 14 7 15 12 16 8 18 11 19 13 20 9 21 10 23 21 24 22 25
REMARK SMILES IDX 23 26 24 27 25 28 26 29 27 30 79 31 28 32 78 33 29 34 30 35
REMARK SMILES IDX 31 36 72 37 32 38 77 39 71 40 73 41 33 42 76 43 70 44 69 45
REMARK SMILES IDX 34 47 60 48 43 49 59 50 44 51 47 52 58 53 74 54 45 55 46 56
REMARK SMILES IDX 57 58 75 59 48 60 35 61 36 62 41 63 37 64 38 65 40 66 42 67
REMARK SMILES IDX 39 68 61 69 62 70 67 71 63 72 64 73 66 74 68 75 65 76 49 77
REMARK SMILES IDX 50 78 55 79 51 80 52 81 54 82 56 83 53 84
REMARK H PARENT 15 9 14 17 8 22 73 46 47 57
REMARK Flexibility Score: inf
ROOT
ATOM      1  O   UNL A   1      42.312  21.019  25.395  1.00  0.00    -0.462 OA
ENDROOT
BRANCH   1   2
ATOM      2  C   UNL A   1      41.681  20.094  26.166  1.00  0.00     0.307 C 
ATOM      3  O   UNL A   1      41.325  18.987  25.779  1.00  0.00    -0.252 OA
BRANCH   2   4
ATOM      4  C   UNL A   1      41.398  20.596  27.561  1.00  0.00     0.144 C 
BRANCH   4   5
ATOM      5  C   UNL A   1      40.511  21.832  27.599  1.00  0.00     0.127 C 
BRANCH   5   6
ATOM      6  N   UNL A   1      39.441  21.760  26.629  1.00  0.00    -0.355 N 
ATOM      7  O   UNL A   1      38.898  23.978  26.715  1.00  0.00    -0.274 OA
ATOM      8  C   UNL A   1      38.705  22.857  26.249  1.00  0.00     0.230 C 
ATOM      9  H   UNL A   1      39.232  20.888  26.222  1.00  0.00     0.163 HD
BRANCH   8  10
ATOM     10  C   UNL A   1      37.523  22.579  25.337  1.00  0.00     0.178 C 
BRANCH  10  11
ATOM     11  S   UNL A   1      35.989  23.426  25.808  1.00  0.00    -0.078 SA
BRANCH  11  12
ATOM     12  C   UNL A   1      34.863  22.133  25.538  1.00  0.00     0.170 A 
ATOM     13  N   UNL A   1      35.259  20.927  25.263  1.00  0.00    -0.204 NA
ATOM     14  N   UNL A   1      33.554  22.541  25.672  1.00  0.00    -0.299 N 
ATOM     15  C   UNL A   1      34.220  20.075  25.118  1.00  0.00     0.165 A 
ATOM     16  C   UNL A   1      32.468  21.695  25.518  1.00  0.00     0.279 A 
ATOM     17  H   UNL A   1      33.381  23.485  25.889  1.00  0.00     0.172 HD
ATOM     18  N   UNL A   1      34.309  18.744  24.846  1.00  0.00    -0.329 N 
ATOM     19  C   UNL A   1      32.872  20.335  25.219  1.00  0.00     0.172 A 
ATOM     20  O   UNL A   1      31.313  22.094  25.631  1.00  0.00    -0.267 OA
ATOM     21  C   UNL A   1      33.027  18.257  24.799  1.00  0.00     0.199 A 
ATOM     22  H   UNL A   1      35.137  18.228  24.708  1.00  0.00     0.169 HD
ATOM     23  N   UNL A   1      32.131  19.199  25.019  1.00  0.00    -0.229 NA
ENDBRANCH  11  12
ENDBRANCH  10  11
ENDBRANCH   8  10
ENDBRANCH   5   6
ENDBRANCH   4   5
ENDBRANCH   2   4
ENDBRANCH   1   2
BRANCH   1  24
ATOM     24  C   UNL A   1      43.735  21.153  25.592  1.00  0.00     0.274 C 
BRANCH  24  25
ATOM     25  C   UNL A   1      44.353  22.192  24.653  1.00  0.00     0.275 C 
BRANCH  25  26
ATOM     26  O   UNL A   1      43.604  23.422  24.652  1.00  0.00    -0.458 OA
BRANCH  26  27
ATOM     27  C   UNL A   1      44.309  24.512  25.024  1.00  0.00     0.338 C 
ATOM     28  O   UNL A   1      45.397  24.867  24.598  1.00  0.00    -0.246 OA
BRANCH  27  29
ATOM     29  C   UNL A   1      43.531  25.328  25.968  1.00  0.00     0.060 A 
ATOM     30  C   UNL A   1      43.877  26.674  26.116  1.00  0.00     0.016 A 
ATOM     31  C   UNL A   1      42.562  24.748  26.789  1.00  0.00     0.016 A 
ATOM     32  C   UNL A   1      43.282  27.440  27.114  1.00  0.00     0.010 A 
ATOM     33  C   UNL A   1      41.961  25.522  27.788  1.00  0.00     0.010 A 
ATOM     34  C   UNL A   1      42.340  26.862  27.976  1.00  0.00    -0.014 A 
BRANCH  34  35
ATOM     35  C   UNL A   1      41.834  27.644  29.131  1.00  0.00     0.031 A 
ATOM     36  C   UNL A   1      42.560  27.580  30.446  1.00  0.00     0.074 A 
ATOM     37  C   UNL A   1      40.757  28.437  28.993  1.00  0.00     0.049 A 
ATOM     38  N   UNL A   1      42.278  28.172  31.578  1.00  0.00    -0.248 NA
ATOM     39  C   UNL A   1      43.764  26.735  30.492  1.00  0.00     0.031 C 
ATOM     40  C   UNL A   1      39.989  28.612  27.761  1.00  0.00     0.029 A 
ATOM     41  N   UNL A   1      40.128  29.250  29.901  1.00  0.00    -0.354 N 
ATOM     42  C   UNL A   1      43.255  27.757  32.476  1.00  0.00     0.074 A 
ATOM     43  C   UNL A   1      44.125  26.849  31.763  1.00  0.00     0.031 C 
ATOM     44  C   UNL A   1      38.994  29.486  27.989  1.00  0.00     0.029 A 
ATOM     45  C   UNL A   1      39.036  29.905  29.388  1.00  0.00     0.049 A 
ATOM     46  H   UNL A   1      40.429  29.353  30.833  1.00  0.00     0.167 HD
ATOM     47  C   UNL A   1      43.415  28.109  33.774  1.00  0.00     0.037 A 
ATOM     48  C   UNL A   1      38.164  30.741  29.983  1.00  0.00     0.037 A 
ATOM     49  C   UNL A   1      42.561  29.029  34.479  1.00  0.00     0.049 A 
ATOM     50  C   UNL A   1      38.343  31.086  31.435  1.00  0.00     0.074 A 
ATOM     51  C   UNL A   1      42.658  29.467  35.789  1.00  0.00     0.029 A 
ATOM     52  N   UNL A   1      41.452  29.655  33.930  1.00  0.00    -0.354 N 
ATOM     53  N   UNL A   1      39.279  30.701  32.268  1.00  0.00    -0.248 NA
ATOM     54  C   UNL A   1      37.343  31.985  32.030  1.00  0.00     0.031 C 
ATOM     55  C   UNL A   1      41.585  30.329  36.043  1.00  0.00     0.029 A 
ATOM     56  C   UNL A   1      40.845  30.460  34.880  1.00  0.00     0.049 A 
ATOM     57  H   UNL A   1      41.142  29.542  33.002  1.00  0.00     0.167 HD
ATOM     58  C   UNL A   1      39.000  31.333  33.474  1.00  0.00     0.074 A 
ATOM     59  C   UNL A   1      37.811  32.132  33.261  1.00  0.00     0.031 C 
ATOM     60  C   UNL A   1      39.670  31.260  34.649  1.00  0.00     0.037 A 
BRANCH  47  61
ATOM     61  C   UNL A   1      44.546  27.473  34.525  1.00  0.00     0.057 A 
ATOM     62  C   UNL A   1      45.814  28.063  34.600  1.00  0.00     0.134 A 
ATOM     63  C   UNL A   1      44.355  26.262  35.204  1.00  0.00     0.134 A 
ATOM     64  F   UNL A   1      46.065  29.215  33.958  1.00  0.00    -0.206 F 
ATOM     65  C   UNL A   1      46.858  27.463  35.305  1.00  0.00     0.040 A 
ATOM     66  C   UNL A   1      45.385  25.663  35.931  1.00  0.00     0.040 A 
ATOM     67  F   UNL A   1      43.165  25.645  35.176  1.00  0.00    -0.206 F 
ATOM     68  C   UNL A   1      46.643  26.261  35.979  1.00  0.00     0.006 A 
ENDBRANCH  47  61
BRANCH  48  69
ATOM     69  C   UNL A   1      37.040  31.318  29.204  1.00  0.00     0.057 A 
ATOM     70  C   UNL A   1      37.082  32.639  28.746  1.00  0.00     0.134 A 
ATOM     71  C   UNL A   1      35.894  30.568  28.914  1.00  0.00     0.134 A 
ATOM     72  F   UNL A   1      38.144  33.413  29.013  1.00  0.00    -0.206 F 
ATOM     73  C   UNL A   1      36.017  33.201  28.040  1.00  0.00     0.040 A 
ATOM     74  C   UNL A   1      34.832  31.109  28.190  1.00  0.00     0.040 A 
ATOM     75  F   UNL A   1      35.795  29.296  29.327  1.00  0.00    -0.206 F 
ATOM     76  C   UNL A   1      34.889  32.434  27.756  1.00  0.00     0.006 A 
ENDBRANCH  48  69
BRANCH  60  77
ATOM     77  C   UNL A   1      39.158  32.100  35.782  1.00  0.00     0.057 A 
ATOM     78  C   UNL A   1      39.522  33.444  35.931  1.00  0.00     0.134 A 
ATOM     79  C   UNL A   1      38.268  31.562  36.720  1.00  0.00     0.134 A 
ATOM     80  F   UNL A   1      40.381  34.015  35.072  1.00  0.00    -0.206 F 
ATOM     81  C   UNL A   1      39.038  34.218  36.988  1.00  0.00     0.040 A 
ATOM     82  C   UNL A   1      37.758  32.332  37.767  1.00  0.00     0.040 A 
ATOM     83  F   UNL A   1      37.874  30.283  36.630  1.00  0.00    -0.206 F 
ATOM     84  C   UNL A   1      38.149  33.662  37.906  1.00  0.00     0.006 A 
ENDBRANCH  60  77
ENDBRANCH  34  35
ENDBRANCH  27  29
ENDBRANCH  26  27
ENDBRANCH  25  26
ENDBRANCH  24  25
ENDBRANCH   1  24
TORSDOF 16
ENDMDL
MODEL 2
REMARK VINA RESULT:     -11.0      3.904      6.559
REMARK SMILES O=C(CSc1nc2[nH]cnc2c(=O)[nH]1)NCCC(=O)OCCOC(=O)c1ccc(-c2c3nc(c(-c4c(F)cccc4F)c4ccc([nH]4)c(-c4c(F)cccc4F)c4nc(c(-c5c(F)cccc5F)c5ccc2[nH]5)C=C4)C=C3)cc1
REMARK SMILES IDX 20 1 18 2 19 3 17 4 16 5 15 6 1 7 2 8 3 10 4 11 5 12 6 13
REMARK SMILES IDX 14 14 7 15 12 16 8 18 11 19 13 20 9 21 10 23 21 24 22 25
REMARK SMILES IDX 23 26 24 27 25 28 26 29 27 30 79 31 28 32 78 33 29 34 30 35
REMARK SMILES IDX 31 36 72 37 32 38 77 39 71 40 73 41 33 42 76 43 70 44 69 45
REMARK SMILES IDX 34 47 60 48 43 49 59 50 44 51 47 52 58 53 74 54 45 55 46 56
REMARK SMILES IDX 57 58 75 59 48 60 35 61 36 62 41 63 37 64 38 65 40 66 42 67
REMARK SMILES IDX 39 68 61 69 62 70 67 71 63 72 64 73 66 74 68 75 65 76 49 77
REMARK SMILES IDX 50 78 55 79 51 80 52 81 54 82 56 83 53 84
REMARK H PARENT 15 9 14 17 8 22 73 46 47 57
REMARK Flexibility Score: inf
ROOT
ATOM      1  O   UNL A   1      36.185  20.669  25.231  1.00  0.00    -0.462 OA
ENDROOT
BRANCH   1   2
ATOM      2  C   UNL A   1      35.834  21.774  25.941  1.00  0.00     0.307 C 
ATOM      3  O   UNL A   1      35.083  21.772  26.909  1.00  0.00    -0.252 OA
BRANCH   2   4
ATOM      4  C   UNL A   1      36.422  23.042  25.372  1.00  0.00     0.144 C 
BRANCH   4   5
ATOM      5  C   UNL A   1      35.530  23.725  24.345  1.00  0.00     0.127 C 
BRANCH   5   6
ATOM      6  N   UNL A   1      34.248  23.066  24.221  1.00  0.00    -0.355 N 
ATOM      7  O   UNL A   1      34.089  23.294  21.952  1.00  0.00    -0.274 OA
ATOM      8  C   UNL A   1      33.614  22.893  23.014  1.00  0.00     0.230 C 
ATOM      9  H   UNL A   1      33.811  22.727  25.035  1.00  0.00     0.163 HD
BRANCH   8  10
ATOM     10  C   UNL A   1      32.209  22.321  23.079  1.00  0.00     0.178 C 
BRANCH  10  11
ATOM     11  S   UNL A   1      31.709  21.729  24.720  1.00  0.00    -0.078 SA
BRANCH  11  12
ATOM     12  C   UNL A   1      32.206  20.071  24.580  1.00  0.00     0.170 A 
ATOM     13  N   UNL A   1      32.570  19.376  25.615  1.00  0.00    -0.204 NA
ATOM     14  N   UNL A   1      32.142  19.612  23.283  1.00  0.00    -0.299 N 
ATOM     15  C   UNL A   1      32.890  18.106  25.284  1.00  0.00     0.165 A 
ATOM     16  C   UNL A   1      32.475  18.319  22.910  1.00  0.00     0.279 A 
ATOM     17  H   UNL A   1      31.845  20.236  22.583  1.00  0.00     0.172 HD
ATOM     18  N   UNL A   1      33.289  17.130  26.146  1.00  0.00    -0.329 N 
ATOM     19  C   UNL A   1      32.877  17.510  24.043  1.00  0.00     0.172 A 
ATOM     20  O   UNL A   1      32.419  17.946  21.743  1.00  0.00    -0.267 OA
ATOM     21  C   UNL A   1      33.494  15.996  25.402  1.00  0.00     0.199 A 
ATOM     22  H   UNL A   1      33.408  17.222  27.120  1.00  0.00     0.169 HD
ATOM     23  N   UNL A   1      33.256  16.194  24.120  1.00  0.00    -0.229 NA
ENDBRANCH  11  12
ENDBRANCH  10  11
ENDBRANCH   8  10
ENDBRANCH   5   6
ENDBRANCH   4   5
ENDBRANCH   2   4
ENDBRANCH   1   2
BRANCH   1  24
ATOM     24  C   UNL A   1      37.488  20.695  24.610  1.00  0.00     0.274 C 
BRANCH  24  25
ATOM     25  C   UNL A   1      38.368  19.529  25.065  1.00  0.00     0.275 C 
BRANCH  25  26
ATOM     26  O   UNL A   1      38.970  19.785  26.349  1.00  0.00    -0.458 OA
BRANCH  26  27
ATOM     27  C   UNL A   1      40.296  20.038  26.309  1.00  0.00     0.338 C 
ATOM     28  O   UNL A   1      41.168  19.330  25.832  1.00  0.00    -0.246 OA
BRANCH  27  29
ATOM     29  C   UNL A   1      40.575  21.384  26.833  1.00  0.00     0.060 A 
ATOM     30  C   UNL A   1      39.939  22.471  26.226  1.00  0.00     0.016 A 
ATOM     31  C   UNL A   1      41.542  21.585  27.818  1.00  0.00     0.016 A 
ATOM     32  C   UNL A   1      40.298  23.770  26.574  1.00  0.00     0.010 A 
ATOM     33  C   UNL A   1      41.896  22.892  28.173  1.00  0.00     0.010 A 
ATOM     34  C   UNL A   1      41.298  23.990  27.530  1.00  0.00    -0.014 A 
BRANCH  34  35
ATOM     35  C   UNL A   1      41.779  25.372  27.776  1.00  0.00     0.031 A 
ATOM     36  C   UNL A   1      43.111  25.803  27.228  1.00  0.00     0.074 A 
ATOM     37  C   UNL A   1      41.011  26.247  28.449  1.00  0.00     0.049 A 
ATOM     38  N   UNL A   1      43.720  26.956  27.340  1.00  0.00    -0.248 NA
ATOM     39  C   UNL A   1      43.858  24.801  26.452  1.00  0.00     0.031 C 
ATOM     40  C   UNL A   1      39.687  25.961  28.999  1.00  0.00     0.029 A 
ATOM     41  N   UNL A   1      41.237  27.560  28.778  1.00  0.00    -0.354 N 
ATOM     42  C   UNL A   1      44.928  26.813  26.667  1.00  0.00     0.074 A 
ATOM     43  C   UNL A   1      44.975  25.456  26.167  1.00  0.00     0.031 C 
ATOM     44  C   UNL A   1      39.213  27.070  29.591  1.00  0.00     0.029 A 
ATOM     45  C   UNL A   1      40.212  28.131  29.490  1.00  0.00     0.049 A 
ATOM     46  H   UNL A   1      42.056  28.046  28.528  1.00  0.00     0.167 HD
ATOM     47  C   UNL A   1      45.904  27.732  26.477  1.00  0.00     0.037 A 
ATOM     48  C   UNL A   1      40.098  29.368  30.011  1.00  0.00     0.037 A 
ATOM     49  C   UNL A   1      45.849  29.089  26.956  1.00  0.00     0.049 A 
ATOM     50  C   UNL A   1      41.213  30.358  29.817  1.00  0.00     0.074 A 
ATOM     51  C   UNL A   1      46.779  30.101  26.792  1.00  0.00     0.029 A 
ATOM     52  N   UNL A   1      44.803  29.623  27.694  1.00  0.00    -0.354 N 
ATOM     53  N   UNL A   1      42.342  30.216  29.166  1.00  0.00    -0.248 NA
ATOM     54  C   UNL A   1      41.036  31.682  30.431  1.00  0.00     0.031 C 
ATOM     55  C   UNL A   1      46.312  31.238  27.462  1.00  0.00     0.029 A 
ATOM     56  C   UNL A   1      45.073  30.945  28.008  1.00  0.00     0.049 A 
ATOM     57  H   UNL A   1      43.990  29.134  27.955  1.00  0.00     0.167 HD
ATOM     58  C   UNL A   1      42.995  31.439  29.264  1.00  0.00     0.074 A 
ATOM     59  C   UNL A   1      42.132  32.313  30.032  1.00  0.00     0.031 C 
ATOM     60  C   UNL A   1      44.198  31.805  28.762  1.00  0.00     0.037 A 
BRANCH  47  61
ATOM     61  C   UNL A   1      47.131  27.290  25.738  1.00  0.00     0.057 A 
ATOM     62  C   UNL A   1      47.298  27.523  24.367  1.00  0.00     0.134 A 
ATOM     63  C   UNL A   1      48.174  26.643  26.415  1.00  0.00     0.134 A 
ATOM     64  F   UNL A   1      46.330  28.124  23.658  1.00  0.00    -0.206 F 
ATOM     65  C   UNL A   1      48.446  27.110  23.691  1.00  0.00     0.040 A 
ATOM     66  C   UNL A   1      49.337  26.244  25.754  1.00  0.00     0.040 A 
ATOM     67  F   UNL A   1      48.080  26.392  27.729  1.00  0.00    -0.206 F 
ATOM     68  C   UNL A   1      49.474  26.473  24.387  1.00  0.00     0.006 A 
ENDBRANCH  47  61
BRANCH  48  69
ATOM     69  C   UNL A   1      38.877  29.746  30.764  1.00  0.00     0.057 A 
ATOM     70  C   UNL A   1      37.828  30.433  30.143  1.00  0.00     0.134 A 
ATOM     71  C   UNL A   1      38.738  29.444  32.124  1.00  0.00     0.134 A 
ATOM     72  F   UNL A   1      37.916  30.769  28.848  1.00  0.00    -0.206 F 
ATOM     73  C   UNL A   1      36.689  30.821  30.850  1.00  0.00     0.040 A 
ATOM     74  C   UNL A   1      37.594  29.806  32.838  1.00  0.00     0.040 A 
ATOM     75  F   UNL A   1      39.708  28.788  32.776  1.00  0.00    -0.206 F 
ATOM     76  C   UNL A   1      36.568  30.503  32.201  1.00  0.00     0.006 A 
ENDBRANCH  48  69
BRANCH  60  77
ATOM     77  C   UNL A   1      44.632  33.223  28.988  1.00  0.00     0.057 A 
ATOM     78  C   UNL A   1      44.315  34.248  28.087  1.00  0.00     0.134 A 
ATOM     79  C   UNL A   1      45.353  33.572  30.137  1.00  0.00     0.134 A 
ATOM     80  F   UNL A   1      43.638  33.977  26.961  1.00  0.00    -0.206 F 
ATOM     81  C   UNL A   1      44.722  35.565  28.309  1.00  0.00     0.040 A 
ATOM     82  C   UNL A   1      45.744  34.889  30.383  1.00  0.00     0.040 A 
ATOM     83  F   UNL A   1      45.681  32.639  31.044  1.00  0.00    -0.206 F 
ATOM     84  C   UNL A   1      45.433  35.889  29.463  1.00  0.00     0.006 A 
ENDBRANCH  60  77
ENDBRANCH  34  35
ENDBRANCH  27  29
ENDBRANCH  26  27
ENDBRANCH  25  26
ENDBRANCH  24  25
ENDBRANCH   1  24
TORSDOF 16
ENDMDL
MODEL 3
REMARK VINA RESULT:     -10.9      4.401      9.331
REMARK SMILES O=C(CSc1nc2[nH]cnc2c(=O)[nH]1)NCCC(=O)OCCOC(=O)c1ccc(-c2c3nc(c(-c4c(F)cccc4F)c4ccc([nH]4)c(-c4c(F)cccc4F)c4nc(c(-c5c(F)cccc5F)c5ccc2[nH]5)C=C4)C=C3)cc1
REMARK SMILES IDX 20 1 18 2 19 3 17 4 16 5 15 6 1 7 2 8 3 10 4 11 5 12 6 13
REMARK SMILES IDX 14 14 7 15 12 16 8 18 11 19 13 20 9 21 10 23 21 24 22 25
REMARK SMILES IDX 23 26 24 27 25 28 26 29 27 30 79 31 28 32 78 33 29 34 30 35
REMARK SMILES IDX 31 36 72 37 32 38 77 39 71 40 73 41 33 42 76 43 70 44 69 45
REMARK SMILES IDX 34 47 60 48 43 49 59 50 44 51 47 52 58 53 74 54 45 55 46 56
REMARK SMILES IDX 57 58 75 59 48 60 35 61 36 62 41 63 37 64 38 65 40 66 42 67
REMARK SMILES IDX 39 68 61 69 62 70 67 71 63 72 64 73 66 74 68 75 65 76 49 77
REMARK SMILES IDX 50 78 55 79 51 80 52 81 54 82 56 83 53 84
REMARK H PARENT 15 9 14 17 8 22 73 46 47 57
REMARK Flexibility Score: inf
ROOT
ATOM      1  O   UNL A   1      32.534  30.415  26.162  1.00  0.00    -0.462 OA
ENDROOT
BRANCH   1   2
ATOM      2  C   UNL A   1      32.505  29.237  26.839  1.00  0.00     0.307 C 
ATOM      3  O   UNL A   1      31.577  28.858  27.543  1.00  0.00    -0.252 OA
BRANCH   2   4
ATOM      4  C   UNL A   1      33.785  28.449  26.690  1.00  0.00     0.144 C 
BRANCH   4   5
ATOM      5  C   UNL A   1      33.613  27.137  25.940  1.00  0.00     0.127 C 
BRANCH   5   6
ATOM      6  N   UNL A   1      32.450  27.153  25.080  1.00  0.00    -0.355 N 
ATOM      7  O   UNL A   1      31.581  25.176  25.827  1.00  0.00    -0.274 OA
ATOM      8  C   UNL A   1      31.503  26.158  25.090  1.00  0.00     0.230 C 
ATOM      9  H   UNL A   1      32.332  27.910  24.462  1.00  0.00     0.163 HD
BRANCH   8  10
ATOM     10  C   UNL A   1      30.429  26.254  24.021  1.00  0.00     0.178 C 
BRANCH  10  11
ATOM     11  S   UNL A   1      30.953  27.087  22.497  1.00  0.00    -0.078 SA
BRANCH  11  12
ATOM     12  C   UNL A   1      29.905  28.469  22.562  1.00  0.00     0.170 A 
ATOM     13  N   UNL A   1      30.317  29.658  22.239  1.00  0.00    -0.204 NA
ATOM     14  N   UNL A   1      28.628  28.140  22.961  1.00  0.00    -0.299 N 
ATOM     15  C   UNL A   1      29.333  30.578  22.336  1.00  0.00     0.165 A 
ATOM     16  C   UNL A   1      27.601  29.062  23.081  1.00  0.00     0.279 A 
ATOM     17  H   UNL A   1      28.435  27.199  23.174  1.00  0.00     0.172 HD
ATOM     18  N   UNL A   1      29.447  31.905  22.049  1.00  0.00    -0.329 N 
ATOM     19  C   UNL A   1      28.023  30.401  22.720  1.00  0.00     0.172 A 
ATOM     20  O   UNL A   1      26.478  28.738  23.453  1.00  0.00    -0.267 OA
ATOM     21  C   UNL A   1      28.215  32.469  22.264  1.00  0.00     0.199 A 
ATOM     22  H   UNL A   1      30.259  32.371  21.746  1.00  0.00     0.169 HD
ATOM     23  N   UNL A   1      27.328  31.583  22.675  1.00  0.00    -0.229 NA
ENDBRANCH  11  12
ENDBRANCH  10  11
ENDBRANCH   8  10
ENDBRANCH   5   6
ENDBRANCH   4   5
ENDBRANCH   2   4
ENDBRANCH   1   2
BRANCH   1  24
ATOM     24  C   UNL A   1      31.294  31.151  26.106  1.00  0.00     0.274 C 
BRANCH  24  25
ATOM     25  C   UNL A   1      31.374  32.478  26.864  1.00  0.00     0.275 C 
BRANCH  25  26
ATOM     26  O   UNL A   1      32.665  33.099  26.716  1.00  0.00    -0.458 OA
BRANCH  26  27
ATOM     27  C   UNL A   1      33.127  33.710  27.828  1.00  0.00     0.338 C 
ATOM     28  O   UNL A   1      32.579  34.597  28.463  1.00  0.00    -0.246 OA
BRANCH  27  29
ATOM     29  C   UNL A   1      34.378  33.080  28.276  1.00  0.00     0.060 A 
ATOM     30  C   UNL A   1      34.342  31.730  28.636  1.00  0.00     0.016 A 
ATOM     31  C   UNL A   1      35.537  33.835  28.461  1.00  0.00     0.016 A 
ATOM     32  C   UNL A   1      35.456  31.136  29.222  1.00  0.00     0.010 A 
ATOM     33  C   UNL A   1      36.658  33.235  29.044  1.00  0.00     0.010 A 
ATOM     34  C   UNL A   1      36.613  31.891  29.456  1.00  0.00    -0.014 A 
BRANCH  34  35
ATOM     35  C   UNL A   1      37.732  31.290  30.222  1.00  0.00     0.031 A 
ATOM     36  C   UNL A   1      38.652  30.310  29.549  1.00  0.00     0.074 A 
ATOM     37  C   UNL A   1      37.949  31.650  31.500  1.00  0.00     0.049 A 
ATOM     38  N   UNL A   1      39.677  29.662  30.040  1.00  0.00    -0.248 NA
ATOM     39  C   UNL A   1      38.379  30.018  28.133  1.00  0.00     0.031 C 
ATOM     40  C   UNL A   1      37.151  32.616  32.253  1.00  0.00     0.029 A 
ATOM     41  N   UNL A   1      38.914  31.246  32.387  1.00  0.00    -0.354 N 
ATOM     42  C   UNL A   1      40.160  28.873  29.003  1.00  0.00     0.074 A 
ATOM     43  C   UNL A   1      39.303  29.107  27.861  1.00  0.00     0.031 C 
ATOM     44  C   UNL A   1      37.665  32.737  33.489  1.00  0.00     0.029 A 
ATOM     45  C   UNL A   1      38.805  31.834  33.623  1.00  0.00     0.049 A 
ATOM     46  H   UNL A   1      39.618  30.596  32.160  1.00  0.00     0.167 HD
ATOM     47  C   UNL A   1      41.224  28.035  29.001  1.00  0.00     0.037 A 
ATOM     48  C   UNL A   1      39.537  31.656  34.739  1.00  0.00     0.037 A 
ATOM     49  C   UNL A   1      42.089  27.817  30.131  1.00  0.00     0.049 A 
ATOM     50  C   UNL A   1      40.691  30.692  34.721  1.00  0.00     0.074 A 
ATOM     51  C   UNL A   1      43.208  27.007  30.218  1.00  0.00     0.029 A 
ATOM     52  N   UNL A   1      41.932  28.415  31.373  1.00  0.00    -0.354 N 
ATOM     53  N   UNL A   1      41.147  29.965  33.730  1.00  0.00    -0.248 NA
ATOM     54  C   UNL A   1      41.434  30.526  35.978  1.00  0.00     0.031 C 
ATOM     55  C   UNL A   1      43.705  27.085  31.524  1.00  0.00     0.029 A 
ATOM     56  C   UNL A   1      42.921  27.977  32.237  1.00  0.00     0.049 A 
ATOM     57  H   UNL A   1      41.221  29.055  31.604  1.00  0.00     0.167 HD
ATOM     58  C   UNL A   1      42.246  29.280  34.233  1.00  0.00     0.074 A 
ATOM     59  C   UNL A   1      42.393  29.685  35.616  1.00  0.00     0.031 C 
ATOM     60  C   UNL A   1      43.062  28.399  33.606  1.00  0.00     0.037 A 
BRANCH  47  61
ATOM     61  C   UNL A   1      41.496  27.272  27.740  1.00  0.00     0.057 A 
ATOM     62  C   UNL A   1      40.960  25.998  27.512  1.00  0.00     0.134 A 
ATOM     63  C   UNL A   1      42.288  27.831  26.728  1.00  0.00     0.134 A 
ATOM     64  F   UNL A   1      40.207  25.401  28.448  1.00  0.00    -0.206 F 
ATOM     65  C   UNL A   1      41.217  25.299  26.332  1.00  0.00     0.040 A 
ATOM     66  C   UNL A   1      42.535  27.151  25.535  1.00  0.00     0.040 A 
ATOM     67  F   UNL A   1      42.829  29.048  26.881  1.00  0.00    -0.206 F 
ATOM     68  C   UNL A   1      42.003  25.878  25.336  1.00  0.00     0.006 A 
ENDBRANCH  47  61
BRANCH  48  69
ATOM     69  C   UNL A   1      39.205  32.411  35.972  1.00  0.00     0.057 A 
ATOM     70  C   UNL A   1      39.798  33.649  36.243  1.00  0.00     0.134 A 
ATOM     71  C   UNL A   1      38.302  31.907  36.914  1.00  0.00     0.134 A 
ATOM     72  F   UNL A   1      40.689  34.172  35.387  1.00  0.00    -0.206 F 
ATOM     73  C   UNL A   1      39.518  34.353  37.415  1.00  0.00     0.040 A 
ATOM     74  C   UNL A   1      37.993  32.610  38.080  1.00  0.00     0.040 A 
ATOM     75  F   UNL A   1      37.701  30.725  36.712  1.00  0.00    -0.206 F 
ATOM     76  C   UNL A   1      38.608  33.835  38.335  1.00  0.00     0.006 A 
ENDBRANCH  48  69
BRANCH  60  77
ATOM     77  C   UNL A   1      44.211  27.847  34.397  1.00  0.00     0.057 A 
ATOM     78  C   UNL A   1      44.111  26.647  35.111  1.00  0.00     0.134 A 
ATOM     79  C   UNL A   1      45.442  28.515  34.422  1.00  0.00     0.134 A 
ATOM     80  F   UNL A   1      42.955  25.966  35.138  1.00  0.00    -0.206 F 
ATOM     81  C   UNL A   1      45.188  26.141  35.842  1.00  0.00     0.040 A 
ATOM     82  C   UNL A   1      46.534  28.008  35.129  1.00  0.00     0.040 A 
ATOM     83  F   UNL A   1      45.606  29.666  33.753  1.00  0.00    -0.206 F 
ATOM     84  C   UNL A   1      46.405  26.820  35.847  1.00  0.00     0.006 A 
ENDBRANCH  60  77
ENDBRANCH  34  35
ENDBRANCH  27  29
ENDBRANCH  26  27
ENDBRANCH  25  26
ENDBRANCH  24  25
ENDBRANCH   1  24
TORSDOF 16
ENDMDL
