MODEL 1
REMARK VINA RESULT:     -10.9      0.000      0.000
REMARK SMILES Cc1ccsc1/C=C/C(=O)NC[C@H](CC(C)C)C(=O)OCCOC(=O)c1ccc(-c2c3nc(c(-c4c(F)cccc4F)c4ccc([nH]4)c(-c4c(F)cccc4F)c4nc(c(-c5c(F)cccc5F)c5ccc2[nH]5)C=C4)C=C3)cc1
REMARK SMILES IDX 21 1 20 2 18 3 19 4 13 5 12 6 11 7 9 8 10 9 8 11 7 12 6 13
REMARK SMILES IDX 1 14 2 15 3 16 4 17 5 18 14 19 15 20 16 21 17 22 22 23 23 24
REMARK SMILES IDX 24 25 25 26 26 27 27 28 79 29 28 30 78 31 29 32 30 33 31 34
REMARK SMILES IDX 72 35 32 36 77 37 71 38 73 39 33 40 76 41 70 42 69 43 34 45
REMARK SMILES IDX 60 46 43 47 59 48 44 49 47 50 58 51 74 52 45 53 46 54 57 56
REMARK SMILES IDX 75 57 48 58 35 59 36 60 41 61 37 62 38 63 40 64 42 65 39 66
REMARK SMILES IDX 61 67 62 68 67 69 63 70 64 71 66 72 68 73 65 74 49 75 50 76
REMARK SMILES IDX 55 77 51 78 52 79 54 80 56 81 53 82
REMARK H PARENT 11 10 73 44 47 55
REMARK Flexibility Score: inf
ROOT
ATOM      1  C   UNL A   1      35.522  21.840  24.316  1.00  0.00     0.274 C 
ENDROOT
BRANCH   1   2
ATOM      2  O   UNL A   1      34.947  22.350  25.535  1.00  0.00    -0.462 OA
BRANCH   2   3
ATOM      3  C   UNL A   1      34.034  21.565  26.152  1.00  0.00     0.310 C 
ATOM      4  O   UNL A   1      33.964  21.395  27.364  1.00  0.00    -0.252 OA
BRANCH   3   5
ATOM      5  C   UNL A   1      33.079  20.876  25.195  1.00  0.00     0.118 C 
BRANCH   5   6
ATOM      6  C   UNL A   1      31.840  21.737  24.983  1.00  0.00     0.131 C 
BRANCH   6   7
ATOM      7  N   UNL A   1      31.040  21.924  26.182  1.00  0.00    -0.352 N 
ATOM      8  C   UNL A   1      30.467  23.054  26.680  1.00  0.00     0.244 C 
ATOM      9  O   UNL A   1      29.833  22.998  27.731  1.00  0.00    -0.270 OA
ATOM     10  H   UNL A   1      30.889  21.109  26.713  1.00  0.00     0.163 HD
BRANCH   8  11
ATOM     11  C   UNL A   1      30.654  24.373  26.025  1.00  0.00     0.072 C 
ATOM     12  C   UNL A   1      31.597  25.277  26.332  1.00  0.00     0.025 C 
BRANCH  12  13
ATOM     13  C   UNL A   1      31.723  26.522  25.646  1.00  0.00     0.030 A 
ATOM     14  C   UNL A   1      31.514  28.146  27.623  1.00  0.00     0.046 C 
ATOM     15  C   UNL A   1      31.731  27.806  26.184  1.00  0.00    -0.033 A 
ATOM     16  C   UNL A   1      31.987  28.799  25.182  1.00  0.00     0.016 A 
ATOM     17  C   UNL A   1      32.151  28.258  23.931  1.00  0.00     0.066 A 
ATOM     18  S   UNL A   1      31.996  26.562  23.943  1.00  0.00    -0.144 S 
ENDBRANCH  12  13
ENDBRANCH   8  11
ENDBRANCH   6   7
ENDBRANCH   5   6
BRANCH   5  19
ATOM     19  C   UNL A   1      32.783  19.385  25.468  1.00  0.00     0.020 C 
BRANCH  19  20
ATOM     20  C   UNL A   1      32.929  18.314  24.361  1.00  0.00    -0.017 C 
ATOM     21  C   UNL A   1      32.426  18.735  22.986  1.00  0.00     0.007 C 
ATOM     22  C   UNL A   1      34.406  17.912  24.252  1.00  0.00     0.007 C 
ENDBRANCH  19  20
ENDBRANCH   5  19
ENDBRANCH   3   5
ENDBRANCH   2   3
ENDBRANCH   1   2
BRANCH   1  23
ATOM     23  C   UNL A   1      36.767  21.004  24.616  1.00  0.00     0.275 C 
BRANCH  23  24
ATOM     24  O   UNL A   1      37.341  21.378  25.882  1.00  0.00    -0.458 OA
BRANCH  24  25
ATOM     25  C   UNL A   1      38.668  21.160  26.006  1.00  0.00     0.338 C 
ATOM     26  O   UNL A   1      39.302  20.177  25.649  1.00  0.00    -0.246 OA
BRANCH  25  27
ATOM     27  C   UNL A   1      39.310  22.359  26.555  1.00  0.00     0.060 A 
ATOM     28  C   UNL A   1      38.831  23.607  26.155  1.00  0.00     0.016 A 
ATOM     29  C   UNL A   1      40.441  22.262  27.365  1.00  0.00     0.016 A 
ATOM     30  C   UNL A   1      39.492  24.768  26.535  1.00  0.00     0.010 A 
ATOM     31  C   UNL A   1      41.089  23.433  27.774  1.00  0.00     0.010 A 
ATOM     32  C   UNL A   1      40.629  24.693  27.348  1.00  0.00    -0.014 A 
BRANCH  32  33
ATOM     33  C   UNL A   1      41.363  25.932  27.701  1.00  0.00     0.031 A 
ATOM     34  C   UNL A   1      40.695  26.983  28.541  1.00  0.00     0.074 A 
ATOM     35  C   UNL A   1      42.638  26.099  27.301  1.00  0.00     0.049 A 
ATOM     36  N   UNL A   1      41.108  28.188  28.842  1.00  0.00    -0.248 NA
ATOM     37  C   UNL A   1      39.389  26.631  29.119  1.00  0.00     0.031 C 
ATOM     38  C   UNL A   1      43.423  25.124  26.543  1.00  0.00     0.029 A 
ATOM     39  N   UNL A   1      43.499  27.152  27.482  1.00  0.00    -0.354 N 
ATOM     40  C   UNL A   1      40.098  28.750  29.613  1.00  0.00     0.074 A 
ATOM     41  C   UNL A   1      39.053  27.757  29.731  1.00  0.00     0.031 C 
ATOM     42  C   UNL A   1      44.654  25.618  26.337  1.00  0.00     0.029 A 
ATOM     43  C   UNL A   1      44.724  26.966  26.890  1.00  0.00     0.049 A 
ATOM     44  H   UNL A   1      43.261  27.963  27.987  1.00  0.00     0.167 HD
ATOM     45  C   UNL A   1      40.052  29.985  30.169  1.00  0.00     0.037 A 
ATOM     46  C   UNL A   1      45.771  27.803  26.775  1.00  0.00     0.037 A 
ATOM     47  C   UNL A   1      41.107  30.958  30.073  1.00  0.00     0.049 A 
ATOM     48  C   UNL A   1      45.671  29.187  27.352  1.00  0.00     0.074 A 
ATOM     49  C   UNL A   1      41.147  32.244  30.584  1.00  0.00     0.029 A 
ATOM     50  N   UNL A   1      42.319  30.744  29.434  1.00  0.00    -0.354 N 
ATOM     51  N   UNL A   1      44.686  29.734  28.022  1.00  0.00    -0.248 NA
ATOM     52  C   UNL A   1      46.823  30.077  27.141  1.00  0.00     0.031 C 
ATOM     53  C   UNL A   1      42.375  32.817  30.233  1.00  0.00     0.029 A 
ATOM     54  C   UNL A   1      43.111  31.876  29.532  1.00  0.00     0.049 A 
ATOM     55  H   UNL A   1      42.578  29.911  28.978  1.00  0.00     0.167 HD
ATOM     56  C   UNL A   1      45.103  31.023  28.324  1.00  0.00     0.074 A 
ATOM     57  C   UNL A   1      46.436  31.172  27.778  1.00  0.00     0.031 C 
ATOM     58  C   UNL A   1      44.439  31.999  28.989  1.00  0.00     0.037 A 
BRANCH  45  59
ATOM     59  C   UNL A   1      38.802  30.361  30.905  1.00  0.00     0.057 A 
ATOM     60  C   UNL A   1      38.635  30.090  32.269  1.00  0.00     0.134 A 
ATOM     61  C   UNL A   1      37.763  31.029  30.244  1.00  0.00     0.134 A 
ATOM     62  F   UNL A   1      39.585  29.437  32.954  1.00  0.00    -0.206 F 
ATOM     63  C   UNL A   1      37.471  30.459  32.946  1.00  0.00     0.040 A 
ATOM     64  C   UNL A   1      36.604  31.420  30.915  1.00  0.00     0.040 A 
ATOM     65  F   UNL A   1      37.862  31.319  28.938  1.00  0.00    -0.206 F 
ATOM     66  C   UNL A   1      36.454  31.131  32.270  1.00  0.00     0.006 A 
ENDBRANCH  45  59
BRANCH  46  67
ATOM     67  C   UNL A   1      46.993  27.371  26.051  1.00  0.00     0.057 A 
ATOM     68  C   UNL A   1      47.115  27.552  24.669  1.00  0.00     0.134 A 
ATOM     69  C   UNL A   1      48.058  26.759  26.720  1.00  0.00     0.134 A 
ATOM     70  F   UNL A   1      46.116  28.109  23.969  1.00  0.00    -0.206 F 
ATOM     71  C   UNL A   1      48.251  27.129  23.975  1.00  0.00     0.040 A 
ATOM     72  C   UNL A   1      49.209  26.352  26.044  1.00  0.00     0.040 A 
ATOM     73  F   UNL A   1      48.000  26.556  28.045  1.00  0.00    -0.206 F 
ATOM     74  C   UNL A   1      49.304  26.532  24.666  1.00  0.00     0.006 A 
ENDBRANCH  46  67
BRANCH  58  75
ATOM     75  C   UNL A   1      45.159  33.297  29.187  1.00  0.00     0.057 A 
ATOM     76  C   UNL A   1      45.991  33.516  30.291  1.00  0.00     0.134 A 
ATOM     77  C   UNL A   1      45.038  34.329  28.248  1.00  0.00     0.134 A 
ATOM     78  F   UNL A   1      46.135  32.569  31.231  1.00  0.00    -0.206 F 
ATOM     79  C   UNL A   1      46.665  34.725  30.465  1.00  0.00     0.040 A 
ATOM     80  C   UNL A   1      45.721  35.535  28.402  1.00  0.00     0.040 A 
ATOM     81  F   UNL A   1      44.260  34.178  27.166  1.00  0.00    -0.206 F 
ATOM     82  C   UNL A   1      46.534  35.737  29.516  1.00  0.00     0.006 A 
ENDBRANCH  58  75
ENDBRANCH  32  33
ENDBRANCH  25  27
ENDBRANCH  24  25
ENDBRANCH  23  24
ENDBRANCH   1  23
TORSDOF 17
ENDMDL
MODEL 2
REMARK VINA RESULT:     -10.8      4.313      9.279
REMARK SMILES Cc1ccsc1/C=C/C(=O)NC[C@H](CC(C)C)C(=O)OCCOC(=O)c1ccc(-c2c3nc(c(-c4c(F)cccc4F)c4ccc([nH]4)c(-c4c(F)cccc4F)c4nc(c(-c5c(F)cccc5F)c5ccc2[nH]5)C=C4)C=C3)cc1
REMARK SMILES IDX 21 1 20 2 18 3 19 4 13 5 12 6 11 7 9 8 10 9 8 11 7 12 6 13
REMARK SMILES IDX 1 14 2 15 3 16 4 17 5 18 14 19 15 20 16 21 17 22 22 23 23 24
REMARK SMILES IDX 24 25 25 26 26 27 27 28 79 29 28 30 78 31 29 32 30 33 31 34
REMARK SMILES IDX 72 35 32 36 77 37 71 38 73 39 33 40 76 41 70 42 69 43 34 45
REMARK SMILES IDX 60 46 43 47 59 48 44 49 47 50 58 51 74 52 45 53 46 54 57 56
REMARK SMILES IDX 75 57 48 58 35 59 36 60 41 61 37 62 38 63 40 64 42 65 39 66
REMARK SMILES IDX 61 67 62 68 67 69 63 70 64 71 66 72 68 73 65 74 49 75 50 76
REMARK SMILES IDX 55 77 51 78 52 79 54 80 56 81 53 82
REMARK H PARENT 11 10 73 44 47 55
REMARK Flexibility Score: inf
ROOT
ATOM      1  C   UNL A   1      30.714  30.643  24.980  1.00  0.00     0.274 C 
ENDROOT
BRANCH   1   2
ATOM      2  O   UNL A   1      31.848  29.796  24.708  1.00  0.00    -0.462 OA
BRANCH   2   3
ATOM      3  C   UNL A   1      31.753  28.978  23.635  1.00  0.00     0.310 C 
ATOM      4  O   UNL A   1      31.805  29.347  22.467  1.00  0.00    -0.252 OA
BRANCH   3   5
ATOM      5  C   UNL A   1      31.558  27.517  24.001  1.00  0.00     0.118 C 
BRANCH   5   6
ATOM      6  C   UNL A   1      30.817  26.794  22.883  1.00  0.00     0.131 C 
BRANCH   6   7
ATOM      7  N   UNL A   1      31.629  26.540  21.704  1.00  0.00    -0.352 N 
ATOM      8  C   UNL A   1      32.521  25.542  21.460  1.00  0.00     0.244 C 
ATOM      9  O   UNL A   1      33.123  25.517  20.388  1.00  0.00    -0.270 OA
ATOM     10  H   UNL A   1      31.517  27.189  20.973  1.00  0.00     0.163 HD
BRANCH   8  11
ATOM     11  C   UNL A   1      32.845  24.521  22.487  1.00  0.00     0.072 C 
ATOM     12  C   UNL A   1      33.812  23.594  22.398  1.00  0.00     0.025 C 
BRANCH  12  13
ATOM     13  C   UNL A   1      34.074  22.652  23.437  1.00  0.00     0.030 A 
ATOM     14  C   UNL A   1      36.640  22.722  23.468  1.00  0.00     0.046 C 
ATOM     15  C   UNL A   1      35.305  22.270  23.965  1.00  0.00    -0.033 A 
ATOM     16  C   UNL A   1      35.152  21.377  25.075  1.00  0.00     0.016 A 
ATOM     17  C   UNL A   1      33.837  21.097  25.351  1.00  0.00     0.066 A 
ATOM     18  S   UNL A   1      32.776  21.895  24.284  1.00  0.00    -0.144 S 
ENDBRANCH  12  13
ENDBRANCH   8  11
ENDBRANCH   6   7
ENDBRANCH   5   6
BRANCH   5  19
ATOM     19  C   UNL A   1      31.019  27.227  25.419  1.00  0.00     0.020 C 
BRANCH  19  20
ATOM     20  C   UNL A   1      31.972  27.027  26.621  1.00  0.00    -0.017 C 
ATOM     21  C   UNL A   1      33.456  27.064  26.283  1.00  0.00     0.007 C 
ATOM     22  C   UNL A   1      31.671  28.101  27.675  1.00  0.00     0.007 C 
ENDBRANCH  19  20
ENDBRANCH   5  19
ENDBRANCH   3   5
ENDBRANCH   2   3
ENDBRANCH   1   2
BRANCH   1  23
ATOM     23  C   UNL A   1      31.058  31.677  26.052  1.00  0.00     0.275 C 
BRANCH  23  24
ATOM     24  O   UNL A   1      32.364  31.426  26.604  1.00  0.00    -0.458 OA
BRANCH  24  25
ATOM     25  C   UNL A   1      32.916  32.455  27.282  1.00  0.00     0.338 C 
ATOM     26  O   UNL A   1      32.426  33.554  27.507  1.00  0.00    -0.246 OA
BRANCH  25  27
ATOM     27  C   UNL A   1      34.206  32.036  27.840  1.00  0.00     0.060 A 
ATOM     28  C   UNL A   1      34.352  30.706  28.238  1.00  0.00     0.016 A 
ATOM     29  C   UNL A   1      35.222  32.960  28.077  1.00  0.00     0.016 A 
ATOM     30  C   UNL A   1      35.501  30.293  28.900  1.00  0.00     0.010 A 
ATOM     31  C   UNL A   1      36.393  32.537  28.716  1.00  0.00     0.010 A 
ATOM     32  C   UNL A   1      36.534  31.204  29.146  1.00  0.00    -0.014 A 
BRANCH  32  33
ATOM     33  C   UNL A   1      37.732  30.771  29.905  1.00  0.00     0.031 A 
ATOM     34  C   UNL A   1      38.753  29.886  29.248  1.00  0.00     0.074 A 
ATOM     35  C   UNL A   1      37.923  31.198  31.167  1.00  0.00     0.049 A 
ATOM     36  N   UNL A   1      39.790  29.286  29.774  1.00  0.00    -0.248 NA
ATOM     37  C   UNL A   1      38.583  29.644  27.807  1.00  0.00     0.031 C 
ATOM     38  C   UNL A   1      37.045  32.117  31.893  1.00  0.00     0.029 A 
ATOM     39  N   UNL A   1      38.925  30.918  32.061  1.00  0.00    -0.354 N 
ATOM     40  C   UNL A   1      40.375  28.568  28.739  1.00  0.00     0.074 A 
ATOM     41  C   UNL A   1      39.577  28.804  27.556  1.00  0.00     0.031 C 
ATOM     42  C   UNL A   1      37.555  32.335  33.116  1.00  0.00     0.029 A 
ATOM     43  C   UNL A   1      38.757  31.525  33.282  1.00  0.00     0.049 A 
ATOM     44  H   UNL A   1      39.692  30.337  31.849  1.00  0.00     0.167 HD
ATOM     45  C   UNL A   1      41.479  27.783  28.778  1.00  0.00     0.037 A 
ATOM     46  C   UNL A   1      39.471  31.411  34.417  1.00  0.00     0.037 A 
ATOM     47  C   UNL A   1      42.285  27.576  29.950  1.00  0.00     0.049 A 
ATOM     48  C   UNL A   1      40.657  30.489  34.448  1.00  0.00     0.074 A 
ATOM     49  C   UNL A   1      43.411  26.782  30.096  1.00  0.00     0.029 A 
ATOM     50  N   UNL A   1      42.061  28.181  31.178  1.00  0.00    -0.354 N 
ATOM     51  N   UNL A   1      41.164  29.762  33.483  1.00  0.00    -0.248 NA
ATOM     52  C   UNL A   1      41.360  30.359  35.733  1.00  0.00     0.031 C 
ATOM     53  C   UNL A   1      43.853  26.890  31.420  1.00  0.00     0.029 A 
ATOM     54  C   UNL A   1      43.022  27.774  32.088  1.00  0.00     0.049 A 
ATOM     55  H   UNL A   1      41.327  28.806  31.373  1.00  0.00     0.167 HD
ATOM     56  C   UNL A   1      42.251  29.100  34.037  1.00  0.00     0.074 A 
ATOM     57  C   UNL A   1      42.340  29.524  35.420  1.00  0.00     0.031 C 
ATOM     58  C   UNL A   1      43.097  28.216  33.456  1.00  0.00     0.037 A 
BRANCH  45  59
ATOM     59  C   UNL A   1      41.856  27.066  27.517  1.00  0.00     0.057 A 
ATOM     60  C   UNL A   1      42.652  27.665  26.534  1.00  0.00     0.134 A 
ATOM     61  C   UNL A   1      41.440  25.746  27.300  1.00  0.00     0.134 A 
ATOM     62  F   UNL A   1      43.068  28.932  26.674  1.00  0.00    -0.206 F 
ATOM     63  C   UNL A   1      43.009  26.981  25.371  1.00  0.00     0.040 A 
ATOM     64  C   UNL A   1      41.807  25.045  26.151  1.00  0.00     0.040 A 
ATOM     65  F   UNL A   1      40.676  25.114  28.205  1.00  0.00    -0.206 F 
ATOM     66  C   UNL A   1      42.591  25.664  25.179  1.00  0.00     0.006 A 
ENDBRANCH  45  59
BRANCH  46  67
ATOM     67  C   UNL A   1      39.062  32.160  35.631  1.00  0.00     0.057 A 
ATOM     68  C   UNL A   1      39.477  33.480  35.840  1.00  0.00     0.134 A 
ATOM     69  C   UNL A   1      38.260  31.570  36.614  1.00  0.00     0.134 A 
ATOM     70  F   UNL A   1      40.268  34.088  34.945  1.00  0.00    -0.206 F 
ATOM     71  C   UNL A   1      39.116  34.185  36.990  1.00  0.00     0.040 A 
ATOM     72  C   UNL A   1      37.871  32.270  37.758  1.00  0.00     0.040 A 
ATOM     73  F   UNL A   1      37.832  30.306  36.473  1.00  0.00    -0.206 F 
ATOM     74  C   UNL A   1      38.305  33.580  37.950  1.00  0.00     0.006 A 
ENDBRANCH  46  67
BRANCH  58  75
ATOM     75  C   UNL A   1      44.205  27.676  34.307  1.00  0.00     0.057 A 
ATOM     76  C   UNL A   1      44.071  26.477  35.016  1.00  0.00     0.134 A 
ATOM     77  C   UNL A   1      45.428  28.353  34.397  1.00  0.00     0.134 A 
ATOM     78  F   UNL A   1      42.918  25.791  34.979  1.00  0.00    -0.206 F 
ATOM     79  C   UNL A   1      45.110  25.976  35.801  1.00  0.00     0.040 A 
ATOM     80  C   UNL A   1      46.481  27.853  35.164  1.00  0.00     0.040 A 
ATOM     81  F   UNL A   1      45.620  29.505  33.737  1.00  0.00    -0.206 F 
ATOM     82  C   UNL A   1      46.321  26.663  35.872  1.00  0.00     0.006 A 
ENDBRANCH  58  75
ENDBRANCH  32  33
ENDBRANCH  25  27
ENDBRANCH  24  25
ENDBRANCH  23  24
ENDBRANCH   1  23
TORSDOF 17
ENDMDL
MODEL 3
REMARK VINA RESULT:     -10.7      0.943      1.604
REMARK SMILES Cc1ccsc1/C=C/C(=O)NC[C@H](CC(C)C)C(=O)OCCOC(=O)c1ccc(-c2c3nc(c(-c4c(F)cccc4F)c4ccc([nH]4)c(-c4c(F)cccc4F)c4nc(c(-c5c(F)cccc5F)c5ccc2[nH]5)C=C4)C=C3)cc1
REMARK SMILES IDX 21 1 20 2 18 3 19 4 13 5 12 6 11 7 9 8 10 9 8 11 7 12 6 13
REMARK SMILES IDX 1 14 2 15 3 16 4 17 5 18 14 19 15 20 16 21 17 22 22 23 23 24
REMARK SMILES IDX 24 25 25 26 26 27 27 28 79 29 28 30 78 31 29 32 30 33 31 34
REMARK SMILES IDX 72 35 32 36 77 37 71 38 73 39 33 40 76 41 70 42 69 43 34 45
REMARK SMILES IDX 60 46 43 47 59 48 44 49 47 50 58 51 74 52 45 53 46 54 57 56
REMARK SMILES IDX 75 57 48 58 35 59 36 60 41 61 37 62 38 63 40 64 42 65 39 66
REMARK SMILES IDX 61 67 62 68 67 69 63 70 64 71 66 72 68 73 65 74 49 75 50 76
REMARK SMILES IDX 55 77 51 78 52 79 54 80 56 81 53 82
REMARK H PARENT 11 10 73 44 47 55
REMARK Flexibility Score: inf
ROOT
ATOM      1  C   UNL A   1      35.213  20.278  25.462  1.00  0.00     0.274 C 
ENDROOT
BRANCH   1   2
ATOM      2  O   UNL A   1      34.327  20.086  24.342  1.00  0.00    -0.462 OA
BRANCH   2   3
ATOM      3  C   UNL A   1      33.067  20.562  24.474  1.00  0.00     0.310 C 
ATOM      4  O   UNL A   1      32.072  19.868  24.649  1.00  0.00    -0.252 OA
BRANCH   3   5
ATOM      5  C   UNL A   1      32.976  22.073  24.369  1.00  0.00     0.118 C 
BRANCH   5   6
ATOM      6  C   UNL A   1      31.515  22.507  24.346  1.00  0.00     0.131 C 
BRANCH   6   7
ATOM      7  N   UNL A   1      30.856  22.428  25.640  1.00  0.00    -0.352 N 
ATOM      8  C   UNL A   1      30.622  23.404  26.559  1.00  0.00     0.244 C 
ATOM      9  O   UNL A   1      30.053  23.121  27.611  1.00  0.00    -0.270 OA
ATOM     10  H   UNL A   1      30.529  21.534  25.887  1.00  0.00     0.163 HD
BRANCH   8  11
ATOM     11  C   UNL A   1      31.107  24.792  26.359  1.00  0.00     0.072 C 
ATOM     12  C   UNL A   1      30.482  25.752  25.659  1.00  0.00     0.025 C 
BRANCH  12  13
ATOM     13  C   UNL A   1      31.006  27.072  25.523  1.00  0.00     0.030 A 
ATOM     14  C   UNL A   1      30.170  27.643  23.164  1.00  0.00     0.046 C 
ATOM     15  C   UNL A   1      30.856  27.953  24.455  1.00  0.00    -0.033 A 
ATOM     16  C   UNL A   1      31.441  29.231  24.736  1.00  0.00     0.016 A 
ATOM     17  C   UNL A   1      32.020  29.286  25.979  1.00  0.00     0.066 A 
ATOM     18  S   UNL A   1      31.873  27.811  26.818  1.00  0.00    -0.144 S 
ENDBRANCH  12  13
ENDBRANCH   8  11
ENDBRANCH   6   7
ENDBRANCH   5   6
BRANCH   5  19
ATOM     19  C   UNL A   1      33.861  22.746  23.297  1.00  0.00     0.020 C 
BRANCH  19  20
ATOM     20  C   UNL A   1      34.977  23.747  23.681  1.00  0.00    -0.017 C 
ATOM     21  C   UNL A   1      35.124  24.010  25.174  1.00  0.00     0.007 C 
ATOM     22  C   UNL A   1      36.313  23.233  23.129  1.00  0.00     0.007 C 
ENDBRANCH  19  20
ENDBRANCH   5  19
ENDBRANCH   3   5
ENDBRANCH   2   3
ENDBRANCH   1   2
BRANCH   1  23
ATOM     23  C   UNL A   1      36.668  20.320  24.997  1.00  0.00     0.275 C 
BRANCH  23  24
ATOM     24  O   UNL A   1      37.393  21.361  25.678  1.00  0.00    -0.458 OA
BRANCH  24  25
ATOM     25  C   UNL A   1      38.687  21.087  25.950  1.00  0.00     0.338 C 
ATOM     26  O   UNL A   1      39.302  20.058  25.709  1.00  0.00    -0.246 OA
BRANCH  25  27
ATOM     27  C   UNL A   1      39.332  22.282  26.505  1.00  0.00     0.060 A 
ATOM     28  C   UNL A   1      38.838  23.533  26.133  1.00  0.00     0.016 A 
ATOM     29  C   UNL A   1      40.479  22.180  27.291  1.00  0.00     0.016 A 
ATOM     30  C   UNL A   1      39.499  24.692  26.518  1.00  0.00     0.010 A 
ATOM     31  C   UNL A   1      41.127  23.350  27.706  1.00  0.00     0.010 A 
ATOM     32  C   UNL A   1      40.651  24.613  27.308  1.00  0.00    -0.014 A 
BRANCH  32  33
ATOM     33  C   UNL A   1      41.385  25.851  27.665  1.00  0.00     0.031 A 
ATOM     34  C   UNL A   1      40.717  26.897  28.513  1.00  0.00     0.074 A 
ATOM     35  C   UNL A   1      42.658  26.022  27.263  1.00  0.00     0.049 A 
ATOM     36  N   UNL A   1      41.128  28.101  28.818  1.00  0.00    -0.248 NA
ATOM     37  C   UNL A   1      39.413  26.540  29.092  1.00  0.00     0.031 C 
ATOM     38  C   UNL A   1      43.443  25.052  26.499  1.00  0.00     0.029 A 
ATOM     39  N   UNL A   1      43.518  27.075  27.447  1.00  0.00    -0.354 N 
ATOM     40  C   UNL A   1      40.120  28.657  29.595  1.00  0.00     0.074 A 
ATOM     41  C   UNL A   1      39.076  27.662  29.710  1.00  0.00     0.031 C 
ATOM     42  C   UNL A   1      44.673  25.549  26.292  1.00  0.00     0.029 A 
ATOM     43  C   UNL A   1      44.742  26.895  26.851  1.00  0.00     0.049 A 
ATOM     44  H   UNL A   1      43.280  27.884  27.957  1.00  0.00     0.167 HD
ATOM     45  C   UNL A   1      40.073  29.889  30.157  1.00  0.00     0.037 A 
ATOM     46  C   UNL A   1      45.788  27.734  26.738  1.00  0.00     0.037 A 
ATOM     47  C   UNL A   1      41.126  30.864  30.064  1.00  0.00     0.049 A 
ATOM     48  C   UNL A   1      45.687  29.115  27.323  1.00  0.00     0.074 A 
ATOM     49  C   UNL A   1      41.165  32.147  30.581  1.00  0.00     0.029 A 
ATOM     50  N   UNL A   1      42.337  30.655  29.421  1.00  0.00    -0.354 N 
ATOM     51  N   UNL A   1      44.702  29.656  27.997  1.00  0.00    -0.248 NA
ATOM     52  C   UNL A   1      46.837  30.007  27.113  1.00  0.00     0.031 C 
ATOM     53  C   UNL A   1      42.392  32.724  30.231  1.00  0.00     0.029 A 
ATOM     54  C   UNL A   1      43.127  31.788  29.523  1.00  0.00     0.049 A 
ATOM     55  H   UNL A   1      42.596  29.825  28.960  1.00  0.00     0.167 HD
ATOM     56  C   UNL A   1      45.118  30.945  28.305  1.00  0.00     0.074 A 
ATOM     57  C   UNL A   1      46.450  31.099  27.757  1.00  0.00     0.031 C 
ATOM     58  C   UNL A   1      44.454  31.916  28.977  1.00  0.00     0.037 A 
BRANCH  45  59
ATOM     59  C   UNL A   1      38.824  30.259  30.898  1.00  0.00     0.057 A 
ATOM     60  C   UNL A   1      38.670  30.003  32.266  1.00  0.00     0.134 A 
ATOM     61  C   UNL A   1      37.772  30.907  30.237  1.00  0.00     0.134 A 
ATOM     62  F   UNL A   1      39.633  29.370  32.952  1.00  0.00    -0.206 F 
ATOM     63  C   UNL A   1      37.507  30.366  32.948  1.00  0.00     0.040 A 
ATOM     64  C   UNL A   1      36.614  31.293  30.912  1.00  0.00     0.040 A 
ATOM     65  F   UNL A   1      37.858  31.183  28.927  1.00  0.00    -0.206 F 
ATOM     66  C   UNL A   1      36.477  31.018  32.271  1.00  0.00     0.006 A 
ENDBRANCH  45  59
BRANCH  46  67
ATOM     67  C   UNL A   1      47.008  27.308  26.009  1.00  0.00     0.057 A 
ATOM     68  C   UNL A   1      47.119  27.479  24.625  1.00  0.00     0.134 A 
ATOM     69  C   UNL A   1      48.083  26.710  26.676  1.00  0.00     0.134 A 
ATOM     70  F   UNL A   1      46.110  28.021  23.928  1.00  0.00    -0.206 F 
ATOM     71  C   UNL A   1      48.254  27.061  23.927  1.00  0.00     0.040 A 
ATOM     72  C   UNL A   1      49.234  26.309  25.995  1.00  0.00     0.040 A 
ATOM     73  F   UNL A   1      48.036  26.517  28.003  1.00  0.00    -0.206 F 
ATOM     74  C   UNL A   1      49.318  26.479  24.615  1.00  0.00     0.006 A 
ENDBRANCH  46  67
BRANCH  58  75
ATOM     75  C   UNL A   1      45.172  33.214  29.180  1.00  0.00     0.057 A 
ATOM     76  C   UNL A   1      46.006  33.428  30.284  1.00  0.00     0.134 A 
ATOM     77  C   UNL A   1      45.048  34.251  28.247  1.00  0.00     0.134 A 
ATOM     78  F   UNL A   1      46.155  32.477  31.218  1.00  0.00    -0.206 F 
ATOM     79  C   UNL A   1      46.679  34.638  30.462  1.00  0.00     0.040 A 
ATOM     80  C   UNL A   1      45.729  35.458  28.405  1.00  0.00     0.040 A 
ATOM     81  F   UNL A   1      44.267  34.104  27.166  1.00  0.00    -0.206 F 
ATOM     82  C   UNL A   1      46.544  35.654  29.518  1.00  0.00     0.006 A 
ENDBRANCH  58  75
ENDBRANCH  32  33
ENDBRANCH  25  27
ENDBRANCH  24  25
ENDBRANCH  23  24
ENDBRANCH   1  23
TORSDOF 17
ENDMDL
