MODEL 1
REMARK VINA RESULT:     -11.3      0.000      0.000
REMARK SMILES Nc1ccccc1C(=O)NCc1ccc(C(=O)OCCOC(=O)c2ccc(-c3c4nc(c(-c5c(F)cccc5F)c5ccc([nH]5)c(-c5c(F)cccc5F)c5nc(c(-c6c(F)cccc6F)c6ccc3[nH]6)C=C5)C=C4)cc2)o1
REMARK SMILES IDX 19 1 18 2 16 3 17 4 15 5 12 6 13 7 78 8 14 9 11 10 10 11
REMARK SMILES IDX 8 12 9 13 7 15 2 16 3 17 4 18 6 19 5 20 1 21 20 24 21 25
REMARK SMILES IDX 22 26 23 27 24 28 25 29 77 30 26 31 76 32 27 33 28 34 29 35
REMARK SMILES IDX 70 36 30 37 75 38 69 39 71 40 31 41 74 42 68 43 67 44 32 46
REMARK SMILES IDX 58 47 41 48 57 49 42 50 45 51 56 52 72 53 43 54 44 55 55 57
REMARK SMILES IDX 73 58 46 59 33 60 34 61 39 62 35 63 36 64 38 65 40 66 37 67
REMARK SMILES IDX 59 68 60 69 65 70 61 71 62 72 64 73 66 74 63 75 47 76 48 77
REMARK SMILES IDX 53 78 49 79 50 80 52 81 54 82 51 83
REMARK H PARENT 10 14 1 22 1 23 71 45 45 56
REMARK Flexibility Score: inf
ROOT
ATOM      1  C   UNL A   1      34.402  34.678  32.226  1.00  0.00     0.275 C 
ENDROOT
BRANCH   1   2
ATOM      2  O   UNL A   1      33.275  34.661  31.328  1.00  0.00    -0.456 OA
BRANCH   2   3
ATOM      3  C   UNL A   1      33.541  35.104  30.065  1.00  0.00     0.374 C 
ATOM      4  O   UNL A   1      33.220  36.211  29.641  1.00  0.00    -0.242 OA
BRANCH   3   5
ATOM      5  C   UNL A   1      34.350  34.148  29.346  1.00  0.00     0.211 A 
ATOM      6  C   UNL A   1      34.571  32.235  28.258  1.00  0.00     0.124 A 
ATOM      7  C   UNL A   1      35.742  32.933  28.052  1.00  0.00     0.048 A 
ATOM      8  O   UNL A   1      33.769  32.938  29.101  1.00  0.00    -0.452 OA
ATOM      9  C   UNL A   1      35.594  34.171  28.745  1.00  0.00     0.058 A 
BRANCH   6  10
ATOM     10  C   UNL A   1      33.919  31.026  27.701  1.00  0.00     0.191 C 
BRANCH  10  11
ATOM     11  N   UNL A   1      32.754  31.314  26.903  1.00  0.00    -0.345 N 
ATOM     12  C   UNL A   1      31.998  30.426  26.174  1.00  0.00     0.253 C 
ATOM     13  O   UNL A   1      30.984  30.830  25.607  1.00  0.00    -0.269 OA
ATOM     14  H   UNL A   1      32.466  32.255  26.878  1.00  0.00     0.164 HD
BRANCH  12  15
ATOM     15  C   UNL A   1      32.430  29.014  25.972  1.00  0.00     0.062 A 
ATOM     16  C   UNL A   1      32.153  27.944  26.848  1.00  0.00     0.044 A 
ATOM     17  C   UNL A   1      32.760  26.705  26.586  1.00  0.00     0.026 A 
ATOM     18  C   UNL A   1      33.493  26.485  25.416  1.00  0.00     0.002 A 
ATOM     19  C   UNL A   1      33.135  28.776  24.777  1.00  0.00     0.016 A 
ATOM     20  C   UNL A   1      33.654  27.513  24.496  1.00  0.00     0.001 A 
BRANCH  16  21
ATOM     21  N   UNL A   1      31.415  28.073  28.027  1.00  0.00    -0.398 N 
ATOM     22  H   UNL A   1      31.634  27.515  28.808  1.00  0.00     0.156 HD
ATOM     23  H   UNL A   1      30.675  28.721  28.077  1.00  0.00     0.156 HD
ENDBRANCH  16  21
ENDBRANCH  12  15
ENDBRANCH  10  11
ENDBRANCH   6  10
ENDBRANCH   3   5
ENDBRANCH   2   3
ENDBRANCH   1   2
BRANCH   1  24
ATOM     24  C   UNL A   1      34.380  33.490  33.196  1.00  0.00     0.275 C 
BRANCH  24  25
ATOM     25  O   UNL A   1      35.119  32.351  32.705  1.00  0.00    -0.458 OA
BRANCH  25  26
ATOM     26  C   UNL A   1      36.304  32.129  33.320  1.00  0.00     0.338 C 
ATOM     27  O   UNL A   1      36.580  32.382  34.483  1.00  0.00    -0.246 OA
BRANCH  26  28
ATOM     28  C   UNL A   1      37.249  31.436  32.421  1.00  0.00     0.060 A 
ATOM     29  C   UNL A   1      38.395  30.882  32.995  1.00  0.00     0.016 A 
ATOM     30  C   UNL A   1      37.089  31.430  31.033  1.00  0.00     0.016 A 
ATOM     31  C   UNL A   1      39.401  30.352  32.191  1.00  0.00     0.010 A 
ATOM     32  C   UNL A   1      38.101  30.893  30.223  1.00  0.00     0.010 A 
ATOM     33  C   UNL A   1      39.278  30.376  30.795  1.00  0.00    -0.014 A 
BRANCH  33  34
ATOM     34  C   UNL A   1      40.427  29.936  29.961  1.00  0.00     0.031 A 
ATOM     35  C   UNL A   1      41.572  30.877  29.697  1.00  0.00     0.074 A 
ATOM     36  C   UNL A   1      40.485  28.673  29.501  1.00  0.00     0.049 A 
ATOM     37  N   UNL A   1      42.682  30.666  29.034  1.00  0.00    -0.248 NA
ATOM     38  C   UNL A   1      41.454  32.232  30.255  1.00  0.00     0.031 C 
ATOM     39  C   UNL A   1      39.458  27.652  29.702  1.00  0.00     0.029 A 
ATOM     40  N   UNL A   1      41.458  28.031  28.774  1.00  0.00    -0.354 N 
ATOM     41  C   UNL A   1      43.388  31.862  29.085  1.00  0.00     0.074 A 
ATOM     42  C   UNL A   1      42.570  32.801  29.823  1.00  0.00     0.031 C 
ATOM     43  C   UNL A   1      39.858  26.508  29.123  1.00  0.00     0.029 A 
ATOM     44  C   UNL A   1      41.157  26.722  28.488  1.00  0.00     0.049 A 
ATOM     45  H   UNL A   1      42.292  28.467  28.486  1.00  0.00     0.167 HD
ATOM     46  C   UNL A   1      44.611  32.150  28.578  1.00  0.00     0.037 A 
ATOM     47  C   UNL A   1      41.846  25.800  27.788  1.00  0.00     0.037 A 
ATOM     48  C   UNL A   1      45.437  31.219  27.853  1.00  0.00     0.049 A 
ATOM     49  C   UNL A   1      43.188  26.154  27.208  1.00  0.00     0.074 A 
ATOM     50  C   UNL A   1      46.696  31.421  27.312  1.00  0.00     0.029 A 
ATOM     51  N   UNL A   1      45.087  29.909  27.565  1.00  0.00    -0.354 N 
ATOM     52  N   UNL A   1      43.851  27.282  27.284  1.00  0.00    -0.248 NA
ATOM     53  C   UNL A   1      43.880  25.101  26.448  1.00  0.00     0.031 C 
ATOM     54  C   UNL A   1      47.094  30.243  26.670  1.00  0.00     0.029 A 
ATOM     55  C   UNL A   1      46.099  29.295  26.846  1.00  0.00     0.049 A 
ATOM     56  H   UNL A   1      44.243  29.478  27.833  1.00  0.00     0.167 HD
ATOM     57  C   UNL A   1      45.046  27.066  26.607  1.00  0.00     0.074 A 
ATOM     58  C   UNL A   1      45.023  25.696  26.140  1.00  0.00     0.031 C 
ATOM     59  C   UNL A   1      46.070  27.928  26.393  1.00  0.00     0.037 A 
BRANCH  46  60
ATOM     60  C   UNL A   1      45.128  33.545  28.777  1.00  0.00     0.057 A 
ATOM     61  C   UNL A   1      45.925  33.886  29.877  1.00  0.00     0.134 A 
ATOM     62  C   UNL A   1      44.852  34.549  27.841  1.00  0.00     0.134 A 
ATOM     63  F   UNL A   1      46.216  32.972  30.815  1.00  0.00    -0.206 F 
ATOM     64  C   UNL A   1      46.411  35.183  30.051  1.00  0.00     0.040 A 
ATOM     65  C   UNL A   1      45.350  35.845  27.994  1.00  0.00     0.040 A 
ATOM     66  F   UNL A   1      44.099  34.287  26.762  1.00  0.00    -0.206 F 
ATOM     67  C   UNL A   1      46.128  36.165  29.104  1.00  0.00     0.006 A 
ENDBRANCH  46  60
BRANCH  47  68
ATOM     68  C   UNL A   1      41.283  24.440  27.601  1.00  0.00     0.057 A 
ATOM     69  C   UNL A   1      40.245  24.204  26.695  1.00  0.00     0.134 A 
ATOM     70  C   UNL A   1      41.759  23.350  28.339  1.00  0.00     0.134 A 
ATOM     71  F   UNL A   1      39.734  25.216  25.976  1.00  0.00    -0.206 F 
ATOM     72  C   UNL A   1      39.683  22.935  26.541  1.00  0.00     0.040 A 
ATOM     73  C   UNL A   1      41.225  22.070  28.177  1.00  0.00     0.040 A 
ATOM     74  F   UNL A   1      42.755  23.512  29.222  1.00  0.00    -0.206 F 
ATOM     75  C   UNL A   1      40.178  21.863  27.280  1.00  0.00     0.006 A 
ENDBRANCH  47  68
BRANCH  59  76
ATOM     76  C   UNL A   1      47.266  27.403  25.654  1.00  0.00     0.057 A 
ATOM     77  C   UNL A   1      47.410  27.563  24.270  1.00  0.00     0.134 A 
ATOM     78  C   UNL A   1      48.296  26.748  26.340  1.00  0.00     0.134 A 
ATOM     79  F   UNL A   1      46.453  28.171  23.552  1.00  0.00    -0.206 F 
ATOM     80  C   UNL A   1      48.526  27.068  23.591  1.00  0.00     0.040 A 
ATOM     81  C   UNL A   1      49.426  26.268  25.676  1.00  0.00     0.040 A 
ATOM     82  F   UNL A   1      48.225  26.568  27.667  1.00  0.00    -0.206 F 
ATOM     83  C   UNL A   1      49.541  26.423  24.296  1.00  0.00     0.006 A 
ENDBRANCH  59  76
ENDBRANCH  33  34
ENDBRANCH  26  28
ENDBRANCH  25  26
ENDBRANCH  24  25
ENDBRANCH   1  24
TORSDOF 15
ENDMDL
MODEL 2
REMARK VINA RESULT:     -11.2      5.847     10.787
REMARK SMILES Nc1ccccc1C(=O)NCc1ccc(C(=O)OCCOC(=O)c2ccc(-c3c4nc(c(-c5c(F)cccc5F)c5ccc([nH]5)c(-c5c(F)cccc5F)c5nc(c(-c6c(F)cccc6F)c6ccc3[nH]6)C=C5)C=C4)cc2)o1
REMARK SMILES IDX 19 1 18 2 16 3 17 4 15 5 12 6 13 7 78 8 14 9 11 10 10 11
REMARK SMILES IDX 8 12 9 13 7 15 2 16 3 17 4 18 6 19 5 20 1 21 20 24 21 25
REMARK SMILES IDX 22 26 23 27 24 28 25 29 77 30 26 31 76 32 27 33 28 34 29 35
REMARK SMILES IDX 70 36 30 37 75 38 69 39 71 40 31 41 74 42 68 43 67 44 32 46
REMARK SMILES IDX 58 47 41 48 57 49 42 50 45 51 56 52 72 53 43 54 44 55 55 57
REMARK SMILES IDX 73 58 46 59 33 60 34 61 39 62 35 63 36 64 38 65 40 66 37 67
REMARK SMILES IDX 59 68 60 69 65 70 61 71 62 72 64 73 66 74 63 75 47 76 48 77
REMARK SMILES IDX 53 78 49 79 50 80 52 81 54 82 51 83
REMARK H PARENT 10 14 1 22 1 23 71 45 45 56
REMARK Flexibility Score: inf
ROOT
ATOM      1  C   UNL A   1      42.919  21.089  26.049  1.00  0.00     0.275 C 
ENDROOT
BRANCH   1   2
ATOM      2  O   UNL A   1      41.519  20.903  25.766  1.00  0.00    -0.456 OA
BRANCH   2   3
ATOM      3  C   UNL A   1      40.682  21.153  26.815  1.00  0.00     0.374 C 
ATOM      4  O   UNL A   1      40.874  20.752  27.959  1.00  0.00    -0.242 OA
BRANCH   3   5
ATOM      5  C   UNL A   1      39.620  22.048  26.421  1.00  0.00     0.211 A 
ATOM      6  C   UNL A   1      37.536  22.404  25.769  1.00  0.00     0.124 A 
ATOM      7  C   UNL A   1      38.059  23.641  26.078  1.00  0.00     0.048 A 
ATOM      8  O   UNL A   1      38.503  21.458  25.904  1.00  0.00    -0.452 OA
ATOM      9  C   UNL A   1      39.399  23.410  26.509  1.00  0.00     0.058 A 
BRANCH   6  10
ATOM     10  C   UNL A   1      36.197  21.837  25.482  1.00  0.00     0.191 C 
BRANCH  10  11
ATOM     11  N   UNL A   1      35.273  21.950  26.582  1.00  0.00    -0.345 N 
ATOM     12  C   UNL A   1      33.991  21.456  26.654  1.00  0.00     0.253 C 
ATOM     13  O   UNL A   1      33.363  21.578  27.705  1.00  0.00    -0.269 OA
ATOM     14  H   UNL A   1      35.597  22.437  27.375  1.00  0.00     0.164 HD
BRANCH  12  15
ATOM     15  C   UNL A   1      33.312  20.869  25.465  1.00  0.00     0.062 A 
ATOM     16  C   UNL A   1      32.823  19.549  25.374  1.00  0.00     0.044 A 
ATOM     17  C   UNL A   1      32.344  19.109  24.129  1.00  0.00     0.026 A 
ATOM     18  C   UNL A   1      32.208  19.986  23.049  1.00  0.00     0.002 A 
ATOM     19  C   UNL A   1      33.136  21.757  24.387  1.00  0.00     0.016 A 
ATOM     20  C   UNL A   1      32.575  21.319  23.188  1.00  0.00     0.001 A 
BRANCH  16  21
ATOM     21  N   UNL A   1      32.903  18.616  26.410  1.00  0.00    -0.398 N 
ATOM     22  H   UNL A   1      33.535  18.757  27.152  1.00  0.00     0.156 HD
ATOM     23  H   UNL A   1      32.327  17.817  26.399  1.00  0.00     0.156 HD
ENDBRANCH  16  21
ENDBRANCH  12  15
ENDBRANCH  10  11
ENDBRANCH   6  10
ENDBRANCH   3   5
ENDBRANCH   2   3
ENDBRANCH   1   2
BRANCH   1  24
ATOM     24  C   UNL A   1      43.532  22.212  25.203  1.00  0.00     0.275 C 
BRANCH  24  25
ATOM     25  O   UNL A   1      44.491  23.006  25.932  1.00  0.00    -0.458 OA
BRANCH  25  26
ATOM     26  C   UNL A   1      44.518  24.319  25.602  1.00  0.00     0.338 C 
ATOM     27  O   UNL A   1      45.064  24.813  24.627  1.00  0.00    -0.246 OA
BRANCH  26  28
ATOM     28  C   UNL A   1      43.707  25.121  26.539  1.00  0.00     0.060 A 
ATOM     29  C   UNL A   1      44.046  26.467  26.694  1.00  0.00     0.016 A 
ATOM     30  C   UNL A   1      42.717  24.552  27.343  1.00  0.00     0.016 A 
ATOM     31  C   UNL A   1      43.426  27.242  27.671  1.00  0.00     0.010 A 
ATOM     32  C   UNL A   1      42.090  25.333  28.326  1.00  0.00     0.010 A 
ATOM     33  C   UNL A   1      42.462  26.677  28.516  1.00  0.00    -0.014 A 
BRANCH  33  34
ATOM     34  C   UNL A   1      41.923  27.487  29.640  1.00  0.00     0.031 A 
ATOM     35  C   UNL A   1      42.612  27.472  30.979  1.00  0.00     0.074 A 
ATOM     36  C   UNL A   1      40.863  28.294  29.448  1.00  0.00     0.049 A 
ATOM     37  N   UNL A   1      42.324  28.142  32.067  1.00  0.00    -0.248 NA
ATOM     38  C   UNL A   1      43.780  26.588  31.109  1.00  0.00     0.031 C 
ATOM     39  C   UNL A   1      40.117  28.424  28.197  1.00  0.00     0.029 A 
ATOM     40  N   UNL A   1      40.237  29.166  30.305  1.00  0.00    -0.354 N 
ATOM     41  C   UNL A   1      43.266  27.754  33.012  1.00  0.00     0.074 A 
ATOM     42  C   UNL A   1      44.118  26.772  32.377  1.00  0.00     0.031 C 
ATOM     43  C   UNL A   1      39.140  29.330  28.363  1.00  0.00     0.029 A 
ATOM     44  C   UNL A   1      39.175  29.826  29.738  1.00  0.00     0.049 A 
ATOM     45  H   UNL A   1      40.523  29.305  31.235  1.00  0.00     0.167 HD
ATOM     46  C   UNL A   1      43.418  28.185  34.288  1.00  0.00     0.037 A 
ATOM     47  C   UNL A   1      38.321  30.725  30.267  1.00  0.00     0.037 A 
ATOM     48  C   UNL A   1      42.582  29.170  34.925  1.00  0.00     0.049 A 
ATOM     49  C   UNL A   1      38.492  31.163  31.696  1.00  0.00     0.074 A 
ATOM     50  C   UNL A   1      42.669  29.676  36.211  1.00  0.00     0.029 A 
ATOM     51  N   UNL A   1      41.503  29.798  34.324  1.00  0.00    -0.354 N 
ATOM     52  N   UNL A   1      39.401  30.804  32.568  1.00  0.00    -0.248 NA
ATOM     53  C   UNL A   1      37.519  32.139  32.209  1.00  0.00     0.031 C 
ATOM     54  C   UNL A   1      41.624  30.587  36.399  1.00  0.00     0.029 A 
ATOM     55  C   UNL A   1      40.910  30.678  35.215  1.00  0.00     0.049 A 
ATOM     56  H   UNL A   1      41.202  29.643  33.399  1.00  0.00     0.167 HD
ATOM     57  C   UNL A   1      39.125  31.528  33.723  1.00  0.00     0.074 A 
ATOM     58  C   UNL A   1      37.974  32.356  33.434  1.00  0.00     0.031 C 
ATOM     59  C   UNL A   1      39.770  31.506  34.915  1.00  0.00     0.037 A 
BRANCH  46  60
ATOM     60  C   UNL A   1      44.529  27.577  35.093  1.00  0.00     0.057 A 
ATOM     61  C   UNL A   1      44.344  26.406  35.839  1.00  0.00     0.134 A 
ATOM     62  C   UNL A   1      45.806  28.151  35.094  1.00  0.00     0.134 A 
ATOM     63  F   UNL A   1      43.141  25.815  35.889  1.00  0.00    -0.206 F 
ATOM     64  C   UNL A   1      45.386  25.840  36.577  1.00  0.00     0.040 A 
ATOM     65  C   UNL A   1      46.861  27.582  35.811  1.00  0.00     0.040 A 
ATOM     66  F   UNL A   1      46.052  29.269  34.395  1.00  0.00    -0.206 F 
ATOM     67  C   UNL A   1      46.650  26.426  36.559  1.00  0.00     0.006 A 
ENDBRANCH  46  60
BRANCH  47  68
ATOM     68  C   UNL A   1      37.226  31.282  29.437  1.00  0.00     0.057 A 
ATOM     69  C   UNL A   1      37.322  32.557  28.871  1.00  0.00     0.134 A 
ATOM     70  C   UNL A   1      36.049  30.558  29.207  1.00  0.00     0.134 A 
ATOM     71  F   UNL A   1      38.417  33.305  29.075  1.00  0.00    -0.206 F 
ATOM     72  C   UNL A   1      36.279  33.104  28.120  1.00  0.00     0.040 A 
ATOM     73  C   UNL A   1      35.009  31.082  28.437  1.00  0.00     0.040 A 
ATOM     74  F   UNL A   1      35.899  29.329  29.722  1.00  0.00    -0.206 F 
ATOM     75  C   UNL A   1      35.121  32.362  27.897  1.00  0.00     0.006 A 
ENDBRANCH  47  68
BRANCH  59  76
ATOM     76  C   UNL A   1      39.268  32.433  35.983  1.00  0.00     0.057 A 
ATOM     77  C   UNL A   1      38.308  32.033  36.921  1.00  0.00     0.134 A 
ATOM     78  C   UNL A   1      39.771  33.736  36.088  1.00  0.00     0.134 A 
ATOM     79  F   UNL A   1      37.778  30.802  36.868  1.00  0.00    -0.206 F 
ATOM     80  C   UNL A   1      37.847  32.905  37.909  1.00  0.00     0.040 A 
ATOM     81  C   UNL A   1      39.334  34.609  37.085  1.00  0.00     0.040 A 
ATOM     82  F   UNL A   1      40.699  34.180  35.227  1.00  0.00    -0.206 F 
ATOM     83  C   UNL A   1      38.364  34.196  37.996  1.00  0.00     0.006 A 
ENDBRANCH  59  76
ENDBRANCH  33  34
ENDBRANCH  26  28
ENDBRANCH  25  26
ENDBRANCH  24  25
ENDBRANCH   1  24
TORSDOF 15
ENDMDL
MODEL 3
REMARK VINA RESULT:     -11.2      4.025      6.159
REMARK SMILES Nc1ccccc1C(=O)NCc1ccc(C(=O)OCCOC(=O)c2ccc(-c3c4nc(c(-c5c(F)cccc5F)c5ccc([nH]5)c(-c5c(F)cccc5F)c5nc(c(-c6c(F)cccc6F)c6ccc3[nH]6)C=C5)C=C4)cc2)o1
REMARK SMILES IDX 19 1 18 2 16 3 17 4 15 5 12 6 13 7 78 8 14 9 11 10 10 11
REMARK SMILES IDX 8 12 9 13 7 15 2 16 3 17 4 18 6 19 5 20 1 21 20 24 21 25
REMARK SMILES IDX 22 26 23 27 24 28 25 29 77 30 26 31 76 32 27 33 28 34 29 35
REMARK SMILES IDX 70 36 30 37 75 38 69 39 71 40 31 41 74 42 68 43 67 44 32 46
REMARK SMILES IDX 58 47 41 48 57 49 42 50 45 51 56 52 72 53 43 54 44 55 55 57
REMARK SMILES IDX 73 58 46 59 33 60 34 61 39 62 35 63 36 64 38 65 40 66 37 67
REMARK SMILES IDX 59 68 60 69 65 70 61 71 62 72 64 73 66 74 63 75 47 76 48 77
REMARK SMILES IDX 53 78 49 79 50 80 52 81 54 82 51 83
REMARK H PARENT 10 14 1 22 1 23 71 45 45 56
REMARK Flexibility Score: inf
ROOT
ATOM      1  C   UNL A   1      34.136  34.762  27.708  1.00  0.00     0.275 C 
ENDROOT
BRANCH   1   2
ATOM      2  O   UNL A   1      34.315  35.547  28.903  1.00  0.00    -0.456 OA
BRANCH   2   3
ATOM      3  C   UNL A   1      33.167  36.069  29.424  1.00  0.00     0.374 C 
ATOM      4  O   UNL A   1      32.195  36.402  28.754  1.00  0.00    -0.242 OA
BRANCH   3   5
ATOM      5  C   UNL A   1      33.210  36.060  30.868  1.00  0.00     0.211 A 
ATOM      6  C   UNL A   1      34.220  35.545  32.767  1.00  0.00     0.124 A 
ATOM      7  C   UNL A   1      33.175  36.379  33.101  1.00  0.00     0.048 A 
ATOM      8  O   UNL A   1      34.189  35.294  31.431  1.00  0.00    -0.452 OA
ATOM      9  C   UNL A   1      32.530  36.719  31.875  1.00  0.00     0.058 A 
BRANCH   6  10
ATOM     10  C   UNL A   1      35.417  34.987  33.441  1.00  0.00     0.191 C 
BRANCH  10  11
ATOM     11  N   UNL A   1      35.469  33.547  33.428  1.00  0.00    -0.345 N 
ATOM     12  C   UNL A   1      36.326  32.746  32.709  1.00  0.00     0.253 C 
ATOM     13  O   UNL A   1      36.284  31.528  32.875  1.00  0.00    -0.269 OA
ATOM     14  H   UNL A   1      34.816  33.083  34.000  1.00  0.00     0.164 HD
BRANCH  12  15
ATOM     15  C   UNL A   1      37.231  33.307  31.667  1.00  0.00     0.062 A 
ATOM     16  C   UNL A   1      38.444  33.980  31.919  1.00  0.00     0.044 A 
ATOM     17  C   UNL A   1      39.102  34.579  30.831  1.00  0.00     0.026 A 
ATOM     18  C   UNL A   1      38.660  34.391  29.518  1.00  0.00     0.002 A 
ATOM     19  C   UNL A   1      36.813  33.088  30.341  1.00  0.00     0.016 A 
ATOM     20  C   UNL A   1      37.532  33.618  29.271  1.00  0.00     0.001 A 
BRANCH  16  21
ATOM     21  N   UNL A   1      38.966  34.196  33.196  1.00  0.00    -0.398 N 
ATOM     22  H   UNL A   1      39.591  34.941  33.352  1.00  0.00     0.156 HD
ATOM     23  H   UNL A   1      38.709  33.605  33.940  1.00  0.00     0.156 HD
ENDBRANCH  16  21
ENDBRANCH  12  15
ENDBRANCH  10  11
ENDBRANCH   6  10
ENDBRANCH   3   5
ENDBRANCH   2   3
ENDBRANCH   1   2
BRANCH   1  24
ATOM     24  C   UNL A   1      33.816  33.296  28.027  1.00  0.00     0.275 C 
BRANCH  24  25
ATOM     25  O   UNL A   1      34.831  32.384  27.555  1.00  0.00    -0.458 OA
BRANCH  25  26
ATOM     26  C   UNL A   1      34.572  31.074  27.776  1.00  0.00     0.338 C 
ATOM     27  O   UNL A   1      33.489  30.518  27.670  1.00  0.00    -0.246 OA
BRANCH  26  28
ATOM     28  C   UNL A   1      35.809  30.332  28.088  1.00  0.00     0.060 A 
ATOM     29  C   UNL A   1      35.886  29.705  29.334  1.00  0.00     0.016 A 
ATOM     30  C   UNL A   1      36.921  30.344  27.242  1.00  0.00     0.016 A 
ATOM     31  C   UNL A   1      37.078  29.120  29.757  1.00  0.00     0.010 A 
ATOM     32  C   UNL A   1      38.120  29.752  27.666  1.00  0.00     0.010 A 
ATOM     33  C   UNL A   1      38.215  29.161  28.940  1.00  0.00    -0.014 A 
BRANCH  33  34
ATOM     34  C   UNL A   1      39.507  28.657  29.475  1.00  0.00     0.031 A 
ATOM     35  C   UNL A   1      40.106  29.277  30.709  1.00  0.00     0.074 A 
ATOM     36  C   UNL A   1      40.111  27.599  28.903  1.00  0.00     0.049 A 
ATOM     37  N   UNL A   1      41.198  28.950  31.354  1.00  0.00    -0.248 NA
ATOM     38  C   UNL A   1      39.377  30.411  31.297  1.00  0.00     0.031 C 
ATOM     39  C   UNL A   1      39.629  26.890  27.719  1.00  0.00     0.029 A 
ATOM     40  N   UNL A   1      41.259  26.930  29.252  1.00  0.00    -0.354 N 
ATOM     41  C   UNL A   1      41.294  29.843  32.416  1.00  0.00     0.074 A 
ATOM     42  C   UNL A   1      40.162  30.740  32.312  1.00  0.00     0.031 C 
ATOM     43  C   UNL A   1      40.468  25.878  27.444  1.00  0.00     0.029 A 
ATOM     44  C   UNL A   1      41.560  25.883  28.416  1.00  0.00     0.049 A 
ATOM     45  H   UNL A   1      41.812  27.176  30.027  1.00  0.00     0.167 HD
ATOM     46  C   UNL A   1      42.228  29.903  33.395  1.00  0.00     0.037 A 
ATOM     47  C   UNL A   1      42.600  25.027  28.428  1.00  0.00     0.037 A 
ATOM     48  C   UNL A   1      43.351  29.008  33.512  1.00  0.00     0.049 A 
ATOM     49  C   UNL A   1      43.642  25.135  29.507  1.00  0.00     0.074 A 
ATOM     50  C   UNL A   1      44.342  28.987  34.479  1.00  0.00     0.029 A 
ATOM     51  N   UNL A   1      43.632  27.974  32.633  1.00  0.00    -0.354 N 
ATOM     52  N   UNL A   1      43.706  25.969  30.515  1.00  0.00    -0.248 NA
ATOM     53  C   UNL A   1      44.754  24.173  29.452  1.00  0.00     0.031 C 
ATOM     54  C   UNL A   1      45.241  27.961  34.167  1.00  0.00     0.029 A 
ATOM     55  C   UNL A   1      44.786  27.317  33.028  1.00  0.00     0.049 A 
ATOM     56  H   UNL A   1      43.091  27.740  31.844  1.00  0.00     0.167 HD
ATOM     57  C   UNL A   1      44.847  25.618  31.227  1.00  0.00     0.074 A 
ATOM     58  C   UNL A   1      45.437  24.486  30.544  1.00  0.00     0.031 C 
ATOM     59  C   UNL A   1      45.360  26.185  32.347  1.00  0.00     0.037 A 
BRANCH  46  60
ATOM     60  C   UNL A   1      42.085  30.992  34.417  1.00  0.00     0.057 A 
ATOM     61  C   UNL A   1      42.648  32.261  34.227  1.00  0.00     0.134 A 
ATOM     62  C   UNL A   1      41.350  30.779  35.590  1.00  0.00     0.134 A 
ATOM     63  F   UNL A   1      43.374  32.525  33.130  1.00  0.00    -0.206 F 
ATOM     64  C   UNL A   1      42.502  33.273  35.177  1.00  0.00     0.040 A 
ATOM     65  C   UNL A   1      41.179  31.791  36.537  1.00  0.00     0.040 A 
ATOM     66  F   UNL A   1      40.780  29.589  35.830  1.00  0.00    -0.206 F 
ATOM     67  C   UNL A   1      41.761  33.040  36.334  1.00  0.00     0.006 A 
ENDBRANCH  46  60
BRANCH  47  68
ATOM     68  C   UNL A   1      42.708  23.979  27.383  1.00  0.00     0.057 A 
ATOM     69  C   UNL A   1      43.317  24.244  26.152  1.00  0.00     0.134 A 
ATOM     70  C   UNL A   1      42.187  22.696  27.584  1.00  0.00     0.134 A 
ATOM     71  F   UNL A   1      43.816  25.462  25.894  1.00  0.00    -0.206 F 
ATOM     72  C   UNL A   1      43.389  23.275  25.149  1.00  0.00     0.040 A 
ATOM     73  C   UNL A   1      42.273  21.710  26.601  1.00  0.00     0.040 A 
ATOM     74  F   UNL A   1      41.592  22.382  28.745  1.00  0.00    -0.206 F 
ATOM     75  C   UNL A   1      42.871  22.002  25.375  1.00  0.00     0.006 A 
ENDBRANCH  47  68
BRANCH  59  76
ATOM     76  C   UNL A   1      46.598  25.565  32.924  1.00  0.00     0.057 A 
ATOM     77  C   UNL A   1      47.881  25.968  32.533  1.00  0.00     0.134 A 
ATOM     78  C   UNL A   1      46.504  24.566  33.903  1.00  0.00     0.134 A 
ATOM     79  F   UNL A   1      48.039  26.911  31.592  1.00  0.00    -0.206 F 
ATOM     80  C   UNL A   1      49.026  25.382  33.075  1.00  0.00     0.040 A 
ATOM     81  C   UNL A   1      47.642  23.989  34.468  1.00  0.00     0.040 A 
ATOM     82  F   UNL A   1      45.306  24.140  34.329  1.00  0.00    -0.206 F 
ATOM     83  C   UNL A   1      48.909  24.393  34.050  1.00  0.00     0.006 A 
ENDBRANCH  59  76
ENDBRANCH  33  34
ENDBRANCH  26  28
ENDBRANCH  25  26
ENDBRANCH  24  25
ENDBRANCH   1  24
TORSDOF 15
ENDMDL
