MODEL 1
REMARK VINA RESULT:     -13.4      0.000      0.000
REMARK SMILES O=C(OCCOC(=O)c1ccc(-c2c3nc(c(-c4c(F)cccc4F)c4ccc([nH]4)c(-c4c(F)cccc4F)c4nc(c(-c5c(F)cccc5F)c5ccc2[nH]5)C=C4)C=C3)cc1)c1ccc(/[NH+]=C2\S[C@@H](Cc3ccc(F)cc3)C(=O)N2Cc2ccccc2)cc1
REMARK SMILES IDX 4 1 3 2 2 3 1 4 63 5 64 6 90 7 65 8 89 9 66 10 67 11 68 12
REMARK SMILES IDX 69 14 81 15 70 16 79 17 80 18 82 19 83 20 84 21 88 22 85 23
REMARK SMILES IDX 87 24 86 25 71 26 72 27 73 28 78 29 74 30 77 31 75 32 76 33
REMARK SMILES IDX 5 34 6 35 7 36 8 37 9 38 10 39 62 40 11 41 61 42 12 43 13 44
REMARK SMILES IDX 14 45 55 46 15 47 60 48 54 49 56 50 16 51 59 52 53 53 52 54
REMARK SMILES IDX 17 56 43 57 26 58 42 59 27 60 30 61 41 62 57 63 28 64 29 65
REMARK SMILES IDX 40 67 58 68 31 69 18 70 19 71 24 72 20 73 21 74 23 75 25 76
REMARK SMILES IDX 22 77 44 78 45 79 50 80 46 81 47 82 49 83 51 84 48 85 32 86
REMARK SMILES IDX 33 87 38 88 34 89 35 90 37 91 39 92 36 93
REMARK H PARENT 67 13 56 55 30 66
REMARK Flexibility Score: inf
ROOT
ATOM      1  C   UNL A   1      43.223  21.081  25.746  1.00  0.00     0.275 C 
ENDROOT
BRANCH   1   2
ATOM      2  O   UNL A   1      41.889  21.621  25.651  1.00  0.00    -0.458 OA
BRANCH   2   3
ATOM      3  C   UNL A   1      40.781  21.386  26.396  1.00  0.00     0.338 C 
ATOM      4  O   UNL A   1      40.791  20.436  27.176  1.00  0.00    -0.246 OA
BRANCH   3   5
ATOM      5  C   UNL A   1      39.491  22.132  26.239  1.00  0.00     0.060 A 
ATOM      6  C   UNL A   1      39.175  23.348  26.839  1.00  0.00     0.020 A 
ATOM      7  C   UNL A   1      38.528  21.562  25.376  1.00  0.00     0.020 A 
ATOM      8  C   UNL A   1      38.008  24.027  26.507  1.00  0.00     0.052 A 
ATOM      9  C   UNL A   1      37.330  22.225  25.078  1.00  0.00     0.052 A 
ATOM     10  C   UNL A   1      37.082  23.475  25.626  1.00  0.00     0.125 A 
BRANCH  10  11
ATOM     11  N   UNL A   1      35.938  24.228  25.359  1.00  0.00    -0.235 N 
ATOM     12  C   UNL A   1      34.811  23.605  25.282  1.00  0.00     0.320 C 
ATOM     13  H   UNL A   1      35.989  25.204  25.233  1.00  0.00     0.313 HD
ATOM     14  S   UNL A   1      34.610  21.885  25.081  1.00  0.00    -0.022 SA
ATOM     15  N   UNL A   1      33.606  24.234  25.415  1.00  0.00    -0.186 N 
ATOM     16  C   UNL A   1      32.837  22.053  24.784  1.00  0.00     0.178 C 
ATOM     17  C   UNL A   1      32.485  23.434  25.323  1.00  0.00     0.324 C 
ATOM     18  O   UNL A   1      31.345  23.802  25.581  1.00  0.00    -0.245 OA
BRANCH  15  19
ATOM     19  C   UNL A   1      33.498  25.648  25.766  1.00  0.00     0.283 C 
BRANCH  19  20
ATOM     20  C   UNL A   1      33.537  26.587  24.570  1.00  0.00    -0.006 A 
ATOM     21  C   UNL A   1      33.526  26.091  23.260  1.00  0.00     0.008 A 
ATOM     22  C   UNL A   1      33.611  27.978  24.753  1.00  0.00     0.008 A 
ATOM     23  C   UNL A   1      33.589  26.964  22.167  1.00  0.00     0.000 A 
ATOM     24  C   UNL A   1      33.643  28.851  23.663  1.00  0.00     0.000 A 
ATOM     25  C   UNL A   1      33.638  28.344  22.369  1.00  0.00     0.000 A 
ENDBRANCH  19  20
ENDBRANCH  15  19
BRANCH  16  26
ATOM     26  C   UNL A   1      32.120  20.881  25.447  1.00  0.00     0.063 C 
BRANCH  26  27
ATOM     27  C   UNL A   1      32.527  19.544  24.882  1.00  0.00    -0.046 A 
ATOM     28  C   UNL A   1      32.903  18.507  25.748  1.00  0.00     0.007 A 
ATOM     29  C   UNL A   1      32.529  19.318  23.496  1.00  0.00     0.007 A 
ATOM     30  C   UNL A   1      33.242  17.255  25.239  1.00  0.00     0.039 A 
ATOM     31  C   UNL A   1      32.859  18.061  22.991  1.00  0.00     0.039 A 
ATOM     32  C   UNL A   1      33.206  17.041  23.868  1.00  0.00     0.123 A 
ATOM     33  F   UNL A   1      33.514  15.832  23.382  1.00  0.00    -0.207 F 
ENDBRANCH  26  27
ENDBRANCH  16  26
ENDBRANCH  10  11
ENDBRANCH   3   5
ENDBRANCH   2   3
ENDBRANCH   1   2
BRANCH   1  34
ATOM     34  C   UNL A   1      44.329  22.065  25.343  1.00  0.00     0.275 C 
BRANCH  34  35
ATOM     35  O   UNL A   1      43.827  23.248  24.697  1.00  0.00    -0.458 OA
BRANCH  35  36
ATOM     36  C   UNL A   1      44.457  24.399  25.049  1.00  0.00     0.338 C 
ATOM     37  O   UNL A   1      45.537  24.783  24.626  1.00  0.00    -0.246 OA
BRANCH  36  38
ATOM     38  C   UNL A   1      43.613  25.224  25.949  1.00  0.00     0.060 A 
ATOM     39  C   UNL A   1      44.134  26.455  26.368  1.00  0.00     0.016 A 
ATOM     40  C   UNL A   1      42.357  24.813  26.408  1.00  0.00     0.016 A 
ATOM     41  C   UNL A   1      43.436  27.243  27.287  1.00  0.00     0.010 A 
ATOM     42  C   UNL A   1      41.650  25.616  27.318  1.00  0.00     0.010 A 
ATOM     43  C   UNL A   1      42.206  26.815  27.803  1.00  0.00    -0.014 A 
BRANCH  43  44
ATOM     44  C   UNL A   1      41.615  27.536  28.966  1.00  0.00     0.031 A 
ATOM     45  C   UNL A   1      42.290  27.432  30.309  1.00  0.00     0.074 A 
ATOM     46  C   UNL A   1      40.542  28.341  28.840  1.00  0.00     0.049 A 
ATOM     47  N   UNL A   1      42.034  28.077  31.420  1.00  0.00    -0.248 NA
ATOM     48  C   UNL A   1      43.402  26.476  30.414  1.00  0.00     0.031 C 
ATOM     49  C   UNL A   1      39.789  28.558  27.611  1.00  0.00     0.029 A 
ATOM     50  N   UNL A   1      39.906  29.137  29.764  1.00  0.00    -0.354 N 
ATOM     51  C   UNL A   1      42.961  27.619  32.346  1.00  0.00     0.074 A 
ATOM     52  C   UNL A   1      43.744  26.596  31.688  1.00  0.00     0.031 C 
ATOM     53  C   UNL A   1      38.793  29.427  27.850  1.00  0.00     0.029 A 
ATOM     54  C   UNL A   1      38.840  29.838  29.252  1.00  0.00     0.049 A 
ATOM     55  H   UNL A   1      40.188  29.199  30.706  1.00  0.00     0.167 HD
ATOM     56  C   UNL A   1      43.168  28.026  33.621  1.00  0.00     0.037 A 
ATOM     57  C   UNL A   1      38.009  30.723  29.837  1.00  0.00     0.037 A 
ATOM     58  C   UNL A   1      42.401  29.039  34.294  1.00  0.00     0.049 A 
ATOM     59  C   UNL A   1      38.224  31.121  31.275  1.00  0.00     0.074 A 
ATOM     60  C   UNL A   1      42.567  29.537  35.575  1.00  0.00     0.029 A 
ATOM     61  N   UNL A   1      41.314  29.702  33.747  1.00  0.00    -0.354 N 
ATOM     62  N   UNL A   1      39.160  30.742  32.111  1.00  0.00    -0.248 NA
ATOM     63  C   UNL A   1      37.276  32.093  31.843  1.00  0.00     0.031 C 
ATOM     64  C   UNL A   1      41.548  30.464  35.823  1.00  0.00     0.029 A 
ATOM     65  C   UNL A   1      40.782  30.585  34.675  1.00  0.00     0.049 A 
ATOM     66  H   UNL A   1      40.969  29.566  32.835  1.00  0.00     0.167 HD
ATOM     67  C   UNL A   1      38.945  31.466  33.279  1.00  0.00     0.074 A 
ATOM     68  C   UNL A   1      37.791  32.307  33.045  1.00  0.00     0.031 C 
ATOM     69  C   UNL A   1      39.648  31.440  34.437  1.00  0.00     0.037 A 
BRANCH  56  70
ATOM     70  C   UNL A   1      44.279  27.359  34.378  1.00  0.00     0.057 A 
ATOM     71  C   UNL A   1      45.583  27.870  34.373  1.00  0.00     0.134 A 
ATOM     72  C   UNL A   1      44.036  26.208  35.134  1.00  0.00     0.134 A 
ATOM     73  F   UNL A   1      45.885  28.963  33.656  1.00  0.00    -0.206 F 
ATOM     74  C   UNL A   1      46.614  27.241  35.072  1.00  0.00     0.040 A 
ATOM     75  C   UNL A   1      45.052  25.585  35.860  1.00  0.00     0.040 A 
ATOM     76  F   UNL A   1      42.806  25.671  35.184  1.00  0.00    -0.206 F 
ATOM     77  C   UNL A   1      46.347  26.098  35.824  1.00  0.00     0.006 A 
ENDBRANCH  56  70
BRANCH  57  78
ATOM     78  C   UNL A   1      36.903  31.342  29.060  1.00  0.00     0.057 A 
ATOM     79  C   UNL A   1      36.968  32.678  28.646  1.00  0.00     0.134 A 
ATOM     80  C   UNL A   1      35.732  30.634  28.770  1.00  0.00     0.134 A 
ATOM     81  F   UNL A   1      38.055  33.417  28.918  1.00  0.00    -0.206 F 
ATOM     82  C   UNL A   1      35.898  33.297  28.000  1.00  0.00     0.040 A 
ATOM     83  C   UNL A   1      34.662  31.233  28.103  1.00  0.00     0.040 A 
ATOM     84  F   UNL A   1      35.607  29.350  29.139  1.00  0.00    -0.206 F 
ATOM     85  C   UNL A   1      34.739  32.573  27.726  1.00  0.00     0.006 A 
ENDBRANCH  57  78
BRANCH  69  86
ATOM     86  C   UNL A   1      39.238  32.392  35.526  1.00  0.00     0.057 A 
ATOM     87  C   UNL A   1      38.342  32.029  36.539  1.00  0.00     0.134 A 
ATOM     88  C   UNL A   1      39.778  33.685  35.576  1.00  0.00     0.134 A 
ATOM     89  F   UNL A   1      37.779  30.812  36.546  1.00  0.00    -0.206 F 
ATOM     90  C   UNL A   1      37.975  32.926  37.545  1.00  0.00     0.040 A 
ATOM     91  C   UNL A   1      39.443  34.579  36.594  1.00  0.00     0.040 A 
ATOM     92  F   UNL A   1      40.652  34.095  34.645  1.00  0.00    -0.206 F 
ATOM     93  C   UNL A   1      38.532  34.203  37.579  1.00  0.00     0.006 A 
ENDBRANCH  69  86
ENDBRANCH  43  44
ENDBRANCH  36  38
ENDBRANCH  35  36
ENDBRANCH  34  35
ENDBRANCH   1  34
TORSDOF 16
ENDMDL
MODEL 2
REMARK VINA RESULT:     -13.2      0.677      5.865
REMARK SMILES O=C(OCCOC(=O)c1ccc(-c2c3nc(c(-c4c(F)cccc4F)c4ccc([nH]4)c(-c4c(F)cccc4F)c4nc(c(-c5c(F)cccc5F)c5ccc2[nH]5)C=C4)C=C3)cc1)c1ccc(/[NH+]=C2\S[C@@H](Cc3ccc(F)cc3)C(=O)N2Cc2ccccc2)cc1
REMARK SMILES IDX 4 1 3 2 2 3 1 4 63 5 64 6 90 7 65 8 89 9 66 10 67 11 68 12
REMARK SMILES IDX 69 14 81 15 70 16 79 17 80 18 82 19 83 20 84 21 88 22 85 23
REMARK SMILES IDX 87 24 86 25 71 26 72 27 73 28 78 29 74 30 77 31 75 32 76 33
REMARK SMILES IDX 5 34 6 35 7 36 8 37 9 38 10 39 62 40 11 41 61 42 12 43 13 44
REMARK SMILES IDX 14 45 55 46 15 47 60 48 54 49 56 50 16 51 59 52 53 53 52 54
REMARK SMILES IDX 17 56 43 57 26 58 42 59 27 60 30 61 41 62 57 63 28 64 29 65
REMARK SMILES IDX 40 67 58 68 31 69 18 70 19 71 24 72 20 73 21 74 23 75 25 76
REMARK SMILES IDX 22 77 44 78 45 79 50 80 46 81 47 82 49 83 51 84 48 85 32 86
REMARK SMILES IDX 33 87 38 88 34 89 35 90 37 91 39 92 36 93
REMARK H PARENT 67 13 56 55 30 66
REMARK Flexibility Score: inf
ROOT
ATOM      1  C   UNL A   1      43.241  21.281  25.807  1.00  0.00     0.275 C 
ENDROOT
BRANCH   1   2
ATOM      2  O   UNL A   1      41.998  21.648  26.439  1.00  0.00    -0.458 OA
BRANCH   2   3
ATOM      3  C   UNL A   1      40.757  21.116  26.330  1.00  0.00     0.338 C 
ATOM      4  O   UNL A   1      40.649  19.894  26.238  1.00  0.00    -0.246 OA
BRANCH   3   5
ATOM      5  C   UNL A   1      39.505  21.927  26.184  1.00  0.00     0.060 A 
ATOM      6  C   UNL A   1      39.274  23.177  26.754  1.00  0.00     0.020 A 
ATOM      7  C   UNL A   1      38.489  21.387  25.365  1.00  0.00     0.020 A 
ATOM      8  C   UNL A   1      38.137  23.910  26.431  1.00  0.00     0.052 A 
ATOM      9  C   UNL A   1      37.322  22.106  25.078  1.00  0.00     0.052 A 
ATOM     10  C   UNL A   1      37.158  23.384  25.593  1.00  0.00     0.125 A 
BRANCH  10  11
ATOM     11  N   UNL A   1      36.050  24.192  25.332  1.00  0.00    -0.235 N 
ATOM     12  C   UNL A   1      34.903  23.617  25.197  1.00  0.00     0.320 C 
ATOM     13  H   UNL A   1      36.140  25.170  25.253  1.00  0.00     0.313 HD
ATOM     14  S   UNL A   1      34.644  21.916  24.911  1.00  0.00    -0.022 SA
ATOM     15  N   UNL A   1      33.720  24.284  25.328  1.00  0.00    -0.186 N 
ATOM     16  C   UNL A   1      32.888  22.165  24.577  1.00  0.00     0.178 C 
ATOM     17  C   UNL A   1      32.573  23.532  25.171  1.00  0.00     0.324 C 
ATOM     18  O   UNL A   1      31.440  23.932  25.417  1.00  0.00    -0.245 OA
BRANCH  15  19
ATOM     19  C   UNL A   1      33.654  25.684  25.743  1.00  0.00     0.283 C 
BRANCH  19  20
ATOM     20  C   UNL A   1      33.614  26.670  24.586  1.00  0.00    -0.006 A 
ATOM     21  C   UNL A   1      33.562  26.226  23.258  1.00  0.00     0.008 A 
ATOM     22  C   UNL A   1      33.655  28.054  24.822  1.00  0.00     0.008 A 
ATOM     23  C   UNL A   1      33.553  27.143  22.200  1.00  0.00     0.000 A 
ATOM     24  C   UNL A   1      33.615  28.970  23.767  1.00  0.00     0.000 A 
ATOM     25  C   UNL A   1      33.570  28.514  22.455  1.00  0.00     0.000 A 
ENDBRANCH  19  20
ENDBRANCH  15  19
BRANCH  16  26
ATOM     26  C   UNL A   1      32.110  20.992  25.166  1.00  0.00     0.063 C 
BRANCH  26  27
ATOM     27  C   UNL A   1      32.538  19.659  24.605  1.00  0.00    -0.046 A 
ATOM     28  C   UNL A   1      32.336  19.379  23.247  1.00  0.00     0.007 A 
ATOM     29  C   UNL A   1      33.145  18.694  25.425  1.00  0.00     0.007 A 
ATOM     30  C   UNL A   1      32.765  18.167  22.709  1.00  0.00     0.039 A 
ATOM     31  C   UNL A   1      33.581  17.487  24.882  1.00  0.00     0.039 A 
ATOM     32  C   UNL A   1      33.392  17.238  23.528  1.00  0.00     0.123 A 
ATOM     33  F   UNL A   1      33.821  16.082  23.006  1.00  0.00    -0.207 F 
ENDBRANCH  26  27
ENDBRANCH  16  26
ENDBRANCH  10  11
ENDBRANCH   3   5
ENDBRANCH   2   3
ENDBRANCH   1   2
BRANCH   1  34
ATOM     34  C   UNL A   1      43.717  22.271  24.736  1.00  0.00     0.275 C 
BRANCH  34  35
ATOM     35  O   UNL A   1      43.074  23.555  24.824  1.00  0.00    -0.458 OA
BRANCH  35  36
ATOM     36  C   UNL A   1      43.887  24.572  25.213  1.00  0.00     0.338 C 
ATOM     37  O   UNL A   1      44.995  24.815  24.762  1.00  0.00    -0.246 OA
BRANCH  36  38
ATOM     38  C   UNL A   1      43.214  25.454  26.199  1.00  0.00     0.060 A 
ATOM     39  C   UNL A   1      43.561  26.811  26.189  1.00  0.00     0.016 A 
ATOM     40  C   UNL A   1      42.288  24.985  27.137  1.00  0.00     0.016 A 
ATOM     41  C   UNL A   1      43.037  27.683  27.146  1.00  0.00     0.010 A 
ATOM     42  C   UNL A   1      41.749  25.867  28.088  1.00  0.00     0.010 A 
ATOM     43  C   UNL A   1      42.157  27.215  28.130  1.00  0.00    -0.014 A 
BRANCH  43  44
ATOM     44  C   UNL A   1      41.824  28.095  29.286  1.00  0.00     0.031 A 
ATOM     45  C   UNL A   1      40.583  28.947  29.221  1.00  0.00     0.074 A 
ATOM     46  C   UNL A   1      42.554  28.098  30.419  1.00  0.00     0.049 A 
ATOM     47  N   UNL A   1      40.028  29.680  30.156  1.00  0.00    -0.248 NA
ATOM     48  C   UNL A   1      39.871  28.976  27.935  1.00  0.00     0.031 C 
ATOM     49  C   UNL A   1      43.768  27.323  30.641  1.00  0.00     0.029 A 
ATOM     50  N   UNL A   1      42.368  28.772  31.603  1.00  0.00    -0.354 N 
ATOM     51  C   UNL A   1      38.898  30.239  29.576  1.00  0.00     0.074 A 
ATOM     52  C   UNL A   1      38.879  29.815  28.193  1.00  0.00     0.031 C 
ATOM     53  C   UNL A   1      44.223  27.561  31.883  1.00  0.00     0.029 A 
ATOM     54  C   UNL A   1      43.326  28.502  32.551  1.00  0.00     0.049 A 
ATOM     55  H   UNL A   1      41.618  29.391  31.758  1.00  0.00     0.167 HD
ATOM     56  C   UNL A   1      37.942  31.014  30.142  1.00  0.00     0.037 A 
ATOM     57  C   UNL A   1      43.458  28.945  33.817  1.00  0.00     0.037 A 
ATOM     58  C   UNL A   1      37.943  31.448  31.513  1.00  0.00     0.049 A 
ATOM     59  C   UNL A   1      42.410  29.852  34.409  1.00  0.00     0.074 A 
ATOM     60  C   UNL A   1      36.994  32.206  32.177  1.00  0.00     0.029 A 
ATOM     61  N   UNL A   1      38.946  31.175  32.429  1.00  0.00    -0.354 N 
ATOM     62  N   UNL A   1      41.302  30.302  33.874  1.00  0.00    -0.248 NA
ATOM     63  C   UNL A   1      42.624  30.293  35.798  1.00  0.00     0.031 C 
ATOM     64  C   UNL A   1      37.448  32.437  33.481  1.00  0.00     0.029 A 
ATOM     65  C   UNL A   1      38.653  31.773  33.645  1.00  0.00     0.049 A 
ATOM     66  H   UNL A   1      39.750  30.637  32.243  1.00  0.00     0.167 HD
ATOM     67  C   UNL A   1      40.664  31.031  34.873  1.00  0.00     0.074 A 
ATOM     68  C   UNL A   1      41.508  30.963  36.046  1.00  0.00     0.031 C 
ATOM     69  C   UNL A   1      39.480  31.688  34.820  1.00  0.00     0.037 A 
BRANCH  56  70
ATOM     70  C   UNL A   1      36.807  31.449  29.262  1.00  0.00     0.057 A 
ATOM     71  C   UNL A   1      36.743  32.742  28.727  1.00  0.00     0.134 A 
ATOM     72  C   UNL A   1      35.780  30.559  28.932  1.00  0.00     0.134 A 
ATOM     73  F   UNL A   1      37.689  33.647  29.018  1.00  0.00    -0.206 F 
ATOM     74  C   UNL A   1      35.681  33.143  27.916  1.00  0.00     0.040 A 
ATOM     75  C   UNL A   1      34.726  30.939  28.099  1.00  0.00     0.040 A 
ATOM     76  F   UNL A   1      35.785  29.304  29.408  1.00  0.00    -0.206 F 
ATOM     77  C   UNL A   1      34.671  32.236  27.596  1.00  0.00     0.006 A 
ENDBRANCH  56  70
BRANCH  57  78
ATOM     78  C   UNL A   1      44.612  28.512  34.648  1.00  0.00     0.057 A 
ATOM     79  C   UNL A   1      44.549  27.349  35.425  1.00  0.00     0.134 A 
ATOM     80  C   UNL A   1      45.776  29.283  34.735  1.00  0.00     0.134 A 
ATOM     81  F   UNL A   1      43.448  26.581  35.403  1.00  0.00    -0.206 F 
ATOM     82  C   UNL A   1      45.588  26.983  36.281  1.00  0.00     0.040 A 
ATOM     83  C   UNL A   1      46.834  28.918  35.570  1.00  0.00     0.040 A 
ATOM     84  F   UNL A   1      45.899  30.409  34.017  1.00  0.00    -0.206 F 
ATOM     85  C   UNL A   1      46.736  27.770  36.355  1.00  0.00     0.006 A 
ENDBRANCH  57  78
BRANCH  69  86
ATOM     86  C   UNL A   1      38.984  32.338  36.083  1.00  0.00     0.057 A 
ATOM     87  C   UNL A   1      38.191  31.656  37.014  1.00  0.00     0.134 A 
ATOM     88  C   UNL A   1      39.339  33.660  36.385  1.00  0.00     0.134 A 
ATOM     89  F   UNL A   1      37.806  30.392  36.784  1.00  0.00    -0.206 F 
ATOM     90  C   UNL A   1      37.743  32.274  38.184  1.00  0.00     0.040 A 
ATOM     91  C   UNL A   1      38.923  34.278  37.565  1.00  0.00     0.040 A 
ATOM     92  F   UNL A   1      40.107  34.369  35.545  1.00  0.00    -0.206 F 
ATOM     93  C   UNL A   1      38.115  33.586  38.466  1.00  0.00     0.006 A 
ENDBRANCH  69  86
ENDBRANCH  43  44
ENDBRANCH  36  38
ENDBRANCH  35  36
ENDBRANCH  34  35
ENDBRANCH   1  34
TORSDOF 16
ENDMDL
MODEL 3
REMARK VINA RESULT:     -13.1      4.808     10.243
REMARK SMILES O=C(OCCOC(=O)c1ccc(-c2c3nc(c(-c4c(F)cccc4F)c4ccc([nH]4)c(-c4c(F)cccc4F)c4nc(c(-c5c(F)cccc5F)c5ccc2[nH]5)C=C4)C=C3)cc1)c1ccc(/[NH+]=C2\S[C@@H](Cc3ccc(F)cc3)C(=O)N2Cc2ccccc2)cc1
REMARK SMILES IDX 4 1 3 2 2 3 1 4 63 5 64 6 90 7 65 8 89 9 66 10 67 11 68 12
REMARK SMILES IDX 69 14 81 15 70 16 79 17 80 18 82 19 83 20 84 21 88 22 85 23
REMARK SMILES IDX 87 24 86 25 71 26 72 27 73 28 78 29 74 30 77 31 75 32 76 33
REMARK SMILES IDX 5 34 6 35 7 36 8 37 9 38 10 39 62 40 11 41 61 42 12 43 13 44
REMARK SMILES IDX 14 45 55 46 15 47 60 48 54 49 56 50 16 51 59 52 53 53 52 54
REMARK SMILES IDX 17 56 43 57 26 58 42 59 27 60 30 61 41 62 57 63 28 64 29 65
REMARK SMILES IDX 40 67 58 68 31 69 18 70 19 71 24 72 20 73 21 74 23 75 25 76
REMARK SMILES IDX 22 77 44 78 45 79 50 80 46 81 47 82 49 83 51 84 48 85 32 86
REMARK SMILES IDX 33 87 38 88 34 89 35 90 37 91 39 92 36 93
REMARK H PARENT 67 13 56 55 30 66
REMARK Flexibility Score: inf
ROOT
ATOM      1  C   UNL A   1      34.385  34.137  30.535  1.00  0.00     0.275 C 
ENDROOT
BRANCH   1   2
ATOM      2  O   UNL A   1      33.921  33.273  29.478  1.00  0.00    -0.458 OA
BRANCH   2   3
ATOM      3  C   UNL A   1      34.498  32.915  28.306  1.00  0.00     0.338 C 
ATOM      4  O   UNL A   1      35.002  33.794  27.609  1.00  0.00    -0.246 OA
BRANCH   3   5
ATOM      5  C   UNL A   1      34.452  31.530  27.735  1.00  0.00     0.060 A 
ATOM      6  C   UNL A   1      35.532  30.659  27.625  1.00  0.00     0.020 A 
ATOM      7  C   UNL A   1      33.191  31.060  27.306  1.00  0.00     0.020 A 
ATOM      8  C   UNL A   1      35.349  29.341  27.219  1.00  0.00     0.052 A 
ATOM      9  C   UNL A   1      33.015  29.747  26.852  1.00  0.00     0.052 A 
ATOM     10  C   UNL A   1      34.095  28.876  26.834  1.00  0.00     0.125 A 
BRANCH  10  11
ATOM     11  N   UNL A   1      34.011  27.541  26.436  1.00  0.00    -0.235 N 
ATOM     12  C   UNL A   1      33.194  27.247  25.482  1.00  0.00     0.320 C 
ATOM     13  H   UNL A   1      34.558  26.846  26.869  1.00  0.00     0.313 HD
ATOM     14  S   UNL A   1      31.897  28.259  24.903  1.00  0.00    -0.022 SA
ATOM     15  N   UNL A   1      33.292  26.099  24.750  1.00  0.00    -0.186 N 
ATOM     16  C   UNL A   1      31.216  26.932  23.887  1.00  0.00     0.178 C 
ATOM     17  C   UNL A   1      32.354  25.927  23.752  1.00  0.00     0.324 C 
ATOM     18  O   UNL A   1      32.396  25.045  22.902  1.00  0.00    -0.245 OA
BRANCH  15  19
ATOM     19  C   UNL A   1      34.399  25.160  24.916  1.00  0.00     0.283 C 
BRANCH  19  20
ATOM     20  C   UNL A   1      34.085  23.989  25.834  1.00  0.00    -0.006 A 
ATOM     21  C   UNL A   1      32.861  23.908  26.511  1.00  0.00     0.008 A 
ATOM     22  C   UNL A   1      35.030  22.970  26.045  1.00  0.00     0.008 A 
ATOM     23  C   UNL A   1      32.594  22.839  27.375  1.00  0.00     0.000 A 
ATOM     24  C   UNL A   1      34.751  21.888  26.884  1.00  0.00     0.000 A 
ATOM     25  C   UNL A   1      33.535  21.825  27.553  1.00  0.00     0.000 A 
ENDBRANCH  19  20
ENDBRANCH  15  19
BRANCH  16  26
ATOM     26  C   UNL A   1      30.704  27.532  22.582  1.00  0.00     0.063 C 
BRANCH  26  27
ATOM     27  C   UNL A   1      29.684  28.623  22.794  1.00  0.00    -0.046 A 
ATOM     28  C   UNL A   1      28.364  28.286  23.123  1.00  0.00     0.007 A 
ATOM     29  C   UNL A   1      30.040  29.975  22.673  1.00  0.00     0.007 A 
ATOM     30  C   UNL A   1      27.423  29.285  23.362  1.00  0.00     0.039 A 
ATOM     31  C   UNL A   1      29.099  30.973  22.922  1.00  0.00     0.039 A 
ATOM     32  C   UNL A   1      27.802  30.617  23.270  1.00  0.00     0.123 A 
ATOM     33  F   UNL A   1      26.901  31.577  23.518  1.00  0.00    -0.207 F 
ENDBRANCH  26  27
ENDBRANCH  16  26
ENDBRANCH  10  11
ENDBRANCH   3   5
ENDBRANCH   2   3
ENDBRANCH   1   2
BRANCH   1  34
ATOM     34  C   UNL A   1      34.457  33.462  31.912  1.00  0.00     0.275 C 
BRANCH  34  35
ATOM     35  O   UNL A   1      35.057  32.155  31.872  1.00  0.00    -0.458 OA
BRANCH  35  36
ATOM     36  C   UNL A   1      36.206  32.035  32.587  1.00  0.00     0.338 C 
ATOM     37  O   UNL A   1      36.354  32.341  33.760  1.00  0.00    -0.246 OA
BRANCH  36  38
ATOM     38  C   UNL A   1      37.267  31.364  31.796  1.00  0.00     0.060 A 
ATOM     39  C   UNL A   1      38.166  30.546  32.491  1.00  0.00     0.016 A 
ATOM     40  C   UNL A   1      37.418  31.539  30.416  1.00  0.00     0.016 A 
ATOM     41  C   UNL A   1      39.245  29.955  31.828  1.00  0.00     0.010 A 
ATOM     42  C   UNL A   1      38.493  30.930  29.748  1.00  0.00     0.010 A 
ATOM     43  C   UNL A   1      39.443  30.172  30.458  1.00  0.00    -0.014 A 
BRANCH  43  44
ATOM     44  C   UNL A   1      40.732  29.754  29.836  1.00  0.00     0.031 A 
ATOM     45  C   UNL A   1      40.859  28.357  29.285  1.00  0.00     0.074 A 
ATOM     46  C   UNL A   1      41.762  30.609  29.680  1.00  0.00     0.049 A 
ATOM     47  N   UNL A   1      41.830  27.825  28.585  1.00  0.00    -0.248 NA
ATOM     48  C   UNL A   1      39.743  27.439  29.557  1.00  0.00     0.031 C 
ATOM     49  C   UNL A   1      41.790  31.991  30.143  1.00  0.00     0.029 A 
ATOM     50  N   UNL A   1      42.985  30.437  29.073  1.00  0.00    -0.354 N 
ATOM     51  C   UNL A   1      41.434  26.521  28.320  1.00  0.00     0.074 A 
ATOM     52  C   UNL A   1      40.166  26.321  28.987  1.00  0.00     0.031 C 
ATOM     53  C   UNL A   1      42.967  32.546  29.807  1.00  0.00     0.029 A 
ATOM     54  C   UNL A   1      43.777  31.560  29.095  1.00  0.00     0.049 A 
ATOM     55  H   UNL A   1      43.266  29.588  28.660  1.00  0.00     0.167 HD
ATOM     56  C   UNL A   1      42.050  25.578  27.568  1.00  0.00     0.037 A 
ATOM     57  C   UNL A   1      45.006  31.777  28.586  1.00  0.00     0.037 A 
ATOM     58  C   UNL A   1      43.310  25.756  26.898  1.00  0.00     0.049 A 
ATOM     59  C   UNL A   1      45.697  30.693  27.798  1.00  0.00     0.074 A 
ATOM     60  C   UNL A   1      43.987  24.862  26.086  1.00  0.00     0.029 A 
ATOM     61  N   UNL A   1      44.090  26.898  26.971  1.00  0.00    -0.354 N 
ATOM     62  N   UNL A   1      45.270  29.495  27.484  1.00  0.00    -0.248 NA
ATOM     63  C   UNL A   1      47.036  31.007  27.273  1.00  0.00     0.031 C 
ATOM     64  C   UNL A   1      45.203  25.444  25.710  1.00  0.00     0.029 A 
ATOM     65  C   UNL A   1      45.256  26.722  26.241  1.00  0.00     0.049 A 
ATOM     66  H   UNL A   1      43.853  27.714  27.468  1.00  0.00     0.167 HD
ATOM     67  C   UNL A   1      46.261  28.935  26.683  1.00  0.00     0.074 A 
ATOM     68  C   UNL A   1      47.310  29.924  26.560  1.00  0.00     0.031 C 
ATOM     69  C   UNL A   1      46.290  27.713  26.098  1.00  0.00     0.037 A 
BRANCH  56  70
ATOM     70  C   UNL A   1      41.358  24.253  27.436  1.00  0.00     0.057 A 
ATOM     71  C   UNL A   1      41.794  23.121  28.138  1.00  0.00     0.134 A 
ATOM     72  C   UNL A   1      40.234  24.114  26.615  1.00  0.00     0.134 A 
ATOM     73  F   UNL A   1      42.874  23.185  28.930  1.00  0.00    -0.206 F 
ATOM     74  C   UNL A   1      41.151  21.890  28.004  1.00  0.00     0.040 A 
ATOM     75  C   UNL A   1      39.566  22.895  26.495  1.00  0.00     0.040 A 
ATOM     76  F   UNL A   1      39.763  25.161  25.920  1.00  0.00    -0.206 F 
ATOM     77  C   UNL A   1      40.029  21.777  27.185  1.00  0.00     0.006 A 
ENDBRANCH  56  70
BRANCH  57  78
ATOM     78  C   UNL A   1      45.669  33.096  28.760  1.00  0.00     0.057 A 
ATOM     79  C   UNL A   1      45.552  34.100  27.792  1.00  0.00     0.134 A 
ATOM     80  C   UNL A   1      46.486  33.359  29.865  1.00  0.00     0.134 A 
ATOM     81  F   UNL A   1      44.803  33.898  26.696  1.00  0.00    -0.206 F 
ATOM     82  C   UNL A   1      46.246  35.306  27.899  1.00  0.00     0.040 A 
ATOM     83  C   UNL A   1      47.168  34.570  29.998  1.00  0.00     0.040 A 
ATOM     84  F   UNL A   1      46.640  32.438  30.828  1.00  0.00    -0.206 F 
ATOM     85  C   UNL A   1      47.058  35.543  29.007  1.00  0.00     0.006 A 
ENDBRANCH  57  78
BRANCH  69  86
ATOM     86  C   UNL A   1      47.463  27.390  25.213  1.00  0.00     0.057 A 
ATOM     87  C   UNL A   1      47.473  27.688  23.845  1.00  0.00     0.134 A 
ATOM     88  C   UNL A   1      48.615  26.801  25.751  1.00  0.00     0.134 A 
ATOM     89  F   UNL A   1      46.400  28.243  23.261  1.00  0.00    -0.206 F 
ATOM     90  C   UNL A   1      48.572  27.384  23.039  1.00  0.00     0.040 A 
ATOM     91  C   UNL A   1      49.731  26.521  24.963  1.00  0.00     0.040 A 
ATOM     92  F   UNL A   1      48.680  26.499  27.057  1.00  0.00    -0.206 F 
ATOM     93  C   UNL A   1      49.709  26.806  23.599  1.00  0.00     0.006 A 
ENDBRANCH  69  86
ENDBRANCH  43  44
ENDBRANCH  36  38
ENDBRANCH  35  36
ENDBRANCH  34  35
ENDBRANCH   1  34
TORSDOF 16
ENDMDL
