MODEL 1
REMARK VINA RESULT:      -9.9      0.000      0.000
REMARK SMILES O=C(OCCOC(=O)c1ccc(S(=O)(=O)Cc2ncccn2)c(F)c1)c1ccc(-c2c3nc(c(-c4c(F)cccc4F)c4ccc([nH]4)c(-c4c(F)cccc4F)c4nc(c(-c5c(F)cccc5F)c5ccc2[nH]5)C=C4)C=C3)cc1
REMARK SMILES IDX 5 1 4 2 3 3 2 4 1 5 26 6 27 7 79 8 28 9 78 10 29 11 30 12
REMARK SMILES IDX 31 13 72 14 32 15 77 16 71 17 73 18 33 19 76 20 70 21 69 22
REMARK SMILES IDX 34 24 60 25 43 26 59 27 44 28 47 29 58 30 74 31 45 32 46 33
REMARK SMILES IDX 57 35 75 36 48 37 35 38 36 39 41 40 37 41 38 42 40 43 42 44
REMARK SMILES IDX 39 45 61 46 62 47 67 48 63 49 64 50 66 51 68 52 65 53 49 54
REMARK SMILES IDX 50 55 55 56 51 57 52 58 54 59 56 60 53 61 6 62 7 63 8 64
REMARK SMILES IDX 9 65 10 66 25 67 11 68 23 69 12 70 24 71 13 72 14 73 15 74
REMARK SMILES IDX 16 75 17 76 18 77 22 78 19 79 21 80 20 81
REMARK H PARENT 73 23 47 34
REMARK Flexibility Score: inf
ROOT
ATOM      1  C   UNL A   1      32.870  35.715  31.752  1.00  0.00     0.275 C 
ENDROOT
BRANCH   1   2
ATOM      2  C   UNL A   1      32.975  36.147  30.287  1.00  0.00     0.275 C 
BRANCH   2   3
ATOM      3  O   UNL A   1      32.408  35.220  29.344  1.00  0.00    -0.458 OA
BRANCH   3   4
ATOM      4  C   UNL A   1      33.010  34.321  28.529  1.00  0.00     0.338 C 
ATOM      5  O   UNL A   1      32.348  33.809  27.626  1.00  0.00    -0.246 OA
BRANCH   4   6
ATOM      6  C   UNL A   1      34.387  33.782  28.758  1.00  0.00     0.060 A 
ATOM      7  C   UNL A   1      35.582  34.404  28.399  1.00  0.00     0.016 A 
ATOM      8  C   UNL A   1      34.468  32.529  29.402  1.00  0.00     0.016 A 
ATOM      9  C   UNL A   1      36.814  33.848  28.750  1.00  0.00     0.010 A 
ATOM     10  C   UNL A   1      35.698  31.977  29.776  1.00  0.00     0.010 A 
ATOM     11  C   UNL A   1      36.880  32.643  29.453  1.00  0.00    -0.014 A 
BRANCH  11  12
ATOM     12  C   UNL A   1      38.206  32.059  29.743  1.00  0.00     0.031 A 
ATOM     13  C   UNL A   1      39.144  32.807  30.638  1.00  0.00     0.074 A 
ATOM     14  C   UNL A   1      38.510  30.825  29.297  1.00  0.00     0.049 A 
ATOM     15  N   UNL A   1      40.288  32.419  31.137  1.00  0.00    -0.248 NA
ATOM     16  C   UNL A   1      38.722  34.151  31.066  1.00  0.00     0.031 C 
ATOM     17  C   UNL A   1      37.631  29.986  28.485  1.00  0.00     0.029 A 
ATOM     18  N   UNL A   1      39.630  30.055  29.473  1.00  0.00    -0.354 N 
ATOM     19  C   UNL A   1      40.694  33.446  31.975  1.00  0.00     0.074 A 
ATOM     20  C   UNL A   1      39.714  34.502  31.870  1.00  0.00     0.031 C 
ATOM     21  C   UNL A   1      38.255  28.831  28.203  1.00  0.00     0.029 A 
ATOM     22  C   UNL A   1      39.575  28.845  28.824  1.00  0.00     0.049 A 
ATOM     23  H   UNL A   1      40.402  30.341  30.014  1.00  0.00     0.167 HD
ATOM     24  C   UNL A   1      41.772  33.482  32.788  1.00  0.00     0.037 A 
ATOM     25  C   UNL A   1      40.489  27.859  28.747  1.00  0.00     0.037 A 
ATOM     26  C   UNL A   1      42.758  32.438  32.857  1.00  0.00     0.049 A 
ATOM     27  C   UNL A   1      41.758  27.997  29.543  1.00  0.00     0.074 A 
ATOM     28  C   UNL A   1      43.905  32.387  33.627  1.00  0.00     0.029 A 
ATOM     29  N   UNL A   1      42.716  31.269  32.112  1.00  0.00    -0.354 N 
ATOM     30  N   UNL A   1      42.111  28.952  30.369  1.00  0.00    -0.248 NA
ATOM     31  C   UNL A   1      42.742  26.913  29.421  1.00  0.00     0.031 C 
ATOM     32  C   UNL A   1      44.580  31.203  33.314  1.00  0.00     0.029 A 
ATOM     33  C   UNL A   1      43.832  30.498  32.384  1.00  0.00     0.049 A 
ATOM     34  H   UNL A   1      41.998  31.023  31.483  1.00  0.00     0.167 HD
ATOM     35  C   UNL A   1      43.339  28.571  30.890  1.00  0.00     0.074 A 
ATOM     36  C   UNL A   1      43.664  27.291  30.296  1.00  0.00     0.031 C 
ATOM     37  C   UNL A   1      44.125  29.221  31.783  1.00  0.00     0.037 A 
BRANCH  24  38
ATOM     38  C   UNL A   1      41.931  34.684  33.665  1.00  0.00     0.057 A 
ATOM     39  C   UNL A   1      42.654  35.801  33.233  1.00  0.00     0.134 A 
ATOM     40  C   UNL A   1      41.389  34.719  34.957  1.00  0.00     0.134 A 
ATOM     41  F   UNL A   1      43.191  35.830  32.005  1.00  0.00    -0.206 F 
ATOM     42  C   UNL A   1      42.844  36.908  34.061  1.00  0.00     0.040 A 
ATOM     43  C   UNL A   1      41.557  35.827  35.788  1.00  0.00     0.040 A 
ATOM     44  F   UNL A   1      40.668  33.687  35.420  1.00  0.00    -0.206 F 
ATOM     45  C   UNL A   1      42.295  36.923  35.343  1.00  0.00     0.006 A 
ENDBRANCH  24  38
BRANCH  25  46
ATOM     46  C   UNL A   1      40.233  26.658  27.909  1.00  0.00     0.057 A 
ATOM     47  C   UNL A   1      40.785  26.538  26.628  1.00  0.00     0.134 A 
ATOM     48  C   UNL A   1      39.449  25.595  28.372  1.00  0.00     0.134 A 
ATOM     49  F   UNL A   1      41.541  27.521  26.121  1.00  0.00    -0.206 F 
ATOM     50  C   UNL A   1      40.566  25.408  25.836  1.00  0.00     0.040 A 
ATOM     51  C   UNL A   1      39.241  24.449  27.601  1.00  0.00     0.040 A 
ATOM     52  F   UNL A   1      38.903  25.641  29.596  1.00  0.00    -0.206 F 
ATOM     53  C   UNL A   1      39.798  24.355  26.327  1.00  0.00     0.006 A 
ENDBRANCH  25  46
BRANCH  37  54
ATOM     54  C   UNL A   1      45.401  28.548  32.189  1.00  0.00     0.057 A 
ATOM     55  C   UNL A   1      45.401  27.563  33.184  1.00  0.00     0.134 A 
ATOM     56  C   UNL A   1      46.634  28.923  31.644  1.00  0.00     0.134 A 
ATOM     57  F   UNL A   1      44.253  27.167  33.753  1.00  0.00    -0.206 F 
ATOM     58  C   UNL A   1      46.588  26.985  33.635  1.00  0.00     0.040 A 
ATOM     59  C   UNL A   1      47.825  28.332  32.066  1.00  0.00     0.040 A 
ATOM     60  F   UNL A   1      46.697  29.853  30.678  1.00  0.00    -0.206 F 
ATOM     61  C   UNL A   1      47.804  27.368  33.072  1.00  0.00     0.006 A 
ENDBRANCH  37  54
ENDBRANCH  11  12
ENDBRANCH   4   6
ENDBRANCH   3   4
ENDBRANCH   2   3
ENDBRANCH   1   2
BRANCH   1  62
ATOM     62  O   UNL A   1      33.840  34.726  32.129  1.00  0.00    -0.458 OA
BRANCH  62  63
ATOM     63  C   UNL A   1      34.731  35.136  33.066  1.00  0.00     0.338 C 
ATOM     64  O   UNL A   1      34.779  36.217  33.626  1.00  0.00    -0.246 OA
BRANCH  63  65
ATOM     65  C   UNL A   1      35.592  34.002  33.433  1.00  0.00     0.063 A 
ATOM     66  C   UNL A   1      35.462  32.756  32.814  1.00  0.00     0.017 A 
ATOM     67  C   UNL A   1      36.539  34.202  34.439  1.00  0.00     0.056 A 
ATOM     68  C   UNL A   1      36.293  31.704  33.211  1.00  0.00     0.024 A 
ATOM     69  C   UNL A   1      37.301  33.128  34.883  1.00  0.00     0.142 A 
ATOM     70  C   UNL A   1      37.206  31.894  34.257  1.00  0.00     0.103 A 
ATOM     71  F   UNL A   1      38.101  33.316  35.940  1.00  0.00    -0.206 F 
BRANCH  70  72
ATOM     72  S   UNL A   1      38.239  30.544  34.737  1.00  0.00     0.188 S 
ATOM     73  O   UNL A   1      38.095  30.480  36.184  1.00  0.00    -0.223 OA
ATOM     74  O   UNL A   1      37.833  29.400  33.934  1.00  0.00    -0.223 OA
BRANCH  72  75
ATOM     75  C   UNL A   1      39.934  30.864  34.419  1.00  0.00     0.219 C 
BRANCH  75  76
ATOM     76  C   UNL A   1      40.877  30.048  35.242  1.00  0.00     0.143 A 
ATOM     77  N   UNL A   1      41.754  30.762  35.982  1.00  0.00    -0.240 NA
ATOM     78  N   UNL A   1      40.953  28.713  35.101  1.00  0.00    -0.240 NA
ATOM     79  C   UNL A   1      42.752  30.083  36.580  1.00  0.00     0.115 A 
ATOM     80  C   UNL A   1      41.977  28.082  35.707  1.00  0.00     0.115 A 
ATOM     81  C   UNL A   1      42.924  28.727  36.460  1.00  0.00     0.040 A 
ENDBRANCH  75  76
ENDBRANCH  72  75
ENDBRANCH  70  72
ENDBRANCH  63  65
ENDBRANCH  62  63
ENDBRANCH   1  62
TORSDOF 14
ENDMDL
MODEL 2
REMARK VINA RESULT:      -9.9      5.511     11.166
REMARK SMILES O=C(OCCOC(=O)c1ccc(S(=O)(=O)Cc2ncccn2)c(F)c1)c1ccc(-c2c3nc(c(-c4c(F)cccc4F)c4ccc([nH]4)c(-c4c(F)cccc4F)c4nc(c(-c5c(F)cccc5F)c5ccc2[nH]5)C=C4)C=C3)cc1
REMARK SMILES IDX 5 1 4 2 3 3 2 4 1 5 26 6 27 7 79 8 28 9 78 10 29 11 30 12
REMARK SMILES IDX 31 13 72 14 32 15 77 16 71 17 73 18 33 19 76 20 70 21 69 22
REMARK SMILES IDX 34 24 60 25 43 26 59 27 44 28 47 29 58 30 74 31 45 32 46 33
REMARK SMILES IDX 57 35 75 36 48 37 35 38 36 39 41 40 37 41 38 42 40 43 42 44
REMARK SMILES IDX 39 45 61 46 62 47 67 48 63 49 64 50 66 51 68 52 65 53 49 54
REMARK SMILES IDX 50 55 55 56 51 57 52 58 54 59 56 60 53 61 6 62 7 63 8 64
REMARK SMILES IDX 9 65 10 66 25 67 11 68 23 69 12 70 24 71 13 72 14 73 15 74
REMARK SMILES IDX 16 75 17 76 18 77 22 78 19 79 21 80 20 81
REMARK H PARENT 73 23 47 34
REMARK Flexibility Score: inf
ROOT
ATOM      1  C   UNL A   1      44.327  19.640  24.207  1.00  0.00     0.275 C 
ENDROOT
BRANCH   1   2
ATOM      2  C   UNL A   1      43.617  19.010  25.408  1.00  0.00     0.275 C 
BRANCH   2   3
ATOM      3  O   UNL A   1      42.187  18.919  25.282  1.00  0.00    -0.458 OA
BRANCH   3   4
ATOM      4  C   UNL A   1      41.206  19.605  25.915  1.00  0.00     0.338 C 
ATOM      5  O   UNL A   1      40.039  19.247  25.757  1.00  0.00    -0.246 OA
BRANCH   4   6
ATOM      6  C   UNL A   1      41.434  20.879  26.666  1.00  0.00     0.060 A 
ATOM      7  C   UNL A   1      41.576  21.004  28.047  1.00  0.00     0.016 A 
ATOM      8  C   UNL A   1      41.516  22.055  25.891  1.00  0.00     0.016 A 
ATOM      9  C   UNL A   1      41.880  22.236  28.630  1.00  0.00     0.010 A 
ATOM     10  C   UNL A   1      41.842  23.288  26.464  1.00  0.00     0.010 A 
ATOM     11  C   UNL A   1      42.032  23.380  27.843  1.00  0.00    -0.014 A 
BRANCH  11  12
ATOM     12  C   UNL A   1      42.287  24.675  28.509  1.00  0.00     0.031 A 
ATOM     13  C   UNL A   1      43.657  24.954  29.043  1.00  0.00     0.074 A 
ATOM     14  C   UNL A   1      41.330  25.621  28.528  1.00  0.00     0.049 A 
ATOM     15  N   UNL A   1      44.138  26.066  29.530  1.00  0.00    -0.248 NA
ATOM     16  C   UNL A   1      44.631  23.850  28.981  1.00  0.00     0.031 C 
ATOM     17  C   UNL A   1      39.990  25.472  27.964  1.00  0.00     0.029 A 
ATOM     18  N   UNL A   1      41.338  26.898  29.026  1.00  0.00    -0.354 N 
ATOM     19  C   UNL A   1      45.477  25.812  29.783  1.00  0.00     0.074 A 
ATOM     20  C   UNL A   1      45.722  24.426  29.460  1.00  0.00     0.031 C 
ATOM     21  C   UNL A   1      39.291  26.599  28.174  1.00  0.00     0.029 A 
ATOM     22  C   UNL A   1      40.138  27.554  28.881  1.00  0.00     0.049 A 
ATOM     23  H   UNL A   1      42.128  27.308  29.447  1.00  0.00     0.167 HD
ATOM     24  C   UNL A   1      46.423  26.677  30.210  1.00  0.00     0.037 A 
ATOM     25  C   UNL A   1      39.771  28.789  29.272  1.00  0.00     0.037 A 
ATOM     26  C   UNL A   1      46.158  28.046  30.560  1.00  0.00     0.049 A 
ATOM     27  C   UNL A   1      40.811  29.680  29.893  1.00  0.00     0.074 A 
ATOM     28  C   UNL A   1      47.040  29.000  31.031  1.00  0.00     0.029 A 
ATOM     29  N   UNL A   1      44.910  28.646  30.490  1.00  0.00    -0.354 N 
ATOM     30  N   UNL A   1      42.087  29.446  30.085  1.00  0.00    -0.248 NA
ATOM     31  C   UNL A   1      40.373  31.014  30.326  1.00  0.00     0.031 C 
ATOM     32  C   UNL A   1      46.315  30.167  31.288  1.00  0.00     0.029 A 
ATOM     33  C   UNL A   1      44.992  29.953  30.934  1.00  0.00     0.049 A 
ATOM     34  H   UNL A   1      44.087  28.207  30.170  1.00  0.00     0.167 HD
ATOM     35  C   UNL A   1      42.612  30.609  30.628  1.00  0.00     0.074 A 
ATOM     36  C   UNL A   1      41.518  31.554  30.724  1.00  0.00     0.031 C 
ATOM     37  C   UNL A   1      43.885  30.874  31.011  1.00  0.00     0.037 A 
BRANCH  24  38
ATOM     38  C   UNL A   1      47.825  26.164  30.314  1.00  0.00     0.057 A 
ATOM     39  C   UNL A   1      48.357  25.763  31.545  1.00  0.00     0.134 A 
ATOM     40  C   UNL A   1      48.661  26.096  29.191  1.00  0.00     0.134 A 
ATOM     41  F   UNL A   1      47.605  25.799  32.655  1.00  0.00    -0.206 F 
ATOM     42  C   UNL A   1      49.677  25.325  31.658  1.00  0.00     0.040 A 
ATOM     43  C   UNL A   1      49.977  25.642  29.289  1.00  0.00     0.040 A 
ATOM     44  F   UNL A   1      48.202  26.445  27.980  1.00  0.00    -0.206 F 
ATOM     45  C   UNL A   1      50.491  25.264  30.528  1.00  0.00     0.006 A 
ENDBRANCH  24  38
BRANCH  25  46
ATOM     46  C   UNL A   1      38.375  29.259  29.072  1.00  0.00     0.057 A 
ATOM     47  C   UNL A   1      37.453  29.258  30.126  1.00  0.00     0.134 A 
ATOM     48  C   UNL A   1      37.933  29.737  27.834  1.00  0.00     0.134 A 
ATOM     49  F   UNL A   1      37.809  28.809  31.338  1.00  0.00    -0.206 F 
ATOM     50  C   UNL A   1      36.143  29.712  29.957  1.00  0.00     0.040 A 
ATOM     51  C   UNL A   1      36.632  30.216  27.655  1.00  0.00     0.040 A 
ATOM     52  F   UNL A   1      38.770  29.778  26.787  1.00  0.00    -0.206 F 
ATOM     53  C   UNL A   1      35.732  30.201  28.720  1.00  0.00     0.006 A 
ENDBRANCH  25  46
BRANCH  37  54
ATOM     54  C   UNL A   1      44.169  32.245  31.545  1.00  0.00     0.057 A 
ATOM     55  C   UNL A   1      44.522  33.288  30.680  1.00  0.00     0.134 A 
ATOM     56  C   UNL A   1      44.159  32.514  32.918  1.00  0.00     0.134 A 
ATOM     57  F   UNL A   1      44.559  33.092  29.354  1.00  0.00    -0.206 F 
ATOM     58  C   UNL A   1      44.871  34.549  31.165  1.00  0.00     0.040 A 
ATOM     59  C   UNL A   1      44.479  33.778  33.414  1.00  0.00     0.040 A 
ATOM     60  F   UNL A   1      43.818  31.558  33.797  1.00  0.00    -0.206 F 
ATOM     61  C   UNL A   1      44.846  34.796  32.536  1.00  0.00     0.006 A 
ENDBRANCH  37  54
ENDBRANCH  11  12
ENDBRANCH   4   6
ENDBRANCH   3   4
ENDBRANCH   2   3
ENDBRANCH   1   2
BRANCH   1  62
ATOM     62  O   UNL A   1      44.574  21.046  24.361  1.00  0.00    -0.458 OA
BRANCH  62  63
ATOM     63  C   UNL A   1      45.861  21.367  24.644  1.00  0.00     0.338 C 
ATOM     64  O   UNL A   1      46.818  20.616  24.711  1.00  0.00    -0.246 OA
BRANCH  63  65
ATOM     65  C   UNL A   1      45.980  22.830  24.730  1.00  0.00     0.063 A 
ATOM     66  C   UNL A   1      47.186  23.482  24.457  1.00  0.00     0.017 A 
ATOM     67  C   UNL A   1      44.850  23.553  25.114  1.00  0.00     0.056 A 
ATOM     68  C   UNL A   1      47.252  24.874  24.571  1.00  0.00     0.024 A 
ATOM     69  C   UNL A   1      44.950  24.926  25.305  1.00  0.00     0.142 A 
ATOM     70  C   UNL A   1      46.130  25.592  25.007  1.00  0.00     0.103 A 
ATOM     71  F   UNL A   1      43.890  25.573  25.805  1.00  0.00    -0.206 F 
BRANCH  70  72
ATOM     72  S   UNL A   1      46.248  27.349  25.143  1.00  0.00     0.188 S 
ATOM     73  O   UNL A   1      47.644  27.638  24.846  1.00  0.00    -0.223 OA
ATOM     74  O   UNL A   1      45.212  27.906  24.287  1.00  0.00    -0.223 OA
BRANCH  72  75
ATOM     75  C   UNL A   1      45.963  27.905  26.783  1.00  0.00     0.219 C 
BRANCH  75  76
ATOM     76  C   UNL A   1      45.533  29.333  26.880  1.00  0.00     0.143 A 
ATOM     77  N   UNL A   1      44.253  29.518  27.271  1.00  0.00    -0.240 NA
ATOM     78  N   UNL A   1      46.315  30.331  26.433  1.00  0.00    -0.240 NA
ATOM     79  C   UNL A   1      43.755  30.766  27.179  1.00  0.00     0.115 A 
ATOM     80  C   UNL A   1      45.766  31.558  26.346  1.00  0.00     0.115 A 
ATOM     81  C   UNL A   1      44.471  31.834  26.701  1.00  0.00     0.040 A 
ENDBRANCH  75  76
ENDBRANCH  72  75
ENDBRANCH  70  72
ENDBRANCH  63  65
ENDBRANCH  62  63
ENDBRANCH   1  62
TORSDOF 14
ENDMDL
MODEL 3
REMARK VINA RESULT:      -9.9      4.394      7.151
REMARK SMILES O=C(OCCOC(=O)c1ccc(S(=O)(=O)Cc2ncccn2)c(F)c1)c1ccc(-c2c3nc(c(-c4c(F)cccc4F)c4ccc([nH]4)c(-c4c(F)cccc4F)c4nc(c(-c5c(F)cccc5F)c5ccc2[nH]5)C=C4)C=C3)cc1
REMARK SMILES IDX 5 1 4 2 3 3 2 4 1 5 26 6 27 7 79 8 28 9 78 10 29 11 30 12
REMARK SMILES IDX 31 13 72 14 32 15 77 16 71 17 73 18 33 19 76 20 70 21 69 22
REMARK SMILES IDX 34 24 60 25 43 26 59 27 44 28 47 29 58 30 74 31 45 32 46 33
REMARK SMILES IDX 57 35 75 36 48 37 35 38 36 39 41 40 37 41 38 42 40 43 42 44
REMARK SMILES IDX 39 45 61 46 62 47 67 48 63 49 64 50 66 51 68 52 65 53 49 54
REMARK SMILES IDX 50 55 55 56 51 57 52 58 54 59 56 60 53 61 6 62 7 63 8 64
REMARK SMILES IDX 9 65 10 66 25 67 11 68 23 69 12 70 24 71 13 72 14 73 15 74
REMARK SMILES IDX 16 75 17 76 18 77 22 78 19 79 21 80 20 81
REMARK H PARENT 73 23 47 34
REMARK Flexibility Score: inf
ROOT
ATOM      1  C   UNL A   1      32.167  31.061  26.358  1.00  0.00     0.275 C 
ENDROOT
BRANCH   1   2
ATOM      2  C   UNL A   1      31.433  32.268  26.949  1.00  0.00     0.275 C 
BRANCH   2   3
ATOM      3  O   UNL A   1      32.216  33.473  27.019  1.00  0.00    -0.458 OA
BRANCH   3   4
ATOM      4  C   UNL A   1      32.926  33.998  28.046  1.00  0.00     0.338 C 
ATOM      5  O   UNL A   1      32.580  35.085  28.508  1.00  0.00    -0.246 OA
BRANCH   4   6
ATOM      6  C   UNL A   1      34.211  33.419  28.549  1.00  0.00     0.060 A 
ATOM      7  C   UNL A   1      35.494  33.834  28.192  1.00  0.00     0.016 A 
ATOM      8  C   UNL A   1      34.099  32.358  29.472  1.00  0.00     0.016 A 
ATOM      9  C   UNL A   1      36.623  33.279  28.799  1.00  0.00     0.010 A 
ATOM     10  C   UNL A   1      35.224  31.813  30.100  1.00  0.00     0.010 A 
ATOM     11  C   UNL A   1      36.495  32.280  29.767  1.00  0.00    -0.014 A 
BRANCH  11  12
ATOM     12  C   UNL A   1      37.720  31.675  30.333  1.00  0.00     0.031 A 
ATOM     13  C   UNL A   1      38.123  32.035  31.728  1.00  0.00     0.074 A 
ATOM     14  C   UNL A   1      38.388  30.735  29.639  1.00  0.00     0.049 A 
ATOM     15  N   UNL A   1      39.068  31.521  32.469  1.00  0.00    -0.248 NA
ATOM     16  C   UNL A   1      37.331  33.080  32.400  1.00  0.00     0.031 C 
ATOM     17  C   UNL A   1      38.027  30.261  28.305  1.00  0.00     0.029 A 
ATOM     18  N   UNL A   1      39.498  29.999  29.961  1.00  0.00    -0.354 N 
ATOM     19  C   UNL A   1      38.952  32.140  33.703  1.00  0.00     0.074 A 
ATOM     20  C   UNL A   1      37.891  33.115  33.599  1.00  0.00     0.031 C 
ATOM     21  C   UNL A   1      38.916  29.337  27.905  1.00  0.00     0.029 A 
ATOM     22  C   UNL A   1      39.905  29.148  28.960  1.00  0.00     0.049 A 
ATOM     23  H   UNL A   1      39.961  30.071  30.827  1.00  0.00     0.167 HD
ATOM     24  C   UNL A   1      39.647  31.885  34.833  1.00  0.00     0.037 A 
ATOM     25  C   UNL A   1      40.957  28.308  28.909  1.00  0.00     0.037 A 
ATOM     26  C   UNL A   1      40.724  30.936  34.913  1.00  0.00     0.049 A 
ATOM     27  C   UNL A   1      41.813  28.160  30.137  1.00  0.00     0.074 A 
ATOM     28  C   UNL A   1      41.514  30.621  36.003  1.00  0.00     0.029 A 
ATOM     29  N   UNL A   1      41.169  30.162  33.852  1.00  0.00    -0.354 N 
ATOM     30  N   UNL A   1      41.666  28.717  31.315  1.00  0.00    -0.248 NA
ATOM     31  C   UNL A   1      42.963  27.251  30.041  1.00  0.00     0.031 C 
ATOM     32  C   UNL A   1      42.467  29.686  35.588  1.00  0.00     0.029 A 
ATOM     33  C   UNL A   1      42.241  29.386  34.254  1.00  0.00     0.049 A 
ATOM     34  H   UNL A   1      40.779  30.163  32.947  1.00  0.00     0.167 HD
ATOM     35  C   UNL A   1      42.680  28.203  32.110  1.00  0.00     0.074 A 
ATOM     36  C   UNL A   1      43.429  27.279  31.283  1.00  0.00     0.031 C 
ATOM     37  C   UNL A   1      42.963  28.468  33.409  1.00  0.00     0.037 A 
BRANCH  24  38
ATOM     38  C   UNL A   1      39.256  32.640  36.065  1.00  0.00     0.057 A 
ATOM     39  C   UNL A   1      39.800  33.900  36.340  1.00  0.00     0.134 A 
ATOM     40  C   UNL A   1      38.360  32.100  36.997  1.00  0.00     0.134 A 
ATOM     41  F   UNL A   1      40.659  34.472  35.484  1.00  0.00    -0.206 F 
ATOM     42  C   UNL A   1      39.475  34.591  37.508  1.00  0.00     0.040 A 
ATOM     43  C   UNL A   1      38.014  32.789  38.159  1.00  0.00     0.040 A 
ATOM     44  F   UNL A   1      37.789  30.906  36.777  1.00  0.00    -0.206 F 
ATOM     45  C   UNL A   1      38.580  34.036  38.421  1.00  0.00     0.006 A 
ENDBRANCH  24  38
BRANCH  25  46
ATOM     46  C   UNL A   1      41.243  27.535  27.673  1.00  0.00     0.057 A 
ATOM     47  C   UNL A   1      40.726  26.246  27.490  1.00  0.00     0.134 A 
ATOM     48  C   UNL A   1      42.019  28.067  26.638  1.00  0.00     0.134 A 
ATOM     49  F   UNL A   1      39.979  25.674  28.444  1.00  0.00    -0.206 F 
ATOM     50  C   UNL A   1      40.973  25.514  26.326  1.00  0.00     0.040 A 
ATOM     51  C   UNL A   1      42.254  27.357  25.458  1.00  0.00     0.040 A 
ATOM     52  F   UNL A   1      42.531  29.302  26.744  1.00  0.00    -0.206 F 
ATOM     53  C   UNL A   1      41.732  26.073  25.302  1.00  0.00     0.006 A 
ENDBRANCH  25  46
BRANCH  37  54
ATOM     54  C   UNL A   1      44.117  27.734  34.021  1.00  0.00     0.057 A 
ATOM     55  C   UNL A   1      43.924  26.492  34.641  1.00  0.00     0.134 A 
ATOM     56  C   UNL A   1      45.402  28.286  34.058  1.00  0.00     0.134 A 
ATOM     57  F   UNL A   1      42.713  25.915  34.649  1.00  0.00    -0.206 F 
ATOM     58  C   UNL A   1      44.968  25.833  35.290  1.00  0.00     0.040 A 
ATOM     59  C   UNL A   1      46.460  27.623  34.678  1.00  0.00     0.040 A 
ATOM     60  F   UNL A   1      45.652  29.467  33.471  1.00  0.00    -0.206 F 
ATOM     61  C   UNL A   1      46.242  26.398  35.306  1.00  0.00     0.006 A 
ENDBRANCH  37  54
ENDBRANCH  11  12
ENDBRANCH   4   6
ENDBRANCH   3   4
ENDBRANCH   2   3
ENDBRANCH   1   2
BRANCH   1  62
ATOM     62  O   UNL A   1      32.220  29.934  27.244  1.00  0.00    -0.458 OA
BRANCH  62  63
ATOM     63  C   UNL A   1      33.353  29.193  27.150  1.00  0.00     0.338 C 
ATOM     64  O   UNL A   1      34.478  29.507  27.498  1.00  0.00    -0.246 OA
BRANCH  63  65
ATOM     65  C   UNL A   1      33.005  27.847  26.675  1.00  0.00     0.063 A 
ATOM     66  C   UNL A   1      31.717  27.327  26.833  1.00  0.00     0.017 A 
ATOM     67  C   UNL A   1      34.011  27.088  26.074  1.00  0.00     0.056 A 
ATOM     68  C   UNL A   1      31.441  26.034  26.380  1.00  0.00     0.024 A 
ATOM     69  C   UNL A   1      33.747  25.775  25.704  1.00  0.00     0.142 A 
ATOM     70  C   UNL A   1      32.466  25.256  25.825  1.00  0.00     0.103 A 
ATOM     71  F   UNL A   1      34.765  25.028  25.258  1.00  0.00    -0.206 F 
BRANCH  70  72
ATOM     72  S   UNL A   1      32.085  23.624  25.265  1.00  0.00     0.188 S 
ATOM     73  O   UNL A   1      30.630  23.568  25.290  1.00  0.00    -0.223 OA
ATOM     74  O   UNL A   1      32.779  23.443  23.999  1.00  0.00    -0.223 OA
BRANCH  72  75
ATOM     75  C   UNL A   1      32.649  22.394  26.382  1.00  0.00     0.219 C 
BRANCH  75  76
ATOM     76  C   UNL A   1      32.990  21.090  25.737  1.00  0.00     0.143 A 
ATOM     77  N   UNL A   1      34.313  20.852  25.595  1.00  0.00    -0.240 NA
ATOM     78  N   UNL A   1      32.042  20.314  25.183  1.00  0.00    -0.240 NA
ATOM     79  C   UNL A   1      34.671  19.795  24.841  1.00  0.00     0.115 A 
ATOM     80  C   UNL A   1      32.451  19.277  24.427  1.00  0.00     0.115 A 
ATOM     81  C   UNL A   1      33.771  18.973  24.212  1.00  0.00     0.040 A 
ENDBRANCH  75  76
ENDBRANCH  72  75
ENDBRANCH  70  72
ENDBRANCH  63  65
ENDBRANCH  62  63
ENDBRANCH   1  62
TORSDOF 14
ENDMDL
