MODEL 1
REMARK VINA RESULT:     -12.2      0.000      0.000
REMARK SMILES O=C(CSc1nc(O)cc(=O)[nH]1)Nc1cccc(C(=O)OCCOC(=O)c2ccc(-c3c4nc(c(-c5c(F)cccc5F)c5ccc([nH]5)c(-c5c(F)cccc5F)c5nc(c(-c6c(F)cccc6F)c6ccc3[nH]6)C=C5)C=C4)cc2)c1
REMARK SMILES IDX 21 1 19 2 20 3 18 4 14 5 15 6 81 7 16 8 17 9 13 10 1 11 2 12
REMARK SMILES IDX 3 14 4 15 5 16 6 17 12 18 7 19 10 20 9 22 11 23 8 24 22 26
REMARK SMILES IDX 23 27 24 28 25 29 26 30 27 31 28 32 80 33 29 34 79 35 30 36
REMARK SMILES IDX 31 37 32 38 73 39 33 40 78 41 72 42 74 43 34 44 77 45 71 46
REMARK SMILES IDX 70 47 35 49 61 50 44 51 60 52 45 53 48 54 59 55 75 56 46 57
REMARK SMILES IDX 47 58 58 60 76 61 49 62 36 63 37 64 42 65 38 66 39 67 41 68
REMARK SMILES IDX 43 69 40 70 62 71 63 72 68 73 64 74 65 75 67 76 69 77 66 78
REMARK SMILES IDX 50 79 51 80 56 81 52 82 53 83 55 84 57 85 54 86
REMARK H PARENT 13 13 12 21 8 25 74 48 48 59
REMARK Flexibility Score: inf
ROOT
ATOM      1  O   UNL A   1      41.505  21.265  25.515  1.00  0.00    -0.458 OA
ENDROOT
BRANCH   1   2
ATOM      2  C   UNL A   1      40.472  20.933  26.328  1.00  0.00     0.338 C 
ATOM      3  O   UNL A   1      40.429  19.992  27.104  1.00  0.00    -0.246 OA
BRANCH   2   4
ATOM      4  C   UNL A   1      39.412  21.969  26.258  1.00  0.00     0.062 A 
ATOM      5  C   UNL A   1      37.196  22.711  25.630  1.00  0.00     0.042 A 
ATOM      6  C   UNL A   1      37.524  24.010  26.038  1.00  0.00     0.026 A 
ATOM      7  C   UNL A   1      38.158  21.700  25.700  1.00  0.00     0.041 A 
ATOM      8  C   UNL A   1      38.760  24.272  26.626  1.00  0.00     0.003 A 
ATOM      9  C   UNL A   1      39.685  23.242  26.773  1.00  0.00     0.016 A 
BRANCH   5  10
ATOM     10  N   UNL A   1      35.876  22.495  25.193  1.00  0.00    -0.325 N 
ATOM     11  O   UNL A   1      36.142  22.718  22.892  1.00  0.00    -0.274 OA
ATOM     12  C   UNL A   1      35.442  22.510  23.881  1.00  0.00     0.234 C 
ATOM     13  H   UNL A   1      35.199  22.317  25.885  1.00  0.00     0.169 HD
BRANCH  12  14
ATOM     14  C   UNL A   1      33.953  22.275  23.711  1.00  0.00     0.178 C 
BRANCH  14  15
ATOM     15  S   UNL A   1      33.207  21.303  25.046  1.00  0.00    -0.078 SA
BRANCH  15  16
ATOM     16  C   UNL A   1      33.278  19.698  24.385  1.00  0.00     0.172 A 
ATOM     17  N   UNL A   1      32.482  19.361  23.427  1.00  0.00    -0.189 NA
ATOM     18  N   UNL A   1      34.241  18.899  24.913  1.00  0.00    -0.301 N 
ATOM     19  C   UNL A   1      32.650  18.101  22.928  1.00  0.00     0.218 A 
ATOM     20  C   UNL A   1      34.440  17.633  24.453  1.00  0.00     0.255 A 
ATOM     21  H   UNL A   1      34.805  19.242  25.643  1.00  0.00     0.172 HD
ATOM     22  C   UNL A   1      33.553  17.218  23.361  1.00  0.00     0.139 A 
ATOM     23  O   UNL A   1      35.308  16.895  24.898  1.00  0.00    -0.269 OA
BRANCH  19  24
ATOM     24  O   UNL A   1      31.829  17.764  21.886  1.00  0.00    -0.493 OA
ATOM     25  H   UNL A   1      32.017  18.075  21.022  1.00  0.00     0.295 HD
ENDBRANCH  19  24
ENDBRANCH  15  16
ENDBRANCH  14  15
ENDBRANCH  12  14
ENDBRANCH   5  10
ENDBRANCH   2   4
ENDBRANCH   1   2
BRANCH   1  26
ATOM     26  C   UNL A   1      42.832  21.012  26.024  1.00  0.00     0.275 C 
BRANCH  26  27
ATOM     27  C   UNL A   1      43.865  21.857  25.281  1.00  0.00     0.275 C 
BRANCH  27  28
ATOM     28  O   UNL A   1      43.276  23.120  24.925  1.00  0.00    -0.458 OA
BRANCH  28  29
ATOM     29  C   UNL A   1      44.024  24.217  25.163  1.00  0.00     0.338 C 
ATOM     30  O   UNL A   1      45.096  24.522  24.663  1.00  0.00    -0.246 OA
BRANCH  29  31
ATOM     31  C   UNL A   1      43.323  25.067  26.136  1.00  0.00     0.060 A 
ATOM     32  C   UNL A   1      43.350  26.448  25.962  1.00  0.00     0.016 A 
ATOM     33  C   UNL A   1      42.743  24.514  27.276  1.00  0.00     0.016 A 
ATOM     34  C   UNL A   1      42.861  27.295  26.953  1.00  0.00     0.010 A 
ATOM     35  C   UNL A   1      42.187  25.362  28.241  1.00  0.00     0.010 A 
ATOM     36  C   UNL A   1      42.274  26.762  28.109  1.00  0.00    -0.014 A 
BRANCH  36  37
ATOM     37  C   UNL A   1      41.842  27.659  29.215  1.00  0.00     0.031 A 
ATOM     38  C   UNL A   1      42.641  27.709  30.491  1.00  0.00     0.074 A 
ATOM     39  C   UNL A   1      40.765  28.458  29.080  1.00  0.00     0.049 A 
ATOM     40  N   UNL A   1      42.358  28.295  31.627  1.00  0.00    -0.248 NA
ATOM     41  C   UNL A   1      43.928  26.995  30.489  1.00  0.00     0.031 C 
ATOM     42  C   UNL A   1      39.930  28.564  27.883  1.00  0.00     0.029 A 
ATOM     43  N   UNL A   1      40.193  29.341  29.964  1.00  0.00    -0.354 N 
ATOM     44  C   UNL A   1      43.397  27.971  32.489  1.00  0.00     0.074 A 
ATOM     45  C   UNL A   1      44.320  27.139  31.746  1.00  0.00     0.031 C 
ATOM     46  C   UNL A   1      38.976  29.486  28.094  1.00  0.00     0.029 A 
ATOM     47  C   UNL A   1      39.086  29.981  29.463  1.00  0.00     0.049 A 
ATOM     48  H   UNL A   1      40.545  29.501  30.870  1.00  0.00     0.167 HD
ATOM     49  C   UNL A   1      43.568  28.332  33.783  1.00  0.00     0.037 A 
ATOM     50  C   UNL A   1      38.235  30.845  30.049  1.00  0.00     0.037 A 
ATOM     51  C   UNL A   1      42.685  29.207  34.508  1.00  0.00     0.049 A 
ATOM     52  C   UNL A   1      38.433  31.218  31.491  1.00  0.00     0.074 A 
ATOM     53  C   UNL A   1      42.775  29.630  35.823  1.00  0.00     0.029 A 
ATOM     54  N   UNL A   1      41.559  29.812  33.970  1.00  0.00    -0.354 N 
ATOM     55  N   UNL A   1      39.380  30.847  32.319  1.00  0.00    -0.248 NA
ATOM     56  C   UNL A   1      37.430  32.114  32.088  1.00  0.00     0.031 C 
ATOM     57  C   UNL A   1      41.692  30.477  36.087  1.00  0.00     0.029 A 
ATOM     58  C   UNL A   1      40.946  30.603  34.927  1.00  0.00     0.049 A 
ATOM     59  H   UNL A   1      41.244  29.696  33.045  1.00  0.00     0.167 HD
ATOM     60  C   UNL A   1      39.094  31.468  33.527  1.00  0.00     0.074 A 
ATOM     61  C   UNL A   1      37.896  32.257  33.321  1.00  0.00     0.031 C 
ATOM     62  C   UNL A   1      39.759  31.387  34.704  1.00  0.00     0.037 A 
BRANCH  49  63
ATOM     63  C   UNL A   1      44.741  27.748  34.510  1.00  0.00     0.057 A 
ATOM     64  C   UNL A   1      45.980  28.397  34.569  1.00  0.00     0.134 A 
ATOM     65  C   UNL A   1      44.621  26.520  35.177  1.00  0.00     0.134 A 
ATOM     66  F   UNL A   1      46.165  29.567  33.938  1.00  0.00    -0.206 F 
ATOM     67  C   UNL A   1      47.065  27.837  35.248  1.00  0.00     0.040 A 
ATOM     68  C   UNL A   1      45.691  25.962  35.876  1.00  0.00     0.040 A 
ATOM     69  F   UNL A   1      43.460  25.849  35.162  1.00  0.00    -0.206 F 
ATOM     70  C   UNL A   1      46.920  26.618  35.908  1.00  0.00     0.006 A 
ENDBRANCH  49  63
BRANCH  50  71
ATOM     71  C   UNL A   1      37.094  31.398  29.277  1.00  0.00     0.057 A 
ATOM     72  C   UNL A   1      35.945  30.637  29.044  1.00  0.00     0.134 A 
ATOM     73  C   UNL A   1      37.129  32.696  28.753  1.00  0.00     0.134 A 
ATOM     74  F   UNL A   1      35.866  29.378  29.498  1.00  0.00    -0.206 F 
ATOM     75  C   UNL A   1      34.870  31.143  28.312  1.00  0.00     0.040 A 
ATOM     76  C   UNL A   1      36.053  33.224  28.040  1.00  0.00     0.040 A 
ATOM     77  F   UNL A   1      38.204  33.474  28.941  1.00  0.00    -0.206 F 
ATOM     78  C   UNL A   1      34.920  32.444  27.813  1.00  0.00     0.006 A 
ENDBRANCH  50  71
BRANCH  62  79
ATOM     79  C   UNL A   1      39.224  32.193  35.849  1.00  0.00     0.057 A 
ATOM     80  C   UNL A   1      39.607  33.524  36.052  1.00  0.00     0.134 A 
ATOM     81  C   UNL A   1      38.294  31.641  36.736  1.00  0.00     0.134 A 
ATOM     82  F   UNL A   1      40.506  34.105  35.242  1.00  0.00    -0.206 F 
ATOM     83  C   UNL A   1      39.096  34.273  37.112  1.00  0.00     0.040 A 
ATOM     84  C   UNL A   1      37.761  32.386  37.789  1.00  0.00     0.040 A 
ATOM     85  F   UNL A   1      37.883  30.372  36.591  1.00  0.00    -0.206 F 
ATOM     86  C   UNL A   1      38.165  33.705  37.981  1.00  0.00     0.006 A 
ENDBRANCH  62  79
ENDBRANCH  36  37
ENDBRANCH  29  31
ENDBRANCH  28  29
ENDBRANCH  27  28
ENDBRANCH  26  27
ENDBRANCH   1  26
TORSDOF 16
ENDMDL
MODEL 2
REMARK VINA RESULT:     -11.9      0.478      6.299
REMARK SMILES O=C(CSc1nc(O)cc(=O)[nH]1)Nc1cccc(C(=O)OCCOC(=O)c2ccc(-c3c4nc(c(-c5c(F)cccc5F)c5ccc([nH]5)c(-c5c(F)cccc5F)c5nc(c(-c6c(F)cccc6F)c6ccc3[nH]6)C=C5)C=C4)cc2)c1
REMARK SMILES IDX 21 1 19 2 20 3 18 4 14 5 15 6 81 7 16 8 17 9 13 10 1 11 2 12
REMARK SMILES IDX 3 14 4 15 5 16 6 17 12 18 7 19 10 20 9 22 11 23 8 24 22 26
REMARK SMILES IDX 23 27 24 28 25 29 26 30 27 31 28 32 80 33 29 34 79 35 30 36
REMARK SMILES IDX 31 37 32 38 73 39 33 40 78 41 72 42 74 43 34 44 77 45 71 46
REMARK SMILES IDX 70 47 35 49 61 50 44 51 60 52 45 53 48 54 59 55 75 56 46 57
REMARK SMILES IDX 47 58 58 60 76 61 49 62 36 63 37 64 42 65 38 66 39 67 41 68
REMARK SMILES IDX 43 69 40 70 62 71 63 72 68 73 64 74 65 75 67 76 69 77 66 78
REMARK SMILES IDX 50 79 51 80 56 81 52 82 53 83 55 84 57 85 54 86
REMARK H PARENT 13 13 12 21 8 25 74 48 48 59
REMARK Flexibility Score: inf
ROOT
ATOM      1  O   UNL A   1      41.612  21.488  25.557  1.00  0.00    -0.458 OA
ENDROOT
BRANCH   1   2
ATOM      2  C   UNL A   1      40.678  21.183  26.492  1.00  0.00     0.338 C 
ATOM      3  O   UNL A   1      40.779  20.353  27.381  1.00  0.00    -0.246 OA
BRANCH   2   4
ATOM      4  C   UNL A   1      39.525  22.112  26.384  1.00  0.00     0.062 A 
ATOM      5  C   UNL A   1      37.262  22.630  25.699  1.00  0.00     0.042 A 
ATOM      6  C   UNL A   1      37.455  23.959  26.095  1.00  0.00     0.026 A 
ATOM      7  C   UNL A   1      38.315  21.717  25.804  1.00  0.00     0.041 A 
ATOM      8  C   UNL A   1      38.647  24.346  26.705  1.00  0.00     0.003 A 
ATOM      9  C   UNL A   1      39.663  23.411  26.886  1.00  0.00     0.016 A 
BRANCH   5  10
ATOM     10  N   UNL A   1      35.980  22.282  25.236  1.00  0.00    -0.325 N 
ATOM     11  O   UNL A   1      36.082  23.069  23.049  1.00  0.00    -0.274 OA
ATOM     12  C   UNL A   1      35.481  22.517  23.968  1.00  0.00     0.234 C 
ATOM     13  H   UNL A   1      35.382  21.830  25.874  1.00  0.00     0.169 HD
BRANCH  12  14
ATOM     14  C   UNL A   1      34.050  22.059  23.764  1.00  0.00     0.178 C 
BRANCH  14  15
ATOM     15  S   UNL A   1      33.381  21.101  25.148  1.00  0.00    -0.078 SA
BRANCH  15  16
ATOM     16  C   UNL A   1      33.340  19.501  24.472  1.00  0.00     0.172 A 
ATOM     17  N   UNL A   1      32.531  19.232  23.503  1.00  0.00    -0.189 NA
ATOM     18  N   UNL A   1      34.235  18.628  25.001  1.00  0.00    -0.301 N 
ATOM     19  C   UNL A   1      32.611  17.968  22.993  1.00  0.00     0.218 A 
ATOM     20  C   UNL A   1      34.345  17.356  24.530  1.00  0.00     0.255 A 
ATOM     21  H   UNL A   1      34.816  18.922  25.740  1.00  0.00     0.172 HD
ATOM     22  C   UNL A   1      33.442  17.017  23.426  1.00  0.00     0.139 A 
ATOM     23  O   UNL A   1      35.152  16.551  24.977  1.00  0.00    -0.269 OA
BRANCH  19  24
ATOM     24  O   UNL A   1      31.778  17.703  21.940  1.00  0.00    -0.493 OA
ATOM     25  H   UNL A   1      31.981  18.033  21.087  1.00  0.00     0.295 HD
ENDBRANCH  19  24
ENDBRANCH  15  16
ENDBRANCH  14  15
ENDBRANCH  12  14
ENDBRANCH   5  10
ENDBRANCH   2   4
ENDBRANCH   1   2
BRANCH   1  26
ATOM     26  C   UNL A   1      42.991  21.317  25.947  1.00  0.00     0.275 C 
BRANCH  26  27
ATOM     27  C   UNL A   1      43.896  22.259  25.155  1.00  0.00     0.275 C 
BRANCH  27  28
ATOM     28  O   UNL A   1      43.234  23.524  24.990  1.00  0.00    -0.458 OA
BRANCH  28  29
ATOM     29  C   UNL A   1      43.958  24.622  25.290  1.00  0.00     0.338 C 
ATOM     30  O   UNL A   1      45.016  24.985  24.799  1.00  0.00    -0.246 OA
BRANCH  29  31
ATOM     31  C   UNL A   1      43.248  25.390  26.322  1.00  0.00     0.060 A 
ATOM     32  C   UNL A   1      43.410  26.773  26.360  1.00  0.00     0.016 A 
ATOM     33  C   UNL A   1      42.522  24.741  27.318  1.00  0.00     0.016 A 
ATOM     34  C   UNL A   1      42.908  27.514  27.427  1.00  0.00     0.010 A 
ATOM     35  C   UNL A   1      41.956  25.494  28.355  1.00  0.00     0.010 A 
ATOM     36  C   UNL A   1      42.176  26.883  28.441  1.00  0.00    -0.014 A 
BRANCH  36  37
ATOM     37  C   UNL A   1      41.725  27.652  29.632  1.00  0.00     0.031 A 
ATOM     38  C   UNL A   1      40.480  28.497  29.547  1.00  0.00     0.074 A 
ATOM     39  C   UNL A   1      42.391  27.577  30.801  1.00  0.00     0.049 A 
ATOM     40  N   UNL A   1      40.001  29.361  30.406  1.00  0.00    -0.248 NA
ATOM     41  C   UNL A   1      39.671  28.355  28.325  1.00  0.00     0.031 C 
ATOM     42  C   UNL A   1      43.575  26.755  31.053  1.00  0.00     0.029 A 
ATOM     43  N   UNL A   1      42.158  28.201  32.003  1.00  0.00    -0.354 N 
ATOM     44  C   UNL A   1      38.875  29.907  29.805  1.00  0.00     0.074 A 
ATOM     45  C   UNL A   1      38.738  29.276  28.510  1.00  0.00     0.031 C 
ATOM     46  C   UNL A   1      43.943  26.897  32.337  1.00  0.00     0.029 A 
ATOM     47  C   UNL A   1      43.069  27.874  32.978  1.00  0.00     0.049 A 
ATOM     48  H   UNL A   1      41.409  28.823  32.151  1.00  0.00     0.167 HD
ATOM     49  C   UNL A   1      38.030  30.850  30.288  1.00  0.00     0.037 A 
ATOM     50  C   UNL A   1      43.205  28.334  34.237  1.00  0.00     0.037 A 
ATOM     51  C   UNL A   1      38.127  31.436  31.598  1.00  0.00     0.049 A 
ATOM     52  C   UNL A   1      42.268  29.393  34.745  1.00  0.00     0.074 A 
ATOM     53  C   UNL A   1      37.318  32.399  32.176  1.00  0.00     0.029 A 
ATOM     54  N   UNL A   1      39.082  31.096  32.545  1.00  0.00    -0.354 N 
ATOM     55  N   UNL A   1      41.250  29.955  34.141  1.00  0.00    -0.248 NA
ATOM     56  C   UNL A   1      42.514  29.897  36.105  1.00  0.00     0.031 C 
ATOM     57  C   UNL A   1      37.796  32.656  33.467  1.00  0.00     0.029 A 
ATOM     58  C   UNL A   1      38.883  31.831  33.701  1.00  0.00     0.049 A 
ATOM     59  H   UNL A   1      39.795  30.430  32.413  1.00  0.00     0.167 HD
ATOM     60  C   UNL A   1      40.729  30.870  35.046  1.00  0.00     0.074 A 
ATOM     61  C   UNL A   1      41.530  30.775  36.249  1.00  0.00     0.031 C 
ATOM     62  C   UNL A   1      39.684  31.719  34.892  1.00  0.00     0.037 A 
BRANCH  49  63
ATOM     63  C   UNL A   1      36.945  31.332  29.374  1.00  0.00     0.057 A 
ATOM     64  C   UNL A   1      35.815  30.558  29.086  1.00  0.00     0.134 A 
ATOM     65  C   UNL A   1      37.027  32.602  28.786  1.00  0.00     0.134 A 
ATOM     66  F   UNL A   1      35.685  29.326  29.602  1.00  0.00    -0.206 F 
ATOM     67  C   UNL A   1      34.814  31.021  28.228  1.00  0.00     0.040 A 
ATOM     68  C   UNL A   1      36.023  33.084  27.947  1.00  0.00     0.040 A 
ATOM     69  F   UNL A   1      38.082  33.395  29.026  1.00  0.00    -0.206 F 
ATOM     70  C   UNL A   1      34.914  32.289  27.660  1.00  0.00     0.006 A 
ENDBRANCH  49  63
BRANCH  50  71
ATOM     71  C   UNL A   1      44.294  27.814  35.100  1.00  0.00     0.057 A 
ATOM     72  C   UNL A   1      45.550  28.428  35.125  1.00  0.00     0.134 A 
ATOM     73  C   UNL A   1      44.107  26.690  35.914  1.00  0.00     0.134 A 
ATOM     74  F   UNL A   1      45.797  29.491  34.346  1.00  0.00    -0.206 F 
ATOM     75  C   UNL A   1      46.585  27.942  35.926  1.00  0.00     0.040 A 
ATOM     76  C   UNL A   1      45.124  26.208  36.737  1.00  0.00     0.040 A 
ATOM     77  F   UNL A   1      42.926  26.055  35.931  1.00  0.00    -0.206 F 
ATOM     78  C   UNL A   1      46.370  26.832  36.741  1.00  0.00     0.006 A 
ENDBRANCH  50  71
BRANCH  62  79
ATOM     79  C   UNL A   1      39.332  32.589  36.060  1.00  0.00     0.057 A 
ATOM     80  C   UNL A   1      38.409  32.178  37.029  1.00  0.00     0.134 A 
ATOM     81  C   UNL A   1      39.945  33.834  36.233  1.00  0.00     0.134 A 
ATOM     82  F   UNL A   1      37.778  30.999  36.912  1.00  0.00    -0.206 F 
ATOM     83  C   UNL A   1      38.095  32.986  38.122  1.00  0.00     0.040 A 
ATOM     84  C   UNL A   1      39.654  34.643  37.332  1.00  0.00     0.040 A 
ATOM     85  F   UNL A   1      40.843  34.282  35.342  1.00  0.00    -0.206 F 
ATOM     86  C   UNL A   1      38.722  34.221  38.279  1.00  0.00     0.006 A 
ENDBRANCH  62  79
ENDBRANCH  36  37
ENDBRANCH  29  31
ENDBRANCH  28  29
ENDBRANCH  27  28
ENDBRANCH  26  27
ENDBRANCH   1  26
TORSDOF 16
ENDMDL
MODEL 3
REMARK VINA RESULT:     -11.9      5.985     10.710
REMARK SMILES O=C(CSc1nc(O)cc(=O)[nH]1)Nc1cccc(C(=O)OCCOC(=O)c2ccc(-c3c4nc(c(-c5c(F)cccc5F)c5ccc([nH]5)c(-c5c(F)cccc5F)c5nc(c(-c6c(F)cccc6F)c6ccc3[nH]6)C=C5)C=C4)cc2)c1
REMARK SMILES IDX 21 1 19 2 20 3 18 4 14 5 15 6 81 7 16 8 17 9 13 10 1 11 2 12
REMARK SMILES IDX 3 14 4 15 5 16 6 17 12 18 7 19 10 20 9 22 11 23 8 24 22 26
REMARK SMILES IDX 23 27 24 28 25 29 26 30 27 31 28 32 80 33 29 34 79 35 30 36
REMARK SMILES IDX 31 37 32 38 73 39 33 40 78 41 72 42 74 43 34 44 77 45 71 46
REMARK SMILES IDX 70 47 35 49 61 50 44 51 60 52 45 53 48 54 59 55 75 56 46 57
REMARK SMILES IDX 47 58 58 60 76 61 49 62 36 63 37 64 42 65 38 66 39 67 41 68
REMARK SMILES IDX 43 69 40 70 62 71 63 72 68 73 64 74 65 75 67 76 69 77 66 78
REMARK SMILES IDX 50 79 51 80 56 81 52 82 53 83 55 84 57 85 54 86
REMARK H PARENT 13 13 12 21 8 25 74 48 48 59
REMARK Flexibility Score: inf
ROOT
ATOM      1  O   UNL A   1      34.495  33.624  28.358  1.00  0.00    -0.458 OA
ENDROOT
BRANCH   1   2
ATOM      2  C   UNL A   1      33.363  33.000  27.946  1.00  0.00     0.338 C 
ATOM      3  O   UNL A   1      32.267  33.510  27.780  1.00  0.00    -0.246 OA
BRANCH   2   4
ATOM      4  C   UNL A   1      33.661  31.594  27.577  1.00  0.00     0.062 A 
ATOM      5  C   UNL A   1      33.068  29.494  26.529  1.00  0.00     0.042 A 
ATOM      6  C   UNL A   1      34.236  28.917  27.044  1.00  0.00     0.026 A 
ATOM      7  C   UNL A   1      32.761  30.822  26.835  1.00  0.00     0.041 A 
ATOM      8  C   UNL A   1      35.151  29.693  27.754  1.00  0.00     0.003 A 
ATOM      9  C   UNL A   1      34.881  31.039  27.982  1.00  0.00     0.016 A 
BRANCH   5  10
ATOM     10  N   UNL A   1      32.274  28.688  25.693  1.00  0.00    -0.325 N 
ATOM     11  O   UNL A   1      31.348  27.230  27.251  1.00  0.00    -0.274 OA
ATOM     12  C   UNL A   1      31.480  27.631  26.097  1.00  0.00     0.234 C 
ATOM     13  H   UNL A   1      32.285  28.896  24.731  1.00  0.00     0.169 HD
BRANCH  12  14
ATOM     14  C   UNL A   1      30.758  26.923  24.966  1.00  0.00     0.178 C 
BRANCH  14  15
ATOM     15  S   UNL A   1      31.007  27.688  23.343  1.00  0.00    -0.078 SA
BRANCH  15  16
ATOM     16  C   UNL A   1      29.624  28.734  23.240  1.00  0.00     0.172 A 
ATOM     17  N   UNL A   1      28.441  28.229  23.137  1.00  0.00    -0.189 NA
ATOM     18  N   UNL A   1      29.896  30.061  23.330  1.00  0.00    -0.301 N 
ATOM     19  C   UNL A   1      27.410  29.123  23.125  1.00  0.00     0.218 A 
ATOM     20  C   UNL A   1      28.902  30.990  23.313  1.00  0.00     0.255 A 
ATOM     21  H   UNL A   1      30.833  30.357  23.407  1.00  0.00     0.172 HD
ATOM     22  C   UNL A   1      27.543  30.450  23.200  1.00  0.00     0.139 A 
ATOM     23  O   UNL A   1      29.115  32.191  23.407  1.00  0.00    -0.269 OA
BRANCH  19  24
ATOM     24  O   UNL A   1      26.156  28.578  23.056  1.00  0.00    -0.493 OA
ATOM     25  H   UNL A   1      26.040  27.709  22.724  1.00  0.00     0.295 HD
ENDBRANCH  19  24
ENDBRANCH  15  16
ENDBRANCH  14  15
ENDBRANCH  12  14
ENDBRANCH   5  10
ENDBRANCH   2   4
ENDBRANCH   1   2
BRANCH   1  26
ATOM     26  C   UNL A   1      34.382  34.448  29.537  1.00  0.00     0.275 C 
BRANCH  26  27
ATOM     27  C   UNL A   1      34.403  33.590  30.800  1.00  0.00     0.275 C 
BRANCH  27  28
ATOM     28  O   UNL A   1      35.703  33.675  31.408  1.00  0.00    -0.458 OA
BRANCH  28  29
ATOM     29  C   UNL A   1      36.067  32.638  32.190  1.00  0.00     0.338 C 
ATOM     30  O   UNL A   1      35.622  32.327  33.285  1.00  0.00    -0.246 OA
BRANCH  29  31
ATOM     31  C   UNL A   1      37.108  31.864  31.499  1.00  0.00     0.060 A 
ATOM     32  C   UNL A   1      37.978  31.083  32.257  1.00  0.00     0.016 A 
ATOM     33  C   UNL A   1      37.302  32.000  30.127  1.00  0.00     0.016 A 
ATOM     34  C   UNL A   1      39.087  30.484  31.665  1.00  0.00     0.010 A 
ATOM     35  C   UNL A   1      38.377  31.341  29.518  1.00  0.00     0.010 A 
ATOM     36  C   UNL A   1      39.302  30.608  30.286  1.00  0.00    -0.014 A 
BRANCH  36  37
ATOM     37  C   UNL A   1      40.538  30.057  29.666  1.00  0.00     0.031 A 
ATOM     38  C   UNL A   1      41.754  30.933  29.518  1.00  0.00     0.074 A 
ATOM     39  C   UNL A   1      40.600  28.771  29.268  1.00  0.00     0.049 A 
ATOM     40  N   UNL A   1      42.870  30.706  28.872  1.00  0.00    -0.248 NA
ATOM     41  C   UNL A   1      41.702  32.247  30.181  1.00  0.00     0.031 C 
ATOM     42  C   UNL A   1      39.527  27.786  29.402  1.00  0.00     0.029 A 
ATOM     43  N   UNL A   1      41.621  28.070  28.671  1.00  0.00    -0.354 N 
ATOM     44  C   UNL A   1      43.623  31.865  28.998  1.00  0.00     0.074 A 
ATOM     45  C   UNL A   1      42.841  32.795  29.785  1.00  0.00     0.031 C 
ATOM     46  C   UNL A   1      39.957  26.602  28.937  1.00  0.00     0.029 A 
ATOM     47  C   UNL A   1      41.307  26.760  28.405  1.00  0.00     0.049 A 
ATOM     48  H   UNL A   1      42.496  28.470  28.458  1.00  0.00     0.167 HD
ATOM     49  C   UNL A   1      44.855  32.133  28.503  1.00  0.00     0.037 A 
ATOM     50  C   UNL A   1      42.012  25.802  27.773  1.00  0.00     0.037 A 
ATOM     51  C   UNL A   1      45.662  31.192  27.773  1.00  0.00     0.049 A 
ATOM     52  C   UNL A   1      43.369  26.126  27.216  1.00  0.00     0.074 A 
ATOM     53  C   UNL A   1      46.923  31.372  27.230  1.00  0.00     0.029 A 
ATOM     54  N   UNL A   1      45.293  29.883  27.500  1.00  0.00    -0.354 N 
ATOM     55  N   UNL A   1      44.042  27.250  27.278  1.00  0.00    -0.248 NA
ATOM     56  C   UNL A   1      44.057  25.054  26.481  1.00  0.00     0.031 C 
ATOM     57  C   UNL A   1      47.309  30.176  26.613  1.00  0.00     0.029 A 
ATOM     58  C   UNL A   1      46.301  29.245  26.797  1.00  0.00     0.049 A 
ATOM     59  H   UNL A   1      44.440  29.470  27.768  1.00  0.00     0.167 HD
ATOM     60  C   UNL A   1      45.232  27.019  26.601  1.00  0.00     0.074 A 
ATOM     61  C   UNL A   1      45.199  25.641  26.152  1.00  0.00     0.031 C 
ATOM     62  C   UNL A   1      46.256  27.872  26.365  1.00  0.00     0.037 A 
BRANCH  49  63
ATOM     63  C   UNL A   1      45.392  33.518  28.708  1.00  0.00     0.057 A 
ATOM     64  C   UNL A   1      46.177  33.856  29.815  1.00  0.00     0.134 A 
ATOM     65  C   UNL A   1      45.129  34.524  27.767  1.00  0.00     0.134 A 
ATOM     66  F   UNL A   1      46.450  32.944  30.760  1.00  0.00    -0.206 F 
ATOM     67  C   UNL A   1      46.666  35.153  29.993  1.00  0.00     0.040 A 
ATOM     68  C   UNL A   1      45.631  35.816  27.922  1.00  0.00     0.040 A 
ATOM     69  F   UNL A   1      44.386  34.263  26.682  1.00  0.00    -0.206 F 
ATOM     70  C   UNL A   1      46.397  36.136  29.042  1.00  0.00     0.006 A 
ENDBRANCH  49  63
BRANCH  50  71
ATOM     71  C   UNL A   1      41.433  24.446  27.607  1.00  0.00     0.057 A 
ATOM     72  C   UNL A   1      40.438  24.198  26.657  1.00  0.00     0.134 A 
ATOM     73  C   UNL A   1      41.857  23.369  28.396  1.00  0.00     0.134 A 
ATOM     74  F   UNL A   1      39.972  25.195  25.891  1.00  0.00    -0.206 F 
ATOM     75  C   UNL A   1      39.880  22.928  26.498  1.00  0.00     0.040 A 
ATOM     76  C   UNL A   1      41.326  22.091  28.232  1.00  0.00     0.040 A 
ATOM     77  F   UNL A   1      42.806  23.545  29.327  1.00  0.00    -0.206 F 
ATOM     78  C   UNL A   1      40.330  21.868  27.283  1.00  0.00     0.006 A 
ENDBRANCH  50  71
BRANCH  62  79
ATOM     79  C   UNL A   1      47.436  27.334  25.614  1.00  0.00     0.057 A 
ATOM     80  C   UNL A   1      47.537  27.453  24.223  1.00  0.00     0.134 A 
ATOM     81  C   UNL A   1      48.494  26.719  26.293  1.00  0.00     0.134 A 
ATOM     82  F   UNL A   1      46.549  28.021  23.515  1.00  0.00    -0.206 F 
ATOM     83  C   UNL A   1      48.644  26.961  23.530  1.00  0.00     0.040 A 
ATOM     84  C   UNL A   1      49.615  26.241  25.613  1.00  0.00     0.040 A 
ATOM     85  F   UNL A   1      48.459  26.579  27.627  1.00  0.00    -0.206 F 
ATOM     86  C   UNL A   1      49.690  26.358  24.227  1.00  0.00     0.006 A 
ENDBRANCH  62  79
ENDBRANCH  36  37
ENDBRANCH  29  31
ENDBRANCH  28  29
ENDBRANCH  27  28
ENDBRANCH  26  27
ENDBRANCH   1  26
TORSDOF 16
ENDMDL
