MODEL 1
REMARK VINA RESULT:     -12.8      0.000      0.000
REMARK SMILES O=C(CCC(=O)N1N=C(c2ccc(F)cc2)C[C@@H]1c1ccc2nccnc2c1)OCCOC(=O)c1ccc(-c2c3nc(c(-c4c(F)cccc4F)c4ccc([nH]4)c(-c4c(F)cccc4F)c4nc(c(-c5c(F)cccc5F)c5ccc2[nH]5)C=C4)C=C3)cc1
REMARK SMILES IDX 30 1 29 2 2 3 1 4 3 5 4 6 5 7 6 8 7 9 8 10 18 11 9 12 17 13
REMARK SMILES IDX 19 14 20 15 28 16 21 17 27 18 22 19 26 20 23 21 25 22 24 23
REMARK SMILES IDX 10 24 11 25 16 26 12 27 15 28 13 29 14 30 31 31 32 32 33 33
REMARK SMILES IDX 34 34 35 35 36 36 88 37 37 38 87 39 38 40 39 41 40 42 81 43
REMARK SMILES IDX 41 44 86 45 80 46 82 47 42 48 85 49 79 50 78 51 43 53 69 54
REMARK SMILES IDX 52 55 68 56 53 57 56 58 67 59 83 60 54 61 55 62 66 64 84 65
REMARK SMILES IDX 57 66 44 67 45 68 50 69 46 70 47 71 49 72 51 73 48 74 70 75
REMARK SMILES IDX 71 76 76 77 72 78 73 79 75 80 77 81 74 82 58 83 59 84 64 85
REMARK SMILES IDX 60 86 61 87 63 88 65 89 62 90
REMARK H PARENT 82 52 56 63
REMARK Flexibility Score: inf
ROOT
ATOM      1  C   UNL A   1      42.317  19.786  26.269  1.00  0.00     0.274 C 
ENDROOT
BRANCH   1   2
ATOM      2  O   UNL A   1      41.111  20.418  26.777  1.00  0.00    -0.462 OA
BRANCH   2   3
ATOM      3  C   UNL A   1      39.942  20.652  26.162  1.00  0.00     0.306 C 
ATOM      4  O   UNL A   1      39.283  19.753  25.644  1.00  0.00    -0.252 OA
BRANCH   3   5
ATOM      5  C   UNL A   1      39.356  21.995  26.324  1.00  0.00     0.132 C 
BRANCH   5   6
ATOM      6  C   UNL A   1      38.134  22.021  25.434  1.00  0.00     0.114 C 
BRANCH   6   7
ATOM      7  C   UNL A   1      37.084  23.064  25.803  1.00  0.00     0.243 C 
ATOM      8  O   UNL A   1      37.540  24.150  26.203  1.00  0.00    -0.273 OA
BRANCH   7   9
ATOM      9  N   UNL A   1      35.708  22.874  25.627  1.00  0.00    -0.225 N 
ATOM     10  N   UNL A   1      35.488  21.753  24.862  1.00  0.00    -0.174 NA
ATOM     11  C   UNL A   1      34.427  23.260  26.354  1.00  0.00     0.147 C 
ATOM     12  C   UNL A   1      34.336  21.271  25.175  1.00  0.00     0.071 C 
ATOM     13  C   UNL A   1      33.485  22.077  26.088  1.00  0.00     0.091 C 
BRANCH  11  14
ATOM     14  C   UNL A   1      33.621  24.522  25.956  1.00  0.00    -0.021 A 
ATOM     15  C   UNL A   1      32.296  24.625  26.420  1.00  0.00     0.008 A 
ATOM     16  C   UNL A   1      34.074  25.582  25.147  1.00  0.00     0.036 A 
ATOM     17  C   UNL A   1      31.533  25.783  26.218  1.00  0.00     0.031 A 
ATOM     18  C   UNL A   1      33.357  26.792  25.016  1.00  0.00     0.089 A 
ATOM     19  C   UNL A   1      32.069  26.897  25.600  1.00  0.00     0.089 A 
ATOM     20  N   UNL A   1      33.923  27.880  24.436  1.00  0.00    -0.253 NA
ATOM     21  N   UNL A   1      31.374  28.057  25.636  1.00  0.00    -0.253 NA
ATOM     22  C   UNL A   1      33.274  29.061  24.605  1.00  0.00     0.132 A 
ATOM     23  C   UNL A   1      32.030  29.149  25.194  1.00  0.00     0.132 A 
ENDBRANCH  11  14
BRANCH  12  24
ATOM     24  C   UNL A   1      33.960  19.931  24.740  1.00  0.00    -0.002 A 
ATOM     25  C   UNL A   1      32.701  19.674  24.208  1.00  0.00     0.013 A 
ATOM     26  C   UNL A   1      34.957  18.946  24.787  1.00  0.00     0.013 A 
ATOM     27  C   UNL A   1      32.447  18.403  23.691  1.00  0.00     0.040 A 
ATOM     28  C   UNL A   1      34.688  17.678  24.285  1.00  0.00     0.040 A 
ATOM     29  C   UNL A   1      33.439  17.423  23.732  1.00  0.00     0.123 A 
ATOM     30  F   UNL A   1      33.189  16.214  23.214  1.00  0.00    -0.207 F 
ENDBRANCH  12  24
ENDBRANCH   7   9
ENDBRANCH   6   7
ENDBRANCH   5   6
ENDBRANCH   3   5
ENDBRANCH   2   3
ENDBRANCH   1   2
BRANCH   1  31
ATOM     31  C   UNL A   1      43.337  20.881  26.012  1.00  0.00     0.275 C 
BRANCH  31  32
ATOM     32  O   UNL A   1      42.847  22.102  26.569  1.00  0.00    -0.458 OA
BRANCH  32  33
ATOM     33  C   UNL A   1      42.910  23.205  25.781  1.00  0.00     0.338 C 
ATOM     34  O   UNL A   1      42.940  23.302  24.569  1.00  0.00    -0.246 OA
BRANCH  33  35
ATOM     35  C   UNL A   1      42.710  24.340  26.665  1.00  0.00     0.060 A 
ATOM     36  C   UNL A   1      43.354  25.559  26.407  1.00  0.00     0.016 A 
ATOM     37  C   UNL A   1      41.795  24.183  27.701  1.00  0.00     0.016 A 
ATOM     38  C   UNL A   1      43.032  26.666  27.170  1.00  0.00     0.010 A 
ATOM     39  C   UNL A   1      41.486  25.275  28.470  1.00  0.00     0.010 A 
ATOM     40  C   UNL A   1      42.109  26.506  28.205  1.00  0.00    -0.014 A 
BRANCH  40  41
ATOM     41  C   UNL A   1      41.867  27.560  29.184  1.00  0.00     0.031 A 
ATOM     42  C   UNL A   1      42.631  27.468  30.458  1.00  0.00     0.074 A 
ATOM     43  C   UNL A   1      40.853  28.408  28.972  1.00  0.00     0.049 A 
ATOM     44  N   UNL A   1      42.394  28.049  31.599  1.00  0.00    -0.248 NA
ATOM     45  C   UNL A   1      43.790  26.555  30.463  1.00  0.00     0.031 C 
ATOM     46  C   UNL A   1      40.079  28.511  27.734  1.00  0.00     0.029 A 
ATOM     47  N   UNL A   1      40.264  29.299  29.821  1.00  0.00    -0.354 N 
ATOM     48  C   UNL A   1      43.362  27.558  32.462  1.00  0.00     0.074 A 
ATOM     49  C   UNL A   1      44.165  26.608  31.730  1.00  0.00     0.031 C 
ATOM     50  C   UNL A   1      39.090  29.402  27.915  1.00  0.00     0.029 A 
ATOM     51  C   UNL A   1      39.142  29.885  29.291  1.00  0.00     0.049 A 
ATOM     52  H   UNL A   1      40.609  29.502  30.720  1.00  0.00     0.167 HD
ATOM     53  C   UNL A   1      43.546  27.891  33.756  1.00  0.00     0.037 A 
ATOM     54  C   UNL A   1      38.246  30.690  29.887  1.00  0.00     0.037 A 
ATOM     55  C   UNL A   1      42.706  28.835  34.437  1.00  0.00     0.049 A 
ATOM     56  C   UNL A   1      38.460  31.027  31.337  1.00  0.00     0.074 A 
ATOM     57  C   UNL A   1      42.798  29.292  35.736  1.00  0.00     0.029 A 
ATOM     58  N   UNL A   1      41.608  29.462  33.860  1.00  0.00    -0.354 N 
ATOM     59  N   UNL A   1      39.397  30.598  32.152  1.00  0.00    -0.248 NA
ATOM     60  C   UNL A   1      37.504  31.953  31.950  1.00  0.00     0.031 C 
ATOM     61  C   UNL A   1      41.728  30.162  35.959  1.00  0.00     0.029 A 
ATOM     62  C   UNL A   1      41.001  30.292  34.782  1.00  0.00     0.049 A 
ATOM     63  H   UNL A   1      41.306  29.334  32.932  1.00  0.00     0.167 HD
ATOM     64  C   UNL A   1      39.162  31.223  33.368  1.00  0.00     0.074 A 
ATOM     65  C   UNL A   1      37.995  32.064  33.178  1.00  0.00     0.031 C 
ATOM     66  C   UNL A   1      39.842  31.116  34.537  1.00  0.00     0.037 A 
BRANCH  53  67
ATOM     67  C   UNL A   1      44.669  27.231  34.492  1.00  0.00     0.057 A 
ATOM     68  C   UNL A   1      44.469  26.025  35.174  1.00  0.00     0.134 A 
ATOM     69  C   UNL A   1      45.950  27.799  34.548  1.00  0.00     0.134 A 
ATOM     70  F   UNL A   1      43.271  25.420  35.151  1.00  0.00    -0.206 F 
ATOM     71  C   UNL A   1      45.495  25.419  35.900  1.00  0.00     0.040 A 
ATOM     72  C   UNL A   1      46.991  27.188  35.247  1.00  0.00     0.040 A 
ATOM     73  F   UNL A   1      46.217  28.940  33.892  1.00  0.00    -0.206 F 
ATOM     74  C   UNL A   1      46.762  25.999  35.936  1.00  0.00     0.006 A 
ENDBRANCH  53  67
BRANCH  54  75
ATOM     75  C   UNL A   1      37.115  31.236  29.101  1.00  0.00     0.057 A 
ATOM     76  C   UNL A   1      37.110  32.555  28.627  1.00  0.00     0.134 A 
ATOM     77  C   UNL A   1      35.973  30.463  28.867  1.00  0.00     0.134 A 
ATOM     78  F   UNL A   1      38.167  33.354  28.835  1.00  0.00    -0.206 F 
ATOM     79  C   UNL A   1      36.003  33.088  27.964  1.00  0.00     0.040 A 
ATOM     80  C   UNL A   1      34.867  30.977  28.187  1.00  0.00     0.040 A 
ATOM     81  F   UNL A   1      35.921  29.193  29.294  1.00  0.00    -0.206 F 
ATOM     82  C   UNL A   1      34.879  32.297  27.741  1.00  0.00     0.006 A 
ENDBRANCH  54  75
BRANCH  66  83
ATOM     83  C   UNL A   1      39.361  31.948  35.686  1.00  0.00     0.057 A 
ATOM     84  C   UNL A   1      38.381  31.451  36.556  1.00  0.00     0.134 A 
ATOM     85  C   UNL A   1      39.786  33.269  35.864  1.00  0.00     0.134 A 
ATOM     86  F   UNL A   1      37.923  30.197  36.423  1.00  0.00    -0.206 F 
ATOM     87  C   UNL A   1      37.824  32.251  37.551  1.00  0.00     0.040 A 
ATOM     88  C   UNL A   1      39.257  34.068  36.876  1.00  0.00     0.040 A 
ATOM     89  F   UNL A   1      40.728  33.794  35.065  1.00  0.00    -0.206 F 
ATOM     90  C   UNL A   1      38.263  33.563  37.715  1.00  0.00     0.006 A 
ENDBRANCH  66  83
ENDBRANCH  40  41
ENDBRANCH  33  35
ENDBRANCH  32  33
ENDBRANCH  31  32
ENDBRANCH   1  31
TORSDOF 16
ENDMDL
MODEL 2
REMARK VINA RESULT:     -12.5      1.721      4.251
REMARK SMILES O=C(CCC(=O)N1N=C(c2ccc(F)cc2)C[C@@H]1c1ccc2nccnc2c1)OCCOC(=O)c1ccc(-c2c3nc(c(-c4c(F)cccc4F)c4ccc([nH]4)c(-c4c(F)cccc4F)c4nc(c(-c5c(F)cccc5F)c5ccc2[nH]5)C=C4)C=C3)cc1
REMARK SMILES IDX 30 1 29 2 2 3 1 4 3 5 4 6 5 7 6 8 7 9 8 10 18 11 9 12 17 13
REMARK SMILES IDX 19 14 20 15 28 16 21 17 27 18 22 19 26 20 23 21 25 22 24 23
REMARK SMILES IDX 10 24 11 25 16 26 12 27 15 28 13 29 14 30 31 31 32 32 33 33
REMARK SMILES IDX 34 34 35 35 36 36 88 37 37 38 87 39 38 40 39 41 40 42 81 43
REMARK SMILES IDX 41 44 86 45 80 46 82 47 42 48 85 49 79 50 78 51 43 53 69 54
REMARK SMILES IDX 52 55 68 56 53 57 56 58 67 59 83 60 54 61 55 62 66 64 84 65
REMARK SMILES IDX 57 66 44 67 45 68 50 69 46 70 47 71 49 72 51 73 48 74 70 75
REMARK SMILES IDX 71 76 76 77 72 78 73 79 75 80 77 81 74 82 58 83 59 84 64 85
REMARK SMILES IDX 60 86 61 87 63 88 65 89 62 90
REMARK H PARENT 82 52 56 63
REMARK Flexibility Score: inf
ROOT
ATOM      1  C   UNL A   1      42.306  19.849  26.066  1.00  0.00     0.274 C 
ENDROOT
BRANCH   1   2
ATOM      2  O   UNL A   1      41.131  20.466  26.659  1.00  0.00    -0.462 OA
BRANCH   2   3
ATOM      3  C   UNL A   1      39.920  20.691  26.127  1.00  0.00     0.306 C 
ATOM      4  O   UNL A   1      39.263  19.799  25.594  1.00  0.00    -0.252 OA
BRANCH   3   5
ATOM      5  C   UNL A   1      39.299  21.999  26.403  1.00  0.00     0.132 C 
BRANCH   5   6
ATOM      6  C   UNL A   1      38.160  22.129  25.417  1.00  0.00     0.114 C 
BRANCH   6   7
ATOM      7  C   UNL A   1      37.172  23.253  25.713  1.00  0.00     0.243 C 
ATOM      8  O   UNL A   1      37.684  24.309  26.125  1.00  0.00    -0.273 OA
BRANCH   7   9
ATOM      9  N   UNL A   1      35.798  23.163  25.459  1.00  0.00    -0.225 N 
ATOM     10  N   UNL A   1      35.133  24.146  26.152  1.00  0.00    -0.174 NA
ATOM     11  C   UNL A   1      34.900  22.614  24.357  1.00  0.00     0.147 C 
ATOM     12  C   UNL A   1      34.052  24.432  25.512  1.00  0.00     0.071 C 
ATOM     13  C   UNL A   1      33.699  23.569  24.355  1.00  0.00     0.091 C 
BRANCH  11  14
ATOM     14  C   UNL A   1      34.293  21.191  24.445  1.00  0.00    -0.021 A 
ATOM     15  C   UNL A   1      32.916  21.052  24.189  1.00  0.00     0.008 A 
ATOM     16  C   UNL A   1      34.979  20.009  24.783  1.00  0.00     0.036 A 
ATOM     17  C   UNL A   1      32.304  19.794  24.120  1.00  0.00     0.031 A 
ATOM     18  C   UNL A   1      34.402  18.729  24.625  1.00  0.00     0.089 A 
ATOM     19  C   UNL A   1      33.038  18.630  24.250  1.00  0.00     0.089 A 
ATOM     20  N   UNL A   1      35.156  17.606  24.723  1.00  0.00    -0.253 NA
ATOM     21  N   UNL A   1      32.446  17.452  23.950  1.00  0.00    -0.253 NA
ATOM     22  C   UNL A   1      34.585  16.455  24.285  1.00  0.00     0.132 A 
ATOM     23  C   UNL A   1      33.262  16.379  23.903  1.00  0.00     0.132 A 
ENDBRANCH  11  14
BRANCH  12  24
ATOM     24  C   UNL A   1      33.294  25.630  25.850  1.00  0.00    -0.002 A 
ATOM     25  C   UNL A   1      31.919  25.579  26.054  1.00  0.00     0.013 A 
ATOM     26  C   UNL A   1      34.029  26.806  26.061  1.00  0.00     0.013 A 
ATOM     27  C   UNL A   1      31.272  26.731  26.502  1.00  0.00     0.040 A 
ATOM     28  C   UNL A   1      33.373  27.953  26.490  1.00  0.00     0.040 A 
ATOM     29  C   UNL A   1      32.002  27.902  26.716  1.00  0.00     0.123 A 
ATOM     30  F   UNL A   1      31.373  28.994  27.166  1.00  0.00    -0.207 F 
ENDBRANCH  12  24
ENDBRANCH   7   9
ENDBRANCH   6   7
ENDBRANCH   5   6
ENDBRANCH   3   5
ENDBRANCH   2   3
ENDBRANCH   1   2
BRANCH   1  31
ATOM     31  C   UNL A   1      43.364  20.928  25.915  1.00  0.00     0.275 C 
BRANCH  31  32
ATOM     32  O   UNL A   1      42.859  22.145  26.467  1.00  0.00    -0.458 OA
BRANCH  32  33
ATOM     33  C   UNL A   1      42.966  23.259  25.700  1.00  0.00     0.338 C 
ATOM     34  O   UNL A   1      43.051  23.373  24.492  1.00  0.00    -0.246 OA
BRANCH  33  35
ATOM     35  C   UNL A   1      42.735  24.382  26.591  1.00  0.00     0.060 A 
ATOM     36  C   UNL A   1      43.325  25.627  26.325  1.00  0.00     0.016 A 
ATOM     37  C   UNL A   1      41.847  24.185  27.642  1.00  0.00     0.016 A 
ATOM     38  C   UNL A   1      42.971  26.718  27.097  1.00  0.00     0.010 A 
ATOM     39  C   UNL A   1      41.507  25.261  28.420  1.00  0.00     0.010 A 
ATOM     40  C   UNL A   1      42.074  26.518  28.148  1.00  0.00    -0.014 A 
BRANCH  40  41
ATOM     41  C   UNL A   1      41.807  27.559  29.134  1.00  0.00     0.031 A 
ATOM     42  C   UNL A   1      42.551  27.459  30.420  1.00  0.00     0.074 A 
ATOM     43  C   UNL A   1      40.789  28.400  28.916  1.00  0.00     0.049 A 
ATOM     44  N   UNL A   1      42.291  28.025  31.563  1.00  0.00    -0.248 NA
ATOM     45  C   UNL A   1      43.718  26.556  30.434  1.00  0.00     0.031 C 
ATOM     46  C   UNL A   1      40.035  28.511  27.666  1.00  0.00     0.029 A 
ATOM     47  N   UNL A   1      40.179  29.277  29.764  1.00  0.00    -0.354 N 
ATOM     48  C   UNL A   1      43.248  27.533  32.437  1.00  0.00     0.074 A 
ATOM     49  C   UNL A   1      44.072  26.597  31.707  1.00  0.00     0.031 C 
ATOM     50  C   UNL A   1      39.036  29.392  27.841  1.00  0.00     0.029 A 
ATOM     51  C   UNL A   1      39.061  29.859  29.223  1.00  0.00     0.049 A 
ATOM     52  H   UNL A   1      40.507  29.472  30.671  1.00  0.00     0.167 HD
ATOM     53  C   UNL A   1      43.409  27.852  33.737  1.00  0.00     0.037 A 
ATOM     54  C   UNL A   1      38.149  30.650  29.812  1.00  0.00     0.037 A 
ATOM     55  C   UNL A   1      42.549  28.781  34.415  1.00  0.00     0.049 A 
ATOM     56  C   UNL A   1      38.336  30.972  31.269  1.00  0.00     0.074 A 
ATOM     57  C   UNL A   1      42.616  29.225  35.719  1.00  0.00     0.029 A 
ATOM     58  N   UNL A   1      41.455  29.405  33.826  1.00  0.00    -0.354 N 
ATOM     59  N   UNL A   1      39.263  30.542  32.095  1.00  0.00    -0.248 NA
ATOM     60  C   UNL A   1      37.361  31.883  31.877  1.00  0.00     0.031 C 
ATOM     61  C   UNL A   1      41.535  30.083  35.935  1.00  0.00     0.029 A 
ATOM     62  C   UNL A   1      40.826  30.220  34.748  1.00  0.00     0.049 A 
ATOM     63  H   UNL A   1      41.170  29.286  32.892  1.00  0.00     0.167 HD
ATOM     64  C   UNL A   1      39.002  31.151  33.314  1.00  0.00     0.074 A 
ATOM     65  C   UNL A   1      37.831  31.985  33.114  1.00  0.00     0.031 C 
ATOM     66  C   UNL A   1      39.664  31.036  34.492  1.00  0.00     0.037 A 
BRANCH  53  67
ATOM     67  C   UNL A   1      44.525  27.194  34.484  1.00  0.00     0.057 A 
ATOM     68  C   UNL A   1      45.799  27.773  34.526  1.00  0.00     0.134 A 
ATOM     69  C   UNL A   1      44.351  25.970  35.145  1.00  0.00     0.134 A 
ATOM     70  F   UNL A   1      46.032  28.950  33.925  1.00  0.00    -0.206 F 
ATOM     71  C   UNL A   1      46.862  27.151  35.182  1.00  0.00     0.040 A 
ATOM     72  C   UNL A   1      45.399  25.352  35.828  1.00  0.00     0.040 A 
ATOM     73  F   UNL A   1      43.148  25.374  35.167  1.00  0.00    -0.206 F 
ATOM     74  C   UNL A   1      46.662  25.938  35.838  1.00  0.00     0.006 A 
ENDBRANCH  53  67
BRANCH  54  75
ATOM     75  C   UNL A   1      37.025  31.195  29.014  1.00  0.00     0.057 A 
ATOM     76  C   UNL A   1      36.989  32.534  28.605  1.00  0.00     0.134 A 
ATOM     77  C   UNL A   1      35.920  30.396  28.703  1.00  0.00     0.134 A 
ATOM     78  F   UNL A   1      38.009  33.358  28.889  1.00  0.00    -0.206 F 
ATOM     79  C   UNL A   1      35.887  33.062  27.929  1.00  0.00     0.040 A 
ATOM     80  C   UNL A   1      34.821  30.905  28.010  1.00  0.00     0.040 A 
ATOM     81  F   UNL A   1      35.899  29.105  29.066  1.00  0.00    -0.206 F 
ATOM     82  C   UNL A   1      34.800  32.245  27.628  1.00  0.00     0.006 A 
ENDBRANCH  54  75
BRANCH  66  83
ATOM     83  C   UNL A   1      39.157  31.851  35.642  1.00  0.00     0.057 A 
ATOM     84  C   UNL A   1      39.640  33.148  35.857  1.00  0.00     0.134 A 
ATOM     85  C   UNL A   1      38.277  31.315  36.590  1.00  0.00     0.134 A 
ATOM     86  F   UNL A   1      40.498  33.708  34.991  1.00  0.00    -0.206 F 
ATOM     87  C   UNL A   1      39.283  33.877  36.989  1.00  0.00     0.040 A 
ATOM     88  C   UNL A   1      37.890  32.047  37.711  1.00  0.00     0.040 A 
ATOM     89  F   UNL A   1      37.777  30.081  36.432  1.00  0.00    -0.206 F 
ATOM     90  C   UNL A   1      38.404  33.327  37.920  1.00  0.00     0.006 A 
ENDBRANCH  66  83
ENDBRANCH  40  41
ENDBRANCH  33  35
ENDBRANCH  32  33
ENDBRANCH  31  32
ENDBRANCH   1  31
TORSDOF 16
ENDMDL
MODEL 3
REMARK VINA RESULT:     -12.2      6.277     11.722
REMARK SMILES O=C(CCC(=O)N1N=C(c2ccc(F)cc2)C[C@@H]1c1ccc2nccnc2c1)OCCOC(=O)c1ccc(-c2c3nc(c(-c4c(F)cccc4F)c4ccc([nH]4)c(-c4c(F)cccc4F)c4nc(c(-c5c(F)cccc5F)c5ccc2[nH]5)C=C4)C=C3)cc1
REMARK SMILES IDX 30 1 29 2 2 3 1 4 3 5 4 6 5 7 6 8 7 9 8 10 18 11 9 12 17 13
REMARK SMILES IDX 19 14 20 15 28 16 21 17 27 18 22 19 26 20 23 21 25 22 24 23
REMARK SMILES IDX 10 24 11 25 16 26 12 27 15 28 13 29 14 30 31 31 32 32 33 33
REMARK SMILES IDX 34 34 35 35 36 36 88 37 37 38 87 39 38 40 39 41 40 42 81 43
REMARK SMILES IDX 41 44 86 45 80 46 82 47 42 48 85 49 79 50 78 51 43 53 69 54
REMARK SMILES IDX 52 55 68 56 53 57 56 58 67 59 83 60 54 61 55 62 66 64 84 65
REMARK SMILES IDX 57 66 44 67 45 68 50 69 46 70 47 71 49 72 51 73 48 74 70 75
REMARK SMILES IDX 71 76 76 77 72 78 73 79 75 80 77 81 74 82 58 83 59 84 64 85
REMARK SMILES IDX 60 86 61 87 63 88 65 89 62 90
REMARK H PARENT 82 52 56 63
REMARK Flexibility Score: inf
ROOT
ATOM      1  C   UNL A   1      40.670  36.121  39.399  1.00  0.00     0.274 C 
ENDROOT
BRANCH   1   2
ATOM      2  O   UNL A   1      41.683  35.218  38.876  1.00  0.00    -0.462 OA
BRANCH   2   3
ATOM      3  C   UNL A   1      42.386  35.288  37.736  1.00  0.00     0.306 C 
ATOM      4  O   UNL A   1      43.113  34.371  37.359  1.00  0.00    -0.252 OA
BRANCH   3   5
ATOM      5  C   UNL A   1      42.085  36.411  36.830  1.00  0.00     0.132 C 
BRANCH   5   6
ATOM      6  C   UNL A   1      41.785  35.786  35.486  1.00  0.00     0.114 C 
BRANCH   6   7
ATOM      7  C   UNL A   1      40.306  35.713  35.121  1.00  0.00     0.243 C 
ATOM      8  O   UNL A   1      39.562  36.453  35.789  1.00  0.00    -0.273 OA
BRANCH   7   9
ATOM      9  N   UNL A   1      39.807  34.953  34.056  1.00  0.00    -0.225 N 
ATOM     10  N   UNL A   1      38.459  34.745  34.225  1.00  0.00    -0.174 NA
ATOM     11  C   UNL A   1      40.194  34.670  32.610  1.00  0.00     0.147 C 
ATOM     12  C   UNL A   1      37.925  34.589  33.063  1.00  0.00     0.071 C 
ATOM     13  C   UNL A   1      38.845  34.488  31.900  1.00  0.00     0.091 C 
BRANCH  11  14
ATOM     14  C   UNL A   1      41.029  33.423  32.226  1.00  0.00    -0.021 A 
ATOM     15  C   UNL A   1      40.834  32.875  30.945  1.00  0.00     0.008 A 
ATOM     16  C   UNL A   1      41.960  32.757  33.046  1.00  0.00     0.036 A 
ATOM     17  C   UNL A   1      41.631  31.828  30.463  1.00  0.00     0.031 A 
ATOM     18  C   UNL A   1      42.836  31.768  32.545  1.00  0.00     0.089 A 
ATOM     19  C   UNL A   1      42.681  31.324  31.207  1.00  0.00     0.089 A 
ATOM     20  N   UNL A   1      43.879  31.318  33.286  1.00  0.00    -0.253 NA
ATOM     21  N   UNL A   1      43.555  30.482  30.610  1.00  0.00    -0.253 NA
ATOM     22  C   UNL A   1      44.816  30.588  32.629  1.00  0.00     0.132 A 
ATOM     23  C   UNL A   1      44.661  30.182  31.320  1.00  0.00     0.132 A 
ENDBRANCH  11  14
BRANCH  12  24
ATOM     24  C   UNL A   1      36.476  34.640  32.909  1.00  0.00    -0.002 A 
ATOM     25  C   UNL A   1      35.649  34.953  33.982  1.00  0.00     0.013 A 
ATOM     26  C   UNL A   1      35.970  34.463  31.614  1.00  0.00     0.013 A 
ATOM     27  C   UNL A   1      34.284  35.113  33.742  1.00  0.00     0.040 A 
ATOM     28  C   UNL A   1      34.607  34.607  31.387  1.00  0.00     0.040 A 
ATOM     29  C   UNL A   1      33.779  34.942  32.452  1.00  0.00     0.123 A 
ATOM     30  F   UNL A   1      32.470  35.119  32.231  1.00  0.00    -0.207 F 
ENDBRANCH  12  24
ENDBRANCH   7   9
ENDBRANCH   6   7
ENDBRANCH   5   6
ENDBRANCH   3   5
ENDBRANCH   2   3
ENDBRANCH   1   2
BRANCH   1  31
ATOM     31  C   UNL A   1      39.447  35.289  39.745  1.00  0.00     0.275 C 
BRANCH  31  32
ATOM     32  O   UNL A   1      38.999  34.621  38.564  1.00  0.00    -0.458 OA
BRANCH  32  33
ATOM     33  C   UNL A   1      38.356  33.439  38.733  1.00  0.00     0.338 C 
ATOM     34  O   UNL A   1      37.513  33.114  39.547  1.00  0.00    -0.246 OA
BRANCH  33  35
ATOM     35  C   UNL A   1      38.700  32.628  37.578  1.00  0.00     0.060 A 
ATOM     36  C   UNL A   1      39.929  32.810  36.927  1.00  0.00     0.016 A 
ATOM     37  C   UNL A   1      37.806  31.625  37.220  1.00  0.00     0.016 A 
ATOM     38  C   UNL A   1      40.300  31.928  35.929  1.00  0.00     0.010 A 
ATOM     39  C   UNL A   1      38.163  30.759  36.219  1.00  0.00     0.010 A 
ATOM     40  C   UNL A   1      39.402  30.919  35.577  1.00  0.00    -0.014 A 
BRANCH  40  41
ATOM     41  C   UNL A   1      39.619  30.079  34.404  1.00  0.00     0.031 A 
ATOM     42  C   UNL A   1      40.808  29.183  34.441  1.00  0.00     0.074 A 
ATOM     43  C   UNL A   1      38.877  30.302  33.311  1.00  0.00     0.049 A 
ATOM     44  N   UNL A   1      41.417  28.589  33.456  1.00  0.00    -0.248 NA
ATOM     45  C   UNL A   1      41.427  28.970  35.763  1.00  0.00     0.031 C 
ATOM     46  C   UNL A   1      37.711  31.185  33.246  1.00  0.00     0.029 A 
ATOM     47  N   UNL A   1      39.039  29.850  32.035  1.00  0.00    -0.354 N 
ATOM     48  C   UNL A   1      42.501  27.948  34.035  1.00  0.00     0.074 A 
ATOM     49  C   UNL A   1      42.491  28.252  35.447  1.00  0.00     0.031 C 
ATOM     50  C   UNL A   1      37.276  31.232  31.975  1.00  0.00     0.029 A 
ATOM     51  C   UNL A   1      38.165  30.423  31.147  1.00  0.00     0.049 A 
ATOM     52  H   UNL A   1      39.712  29.180  31.777  1.00  0.00     0.167 HD
ATOM     53  C   UNL A   1      43.416  27.173  33.418  1.00  0.00     0.037 A 
ATOM     54  C   UNL A   1      38.131  30.322  29.807  1.00  0.00     0.037 A 
ATOM     55  C   UNL A   1      43.383  26.915  32.006  1.00  0.00     0.049 A 
ATOM     56  C   UNL A   1      39.176  29.471  29.141  1.00  0.00     0.074 A 
ATOM     57  C   UNL A   1      44.225  26.121  31.254  1.00  0.00     0.029 A 
ATOM     58  N   UNL A   1      42.449  27.462  31.134  1.00  0.00    -0.354 N 
ATOM     59  N   UNL A   1      40.183  28.828  29.686  1.00  0.00    -0.248 NA
ATOM     60  C   UNL A   1      39.085  29.328  27.685  1.00  0.00     0.031 C 
ATOM     61  C   UNL A   1      43.828  26.224  29.919  1.00  0.00     0.029 A 
ATOM     62  C   UNL A   1      42.704  27.036  29.845  1.00  0.00     0.049 A 
ATOM     63  H   UNL A   1      41.716  28.064  31.395  1.00  0.00     0.167 HD
ATOM     64  C   UNL A   1      40.832  28.179  28.645  1.00  0.00     0.074 A 
ATOM     65  C   UNL A   1      40.096  28.506  27.437  1.00  0.00     0.031 C 
ATOM     66  C   UNL A   1      41.933  27.387  28.677  1.00  0.00     0.037 A 
BRANCH  53  67
ATOM     67  C   UNL A   1      44.502  26.576  34.257  1.00  0.00     0.057 A 
ATOM     68  C   UNL A   1      44.316  25.348  34.904  1.00  0.00     0.134 A 
ATOM     69  C   UNL A   1      45.730  27.226  34.447  1.00  0.00     0.134 A 
ATOM     70  F   UNL A   1      43.170  24.666  34.754  1.00  0.00    -0.206 F 
ATOM     71  C   UNL A   1      45.303  24.799  35.723  1.00  0.00     0.040 A 
ATOM     72  C   UNL A   1      46.734  26.674  35.241  1.00  0.00     0.040 A 
ATOM     73  F   UNL A   1      45.984  28.393  33.833  1.00  0.00    -0.206 F 
ATOM     74  C   UNL A   1      46.518  25.461  35.891  1.00  0.00     0.006 A 
ENDBRANCH  53  67
BRANCH  54  75
ATOM     75  C   UNL A   1      37.064  31.015  29.046  1.00  0.00     0.057 A 
ATOM     76  C   UNL A   1      37.147  32.376  28.728  1.00  0.00     0.134 A 
ATOM     77  C   UNL A   1      35.896  30.337  28.682  1.00  0.00     0.134 A 
ATOM     78  F   UNL A   1      38.231  33.088  29.067  1.00  0.00    -0.206 F 
ATOM     79  C   UNL A   1      36.098  33.041  28.088  1.00  0.00     0.040 A 
ATOM     80  C   UNL A   1      34.849  30.984  28.023  1.00  0.00     0.040 A 
ATOM     81  F   UNL A   1      35.762  29.031  28.957  1.00  0.00    -0.206 F 
ATOM     82  C   UNL A   1      34.947  32.344  27.732  1.00  0.00     0.006 A 
ENDBRANCH  54  75
BRANCH  66  83
ATOM     83  C   UNL A   1      42.387  26.797  27.377  1.00  0.00     0.057 A 
ATOM     84  C   UNL A   1      42.014  25.494  27.023  1.00  0.00     0.134 A 
ATOM     85  C   UNL A   1      43.274  27.476  26.533  1.00  0.00     0.134 A 
ATOM     86  F   UNL A   1      41.179  24.789  27.801  1.00  0.00    -0.206 F 
ATOM     87  C   UNL A   1      42.527  24.877  25.885  1.00  0.00     0.040 A 
ATOM     88  C   UNL A   1      43.771  26.879  25.376  1.00  0.00     0.040 A 
ATOM     89  F   UNL A   1      43.660  28.729  26.818  1.00  0.00    -0.206 F 
ATOM     90  C   UNL A   1      43.408  25.570  25.056  1.00  0.00     0.006 A 
ENDBRANCH  66  83
ENDBRANCH  40  41
ENDBRANCH  33  35
ENDBRANCH  32  33
ENDBRANCH  31  32
ENDBRANCH   1  31
TORSDOF 16
ENDMDL
