MODEL 1
REMARK VINA RESULT:     -11.3      0.000      0.000
REMARK SMILES CCc1c(C(=O)NCC(=O)OCCOC(=O)c2ccc(-c3c4nc(c(-c5c(F)cccc5F)c5ccc([nH]5)c(-c5c(F)cccc5F)c5nc(c(-c6c(F)cccc6F)c6ccc3[nH]6)C=C5)C=C4)cc2)nnn1-c1ccc(Cl)cc1
REMARK SMILES IDX 12 1 11 2 9 3 10 4 8 5 7 6 5 7 6 8 4 10 3 11 73 12 71 13
REMARK SMILES IDX 72 14 2 15 1 16 74 17 75 18 80 19 76 20 79 21 77 22 78 23
REMARK SMILES IDX 13 24 14 25 15 26 16 27 17 28 18 29 70 30 19 31 69 32 20 33
REMARK SMILES IDX 21 34 22 35 63 36 23 37 68 38 62 39 64 40 24 41 67 42 61 43
REMARK SMILES IDX 60 44 25 46 51 47 34 48 50 49 35 50 38 51 49 52 65 53 36 54
REMARK SMILES IDX 37 55 48 57 66 58 39 59 26 60 27 61 32 62 28 63 29 64 31 65
REMARK SMILES IDX 33 66 30 67 52 68 53 69 58 70 54 71 55 72 57 73 59 74 56 75
REMARK SMILES IDX 40 76 41 77 46 78 42 79 43 80 45 81 47 82 44 83
REMARK H PARENT 7 9 64 45 38 56
REMARK Flexibility Score: inf
ROOT
ATOM      1  C   UNL A   1      42.180  19.387  26.767  1.00  0.00     0.274 C 
ENDROOT
BRANCH   1   2
ATOM      2  O   UNL A   1      41.438  20.440  26.123  1.00  0.00    -0.461 OA
BRANCH   2   3
ATOM      3  C   UNL A   1      40.569  21.146  26.903  1.00  0.00     0.325 C 
ATOM      4  O   UNL A   1      40.718  21.353  28.103  1.00  0.00    -0.250 OA
BRANCH   3   5
ATOM      5  C   UNL A   1      39.372  21.678  26.117  1.00  0.00     0.239 C 
BRANCH   5   6
ATOM      6  N   UNL A   1      38.535  20.638  25.605  1.00  0.00    -0.340 N 
ATOM      7  C   UNL A   1      37.313  20.616  25.019  1.00  0.00     0.274 C 
ATOM      8  O   UNL A   1      36.940  19.465  24.752  1.00  0.00    -0.267 OA
ATOM      9  H   UNL A   1      38.935  19.742  25.698  1.00  0.00     0.164 HD
BRANCH   7  10
ATOM     10  C   UNL A   1      36.465  21.765  24.645  1.00  0.00     0.174 A 
ATOM     11  C   UNL A   1      35.270  22.429  25.005  1.00  0.00     0.077 A 
ATOM     12  N   UNL A   1      35.162  23.408  23.988  1.00  0.00    -0.217 N 
ATOM     13  N   UNL A   1      36.926  22.351  23.464  1.00  0.00    -0.124 NA
ATOM     14  N   UNL A   1      36.077  23.248  23.036  1.00  0.00    -0.061 NA
BRANCH  11  15
ATOM     15  C   UNL A   1      34.043  22.308  25.887  1.00  0.00     0.055 C 
ATOM     16  C   UNL A   1      33.986  22.528  27.368  1.00  0.00     0.011 C 
ENDBRANCH  11  15
BRANCH  12  17
ATOM     17  C   UNL A   1      34.081  24.289  23.765  1.00  0.00     0.067 A 
ATOM     18  C   UNL A   1      34.095  25.544  24.384  1.00  0.00     0.030 A 
ATOM     19  C   UNL A   1      33.125  23.965  22.796  1.00  0.00     0.030 A 
ATOM     20  C   UNL A   1      33.185  26.514  23.961  1.00  0.00     0.023 A 
ATOM     21  C   UNL A   1      32.218  24.939  22.384  1.00  0.00     0.023 A 
ATOM     22  C   UNL A   1      32.266  26.213  22.952  1.00  0.00     0.041 A 
ATOM     23  Cl  UNL A   1      31.206  27.438  22.374  1.00  0.00    -0.084 Cl
ENDBRANCH  12  17
ENDBRANCH   7  10
ENDBRANCH   5   6
ENDBRANCH   3   5
ENDBRANCH   2   3
ENDBRANCH   1   2
BRANCH   1  24
ATOM     24  C   UNL A   1      43.096  18.655  25.786  1.00  0.00     0.275 C 
BRANCH  24  25
ATOM     25  O   UNL A   1      43.277  19.414  24.590  1.00  0.00    -0.458 OA
BRANCH  25  26
ATOM     26  C   UNL A   1      44.558  19.668  24.261  1.00  0.00     0.338 C 
ATOM     27  O   UNL A   1      45.382  18.873  23.807  1.00  0.00    -0.246 OA
BRANCH  26  28
ATOM     28  C   UNL A   1      44.880  21.068  24.522  1.00  0.00     0.060 A 
ATOM     29  C   UNL A   1      45.965  21.331  25.368  1.00  0.00     0.016 A 
ATOM     30  C   UNL A   1      43.980  22.067  24.134  1.00  0.00     0.016 A 
ATOM     31  C   UNL A   1      46.020  22.547  26.008  1.00  0.00     0.010 A 
ATOM     32  C   UNL A   1      44.026  23.274  24.785  1.00  0.00     0.010 A 
ATOM     33  C   UNL A   1      44.986  23.455  25.780  1.00  0.00    -0.014 A 
BRANCH  33  34
ATOM     34  C   UNL A   1      44.876  24.585  26.676  1.00  0.00     0.031 A 
ATOM     35  C   UNL A   1      46.040  25.492  26.692  1.00  0.00     0.074 A 
ATOM     36  C   UNL A   1      43.718  24.830  27.316  1.00  0.00     0.049 A 
ATOM     37  N   UNL A   1      46.771  25.842  27.698  1.00  0.00    -0.248 NA
ATOM     38  C   UNL A   1      46.505  26.008  25.395  1.00  0.00     0.031 C 
ATOM     39  C   UNL A   1      42.424  24.168  27.109  1.00  0.00     0.029 A 
ATOM     40  N   UNL A   1      43.419  25.820  28.198  1.00  0.00    -0.354 N 
ATOM     41  C   UNL A   1      47.667  26.778  27.194  1.00  0.00     0.074 A 
ATOM     42  C   UNL A   1      47.567  26.722  25.759  1.00  0.00     0.031 C 
ATOM     43  C   UNL A   1      41.449  24.921  27.666  1.00  0.00     0.029 A 
ATOM     44  C   UNL A   1      42.061  26.044  28.357  1.00  0.00     0.049 A 
ATOM     45  H   UNL A   1      44.108  26.332  28.680  1.00  0.00     0.167 HD
ATOM     46  C   UNL A   1      48.240  27.716  27.992  1.00  0.00     0.037 A 
ATOM     47  C   UNL A   1      41.490  27.128  28.934  1.00  0.00     0.037 A 
ATOM     48  C   UNL A   1      48.221  27.329  29.377  1.00  0.00     0.049 A 
ATOM     49  C   UNL A   1      42.536  27.825  29.724  1.00  0.00     0.074 A 
ATOM     50  C   UNL A   1      48.704  26.246  30.087  1.00  0.00     0.029 A 
ATOM     51  N   UNL A   1      47.332  27.953  30.217  1.00  0.00    -0.354 N 
ATOM     52  N   UNL A   1      43.056  27.370  30.828  1.00  0.00    -0.248 NA
ATOM     53  C   UNL A   1      43.311  28.861  29.055  1.00  0.00     0.031 C 
ATOM     54  C   UNL A   1      47.739  26.006  31.108  1.00  0.00     0.029 A 
ATOM     55  C   UNL A   1      46.744  26.976  30.977  1.00  0.00     0.049 A 
ATOM     56  H   UNL A   1      47.152  28.920  30.264  1.00  0.00     0.167 HD
ATOM     57  C   UNL A   1      44.392  27.741  30.773  1.00  0.00     0.074 A 
ATOM     58  C   UNL A   1      44.463  28.748  29.719  1.00  0.00     0.031 C 
ATOM     59  C   UNL A   1      45.359  26.997  31.385  1.00  0.00     0.037 A 
BRANCH  46  60
ATOM     60  C   UNL A   1      48.480  29.130  27.538  1.00  0.00     0.057 A 
ATOM     61  C   UNL A   1      49.754  29.700  27.689  1.00  0.00     0.134 A 
ATOM     62  C   UNL A   1      47.447  30.039  27.217  1.00  0.00     0.134 A 
ATOM     63  F   UNL A   1      50.807  28.943  28.030  1.00  0.00    -0.206 F 
ATOM     64  C   UNL A   1      49.974  31.077  27.576  1.00  0.00     0.040 A 
ATOM     65  C   UNL A   1      47.667  31.407  27.044  1.00  0.00     0.040 A 
ATOM     66  F   UNL A   1      46.161  29.671  27.155  1.00  0.00    -0.206 F 
ATOM     67  C   UNL A   1      48.930  31.935  27.253  1.00  0.00     0.006 A 
ENDBRANCH  46  60
BRANCH  47  68
ATOM     68  C   UNL A   1      40.189  27.758  28.619  1.00  0.00     0.057 A 
ATOM     69  C   UNL A   1      39.165  27.813  29.573  1.00  0.00     0.134 A 
ATOM     70  C   UNL A   1      40.003  28.545  27.467  1.00  0.00     0.134 A 
ATOM     71  F   UNL A   1      39.270  27.133  30.723  1.00  0.00    -0.206 F 
ATOM     72  C   UNL A   1      38.031  28.617  29.402  1.00  0.00     0.040 A 
ATOM     73  C   UNL A   1      38.869  29.340  27.277  1.00  0.00     0.040 A 
ATOM     74  F   UNL A   1      40.953  28.639  26.526  1.00  0.00    -0.206 F 
ATOM     75  C   UNL A   1      37.884  29.389  28.254  1.00  0.00     0.006 A 
ENDBRANCH  47  68
BRANCH  59  76
ATOM     76  C   UNL A   1      44.915  25.932  32.348  1.00  0.00     0.057 A 
ATOM     77  C   UNL A   1      44.568  24.627  31.963  1.00  0.00     0.134 A 
ATOM     78  C   UNL A   1      44.966  26.194  33.721  1.00  0.00     0.134 A 
ATOM     79  F   UNL A   1      44.600  24.250  30.679  1.00  0.00    -0.206 F 
ATOM     80  C   UNL A   1      44.233  23.647  32.903  1.00  0.00     0.040 A 
ATOM     81  C   UNL A   1      44.668  25.214  34.670  1.00  0.00     0.040 A 
ATOM     82  F   UNL A   1      45.352  27.401  34.165  1.00  0.00    -0.206 F 
ATOM     83  C   UNL A   1      44.286  23.939  34.261  1.00  0.00     0.006 A 
ENDBRANCH  59  76
ENDBRANCH  33  34
ENDBRANCH  26  28
ENDBRANCH  25  26
ENDBRANCH  24  25
ENDBRANCH   1  24
TORSDOF 15
ENDMDL
MODEL 2
REMARK VINA RESULT:     -11.2      6.488     11.053
REMARK SMILES CCc1c(C(=O)NCC(=O)OCCOC(=O)c2ccc(-c3c4nc(c(-c5c(F)cccc5F)c5ccc([nH]5)c(-c5c(F)cccc5F)c5nc(c(-c6c(F)cccc6F)c6ccc3[nH]6)C=C5)C=C4)cc2)nnn1-c1ccc(Cl)cc1
REMARK SMILES IDX 12 1 11 2 9 3 10 4 8 5 7 6 5 7 6 8 4 10 3 11 73 12 71 13
REMARK SMILES IDX 72 14 2 15 1 16 74 17 75 18 80 19 76 20 79 21 77 22 78 23
REMARK SMILES IDX 13 24 14 25 15 26 16 27 17 28 18 29 70 30 19 31 69 32 20 33
REMARK SMILES IDX 21 34 22 35 63 36 23 37 68 38 62 39 64 40 24 41 67 42 61 43
REMARK SMILES IDX 60 44 25 46 51 47 34 48 50 49 35 50 38 51 49 52 65 53 36 54
REMARK SMILES IDX 37 55 48 57 66 58 39 59 26 60 27 61 32 62 28 63 29 64 31 65
REMARK SMILES IDX 33 66 30 67 52 68 53 69 58 70 54 71 55 72 57 73 59 74 56 75
REMARK SMILES IDX 40 76 41 77 46 78 42 79 43 80 45 81 47 82 44 83
REMARK H PARENT 7 9 64 45 38 56
REMARK Flexibility Score: inf
ROOT
ATOM      1  C   UNL A   1      34.136  34.932  29.267  1.00  0.00     0.274 C 
ENDROOT
BRANCH   1   2
ATOM      2  O   UNL A   1      33.938  33.507  29.194  1.00  0.00    -0.461 OA
BRANCH   2   3
ATOM      3  C   UNL A   1      34.530  32.856  28.151  1.00  0.00     0.325 C 
ATOM      4  O   UNL A   1      35.487  33.284  27.513  1.00  0.00    -0.250 OA
BRANCH   3   5
ATOM      5  C   UNL A   1      33.880  31.505  27.855  1.00  0.00     0.239 C 
BRANCH   5   6
ATOM      6  N   UNL A   1      32.717  31.616  27.031  1.00  0.00    -0.340 N 
ATOM      7  C   UNL A   1      31.937  30.719  26.379  1.00  0.00     0.274 C 
ATOM      8  O   UNL A   1      31.026  31.264  25.740  1.00  0.00    -0.267 OA
ATOM      9  H   UNL A   1      32.417  32.546  26.911  1.00  0.00     0.164 HD
BRANCH   7  10
ATOM     10  C   UNL A   1      32.033  29.245  26.402  1.00  0.00     0.174 A 
ATOM     11  C   UNL A   1      32.395  28.143  25.596  1.00  0.00     0.077 A 
ATOM     12  N   UNL A   1      32.050  27.048  26.426  1.00  0.00    -0.217 N 
ATOM     13  N   UNL A   1      31.484  28.737  27.581  1.00  0.00    -0.124 NA
ATOM     14  N   UNL A   1      31.404  27.433  27.523  1.00  0.00    -0.061 NA
BRANCH  11  15
ATOM     15  C   UNL A   1      32.764  27.756  24.177  1.00  0.00     0.055 C 
ATOM     16  C   UNL A   1      32.004  28.104  22.933  1.00  0.00     0.011 C 
ENDBRANCH  11  15
BRANCH  12  17
ATOM     17  C   UNL A   1      32.076  25.678  26.085  1.00  0.00     0.067 A 
ATOM     18  C   UNL A   1      30.926  25.098  25.537  1.00  0.00     0.030 A 
ATOM     19  C   UNL A   1      33.292  24.988  26.126  1.00  0.00     0.030 A 
ATOM     20  C   UNL A   1      31.023  23.836  24.950  1.00  0.00     0.023 A 
ATOM     21  C   UNL A   1      33.377  23.727  25.539  1.00  0.00     0.023 A 
ATOM     22  C   UNL A   1      32.250  23.167  24.937  1.00  0.00     0.041 A 
ATOM     23  Cl  UNL A   1      32.384  21.651  24.134  1.00  0.00    -0.084 Cl
ENDBRANCH  12  17
ENDBRANCH   7  10
ENDBRANCH   5   6
ENDBRANCH   3   5
ENDBRANCH   2   3
ENDBRANCH   1   2
BRANCH   1  24
ATOM     24  C   UNL A   1      32.903  35.649  29.815  1.00  0.00     0.275 C 
BRANCH  24  25
ATOM     25  O   UNL A   1      33.139  36.138  31.136  1.00  0.00    -0.458 OA
BRANCH  25  26
ATOM     26  C   UNL A   1      32.824  35.283  32.128  1.00  0.00     0.338 C 
ATOM     27  O   UNL A   1      31.700  35.020  32.556  1.00  0.00    -0.246 OA
BRANCH  26  28
ATOM     28  C   UNL A   1      34.034  34.674  32.673  1.00  0.00     0.060 A 
ATOM     29  C   UNL A   1      35.134  35.514  32.888  1.00  0.00     0.016 A 
ATOM     30  C   UNL A   1      34.139  33.281  32.733  1.00  0.00     0.016 A 
ATOM     31  C   UNL A   1      36.389  34.953  32.939  1.00  0.00     0.010 A 
ATOM     32  C   UNL A   1      35.392  32.722  32.768  1.00  0.00     0.010 A 
ATOM     33  C   UNL A   1      36.497  33.572  32.772  1.00  0.00    -0.014 A 
BRANCH  33  34
ATOM     34  C   UNL A   1      37.812  33.029  32.512  1.00  0.00     0.031 A 
ATOM     35  C   UNL A   1      38.749  33.075  33.652  1.00  0.00     0.074 A 
ATOM     36  C   UNL A   1      38.068  32.403  31.348  1.00  0.00     0.049 A 
ATOM     37  N   UNL A   1      39.914  33.629  33.711  1.00  0.00    -0.248 NA
ATOM     38  C   UNL A   1      38.284  32.502  34.926  1.00  0.00     0.031 C 
ATOM     39  C   UNL A   1      37.107  32.034  30.302  1.00  0.00     0.029 A 
ATOM     40  N   UNL A   1      39.227  31.843  30.914  1.00  0.00    -0.354 N 
ATOM     41  C   UNL A   1      40.413  33.304  34.967  1.00  0.00     0.074 A 
ATOM     42  C   UNL A   1      39.319  32.755  35.723  1.00  0.00     0.031 C 
ATOM     43  C   UNL A   1      37.676  31.123  29.482  1.00  0.00     0.029 A 
ATOM     44  C   UNL A   1      39.063  30.937  29.879  1.00  0.00     0.049 A 
ATOM     45  H   UNL A   1      40.105  32.062  31.301  1.00  0.00     0.167 HD
ATOM     46  C   UNL A   1      41.748  33.266  35.214  1.00  0.00     0.037 A 
ATOM     47  C   UNL A   1      39.978  30.035  29.451  1.00  0.00     0.037 A 
ATOM     48  C   UNL A   1      42.494  34.043  34.261  1.00  0.00     0.049 A 
ATOM     49  C   UNL A   1      41.303  30.447  29.980  1.00  0.00     0.074 A 
ATOM     50  C   UNL A   1      42.476  35.367  33.864  1.00  0.00     0.029 A 
ATOM     51  N   UNL A   1      43.213  33.380  33.298  1.00  0.00    -0.354 N 
ATOM     52  N   UNL A   1      41.970  31.489  29.573  1.00  0.00    -0.248 NA
ATOM     53  C   UNL A   1      41.708  29.917  31.274  1.00  0.00     0.031 C 
ATOM     54  C   UNL A   1      42.761  35.343  32.468  1.00  0.00     0.029 A 
ATOM     55  C   UNL A   1      42.967  34.011  32.107  1.00  0.00     0.049 A 
ATOM     56  H   UNL A   1      43.796  32.598  33.438  1.00  0.00     0.167 HD
ATOM     57  C   UNL A   1      42.574  31.994  30.715  1.00  0.00     0.074 A 
ATOM     58  C   UNL A   1      42.469  30.926  31.705  1.00  0.00     0.031 C 
ATOM     59  C   UNL A   1      42.846  33.326  30.842  1.00  0.00     0.037 A 
BRANCH  46  60
ATOM     60  C   UNL A   1      42.380  32.228  36.102  1.00  0.00     0.057 A 
ATOM     61  C   UNL A   1      43.267  32.629  37.114  1.00  0.00     0.134 A 
ATOM     62  C   UNL A   1      42.367  30.843  35.825  1.00  0.00     0.134 A 
ATOM     63  F   UNL A   1      43.394  33.924  37.441  1.00  0.00    -0.206 F 
ATOM     64  C   UNL A   1      44.111  31.724  37.767  1.00  0.00     0.040 A 
ATOM     65  C   UNL A   1      43.164  29.925  36.510  1.00  0.00     0.040 A 
ATOM     66  F   UNL A   1      41.665  30.321  34.811  1.00  0.00    -0.206 F 
ATOM     67  C   UNL A   1      44.062  30.368  37.467  1.00  0.00     0.006 A 
ENDBRANCH  46  60
BRANCH  47  68
ATOM     68  C   UNL A   1      39.745  28.696  28.865  1.00  0.00     0.057 A 
ATOM     69  C   UNL A   1      40.222  28.375  27.588  1.00  0.00     0.134 A 
ATOM     70  C   UNL A   1      39.273  27.618  29.636  1.00  0.00     0.134 A 
ATOM     71  F   UNL A   1      40.733  29.327  26.794  1.00  0.00    -0.206 F 
ATOM     72  C   UNL A   1      40.247  27.059  27.111  1.00  0.00     0.040 A 
ATOM     73  C   UNL A   1      39.278  26.302  29.168  1.00  0.00     0.040 A 
ATOM     74  F   UNL A   1      38.872  27.791  30.904  1.00  0.00    -0.206 F 
ATOM     75  C   UNL A   1      39.780  26.015  27.905  1.00  0.00     0.006 A 
ENDBRANCH  47  68
BRANCH  59  76
ATOM     76  C   UNL A   1      42.735  34.181  29.611  1.00  0.00     0.057 A 
ATOM     77  C   UNL A   1      41.565  34.858  29.233  1.00  0.00     0.134 A 
ATOM     78  C   UNL A   1      43.884  34.434  28.854  1.00  0.00     0.134 A 
ATOM     79  F   UNL A   1      40.445  34.767  29.961  1.00  0.00    -0.206 F 
ATOM     80  C   UNL A   1      41.529  35.703  28.120  1.00  0.00     0.040 A 
ATOM     81  C   UNL A   1      43.870  35.303  27.761  1.00  0.00     0.040 A 
ATOM     82  F   UNL A   1      45.055  33.871  29.193  1.00  0.00    -0.206 F 
ATOM     83  C   UNL A   1      42.685  35.930  27.382  1.00  0.00     0.006 A 
ENDBRANCH  59  76
ENDBRANCH  33  34
ENDBRANCH  26  28
ENDBRANCH  25  26
ENDBRANCH  24  25
ENDBRANCH   1  24
TORSDOF 15
ENDMDL
MODEL 3
REMARK VINA RESULT:     -11.0      6.019     11.191
REMARK SMILES CCc1c(C(=O)NCC(=O)OCCOC(=O)c2ccc(-c3c4nc(c(-c5c(F)cccc5F)c5ccc([nH]5)c(-c5c(F)cccc5F)c5nc(c(-c6c(F)cccc6F)c6ccc3[nH]6)C=C5)C=C4)cc2)nnn1-c1ccc(Cl)cc1
REMARK SMILES IDX 12 1 11 2 9 3 10 4 8 5 7 6 5 7 6 8 4 10 3 11 73 12 71 13
REMARK SMILES IDX 72 14 2 15 1 16 74 17 75 18 80 19 76 20 79 21 77 22 78 23
REMARK SMILES IDX 13 24 14 25 15 26 16 27 17 28 18 29 70 30 19 31 69 32 20 33
REMARK SMILES IDX 21 34 22 35 63 36 23 37 68 38 62 39 64 40 24 41 67 42 61 43
REMARK SMILES IDX 60 44 25 46 51 47 34 48 50 49 35 50 38 51 49 52 65 53 36 54
REMARK SMILES IDX 37 55 48 57 66 58 39 59 26 60 27 61 32 62 28 63 29 64 31 65
REMARK SMILES IDX 33 66 30 67 52 68 53 69 58 70 54 71 55 72 57 73 59 74 56 75
REMARK SMILES IDX 40 76 41 77 46 78 42 79 43 80 45 81 47 82 44 83
REMARK H PARENT 7 9 64 45 38 56
REMARK Flexibility Score: inf
ROOT
ATOM      1  C   UNL A   1      34.131  35.104  28.437  1.00  0.00     0.274 C 
ENDROOT
BRANCH   1   2
ATOM      2  O   UNL A   1      32.876  35.513  29.015  1.00  0.00    -0.461 OA
BRANCH   2   3
ATOM      3  C   UNL A   1      32.921  36.041  30.272  1.00  0.00     0.325 C 
ATOM      4  O   UNL A   1      32.127  36.868  30.710  1.00  0.00    -0.250 OA
BRANCH   3   5
ATOM      5  C   UNL A   1      34.072  35.481  31.106  1.00  0.00     0.239 C 
BRANCH   5   6
ATOM      6  N   UNL A   1      33.646  34.494  32.049  1.00  0.00    -0.340 N 
ATOM      7  C   UNL A   1      34.296  33.679  32.916  1.00  0.00     0.274 C 
ATOM      8  O   UNL A   1      33.521  32.940  33.539  1.00  0.00    -0.267 OA
ATOM      9  H   UNL A   1      32.668  34.383  32.075  1.00  0.00     0.164 HD
BRANCH   7  10
ATOM     10  C   UNL A   1      35.743  33.633  33.208  1.00  0.00     0.174 A 
ATOM     11  C   UNL A   1      36.847  32.750  33.217  1.00  0.00     0.077 A 
ATOM     12  N   UNL A   1      37.867  33.565  33.766  1.00  0.00    -0.217 N 
ATOM     13  N   UNL A   1      36.168  34.838  33.772  1.00  0.00    -0.124 NA
ATOM     14  N   UNL A   1      37.401  34.734  34.195  1.00  0.00    -0.061 NA
BRANCH  11  15
ATOM     15  C   UNL A   1      37.223  31.288  33.082  1.00  0.00     0.055 C 
ATOM     16  C   UNL A   1      36.414  30.219  32.412  1.00  0.00     0.011 C 
ENDBRANCH  11  15
BRANCH  12  17
ATOM     17  C   UNL A   1      39.173  33.167  34.129  1.00  0.00     0.067 A 
ATOM     18  C   UNL A   1      40.259  33.680  33.411  1.00  0.00     0.030 A 
ATOM     19  C   UNL A   1      39.358  32.426  35.301  1.00  0.00     0.030 A 
ATOM     20  C   UNL A   1      41.545  33.513  33.926  1.00  0.00     0.023 A 
ATOM     21  C   UNL A   1      40.647  32.263  35.805  1.00  0.00     0.023 A 
ATOM     22  C   UNL A   1      41.730  32.824  35.127  1.00  0.00     0.041 A 
ATOM     23  Cl  UNL A   1      43.307  32.697  35.803  1.00  0.00    -0.084 Cl
ENDBRANCH  12  17
ENDBRANCH   7  10
ENDBRANCH   5   6
ENDBRANCH   3   5
ENDBRANCH   2   3
ENDBRANCH   1   2
BRANCH   1  24
ATOM     24  C   UNL A   1      34.059  33.688  27.867  1.00  0.00     0.275 C 
BRANCH  24  25
ATOM     25  O   UNL A   1      35.332  33.043  27.935  1.00  0.00    -0.458 OA
BRANCH  25  26
ATOM     26  C   UNL A   1      35.301  31.701  27.824  1.00  0.00     0.338 C 
ATOM     27  O   UNL A   1      34.554  31.029  27.113  1.00  0.00    -0.246 OA
BRANCH  26  28
ATOM     28  C   UNL A   1      36.308  31.099  28.695  1.00  0.00     0.060 A 
ATOM     29  C   UNL A   1      37.335  31.931  29.159  1.00  0.00     0.016 A 
ATOM     30  C   UNL A   1      36.354  29.709  28.837  1.00  0.00     0.016 A 
ATOM     31  C   UNL A   1      38.515  31.353  29.563  1.00  0.00     0.010 A 
ATOM     32  C   UNL A   1      37.538  29.132  29.225  1.00  0.00     0.010 A 
ATOM     33  C   UNL A   1      38.626  29.965  29.487  1.00  0.00    -0.014 A 
BRANCH  33  34
ATOM     34  C   UNL A   1      39.947  29.389  29.607  1.00  0.00     0.031 A 
ATOM     35  C   UNL A   1      40.491  29.342  30.978  1.00  0.00     0.074 A 
ATOM     36  C   UNL A   1      40.535  28.816  28.540  1.00  0.00     0.049 A 
ATOM     37  N   UNL A   1      41.593  29.850  31.422  1.00  0.00    -0.248 NA
ATOM     38  C   UNL A   1      39.649  28.721  32.013  1.00  0.00     0.031 C 
ATOM     39  C   UNL A   1      39.934  28.537  27.230  1.00  0.00     0.029 A 
ATOM     40  N   UNL A   1      41.761  28.239  28.446  1.00  0.00    -0.354 N 
ATOM     41  C   UNL A   1      41.678  29.442  32.749  1.00  0.00     0.074 A 
ATOM     42  C   UNL A   1      40.395  28.894  33.101  1.00  0.00     0.031 C 
ATOM     43  C   UNL A   1      40.710  27.650  26.569  1.00  0.00     0.029 A 
ATOM     44  C   UNL A   1      41.906  27.395  27.357  1.00  0.00     0.049 A 
ATOM     45  H   UNL A   1      42.483  28.406  29.094  1.00  0.00     0.167 HD
ATOM     46  C   UNL A   1      42.873  29.345  33.387  1.00  0.00     0.037 A 
ATOM     47  C   UNL A   1      42.891  26.484  27.174  1.00  0.00     0.037 A 
ATOM     48  C   UNL A   1      43.888  30.143  32.756  1.00  0.00     0.049 A 
ATOM     49  C   UNL A   1      43.999  26.821  28.104  1.00  0.00     0.074 A 
ATOM     50  C   UNL A   1      44.016  31.486  32.453  1.00  0.00     0.029 A 
ATOM     51  N   UNL A   1      44.855  29.506  32.018  1.00  0.00    -0.354 N 
ATOM     52  N   UNL A   1      44.777  27.858  27.984  1.00  0.00    -0.248 NA
ATOM     53  C   UNL A   1      43.979  26.210  29.426  1.00  0.00     0.031 C 
ATOM     54  C   UNL A   1      44.714  31.525  31.211  1.00  0.00     0.029 A 
ATOM     55  C   UNL A   1      44.996  30.207  30.849  1.00  0.00     0.049 A 
ATOM     56  H   UNL A   1      45.353  28.698  32.281  1.00  0.00     0.167 HD
ATOM     57  C   UNL A   1      45.012  28.281  29.284  1.00  0.00     0.074 A 
ATOM     58  C   UNL A   1      44.589  27.167  30.128  1.00  0.00     0.031 C 
ATOM     59  C   UNL A   1      45.256  29.594  29.568  1.00  0.00     0.037 A 
BRANCH  46  60
ATOM     60  C   UNL A   1      43.184  28.240  34.360  1.00  0.00     0.057 A 
ATOM     61  C   UNL A   1      43.214  26.910  33.912  1.00  0.00     0.134 A 
ATOM     62  C   UNL A   1      43.182  28.403  35.763  1.00  0.00     0.134 A 
ATOM     63  F   UNL A   1      43.182  26.627  32.601  1.00  0.00    -0.206 F 
ATOM     64  C   UNL A   1      43.195  25.824  34.795  1.00  0.00     0.040 A 
ATOM     65  C   UNL A   1      43.221  27.329  36.652  1.00  0.00     0.040 A 
ATOM     66  F   UNL A   1      43.038  29.601  36.345  1.00  0.00    -0.206 F 
ATOM     67  C   UNL A   1      43.198  26.031  36.169  1.00  0.00     0.006 A 
ENDBRANCH  46  60
BRANCH  47  68
ATOM     68  C   UNL A   1      42.825  25.187  26.465  1.00  0.00     0.057 A 
ATOM     69  C   UNL A   1      43.638  24.931  25.353  1.00  0.00     0.134 A 
ATOM     70  C   UNL A   1      42.151  24.077  27.006  1.00  0.00     0.134 A 
ATOM     71  F   UNL A   1      44.354  25.916  24.793  1.00  0.00    -0.206 F 
ATOM     72  C   UNL A   1      43.788  23.644  24.821  1.00  0.00     0.040 A 
ATOM     73  C   UNL A   1      42.281  22.790  26.477  1.00  0.00     0.040 A 
ATOM     74  F   UNL A   1      41.414  24.185  28.121  1.00  0.00    -0.206 F 
ATOM     75  C   UNL A   1      43.113  22.567  25.388  1.00  0.00     0.006 A 
ENDBRANCH  47  68
BRANCH  59  76
ATOM     76  C   UNL A   1      45.541  30.515  28.416  1.00  0.00     0.057 A 
ATOM     77  C   UNL A   1      44.545  31.167  27.671  1.00  0.00     0.134 A 
ATOM     78  C   UNL A   1      46.868  30.859  28.134  1.00  0.00     0.134 A 
ATOM     79  F   UNL A   1      43.247  30.988  27.943  1.00  0.00    -0.206 F 
ATOM     80  C   UNL A   1      44.860  32.074  26.655  1.00  0.00     0.040 A 
ATOM     81  C   UNL A   1      47.194  31.790  27.146  1.00  0.00     0.040 A 
ATOM     82  F   UNL A   1      47.871  30.324  28.849  1.00  0.00    -0.206 F 
ATOM     83  C   UNL A   1      46.189  32.391  26.393  1.00  0.00     0.006 A 
ENDBRANCH  59  76
ENDBRANCH  33  34
ENDBRANCH  26  28
ENDBRANCH  25  26
ENDBRANCH  24  25
ENDBRANCH   1  24
TORSDOF 15
ENDMDL
