MODEL 1
REMARK VINA RESULT:     -12.9      0.000      0.000
REMARK SMILES Cc1ccc2[nH]cc([C@@H](C(=O)OCCOC(=O)c3ccc(-c4c5nc(c(-c6c(F)cccc6F)c6ccc([nH]6)c(-c6c(F)cccc6F)c6nc(c(-c7c(F)cccc7F)c7ccc4[nH]7)C=C6)C=C5)cc3)[NH+]3CCN(c4cccc(Cl)c4)CC3)c2c1
REMARK SMILES IDX 13 1 12 2 10 3 11 4 9 5 8 6 1 7 2 8 3 9 86 10 4 11 85 12
REMARK SMILES IDX 5 13 6 14 7 15 72 17 73 18 84 19 74 21 83 22 75 23 76 24
REMARK SMILES IDX 77 25 82 26 78 27 80 28 79 29 81 30 14 31 15 32 16 33 17 34
REMARK SMILES IDX 18 35 19 36 71 37 20 38 70 39 21 40 22 41 23 42 64 43 24 44
REMARK SMILES IDX 69 45 63 46 65 47 25 48 68 49 62 50 61 51 26 53 52 54 35 55
REMARK SMILES IDX 51 56 36 57 39 58 50 59 66 60 37 61 38 62 49 64 67 65 40 66
REMARK SMILES IDX 27 67 28 68 33 69 29 70 30 71 32 72 34 73 31 74 53 75 54 76
REMARK SMILES IDX 59 77 55 78 56 79 58 80 60 81 57 82 41 83 42 84 47 85 43 86
REMARK SMILES IDX 44 87 46 88 48 89 45 90
REMARK H PARENT 6 16 72 20 65 52 39 63
REMARK Flexibility Score: inf
ROOT
ATOM      1  C   UNL A   1      32.643  29.200  24.775  1.00  0.00     0.274 C 
ENDROOT
BRANCH   1   2
ATOM      2  O   UNL A   1      32.238  27.815  24.789  1.00  0.00    -0.457 OA
BRANCH   2   3
ATOM      3  C   UNL A   1      32.611  27.055  23.720  1.00  0.00     0.370 C 
ATOM      4  O   UNL A   1      33.691  27.186  23.145  1.00  0.00    -0.245 OA
BRANCH   3   5
ATOM      5  C   UNL A   1      31.515  26.065  23.253  1.00  0.00     0.328 C 
BRANCH   5   6
ATOM      6  C   UNL A   1      30.093  26.437  23.580  1.00  0.00     0.046 A 
ATOM      7  C   UNL A   1      29.443  31.026  21.410  1.00  0.00     0.044 C 
ATOM      8  C   UNL A   1      28.951  29.788  22.102  1.00  0.00    -0.050 A 
ATOM      9  C   UNL A   1      27.608  29.644  22.460  1.00  0.00     0.005 A 
ATOM     10  C   UNL A   1      29.866  28.774  22.420  1.00  0.00     0.014 A 
ATOM     11  C   UNL A   1      27.158  28.525  23.171  1.00  0.00     0.027 A 
ATOM     12  C   UNL A   1      29.439  27.635  23.136  1.00  0.00     0.009 A 
ATOM     13  C   UNL A   1      28.102  27.554  23.517  1.00  0.00     0.046 A 
ATOM     14  N   UNL A   1      27.961  26.401  24.250  1.00  0.00    -0.361 N 
ATOM     15  C   UNL A   1      29.162  25.750  24.340  1.00  0.00     0.094 A 
ATOM     16  H   UNL A   1      27.118  26.087  24.651  1.00  0.00     0.166 HD
ENDBRANCH   5   6
BRANCH   5  17
ATOM     17  N   UNL A   1      31.839  24.678  23.655  1.00  0.00    -0.316 N 
ATOM     18  C   UNL A   1      32.737  23.912  22.788  1.00  0.00     0.284 C 
ATOM     19  C   UNL A   1      32.132  24.455  25.080  1.00  0.00     0.284 C 
ATOM     20  H   UNL A   1      30.918  24.270  23.494  1.00  0.00     0.349 HD
ATOM     21  C   UNL A   1      34.226  23.814  23.170  1.00  0.00     0.178 C 
ATOM     22  C   UNL A   1      33.625  24.395  25.494  1.00  0.00     0.178 C 
ATOM     23  N   UNL A   1      34.378  23.510  24.593  1.00  0.00    -0.360 N 
BRANCH  23  24
ATOM     24  C   UNL A   1      35.635  23.093  25.016  1.00  0.00     0.038 A 
ATOM     25  C   UNL A   1      36.549  23.963  25.629  1.00  0.00     0.026 A 
ATOM     26  C   UNL A   1      36.031  21.770  24.787  1.00  0.00     0.046 A 
ATOM     27  C   UNL A   1      37.834  23.537  25.974  1.00  0.00     0.004 A 
ATOM     28  C   UNL A   1      37.317  21.346  25.125  1.00  0.00     0.043 A 
ATOM     29  C   UNL A   1      38.223  22.226  25.713  1.00  0.00     0.020 A 
ATOM     30  Cl  UNL A   1      37.798  19.727  24.795  1.00  0.00    -0.084 Cl
ENDBRANCH  23  24
ENDBRANCH   5  17
ENDBRANCH   3   5
ENDBRANCH   2   3
ENDBRANCH   1   2
BRANCH   1  31
ATOM     31  C   UNL A   1      31.600  30.068  25.475  1.00  0.00     0.275 C 
BRANCH  31  32
ATOM     32  O   UNL A   1      32.007  30.293  26.835  1.00  0.00    -0.458 OA
BRANCH  32  33
ATOM     33  C   UNL A   1      32.652  31.451  27.090  1.00  0.00     0.338 C 
ATOM     34  O   UNL A   1      32.197  32.583  26.967  1.00  0.00    -0.246 OA
BRANCH  33  35
ATOM     35  C   UNL A   1      34.017  31.186  27.600  1.00  0.00     0.060 A 
ATOM     36  C   UNL A   1      34.444  29.887  27.877  1.00  0.00     0.016 A 
ATOM     37  C   UNL A   1      34.842  32.262  27.936  1.00  0.00     0.016 A 
ATOM     38  C   UNL A   1      35.628  29.673  28.585  1.00  0.00     0.010 A 
ATOM     39  C   UNL A   1      36.081  32.034  28.545  1.00  0.00     0.010 A 
ATOM     40  C   UNL A   1      36.480  30.737  28.910  1.00  0.00    -0.014 A 
BRANCH  40  41
ATOM     41  C   UNL A   1      37.770  30.514  29.628  1.00  0.00     0.031 A 
ATOM     42  C   UNL A   1      38.860  29.684  28.999  1.00  0.00     0.074 A 
ATOM     43  C   UNL A   1      37.977  31.026  30.858  1.00  0.00     0.049 A 
ATOM     44  N   UNL A   1      39.880  29.090  29.566  1.00  0.00    -0.248 NA
ATOM     45  C   UNL A   1      38.780  29.478  27.544  1.00  0.00     0.031 C 
ATOM     46  C   UNL A   1      37.062  31.909  31.584  1.00  0.00     0.029 A 
ATOM     47  N   UNL A   1      39.032  30.864  31.725  1.00  0.00    -0.354 N 
ATOM     48  C   UNL A   1      40.518  28.379  28.556  1.00  0.00     0.074 A 
ATOM     49  C   UNL A   1      39.781  28.632  27.335  1.00  0.00     0.031 C 
ATOM     50  C   UNL A   1      37.607  32.240  32.763  1.00  0.00     0.029 A 
ATOM     51  C   UNL A   1      38.850  31.499  32.930  1.00  0.00     0.049 A 
ATOM     52  H   UNL A   1      39.839  30.345  31.504  1.00  0.00     0.167 HD
ATOM     53  C   UNL A   1      41.607  27.579  28.647  1.00  0.00     0.037 A 
ATOM     54  C   UNL A   1      39.556  31.441  34.074  1.00  0.00     0.037 A 
ATOM     55  C   UNL A   1      42.386  27.397  29.846  1.00  0.00     0.049 A 
ATOM     56  C   UNL A   1      40.742  30.530  34.166  1.00  0.00     0.074 A 
ATOM     57  C   UNL A   1      43.507  26.607  30.039  1.00  0.00     0.029 A 
ATOM     58  N   UNL A   1      42.143  28.044  31.048  1.00  0.00    -0.354 N 
ATOM     59  N   UNL A   1      41.255  29.750  33.248  1.00  0.00    -0.248 NA
ATOM     60  C   UNL A   1      41.425  30.464  35.466  1.00  0.00     0.031 C 
ATOM     61  C   UNL A   1      43.932  26.762  31.363  1.00  0.00     0.029 A 
ATOM     62  C   UNL A   1      43.094  27.672  31.985  1.00  0.00     0.049 A 
ATOM     63  H   UNL A   1      41.406  28.675  31.211  1.00  0.00     0.167 HD
ATOM     64  C   UNL A   1      42.318  29.097  33.855  1.00  0.00     0.074 A 
ATOM     65  C   UNL A   1      42.391  29.589  35.216  1.00  0.00     0.031 C 
ATOM     66  C   UNL A   1      43.153  28.167  33.334  1.00  0.00     0.037 A 
BRANCH  53  67
ATOM     67  C   UNL A   1      42.011  26.802  27.428  1.00  0.00     0.057 A 
ATOM     68  C   UNL A   1      42.913  27.306  26.485  1.00  0.00     0.134 A 
ATOM     69  C   UNL A   1      41.536  25.497  27.237  1.00  0.00     0.134 A 
ATOM     70  F   UNL A   1      43.396  28.550  26.605  1.00  0.00    -0.206 F 
ATOM     71  C   UNL A   1      43.319  26.544  25.387  1.00  0.00     0.040 A 
ATOM     72  C   UNL A   1      41.951  24.718  26.156  1.00  0.00     0.040 A 
ATOM     73  F   UNL A   1      40.675  24.951  28.109  1.00  0.00    -0.206 F 
ATOM     74  C   UNL A   1      42.845  25.243  25.226  1.00  0.00     0.006 A 
ENDBRANCH  53  67
BRANCH  54  75
ATOM     75  C   UNL A   1      39.099  32.219  35.252  1.00  0.00     0.057 A 
ATOM     76  C   UNL A   1      38.334  31.621  36.258  1.00  0.00     0.134 A 
ATOM     77  C   UNL A   1      39.447  33.566  35.415  1.00  0.00     0.134 A 
ATOM     78  F   UNL A   1      37.948  30.342  36.144  1.00  0.00    -0.206 F 
ATOM     79  C   UNL A   1      37.935  32.334  37.389  1.00  0.00     0.040 A 
ATOM     80  C   UNL A   1      39.078  34.283  36.553  1.00  0.00     0.040 A 
ATOM     81  F   UNL A   1      40.182  34.193  34.484  1.00  0.00    -0.206 F 
ATOM     82  C   UNL A   1      38.317  33.667  37.544  1.00  0.00     0.006 A 
ENDBRANCH  54  75
BRANCH  66  83
ATOM     83  C   UNL A   1      44.227  27.644  34.234  1.00  0.00     0.057 A 
ATOM     84  C   UNL A   1      44.042  26.486  35.000  1.00  0.00     0.134 A 
ATOM     85  C   UNL A   1      45.464  28.294  34.324  1.00  0.00     0.134 A 
ATOM     86  F   UNL A   1      42.873  25.830  34.968  1.00  0.00    -0.206 F 
ATOM     87  C   UNL A   1      45.046  26.003  35.840  1.00  0.00     0.040 A 
ATOM     88  C   UNL A   1      46.481  27.811  35.147  1.00  0.00     0.040 A 
ATOM     89  F   UNL A   1      45.702  29.406  33.612  1.00  0.00    -0.206 F 
ATOM     90  C   UNL A   1      46.271  26.664  35.912  1.00  0.00     0.006 A 
ENDBRANCH  66  83
ENDBRANCH  40  41
ENDBRANCH  33  35
ENDBRANCH  32  33
ENDBRANCH  31  32
ENDBRANCH   1  31
TORSDOF 14
ENDMDL
MODEL 2
REMARK VINA RESULT:     -12.8      0.867      1.353
REMARK SMILES Cc1ccc2[nH]cc([C@@H](C(=O)OCCOC(=O)c3ccc(-c4c5nc(c(-c6c(F)cccc6F)c6ccc([nH]6)c(-c6c(F)cccc6F)c6nc(c(-c7c(F)cccc7F)c7ccc4[nH]7)C=C6)C=C5)cc3)[NH+]3CCN(c4cccc(Cl)c4)CC3)c2c1
REMARK SMILES IDX 13 1 12 2 10 3 11 4 9 5 8 6 1 7 2 8 3 9 86 10 4 11 85 12
REMARK SMILES IDX 5 13 6 14 7 15 72 17 73 18 84 19 74 21 83 22 75 23 76 24
REMARK SMILES IDX 77 25 82 26 78 27 80 28 79 29 81 30 14 31 15 32 16 33 17 34
REMARK SMILES IDX 18 35 19 36 71 37 20 38 70 39 21 40 22 41 23 42 64 43 24 44
REMARK SMILES IDX 69 45 63 46 65 47 25 48 68 49 62 50 61 51 26 53 52 54 35 55
REMARK SMILES IDX 51 56 36 57 39 58 50 59 66 60 37 61 38 62 49 64 67 65 40 66
REMARK SMILES IDX 27 67 28 68 33 69 29 70 30 71 32 72 34 73 31 74 53 75 54 76
REMARK SMILES IDX 59 77 55 78 56 79 58 80 60 81 57 82 41 83 42 84 47 85 43 86
REMARK SMILES IDX 44 87 46 88 48 89 45 90
REMARK H PARENT 6 16 72 20 65 52 39 63
REMARK Flexibility Score: inf
ROOT
ATOM      1  C   UNL A   1      31.981  28.300  27.058  1.00  0.00     0.274 C 
ENDROOT
BRANCH   1   2
ATOM      2  O   UNL A   1      31.430  27.388  26.086  1.00  0.00    -0.457 OA
BRANCH   2   3
ATOM      3  C   UNL A   1      32.191  27.132  24.983  1.00  0.00     0.370 C 
ATOM      4  O   UNL A   1      33.387  27.411  24.912  1.00  0.00    -0.245 OA
BRANCH   3   5
ATOM      5  C   UNL A   1      31.387  26.530  23.804  1.00  0.00     0.328 C 
BRANCH   5   6
ATOM      6  C   UNL A   1      29.899  26.761  23.820  1.00  0.00     0.046 A 
ATOM      7  C   UNL A   1      29.361  31.702  22.602  1.00  0.00     0.044 C 
ATOM      8  C   UNL A   1      28.837  30.319  22.856  1.00  0.00    -0.050 A 
ATOM      9  C   UNL A   1      27.467  30.044  22.811  1.00  0.00     0.005 A 
ATOM     10  C   UNL A   1      29.739  29.294  23.175  1.00  0.00     0.014 A 
ATOM     11  C   UNL A   1      26.967  28.774  23.119  1.00  0.00     0.027 A 
ATOM     12  C   UNL A   1      29.262  28.004  23.490  1.00  0.00     0.009 A 
ATOM     13  C   UNL A   1      27.886  27.785  23.481  1.00  0.00     0.046 A 
ATOM     14  N   UNL A   1      27.682  26.488  23.884  1.00  0.00    -0.361 N 
ATOM     15  C   UNL A   1      28.881  25.880  24.142  1.00  0.00     0.094 A 
ATOM     16  H   UNL A   1      26.801  26.057  23.973  1.00  0.00     0.166 HD
ENDBRANCH   5   6
BRANCH   5  17
ATOM     17  N   UNL A   1      31.732  25.106  23.593  1.00  0.00    -0.316 N 
ATOM     18  C   UNL A   1      32.782  24.799  22.619  1.00  0.00     0.284 C 
ATOM     19  C   UNL A   1      31.839  24.267  24.798  1.00  0.00     0.284 C 
ATOM     20  H   UNL A   1      30.866  24.822  23.134  1.00  0.00     0.349 HD
ATOM     21  C   UNL A   1      34.208  24.525  23.134  1.00  0.00     0.178 C 
ATOM     22  C   UNL A   1      33.262  24.013  25.357  1.00  0.00     0.178 C 
ATOM     23  N   UNL A   1      34.181  23.616  24.280  1.00  0.00    -0.360 N 
BRANCH  23  24
ATOM     24  C   UNL A   1      35.390  23.042  24.655  1.00  0.00     0.038 A 
ATOM     25  C   UNL A   1      35.645  21.669  24.522  1.00  0.00     0.026 A 
ATOM     26  C   UNL A   1      36.381  23.846  25.230  1.00  0.00     0.046 A 
ATOM     27  C   UNL A   1      36.839  21.106  24.979  1.00  0.00     0.004 A 
ATOM     28  C   UNL A   1      37.571  23.283  25.694  1.00  0.00     0.043 A 
ATOM     29  C   UNL A   1      37.802  21.914  25.576  1.00  0.00     0.020 A 
ATOM     30  Cl  UNL A   1      38.758  24.283  26.438  1.00  0.00    -0.084 Cl
ENDBRANCH  23  24
ENDBRANCH   5  17
ENDBRANCH   3   5
ENDBRANCH   2   3
ENDBRANCH   1   2
BRANCH   1  31
ATOM     31  C   UNL A   1      31.634  29.742  26.695  1.00  0.00     0.275 C 
BRANCH  31  32
ATOM     32  O   UNL A   1      32.826  30.424  26.270  1.00  0.00    -0.458 OA
BRANCH  32  33
ATOM     33  C   UNL A   1      33.261  31.429  27.058  1.00  0.00     0.338 C 
ATOM     34  O   UNL A   1      32.642  32.447  27.351  1.00  0.00    -0.246 OA
BRANCH  33  35
ATOM     35  C   UNL A   1      34.609  31.128  27.592  1.00  0.00     0.060 A 
ATOM     36  C   UNL A   1      34.991  29.819  27.890  1.00  0.00     0.016 A 
ATOM     37  C   UNL A   1      35.462  32.181  27.927  1.00  0.00     0.016 A 
ATOM     38  C   UNL A   1      36.158  29.577  28.617  1.00  0.00     0.010 A 
ATOM     39  C   UNL A   1      36.685  31.922  28.556  1.00  0.00     0.010 A 
ATOM     40  C   UNL A   1      37.038  30.617  28.942  1.00  0.00    -0.014 A 
BRANCH  40  41
ATOM     41  C   UNL A   1      38.310  30.363  29.681  1.00  0.00     0.031 A 
ATOM     42  C   UNL A   1      39.390  29.508  29.069  1.00  0.00     0.074 A 
ATOM     43  C   UNL A   1      38.509  30.869  30.915  1.00  0.00     0.049 A 
ATOM     44  N   UNL A   1      40.387  28.890  29.652  1.00  0.00    -0.248 NA
ATOM     45  C   UNL A   1      39.330  29.306  27.612  1.00  0.00     0.031 C 
ATOM     46  C   UNL A   1      37.604  31.771  31.627  1.00  0.00     0.029 A 
ATOM     47  N   UNL A   1      39.545  30.680  31.799  1.00  0.00    -0.354 N 
ATOM     48  C   UNL A   1      41.024  28.164  28.650  1.00  0.00     0.074 A 
ATOM     49  C   UNL A   1      40.314  28.437  27.418  1.00  0.00     0.031 C 
ATOM     50  C   UNL A   1      38.136  32.088  32.815  1.00  0.00     0.029 A 
ATOM     51  C   UNL A   1      39.359  31.317  33.002  1.00  0.00     0.049 A 
ATOM     52  H   UNL A   1      40.343  30.142  31.590  1.00  0.00     0.167 HD
ATOM     53  C   UNL A   1      42.092  27.338  28.758  1.00  0.00     0.037 A 
ATOM     54  C   UNL A   1      40.043  31.241  34.158  1.00  0.00     0.037 A 
ATOM     55  C   UNL A   1      42.846  27.136  29.970  1.00  0.00     0.049 A 
ATOM     56  C   UNL A   1      41.206  30.302  34.268  1.00  0.00     0.074 A 
ATOM     57  C   UNL A   1      43.945  26.320  30.180  1.00  0.00     0.029 A 
ATOM     58  N   UNL A   1      42.599  27.787  31.169  1.00  0.00    -0.354 N 
ATOM     59  N   UNL A   1      41.715  29.511  33.357  1.00  0.00    -0.248 NA
ATOM     60  C   UNL A   1      41.866  30.218  35.578  1.00  0.00     0.031 C 
ATOM     61  C   UNL A   1      44.352  26.463  31.511  1.00  0.00     0.029 A 
ATOM     62  C   UNL A   1      43.525  27.392  32.120  1.00  0.00     0.049 A 
ATOM     63  H   UNL A   1      41.874  28.435  31.321  1.00  0.00     0.167 HD
ATOM     64  C   UNL A   1      42.752  28.832  33.981  1.00  0.00     0.074 A 
ATOM     65  C   UNL A   1      42.814  29.321  35.343  1.00  0.00     0.031 C 
ATOM     66  C   UNL A   1      43.573  27.884  33.472  1.00  0.00     0.037 A 
BRANCH  53  67
ATOM     67  C   UNL A   1      42.498  26.553  27.545  1.00  0.00     0.057 A 
ATOM     68  C   UNL A   1      43.345  27.079  26.563  1.00  0.00     0.134 A 
ATOM     69  C   UNL A   1      42.083  25.223  27.398  1.00  0.00     0.134 A 
ATOM     70  F   UNL A   1      43.769  28.348  26.641  1.00  0.00    -0.206 F 
ATOM     71  C   UNL A   1      43.756  26.312  25.471  1.00  0.00     0.040 A 
ATOM     72  C   UNL A   1      42.504  24.440  26.322  1.00  0.00     0.040 A 
ATOM     73  F   UNL A   1      41.276  24.656  28.308  1.00  0.00    -0.206 F 
ATOM     74  C   UNL A   1      43.342  24.986  25.353  1.00  0.00     0.006 A 
ENDBRANCH  53  67
BRANCH  54  75
ATOM     75  C   UNL A   1      39.586  32.028  35.329  1.00  0.00     0.057 A 
ATOM     76  C   UNL A   1      40.054  33.326  35.552  1.00  0.00     0.134 A 
ATOM     77  C   UNL A   1      38.645  31.514  36.230  1.00  0.00     0.134 A 
ATOM     78  F   UNL A   1      40.975  33.861  34.738  1.00  0.00    -0.206 F 
ATOM     79  C   UNL A   1      39.599  34.089  36.628  1.00  0.00     0.040 A 
ATOM     80  C   UNL A   1      38.161  32.274  37.294  1.00  0.00     0.040 A 
ATOM     81  F   UNL A   1      38.158  30.275  36.067  1.00  0.00    -0.206 F 
ATOM     82  C   UNL A   1      38.640  33.566  37.497  1.00  0.00     0.006 A 
ENDBRANCH  54  75
BRANCH  66  83
ATOM     83  C   UNL A   1      44.620  27.333  34.389  1.00  0.00     0.057 A 
ATOM     84  C   UNL A   1      44.391  26.185  35.156  1.00  0.00     0.134 A 
ATOM     85  C   UNL A   1      45.873  27.949  34.494  1.00  0.00     0.134 A 
ATOM     86  F   UNL A   1      43.204  25.562  35.110  1.00  0.00    -0.206 F 
ATOM     87  C   UNL A   1      45.369  25.677  36.012  1.00  0.00     0.040 A 
ATOM     88  C   UNL A   1      46.864  27.440  35.332  1.00  0.00     0.040 A 
ATOM     89  F   UNL A   1      46.152  29.051  33.781  1.00  0.00    -0.206 F 
ATOM     90  C   UNL A   1      46.611  26.303  36.099  1.00  0.00     0.006 A 
ENDBRANCH  66  83
ENDBRANCH  40  41
ENDBRANCH  33  35
ENDBRANCH  32  33
ENDBRANCH  31  32
ENDBRANCH   1  31
TORSDOF 14
ENDMDL
MODEL 3
REMARK VINA RESULT:     -12.8      1.667      2.620
REMARK SMILES Cc1ccc2[nH]cc([C@@H](C(=O)OCCOC(=O)c3ccc(-c4c5nc(c(-c6c(F)cccc6F)c6ccc([nH]6)c(-c6c(F)cccc6F)c6nc(c(-c7c(F)cccc7F)c7ccc4[nH]7)C=C6)C=C5)cc3)[NH+]3CCN(c4cccc(Cl)c4)CC3)c2c1
REMARK SMILES IDX 13 1 12 2 10 3 11 4 9 5 8 6 1 7 2 8 3 9 86 10 4 11 85 12
REMARK SMILES IDX 5 13 6 14 7 15 72 17 73 18 84 19 74 21 83 22 75 23 76 24
REMARK SMILES IDX 77 25 82 26 78 27 80 28 79 29 81 30 14 31 15 32 16 33 17 34
REMARK SMILES IDX 18 35 19 36 71 37 20 38 70 39 21 40 22 41 23 42 64 43 24 44
REMARK SMILES IDX 69 45 63 46 65 47 25 48 68 49 62 50 61 51 26 53 52 54 35 55
REMARK SMILES IDX 51 56 36 57 39 58 50 59 66 60 37 61 38 62 49 64 67 65 40 66
REMARK SMILES IDX 27 67 28 68 33 69 29 70 30 71 32 72 34 73 31 74 53 75 54 76
REMARK SMILES IDX 59 77 55 78 56 79 58 80 60 81 57 82 41 83 42 84 47 85 43 86
REMARK SMILES IDX 44 87 46 88 48 89 45 90
REMARK H PARENT 6 16 72 20 65 52 39 63
REMARK Flexibility Score: inf
ROOT
ATOM      1  C   UNL A   1      31.640  28.877  27.003  1.00  0.00     0.274 C 
ENDROOT
BRANCH   1   2
ATOM      2  O   UNL A   1      31.358  27.672  26.262  1.00  0.00    -0.457 OA
BRANCH   2   3
ATOM      3  C   UNL A   1      32.418  27.058  25.661  1.00  0.00     0.370 C 
ATOM      4  O   UNL A   1      33.493  26.866  26.227  1.00  0.00    -0.245 OA
BRANCH   3   5
ATOM      5  C   UNL A   1      32.163  26.696  24.177  1.00  0.00     0.328 C 
BRANCH   5   6
ATOM      6  C   UNL A   1      31.770  27.831  23.268  1.00  0.00     0.046 A 
ATOM      7  C   UNL A   1      26.664  27.993  23.558  1.00  0.00     0.044 C 
ATOM      8  C   UNL A   1      28.002  28.537  23.148  1.00  0.00    -0.050 A 
ATOM      9  C   UNL A   1      28.107  29.711  22.398  1.00  0.00     0.005 A 
ATOM     10  C   UNL A   1      29.163  27.833  23.502  1.00  0.00     0.014 A 
ATOM     11  C   UNL A   1      29.346  30.182  21.951  1.00  0.00     0.027 A 
ATOM     12  C   UNL A   1      30.425  28.287  23.064  1.00  0.00     0.009 A 
ATOM     13  C   UNL A   1      30.481  29.434  22.276  1.00  0.00     0.046 A 
ATOM     14  N   UNL A   1      31.797  29.620  21.929  1.00  0.00    -0.361 N 
ATOM     15  C   UNL A   1      32.573  28.633  22.474  1.00  0.00     0.094 A 
ATOM     16  H   UNL A   1      32.134  30.358  21.371  1.00  0.00     0.166 HD
ENDBRANCH   5   6
BRANCH   5  17
ATOM     17  N   UNL A   1      31.247  25.539  24.057  1.00  0.00    -0.316 N 
ATOM     18  C   UNL A   1      31.397  24.674  22.884  1.00  0.00     0.284 C 
ATOM     19  C   UNL A   1      31.000  24.763  25.283  1.00  0.00     0.284 C 
ATOM     20  H   UNL A   1      30.389  26.062  23.882  1.00  0.00     0.349 HD
ATOM     21  C   UNL A   1      32.190  23.362  23.032  1.00  0.00     0.178 C 
ATOM     22  C   UNL A   1      31.819  23.460  25.472  1.00  0.00     0.178 C 
ATOM     23  N   UNL A   1      31.794  22.648  24.245  1.00  0.00    -0.360 N 
BRANCH  23  24
ATOM     24  C   UNL A   1      32.194  21.321  24.354  1.00  0.00     0.038 A 
ATOM     25  C   UNL A   1      32.776  20.804  25.520  1.00  0.00     0.026 A 
ATOM     26  C   UNL A   1      32.056  20.472  23.249  1.00  0.00     0.046 A 
ATOM     27  C   UNL A   1      33.240  19.487  25.575  1.00  0.00     0.004 A 
ATOM     28  C   UNL A   1      32.525  19.160  23.302  1.00  0.00     0.043 A 
ATOM     29  C   UNL A   1      33.122  18.664  24.459  1.00  0.00     0.020 A 
ATOM     30  Cl  UNL A   1      32.386  18.145  21.918  1.00  0.00    -0.084 Cl
ENDBRANCH  23  24
ENDBRANCH   5  17
ENDBRANCH   3   5
ENDBRANCH   2   3
ENDBRANCH   1   2
BRANCH   1  31
ATOM     31  C   UNL A   1      31.707  30.078  26.062  1.00  0.00     0.275 C 
BRANCH  31  32
ATOM     32  O   UNL A   1      33.051  30.590  26.042  1.00  0.00    -0.458 OA
BRANCH  32  33
ATOM     33  C   UNL A   1      33.385  31.448  27.028  1.00  0.00     0.338 C 
ATOM     34  O   UNL A   1      32.693  32.359  27.470  1.00  0.00    -0.246 OA
BRANCH  33  35
ATOM     35  C   UNL A   1      34.722  31.119  27.574  1.00  0.00     0.060 A 
ATOM     36  C   UNL A   1      35.051  29.813  27.941  1.00  0.00     0.016 A 
ATOM     37  C   UNL A   1      35.620  32.152  27.850  1.00  0.00     0.016 A 
ATOM     38  C   UNL A   1      36.210  29.561  28.677  1.00  0.00     0.010 A 
ATOM     39  C   UNL A   1      36.834  31.876  28.490  1.00  0.00     0.010 A 
ATOM     40  C   UNL A   1      37.134  30.579  28.944  1.00  0.00    -0.014 A 
BRANCH  40  41
ATOM     41  C   UNL A   1      38.398  30.312  29.692  1.00  0.00     0.031 A 
ATOM     42  C   UNL A   1      39.470  29.440  29.091  1.00  0.00     0.074 A 
ATOM     43  C   UNL A   1      38.595  30.820  30.926  1.00  0.00     0.049 A 
ATOM     44  N   UNL A   1      40.455  28.811  29.684  1.00  0.00    -0.248 NA
ATOM     45  C   UNL A   1      39.417  29.232  27.635  1.00  0.00     0.031 C 
ATOM     46  C   UNL A   1      37.697  31.738  31.627  1.00  0.00     0.029 A 
ATOM     47  N   UNL A   1      39.622  30.622  31.818  1.00  0.00    -0.354 N 
ATOM     48  C   UNL A   1      41.089  28.072  28.690  1.00  0.00     0.074 A 
ATOM     49  C   UNL A   1      40.390  28.349  27.452  1.00  0.00     0.031 C 
ATOM     50  C   UNL A   1      38.226  32.053  32.818  1.00  0.00     0.029 A 
ATOM     51  C   UNL A   1      39.437  31.267  33.016  1.00  0.00     0.049 A 
ATOM     52  H   UNL A   1      40.415  30.073  31.616  1.00  0.00     0.167 HD
ATOM     53  C   UNL A   1      42.145  27.233  28.809  1.00  0.00     0.037 A 
ATOM     54  C   UNL A   1      40.113  31.187  34.177  1.00  0.00     0.037 A 
ATOM     55  C   UNL A   1      42.888  27.026  30.027  1.00  0.00     0.049 A 
ATOM     56  C   UNL A   1      41.262  30.233  34.299  1.00  0.00     0.074 A 
ATOM     57  C   UNL A   1      43.974  26.196  30.247  1.00  0.00     0.029 A 
ATOM     58  N   UNL A   1      42.642  27.686  31.220  1.00  0.00    -0.354 N 
ATOM     59  N   UNL A   1      41.766  29.431  33.395  1.00  0.00    -0.248 NA
ATOM     60  C   UNL A   1      41.912  30.146  35.614  1.00  0.00     0.031 C 
ATOM     61  C   UNL A   1      44.375  26.340  31.581  1.00  0.00     0.029 A 
ATOM     62  C   UNL A   1      43.556  27.282  32.180  1.00  0.00     0.049 A 
ATOM     63  H   UNL A   1      41.925  28.344  31.365  1.00  0.00     0.167 HD
ATOM     64  C   UNL A   1      42.790  28.742  34.029  1.00  0.00     0.074 A 
ATOM     65  C   UNL A   1      42.850  29.235  35.389  1.00  0.00     0.031 C 
ATOM     66  C   UNL A   1      43.602  27.780  33.529  1.00  0.00     0.037 A 
BRANCH  53  67
ATOM     67  C   UNL A   1      42.548  26.437  27.602  1.00  0.00     0.057 A 
ATOM     68  C   UNL A   1      42.007  25.178  27.321  1.00  0.00     0.134 A 
ATOM     69  C   UNL A   1      43.447  26.978  26.672  1.00  0.00     0.134 A 
ATOM     70  F   UNL A   1      41.150  24.601  28.176  1.00  0.00    -0.206 F 
ATOM     71  C   UNL A   1      42.354  24.479  26.163  1.00  0.00     0.040 A 
ATOM     72  C   UNL A   1      43.785  26.298  25.500  1.00  0.00     0.040 A 
ATOM     73  F   UNL A   1      43.996  28.184  26.877  1.00  0.00    -0.206 F 
ATOM     74  C   UNL A   1      43.238  25.043  25.245  1.00  0.00     0.006 A 
ENDBRANCH  53  67
BRANCH  54  75
ATOM     75  C   UNL A   1      39.658  31.985  35.342  1.00  0.00     0.057 A 
ATOM     76  C   UNL A   1      40.153  33.272  35.570  1.00  0.00     0.134 A 
ATOM     77  C   UNL A   1      38.694  31.493  36.231  1.00  0.00     0.134 A 
ATOM     78  F   UNL A   1      41.096  33.786  34.767  1.00  0.00    -0.206 F 
ATOM     79  C   UNL A   1      39.701  34.047  36.639  1.00  0.00     0.040 A 
ATOM     80  C   UNL A   1      38.214  32.266  37.288  1.00  0.00     0.040 A 
ATOM     81  F   UNL A   1      38.181  30.265  36.063  1.00  0.00    -0.206 F 
ATOM     82  C   UNL A   1      38.719  33.547  37.495  1.00  0.00     0.006 A 
ENDBRANCH  54  75
BRANCH  66  83
ATOM     83  C   UNL A   1      44.635  27.220  34.456  1.00  0.00     0.057 A 
ATOM     84  C   UNL A   1      45.894  27.815  34.596  1.00  0.00     0.134 A 
ATOM     85  C   UNL A   1      44.362  26.083  35.226  1.00  0.00     0.134 A 
ATOM     86  F   UNL A   1      46.219  28.896  33.872  1.00  0.00    -0.206 F 
ATOM     87  C   UNL A   1      46.855  27.287  35.459  1.00  0.00     0.040 A 
ATOM     88  C   UNL A   1      45.308  25.557  36.105  1.00  0.00     0.040 A 
ATOM     89  F   UNL A   1      43.172  25.470  35.137  1.00  0.00    -0.206 F 
ATOM     90  C   UNL A   1      46.561  26.157  36.220  1.00  0.00     0.006 A 
ENDBRANCH  66  83
ENDBRANCH  40  41
ENDBRANCH  33  35
ENDBRANCH  32  33
ENDBRANCH  31  32
ENDBRANCH   1  31
TORSDOF 14
ENDMDL
