MODEL 1
REMARK VINA RESULT:     -12.1      0.000      0.000
REMARK SMILES CC(C)[C@@H](NC(=O)/C(=C\c1ccccc1F)NC(=O)c1ccccc1)C(=O)OCCOC(=O)c1ccc(-c2c3nc(c(-c4c(F)cccc4F)c4ccc([nH]4)c(-c4c(F)cccc4F)c4nc(c(-c5c(F)cccc5F)c5ccc2[nH]5)C=C4)C=C3)cc1
REMARK SMILES IDX 29 1 28 2 26 3 27 4 4 5 2 6 1 7 3 8 5 9 6 10 7 12 8 13 9 14
REMARK SMILES IDX 17 15 18 16 19 18 20 19 21 20 25 21 22 22 24 23 23 24 10 25
REMARK SMILES IDX 11 26 15 27 12 28 14 29 16 30 13 31 30 32 31 33 32 34 33 35
REMARK SMILES IDX 34 36 35 37 87 38 36 39 86 40 37 41 38 42 39 43 80 44 40 45
REMARK SMILES IDX 85 46 79 47 81 48 41 49 84 50 78 51 77 52 42 54 68 55 51 56
REMARK SMILES IDX 67 57 52 58 55 59 66 60 82 61 53 62 54 63 65 65 83 66 56 67
REMARK SMILES IDX 43 68 44 69 49 70 45 71 46 72 48 73 50 74 47 75 69 76 70 77
REMARK SMILES IDX 75 78 71 79 72 80 74 81 76 82 73 83 57 84 58 85 63 86 59 87
REMARK SMILES IDX 60 88 62 89 64 90 61 91
REMARK H PARENT 5 11 17 17 81 53 55 64
REMARK Flexibility Score: inf
ROOT
ATOM      1  C   UNL A   1      31.687  27.755  26.404  1.00  0.00     0.274 C 
ENDROOT
BRANCH   1   2
ATOM      2  O   UNL A   1      31.810  26.516  25.652  1.00  0.00    -0.461 OA
BRANCH   2   3
ATOM      3  C   UNL A   1      33.038  26.401  25.100  1.00  0.00     0.329 C 
ATOM      4  O   UNL A   1      34.037  26.700  25.747  1.00  0.00    -0.250 OA
BRANCH   3   5
ATOM      5  C   UNL A   1      33.138  25.878  23.643  1.00  0.00     0.195 C 
BRANCH   5   6
ATOM      6  C   UNL A   1      32.898  26.811  22.428  1.00  0.00     0.017 C 
ATOM      7  C   UNL A   1      31.393  27.178  22.340  1.00  0.00     0.010 C 
ATOM      8  C   UNL A   1      33.663  28.134  22.555  1.00  0.00     0.010 C 
ENDBRANCH   5   6
BRANCH   5   9
ATOM      9  N   UNL A   1      34.271  24.960  23.419  1.00  0.00    -0.337 N 
ATOM     10  C   UNL A   1      34.308  23.617  23.722  1.00  0.00     0.268 C 
ATOM     11  H   UNL A   1      35.080  25.345  23.013  1.00  0.00     0.164 HD
ATOM     12  O   UNL A   1      34.865  22.830  22.964  1.00  0.00    -0.268 OA
BRANCH  10  13
ATOM     13  C   UNL A   1      33.779  23.175  25.048  1.00  0.00     0.107 C 
ATOM     14  C   UNL A   1      34.636  22.810  26.029  1.00  0.00     0.043 C 
BRANCH  13  15
ATOM     15  N   UNL A   1      32.419  22.903  25.196  1.00  0.00    -0.317 N 
ATOM     16  C   UNL A   1      31.705  21.725  25.265  1.00  0.00     0.255 C 
ATOM     17  H   UNL A   1      31.859  23.710  25.264  1.00  0.00     0.170 HD
ATOM     18  O   UNL A   1      30.562  21.706  25.718  1.00  0.00    -0.269 OA
BRANCH  16  19
ATOM     19  C   UNL A   1      32.248  20.488  24.691  1.00  0.00     0.040 A 
ATOM     20  C   UNL A   1      32.829  19.561  25.559  1.00  0.00     0.014 A 
ATOM     21  C   UNL A   1      32.184  20.243  23.317  1.00  0.00     0.014 A 
ATOM     22  C   UNL A   1      33.256  18.332  25.059  1.00  0.00     0.001 A 
ATOM     23  C   UNL A   1      32.574  18.996  22.830  1.00  0.00     0.001 A 
ATOM     24  C   UNL A   1      33.097  18.039  23.704  1.00  0.00     0.000 A 
ENDBRANCH  16  19
ENDBRANCH  13  15
BRANCH  14  25
ATOM     25  C   UNL A   1      36.104  22.706  25.934  1.00  0.00     0.012 A 
ATOM     26  C   UNL A   1      36.900  23.826  26.240  1.00  0.00     0.011 A 
ATOM     27  C   UNL A   1      36.753  21.538  25.562  1.00  0.00     0.130 A 
ATOM     28  C   UNL A   1      38.294  23.778  26.210  1.00  0.00     0.001 A 
ATOM     29  C   UNL A   1      38.148  21.479  25.519  1.00  0.00     0.040 A 
ATOM     30  F   UNL A   1      36.045  20.453  25.225  1.00  0.00    -0.206 F 
ATOM     31  C   UNL A   1      38.920  22.596  25.849  1.00  0.00     0.003 A 
ENDBRANCH  14  25
ENDBRANCH  10  13
ENDBRANCH   5   9
ENDBRANCH   3   5
ENDBRANCH   2   3
ENDBRANCH   1   2
BRANCH   1  32
ATOM     32  C   UNL A   1      31.586  29.017  25.514  1.00  0.00     0.275 C 
BRANCH  32  33
ATOM     33  O   UNL A   1      32.755  29.883  25.529  1.00  0.00    -0.458 OA
BRANCH  33  34
ATOM     34  C   UNL A   1      32.745  30.816  26.527  1.00  0.00     0.338 C 
ATOM     35  O   UNL A   1      31.783  31.517  26.801  1.00  0.00    -0.246 OA
BRANCH  34  36
ATOM     36  C   UNL A   1      33.997  30.843  27.361  1.00  0.00     0.060 A 
ATOM     37  C   UNL A   1      34.668  32.005  27.730  1.00  0.00     0.016 A 
ATOM     38  C   UNL A   1      34.569  29.624  27.741  1.00  0.00     0.016 A 
ATOM     39  C   UNL A   1      35.955  31.938  28.324  1.00  0.00     0.010 A 
ATOM     40  C   UNL A   1      35.799  29.569  28.432  1.00  0.00     0.010 A 
ATOM     41  C   UNL A   1      36.551  30.724  28.707  1.00  0.00    -0.014 A 
BRANCH  41  42
ATOM     42  C   UNL A   1      37.898  30.595  29.398  1.00  0.00     0.031 A 
ATOM     43  C   UNL A   1      38.989  29.705  28.815  1.00  0.00     0.074 A 
ATOM     44  C   UNL A   1      38.192  31.187  30.580  1.00  0.00     0.049 A 
ATOM     45  N   UNL A   1      39.979  29.086  29.417  1.00  0.00    -0.248 NA
ATOM     46  C   UNL A   1      38.958  29.489  27.360  1.00  0.00     0.031 C 
ATOM     47  C   UNL A   1      37.387  32.187  31.276  1.00  0.00     0.029 A 
ATOM     48  N   UNL A   1      39.266  30.991  31.433  1.00  0.00    -0.354 N 
ATOM     49  C   UNL A   1      40.632  28.345  28.435  1.00  0.00     0.074 A 
ATOM     50  C   UNL A   1      39.944  28.614  27.189  1.00  0.00     0.031 C 
ATOM     51  C   UNL A   1      37.985  32.518  32.429  1.00  0.00     0.029 A 
ATOM     52  C   UNL A   1      39.139  31.652  32.633  1.00  0.00     0.049 A 
ATOM     53  H   UNL A   1      40.044  30.432  31.203  1.00  0.00     0.167 HD
ATOM     54  C   UNL A   1      41.695  27.509  28.559  1.00  0.00     0.037 A 
ATOM     55  C   UNL A   1      39.788  31.530  33.812  1.00  0.00     0.037 A 
ATOM     56  C   UNL A   1      42.446  27.301  29.775  1.00  0.00     0.049 A 
ATOM     57  C   UNL A   1      40.875  30.510  33.986  1.00  0.00     0.074 A 
ATOM     58  C   UNL A   1      43.535  26.467  29.983  1.00  0.00     0.029 A 
ATOM     59  N   UNL A   1      42.211  27.949  30.975  1.00  0.00    -0.354 N 
ATOM     60  N   UNL A   1      41.384  29.691  33.102  1.00  0.00    -0.248 NA
ATOM     61  C   UNL A   1      41.455  30.371  35.333  1.00  0.00     0.031 C 
ATOM     62  C   UNL A   1      43.930  26.578  31.318  1.00  0.00     0.029 A 
ATOM     63  C   UNL A   1      43.121  27.519  31.928  1.00  0.00     0.049 A 
ATOM     64  H   UNL A   1      41.504  28.616  31.128  1.00  0.00     0.167 HD
ATOM     65  C   UNL A   1      42.355  28.960  33.776  1.00  0.00     0.074 A 
ATOM     66  C   UNL A   1      42.367  29.427  35.143  1.00  0.00     0.031 C 
ATOM     67  C   UNL A   1      43.161  27.989  33.288  1.00  0.00     0.037 A 
BRANCH  54  68
ATOM     68  C   UNL A   1      42.118  26.695  27.365  1.00  0.00     0.057 A 
ATOM     69  C   UNL A   1      41.666  25.374  27.225  1.00  0.00     0.134 A 
ATOM     70  C   UNL A   1      43.065  27.151  26.443  1.00  0.00     0.134 A 
ATOM     71  F   UNL A   1      40.775  24.864  28.090  1.00  0.00    -0.206 F 
ATOM     72  C   UNL A   1      42.153  24.532  26.224  1.00  0.00     0.040 A 
ATOM     73  C   UNL A   1      43.542  26.326  25.420  1.00  0.00     0.040 A 
ATOM     74  F   UNL A   1      43.541  28.402  26.519  1.00  0.00    -0.206 F 
ATOM     75  C   UNL A   1      43.096  25.008  25.317  1.00  0.00     0.006 A 
ENDBRANCH  54  68
BRANCH  55  76
ATOM     76  C   UNL A   1      39.343  32.352  34.969  1.00  0.00     0.057 A 
ATOM     77  C   UNL A   1      39.822  33.655  35.165  1.00  0.00     0.134 A 
ATOM     78  C   UNL A   1      38.458  31.841  35.923  1.00  0.00     0.134 A 
ATOM     79  F   UNL A   1      40.668  34.205  34.281  1.00  0.00    -0.206 F 
ATOM     80  C   UNL A   1      39.477  34.400  36.292  1.00  0.00     0.040 A 
ATOM     81  C   UNL A   1      38.080  32.587  37.041  1.00  0.00     0.040 A 
ATOM     82  F   UNL A   1      37.935  30.616  35.771  1.00  0.00    -0.206 F 
ATOM     83  C   UNL A   1      38.603  33.865  37.235  1.00  0.00     0.006 A 
ENDBRANCH  55  76
BRANCH  67  84
ATOM     84  C   UNL A   1      44.178  27.378  34.206  1.00  0.00     0.057 A 
ATOM     85  C   UNL A   1      43.867  26.229  34.946  1.00  0.00     0.134 A 
ATOM     86  C   UNL A   1      45.421  27.978  34.434  1.00  0.00     0.134 A 
ATOM     87  F   UNL A   1      42.689  25.610  34.779  1.00  0.00    -0.206 F 
ATOM     88  C   UNL A   1      44.747  25.715  35.899  1.00  0.00     0.040 A 
ATOM     89  C   UNL A   1      46.318  27.462  35.372  1.00  0.00     0.040 A 
ATOM     90  F   UNL A   1      45.783  29.074  33.749  1.00  0.00    -0.206 F 
ATOM     91  C   UNL A   1      45.976  26.334  36.117  1.00  0.00     0.006 A 
ENDBRANCH  67  84
ENDBRANCH  41  42
ENDBRANCH  34  36
ENDBRANCH  33  34
ENDBRANCH  32  33
ENDBRANCH   1  32
TORSDOF 17
ENDMDL
MODEL 2
REMARK VINA RESULT:     -12.0      3.689      8.865
REMARK SMILES CC(C)[C@@H](NC(=O)/C(=C\c1ccccc1F)NC(=O)c1ccccc1)C(=O)OCCOC(=O)c1ccc(-c2c3nc(c(-c4c(F)cccc4F)c4ccc([nH]4)c(-c4c(F)cccc4F)c4nc(c(-c5c(F)cccc5F)c5ccc2[nH]5)C=C4)C=C3)cc1
REMARK SMILES IDX 29 1 28 2 26 3 27 4 4 5 2 6 1 7 3 8 5 9 6 10 7 12 8 13 9 14
REMARK SMILES IDX 17 15 18 16 19 18 20 19 21 20 25 21 22 22 24 23 23 24 10 25
REMARK SMILES IDX 11 26 15 27 12 28 14 29 16 30 13 31 30 32 31 33 32 34 33 35
REMARK SMILES IDX 34 36 35 37 87 38 36 39 86 40 37 41 38 42 39 43 80 44 40 45
REMARK SMILES IDX 85 46 79 47 81 48 41 49 84 50 78 51 77 52 42 54 68 55 51 56
REMARK SMILES IDX 67 57 52 58 55 59 66 60 82 61 53 62 54 63 65 65 83 66 56 67
REMARK SMILES IDX 43 68 44 69 49 70 45 71 46 72 48 73 50 74 47 75 69 76 70 77
REMARK SMILES IDX 75 78 71 79 72 80 74 81 76 82 73 83 57 84 58 85 63 86 59 87
REMARK SMILES IDX 60 88 62 89 64 90 61 91
REMARK H PARENT 5 11 17 17 81 53 55 64
REMARK Flexibility Score: inf
ROOT
ATOM      1  C   UNL A   1      34.449  21.280  25.211  1.00  0.00     0.274 C 
ENDROOT
BRANCH   1   2
ATOM      2  O   UNL A   1      34.574  22.730  25.220  1.00  0.00    -0.461 OA
BRANCH   2   3
ATOM      3  C   UNL A   1      33.711  23.287  26.097  1.00  0.00     0.329 C 
ATOM      4  O   UNL A   1      33.858  23.116  27.304  1.00  0.00    -0.250 OA
BRANCH   3   5
ATOM      5  C   UNL A   1      32.548  24.144  25.534  1.00  0.00     0.195 C 
BRANCH   5   6
ATOM      6  C   UNL A   1      31.233  23.497  25.028  1.00  0.00     0.017 C 
ATOM      7  C   UNL A   1      31.394  23.078  23.542  1.00  0.00     0.010 C 
ATOM      8  C   UNL A   1      30.881  22.221  25.804  1.00  0.00     0.010 C 
ENDBRANCH   5   6
BRANCH   5   9
ATOM      9  N   UNL A   1      32.295  25.379  26.301  1.00  0.00    -0.337 N 
ATOM     10  C   UNL A   1      31.832  26.574  25.798  1.00  0.00     0.268 C 
ATOM     11  H   UNL A   1      32.475  25.345  27.268  1.00  0.00     0.164 HD
ATOM     12  O   UNL A   1      31.032  27.245  26.443  1.00  0.00    -0.268 OA
BRANCH  10  13
ATOM     13  C   UNL A   1      32.430  27.088  24.529  1.00  0.00     0.107 C 
ATOM     14  C   UNL A   1      33.158  28.228  24.538  1.00  0.00     0.043 C 
BRANCH  13  15
ATOM     15  N   UNL A   1      32.039  26.540  23.307  1.00  0.00    -0.317 N 
ATOM     16  C   UNL A   1      31.205  26.992  22.305  1.00  0.00     0.255 C 
ATOM     17  H   UNL A   1      32.437  25.659  23.124  1.00  0.00     0.170 HD
ATOM     18  O   UNL A   1      31.252  26.504  21.178  1.00  0.00    -0.269 OA
BRANCH  16  19
ATOM     19  C   UNL A   1      30.161  27.983  22.594  1.00  0.00     0.040 A 
ATOM     20  C   UNL A   1      30.406  29.314  22.252  1.00  0.00     0.014 A 
ATOM     21  C   UNL A   1      28.955  27.605  23.191  1.00  0.00     0.014 A 
ATOM     22  C   UNL A   1      29.395  30.259  22.414  1.00  0.00     0.001 A 
ATOM     23  C   UNL A   1      27.933  28.546  23.312  1.00  0.00     0.001 A 
ATOM     24  C   UNL A   1      28.151  29.866  22.912  1.00  0.00     0.000 A 
ENDBRANCH  16  19
ENDBRANCH  13  15
BRANCH  14  25
ATOM     25  C   UNL A   1      33.387  29.128  25.685  1.00  0.00     0.012 A 
ATOM     26  C   UNL A   1      34.516  28.937  26.502  1.00  0.00     0.011 A 
ATOM     27  C   UNL A   1      32.535  30.177  25.999  1.00  0.00     0.130 A 
ATOM     28  C   UNL A   1      34.810  29.780  27.574  1.00  0.00     0.001 A 
ATOM     29  C   UNL A   1      32.812  31.023  27.075  1.00  0.00     0.040 A 
ATOM     30  F   UNL A   1      31.427  30.383  25.277  1.00  0.00    -0.206 F 
ATOM     31  C   UNL A   1      33.952  30.830  27.860  1.00  0.00     0.003 A 
ENDBRANCH  14  25
ENDBRANCH  10  13
ENDBRANCH   5   9
ENDBRANCH   3   5
ENDBRANCH   2   3
ENDBRANCH   1   2
BRANCH   1  32
ATOM     32  C   UNL A   1      35.791  20.541  24.988  1.00  0.00     0.275 C 
BRANCH  32  33
ATOM     33  O   UNL A   1      36.927  21.395  24.680  1.00  0.00    -0.458 OA
BRANCH  33  34
ATOM     34  C   UNL A   1      38.072  21.064  25.348  1.00  0.00     0.338 C 
ATOM     35  O   UNL A   1      38.583  19.955  25.324  1.00  0.00    -0.246 OA
BRANCH  34  36
ATOM     36  C   UNL A   1      38.739  22.219  26.043  1.00  0.00     0.060 A 
ATOM     37  C   UNL A   1      38.278  23.532  26.001  1.00  0.00     0.016 A 
ATOM     38  C   UNL A   1      39.938  21.982  26.725  1.00  0.00     0.016 A 
ATOM     39  C   UNL A   1      39.080  24.594  26.494  1.00  0.00     0.010 A 
ATOM     40  C   UNL A   1      40.675  23.034  27.310  1.00  0.00     0.010 A 
ATOM     41  C   UNL A   1      40.290  24.378  27.175  1.00  0.00    -0.014 A 
BRANCH  41  42
ATOM     42  C   UNL A   1      41.159  25.472  27.774  1.00  0.00     0.031 A 
ATOM     43  C   UNL A   1      40.543  26.572  28.630  1.00  0.00     0.074 A 
ATOM     44  C   UNL A   1      42.488  25.583  27.540  1.00  0.00     0.049 A 
ATOM     45  N   UNL A   1      40.956  27.801  28.842  1.00  0.00    -0.248 NA
ATOM     46  C   UNL A   1      39.300  26.238  29.342  1.00  0.00     0.031 C 
ATOM     47  C   UNL A   1      43.340  24.600  26.876  1.00  0.00     0.029 A 
ATOM     48  N   UNL A   1      43.358  26.625  27.819  1.00  0.00    -0.354 N 
ATOM     49  C   UNL A   1      39.985  28.408  29.636  1.00  0.00     0.074 A 
ATOM     50  C   UNL A   1      38.975  27.403  29.894  1.00  0.00     0.031 C 
ATOM     51  C   UNL A   1      44.592  25.072  26.802  1.00  0.00     0.029 A 
ATOM     52  C   UNL A   1      44.611  26.450  27.278  1.00  0.00     0.049 A 
ATOM     53  H   UNL A   1      43.104  27.414  28.351  1.00  0.00     0.167 HD
ATOM     54  C   UNL A   1      39.932  29.685  30.096  1.00  0.00     0.037 A 
ATOM     55  C   UNL A   1      45.641  27.300  27.076  1.00  0.00     0.037 A 
ATOM     56  C   UNL A   1      40.974  30.670  29.923  1.00  0.00     0.049 A 
ATOM     57  C   UNL A   1      45.530  28.746  27.465  1.00  0.00     0.074 A 
ATOM     58  C   UNL A   1      40.994  31.988  30.357  1.00  0.00     0.029 A 
ATOM     59  N   UNL A   1      42.186  30.444  29.296  1.00  0.00    -0.354 N 
ATOM     60  N   UNL A   1      44.546  29.361  28.069  1.00  0.00    -0.248 NA
ATOM     61  C   UNL A   1      46.658  29.624  27.112  1.00  0.00     0.031 C 
ATOM     62  C   UNL A   1      42.198  32.569  29.954  1.00  0.00     0.029 A 
ATOM     63  C   UNL A   1      42.951  31.600  29.315  1.00  0.00     0.049 A 
ATOM     64  H   UNL A   1      42.465  29.588  28.896  1.00  0.00     0.167 HD
ATOM     65  C   UNL A   1      44.944  30.687  28.189  1.00  0.00     0.074 A 
ATOM     66  C   UNL A   1      46.257  30.793  27.596  1.00  0.00     0.031 C 
ATOM     67  C   UNL A   1      44.268  31.717  28.748  1.00  0.00     0.037 A 
BRANCH  54  68
ATOM     68  C   UNL A   1      38.688  30.146  30.808  1.00  0.00     0.057 A 
ATOM     69  C   UNL A   1      38.547  29.918  32.185  1.00  0.00     0.134 A 
ATOM     70  C   UNL A   1      37.588  30.678  30.128  1.00  0.00     0.134 A 
ATOM     71  F   UNL A   1      39.555  29.386  32.894  1.00  0.00    -0.206 F 
ATOM     72  C   UNL A   1      37.352  30.184  32.856  1.00  0.00     0.040 A 
ATOM     73  C   UNL A   1      36.395  30.974  30.793  1.00  0.00     0.040 A 
ATOM     74  F   UNL A   1      37.655  30.920  28.810  1.00  0.00    -0.206 F 
ATOM     75  C   UNL A   1      36.270  30.714  32.158  1.00  0.00     0.006 A 
ENDBRANCH  54  68
BRANCH  55  76
ATOM     76  C   UNL A   1      46.855  26.808  26.371  1.00  0.00     0.057 A 
ATOM     77  C   UNL A   1      47.925  26.235  27.073  1.00  0.00     0.134 A 
ATOM     78  C   UNL A   1      46.988  26.934  24.984  1.00  0.00     0.134 A 
ATOM     79  F   UNL A   1      47.856  26.080  28.403  1.00  0.00    -0.206 F 
ATOM     80  C   UNL A   1      49.101  25.852  26.430  1.00  0.00     0.040 A 
ATOM     81  C   UNL A   1      48.148  26.526  24.323  1.00  0.00     0.040 A 
ATOM     82  F   UNL A   1      45.984  27.439  24.253  1.00  0.00    -0.206 F 
ATOM     83  C   UNL A   1      49.215  25.997  25.049  1.00  0.00     0.006 A 
ENDBRANCH  55  76
BRANCH  67  84
ATOM     84  C   UNL A   1      44.935  33.059  28.808  1.00  0.00     0.057 A 
ATOM     85  C   UNL A   1      45.736  33.406  29.905  1.00  0.00     0.134 A 
ATOM     86  C   UNL A   1      44.706  34.042  27.839  1.00  0.00     0.134 A 
ATOM     87  F   UNL A   1      45.989  32.512  30.873  1.00  0.00    -0.206 F 
ATOM     88  C   UNL A   1      46.264  34.689  30.047  1.00  0.00     0.040 A 
ATOM     89  C   UNL A   1      45.244  35.325  27.961  1.00  0.00     0.040 A 
ATOM     90  F   UNL A   1      43.957  33.770  26.759  1.00  0.00    -0.206 F 
ATOM     91  C   UNL A   1      46.016  35.655  29.074  1.00  0.00     0.006 A 
ENDBRANCH  67  84
ENDBRANCH  41  42
ENDBRANCH  34  36
ENDBRANCH  33  34
ENDBRANCH  32  33
ENDBRANCH   1  32
TORSDOF 17
ENDMDL
MODEL 3
REMARK VINA RESULT:     -12.0      2.446      7.423
REMARK SMILES CC(C)[C@@H](NC(=O)/C(=C\c1ccccc1F)NC(=O)c1ccccc1)C(=O)OCCOC(=O)c1ccc(-c2c3nc(c(-c4c(F)cccc4F)c4ccc([nH]4)c(-c4c(F)cccc4F)c4nc(c(-c5c(F)cccc5F)c5ccc2[nH]5)C=C4)C=C3)cc1
REMARK SMILES IDX 29 1 28 2 26 3 27 4 4 5 2 6 1 7 3 8 5 9 6 10 7 12 8 13 9 14
REMARK SMILES IDX 17 15 18 16 19 18 20 19 21 20 25 21 22 22 24 23 23 24 10 25
REMARK SMILES IDX 11 26 15 27 12 28 14 29 16 30 13 31 30 32 31 33 32 34 33 35
REMARK SMILES IDX 34 36 35 37 87 38 36 39 86 40 37 41 38 42 39 43 80 44 40 45
REMARK SMILES IDX 85 46 79 47 81 48 41 49 84 50 78 51 77 52 42 54 68 55 51 56
REMARK SMILES IDX 67 57 52 58 55 59 66 60 82 61 53 62 54 63 65 65 83 66 56 67
REMARK SMILES IDX 43 68 44 69 49 70 45 71 46 72 48 73 50 74 47 75 69 76 70 77
REMARK SMILES IDX 75 78 71 79 72 80 74 81 76 82 73 83 57 84 58 85 63 86 59 87
REMARK SMILES IDX 60 88 62 89 64 90 61 91
REMARK H PARENT 5 11 17 17 81 53 55 64
REMARK Flexibility Score: inf
ROOT
ATOM      1  C   UNL A   1      36.210  22.138  25.635  1.00  0.00     0.274 C 
ENDROOT
BRANCH   1   2
ATOM      2  O   UNL A   1      35.613  23.463  25.686  1.00  0.00    -0.461 OA
BRANCH   2   3
ATOM      3  C   UNL A   1      34.427  23.438  26.331  1.00  0.00     0.329 C 
ATOM      4  O   UNL A   1      34.340  22.938  27.448  1.00  0.00    -0.250 OA
BRANCH   3   5
ATOM      5  C   UNL A   1      33.196  24.062  25.622  1.00  0.00     0.195 C 
BRANCH   5   6
ATOM      6  C   UNL A   1      32.075  23.179  25.016  1.00  0.00     0.017 C 
ATOM      7  C   UNL A   1      32.705  21.991  24.241  1.00  0.00     0.010 C 
ATOM      8  C   UNL A   1      31.175  22.565  26.096  1.00  0.00     0.010 C 
ENDBRANCH   5   6
BRANCH   5   9
ATOM      9  N   UNL A   1      32.653  25.248  26.310  1.00  0.00    -0.337 N 
ATOM     10  C   UNL A   1      31.978  26.296  25.724  1.00  0.00     0.268 C 
ATOM     11  H   UNL A   1      32.787  25.297  27.283  1.00  0.00     0.164 HD
ATOM     12  O   UNL A   1      31.024  26.811  26.298  1.00  0.00    -0.268 OA
BRANCH  10  13
ATOM     13  C   UNL A   1      32.520  26.867  24.454  1.00  0.00     0.107 C 
ATOM     14  C   UNL A   1      33.205  28.033  24.476  1.00  0.00     0.043 C 
BRANCH  13  15
ATOM     15  N   UNL A   1      32.116  26.338  23.228  1.00  0.00    -0.317 N 
ATOM     16  C   UNL A   1      31.296  26.820  22.228  1.00  0.00     0.255 C 
ATOM     17  H   UNL A   1      32.489  25.447  23.039  1.00  0.00     0.170 HD
ATOM     18  O   UNL A   1      31.331  26.338  21.098  1.00  0.00    -0.269 OA
BRANCH  16  19
ATOM     19  C   UNL A   1      30.279  27.837  22.523  1.00  0.00     0.040 A 
ATOM     20  C   UNL A   1      30.520  29.147  22.103  1.00  0.00     0.014 A 
ATOM     21  C   UNL A   1      29.104  27.505  23.200  1.00  0.00     0.014 A 
ATOM     22  C   UNL A   1      29.529  30.111  22.271  1.00  0.00     0.001 A 
ATOM     23  C   UNL A   1      28.099  28.464  23.329  1.00  0.00     0.001 A 
ATOM     24  C   UNL A   1      28.309  29.761  22.852  1.00  0.00     0.000 A 
ENDBRANCH  16  19
ENDBRANCH  13  15
BRANCH  14  25
ATOM     25  C   UNL A   1      33.432  28.909  25.641  1.00  0.00     0.012 A 
ATOM     26  C   UNL A   1      34.547  28.685  26.471  1.00  0.00     0.011 A 
ATOM     27  C   UNL A   1      32.593  29.967  25.961  1.00  0.00     0.130 A 
ATOM     28  C   UNL A   1      34.839  29.505  27.561  1.00  0.00     0.001 A 
ATOM     29  C   UNL A   1      32.868  30.790  27.056  1.00  0.00     0.040 A 
ATOM     30  F   UNL A   1      31.499  30.203  25.228  1.00  0.00    -0.206 F 
ATOM     31  C   UNL A   1      33.994  30.565  27.853  1.00  0.00     0.003 A 
ENDBRANCH  14  25
ENDBRANCH  10  13
ENDBRANCH   5   9
ENDBRANCH   3   5
ENDBRANCH   2   3
ENDBRANCH   1   2
BRANCH   1  32
ATOM     32  C   UNL A   1      37.755  22.145  25.742  1.00  0.00     0.275 C 
BRANCH  32  33
ATOM     33  O   UNL A   1      38.373  23.461  25.700  1.00  0.00    -0.458 OA
BRANCH  33  34
ATOM     34  C   UNL A   1      39.478  23.584  26.494  1.00  0.00     0.338 C 
ATOM     35  O   UNL A   1      40.365  22.748  26.570  1.00  0.00    -0.246 OA
BRANCH  34  36
ATOM     36  C   UNL A   1      39.586  24.907  27.203  1.00  0.00     0.060 A 
ATOM     37  C   UNL A   1      40.343  25.982  26.747  1.00  0.00     0.016 A 
ATOM     38  C   UNL A   1      38.940  25.055  28.435  1.00  0.00     0.016 A 
ATOM     39  C   UNL A   1      40.571  27.109  27.578  1.00  0.00     0.010 A 
ATOM     40  C   UNL A   1      39.083  26.227  29.208  1.00  0.00     0.010 A 
ATOM     41  C   UNL A   1      39.938  27.274  28.822  1.00  0.00    -0.014 A 
BRANCH  41  42
ATOM     42  C   UNL A   1      40.098  28.484  29.726  1.00  0.00     0.031 A 
ATOM     43  C   UNL A   1      41.129  28.485  30.849  1.00  0.00     0.074 A 
ATOM     44  C   UNL A   1      39.315  29.586  29.648  1.00  0.00     0.049 A 
ATOM     45  N   UNL A   1      41.136  29.148  31.982  1.00  0.00    -0.248 NA
ATOM     46  C   UNL A   1      42.309  27.626  30.662  1.00  0.00     0.031 C 
ATOM     47  C   UNL A   1      38.354  29.897  28.593  1.00  0.00     0.029 A 
ATOM     48  N   UNL A   1      39.186  30.653  30.523  1.00  0.00    -0.354 N 
ATOM     49  C   UNL A   1      42.267  28.724  32.677  1.00  0.00     0.074 A 
ATOM     50  C   UNL A   1      42.940  27.766  31.823  1.00  0.00     0.031 C 
ATOM     51  C   UNL A   1      37.746  31.059  28.871  1.00  0.00     0.029 A 
ATOM     52  C   UNL A   1      38.159  31.508  30.194  1.00  0.00     0.049 A 
ATOM     53  H   UNL A   1      39.771  30.785  31.304  1.00  0.00     0.167 HD
ATOM     54  C   UNL A   1      42.698  29.086  33.913  1.00  0.00     0.037 A 
ATOM     55  C   UNL A   1      37.529  32.481  30.888  1.00  0.00     0.037 A 
ATOM     56  C   UNL A   1      42.088  30.104  34.735  1.00  0.00     0.049 A 
ATOM     57  C   UNL A   1      37.920  32.789  32.304  1.00  0.00     0.074 A 
ATOM     58  C   UNL A   1      42.464  30.526  36.002  1.00  0.00     0.029 A 
ATOM     59  N   UNL A   1      41.002  30.878  34.368  1.00  0.00    -0.354 N 
ATOM     60  N   UNL A   1      38.885  32.274  33.022  1.00  0.00    -0.248 NA
ATOM     61  C   UNL A   1      37.111  33.790  33.021  1.00  0.00     0.031 C 
ATOM     62  C   UNL A   1      41.579  31.524  36.418  1.00  0.00     0.029 A 
ATOM     63  C   UNL A   1      40.684  31.759  35.390  1.00  0.00     0.049 A 
ATOM     64  H   UNL A   1      40.526  30.812  33.509  1.00  0.00     0.167 HD
ATOM     65  C   UNL A   1      38.815  32.901  34.259  1.00  0.00     0.074 A 
ATOM     66  C   UNL A   1      37.714  33.835  34.202  1.00  0.00     0.031 C 
ATOM     67  C   UNL A   1      39.605  32.709  35.341  1.00  0.00     0.037 A 
BRANCH  54  68
ATOM     68  C   UNL A   1      43.873  28.359  34.510  1.00  0.00     0.057 A 
ATOM     69  C   UNL A   1      43.664  27.194  35.264  1.00  0.00     0.134 A 
ATOM     70  C   UNL A   1      45.174  28.871  34.466  1.00  0.00     0.134 A 
ATOM     71  F   UNL A   1      42.436  26.663  35.370  1.00  0.00    -0.206 F 
ATOM     72  C   UNL A   1      44.700  26.576  35.966  1.00  0.00     0.040 A 
ATOM     73  C   UNL A   1      46.226  28.246  35.143  1.00  0.00     0.040 A 
ATOM     74  F   UNL A   1      45.444  29.981  33.765  1.00  0.00    -0.206 F 
ATOM     75  C   UNL A   1      45.988  27.104  35.907  1.00  0.00     0.006 A 
ENDBRANCH  54  68
BRANCH  55  76
ATOM     76  C   UNL A   1      36.373  33.179  30.264  1.00  0.00     0.057 A 
ATOM     77  C   UNL A   1      35.052  32.844  30.597  1.00  0.00     0.134 A 
ATOM     78  C   UNL A   1      36.561  34.168  29.293  1.00  0.00     0.134 A 
ATOM     79  F   UNL A   1      34.806  31.908  31.526  1.00  0.00    -0.206 F 
ATOM     80  C   UNL A   1      33.964  33.431  29.955  1.00  0.00     0.040 A 
ATOM     81  C   UNL A   1      35.479  34.787  28.664  1.00  0.00     0.040 A 
ATOM     82  F   UNL A   1      37.799  34.559  28.959  1.00  0.00    -0.206 F 
ATOM     83  C   UNL A   1      34.176  34.406  28.984  1.00  0.00     0.006 A 
ENDBRANCH  55  76
BRANCH  67  84
ATOM     84  C   UNL A   1      39.364  33.553  36.558  1.00  0.00     0.057 A 
ATOM     85  C   UNL A   1      39.965  34.814  36.678  1.00  0.00     0.134 A 
ATOM     86  C   UNL A   1      38.628  33.081  37.650  1.00  0.00     0.134 A 
ATOM     87  F   UNL A   1      40.690  35.321  35.670  1.00  0.00    -0.206 F 
ATOM     88  C   UNL A   1      39.861  35.564  37.850  1.00  0.00     0.040 A 
ATOM     89  C   UNL A   1      38.502  33.830  38.822  1.00  0.00     0.040 A 
ATOM     90  F   UNL A   1      38.019  31.886  37.594  1.00  0.00    -0.206 F 
ATOM     91  C   UNL A   1      39.129  35.070  38.928  1.00  0.00     0.006 A 
ENDBRANCH  67  84
ENDBRANCH  41  42
ENDBRANCH  34  36
ENDBRANCH  33  34
ENDBRANCH  32  33
ENDBRANCH   1  32
TORSDOF 17
ENDMDL
