MODEL 1
REMARK VINA RESULT:     -11.9      0.000      0.000
REMARK SMILES N#C/C(=C\c1ccc(Oc2ccccc2)cc1Cl)C(=O)OCCOC(=O)c1ccc(-c2c3nc(c(-c4c(F)cccc4F)c4ccc([nH]4)c(-c4c(F)cccc4F)c4nc(c(-c5c(F)cccc5F)c5ccc2[nH]5)C=C4)C=C3)cc1
REMARK SMILES IDX 22 1 21 2 19 3 20 4 3 5 4 6 2 7 1 8 5 9 6 10 17 11 7 12
REMARK SMILES IDX 16 13 18 14 8 15 9 16 10 17 11 18 15 19 12 20 14 21 13 22
REMARK SMILES IDX 23 23 24 24 25 25 26 26 27 27 28 28 80 29 29 30 79 31 30 32
REMARK SMILES IDX 31 33 32 34 73 35 33 36 78 37 72 38 74 39 34 40 77 41 71 42
REMARK SMILES IDX 70 43 35 45 61 46 44 47 60 48 45 49 48 50 59 51 75 52 46 53
REMARK SMILES IDX 47 54 58 56 76 57 49 58 36 59 37 60 42 61 38 62 39 63 41 64
REMARK SMILES IDX 43 65 40 66 62 67 63 68 68 69 64 70 65 71 67 72 69 73 66 74
REMARK SMILES IDX 50 75 51 76 56 77 52 78 53 79 55 80 57 81 54 82
REMARK H PARENT 74 44 48 55
REMARK Flexibility Score: inf
ROOT
ATOM      1  C   UNL A   1      31.589  29.057  25.012  1.00  0.00     0.275 C 
ENDROOT
BRANCH   1   2
ATOM      2  O   UNL A   1      32.926  28.522  25.029  1.00  0.00    -0.458 OA
BRANCH   2   3
ATOM      3  C   UNL A   1      33.451  28.189  23.823  1.00  0.00     0.349 C 
ATOM      4  O   UNL A   1      33.711  28.966  22.916  1.00  0.00    -0.245 OA
BRANCH   3   5
ATOM      5  C   UNL A   1      33.695  26.741  23.738  1.00  0.00     0.138 C 
ATOM      6  C   UNL A   1      33.880  26.031  24.875  1.00  0.00     0.036 C 
BRANCH   5   7
ATOM      7  C   UNL A   1      33.519  25.995  22.425  1.00  0.00     0.107 C 
ATOM      8  N   UNL A   1      33.373  25.376  21.336  1.00  0.00    -0.192 NA
ENDBRANCH   5   7
BRANCH   6   9
ATOM      9  C   UNL A   1      33.809  24.552  24.923  1.00  0.00    -0.005 A 
ATOM     10  C   UNL A   1      35.029  23.861  24.861  1.00  0.00     0.013 A 
ATOM     11  C   UNL A   1      32.636  23.808  25.136  1.00  0.00     0.052 A 
ATOM     12  C   UNL A   1      35.078  22.478  25.069  1.00  0.00     0.048 A 
ATOM     13  C   UNL A   1      32.698  22.436  25.413  1.00  0.00     0.068 A 
ATOM     14  Cl  UNL A   1      31.065  24.535  25.059  1.00  0.00    -0.084 Cl
ATOM     15  C   UNL A   1      33.918  21.760  25.371  1.00  0.00     0.128 A 
BRANCH  15  16
ATOM     16  O   UNL A   1      34.124  20.417  25.608  1.00  0.00    -0.457 OA
BRANCH  16  17
ATOM     17  C   UNL A   1      33.780  19.492  24.653  1.00  0.00     0.127 A 
ATOM     18  C   UNL A   1      32.646  19.751  23.882  1.00  0.00     0.047 A 
ATOM     19  C   UNL A   1      34.458  18.280  24.514  1.00  0.00     0.047 A 
ATOM     20  C   UNL A   1      32.234  18.829  22.919  1.00  0.00     0.004 A 
ATOM     21  C   UNL A   1      34.064  17.372  23.532  1.00  0.00     0.004 A 
ATOM     22  C   UNL A   1      32.954  17.648  22.731  1.00  0.00     0.000 A 
ENDBRANCH  16  17
ENDBRANCH  15  16
ENDBRANCH   6   9
ENDBRANCH   3   5
ENDBRANCH   2   3
ENDBRANCH   1   2
BRANCH   1  23
ATOM     23  C   UNL A   1      31.558  30.416  25.712  1.00  0.00     0.275 C 
BRANCH  23  24
ATOM     24  O   UNL A   1      32.373  30.389  26.901  1.00  0.00    -0.458 OA
BRANCH  24  25
ATOM     25  C   UNL A   1      33.010  31.548  27.191  1.00  0.00     0.338 C 
ATOM     26  O   UNL A   1      32.528  32.668  27.222  1.00  0.00    -0.246 OA
BRANCH  25  27
ATOM     27  C   UNL A   1      34.393  31.279  27.612  1.00  0.00     0.060 A 
ATOM     28  C   UNL A   1      34.748  29.965  27.881  1.00  0.00     0.016 A 
ATOM     29  C   UNL A   1      35.263  32.310  27.947  1.00  0.00     0.016 A 
ATOM     30  C   UNL A   1      35.888  29.680  28.619  1.00  0.00     0.010 A 
ATOM     31  C   UNL A   1      36.491  32.004  28.558  1.00  0.00     0.010 A 
ATOM     32  C   UNL A   1      36.799  30.686  28.944  1.00  0.00    -0.014 A 
BRANCH  32  33
ATOM     33  C   UNL A   1      38.026  30.344  29.721  1.00  0.00     0.031 A 
ATOM     34  C   UNL A   1      39.112  29.513  29.092  1.00  0.00     0.074 A 
ATOM     35  C   UNL A   1      38.202  30.816  30.974  1.00  0.00     0.049 A 
ATOM     36  N   UNL A   1      40.137  28.925  29.656  1.00  0.00    -0.248 NA
ATOM     37  C   UNL A   1      39.026  29.299  27.639  1.00  0.00     0.031 C 
ATOM     38  C   UNL A   1      37.285  31.707  31.690  1.00  0.00     0.029 A 
ATOM     39  N   UNL A   1      39.230  30.627  31.867  1.00  0.00    -0.354 N 
ATOM     40  C   UNL A   1      40.767  28.209  28.646  1.00  0.00     0.074 A 
ATOM     41  C   UNL A   1      40.017  28.442  27.431  1.00  0.00     0.031 C 
ATOM     42  C   UNL A   1      37.818  32.038  32.873  1.00  0.00     0.029 A 
ATOM     43  C   UNL A   1      39.050  31.284  33.060  1.00  0.00     0.049 A 
ATOM     44  H   UNL A   1      40.020  30.074  31.670  1.00  0.00     0.167 HD
ATOM     45  C   UNL A   1      41.868  27.423  28.731  1.00  0.00     0.037 A 
ATOM     46  C   UNL A   1      39.757  31.244  34.205  1.00  0.00     0.037 A 
ATOM     47  C   UNL A   1      42.658  27.266  29.926  1.00  0.00     0.049 A 
ATOM     48  C   UNL A   1      40.945  30.333  34.290  1.00  0.00     0.074 A 
ATOM     49  C   UNL A   1      43.797  26.502  30.114  1.00  0.00     0.029 A 
ATOM     50  N   UNL A   1      42.403  27.906  31.131  1.00  0.00    -0.354 N 
ATOM     51  N   UNL A   1      41.475  29.577  33.360  1.00  0.00    -0.248 NA
ATOM     52  C   UNL A   1      41.614  30.241  35.595  1.00  0.00     0.031 C 
ATOM     53  C   UNL A   1      44.209  26.651  31.442  1.00  0.00     0.029 A 
ATOM     54  C   UNL A   1      43.354  27.542  32.069  1.00  0.00     0.049 A 
ATOM     55  H   UNL A   1      41.657  28.528  31.293  1.00  0.00     0.167 HD
ATOM     56  C   UNL A   1      42.545  28.929  33.960  1.00  0.00     0.074 A 
ATOM     57  C   UNL A   1      42.600  29.397  35.330  1.00  0.00     0.031 C 
ATOM     58  C   UNL A   1      43.399  28.022  33.427  1.00  0.00     0.037 A 
BRANCH  45  59
ATOM     59  C   UNL A   1      42.254  26.632  27.515  1.00  0.00     0.057 A 
ATOM     60  C   UNL A   1      43.108  27.133  26.526  1.00  0.00     0.134 A 
ATOM     61  C   UNL A   1      41.777  25.323  27.351  1.00  0.00     0.134 A 
ATOM     62  F   UNL A   1      43.590  28.383  26.613  1.00  0.00    -0.206 F 
ATOM     63  C   UNL A   1      43.453  26.372  25.406  1.00  0.00     0.040 A 
ATOM     64  C   UNL A   1      42.137  24.544  26.251  1.00  0.00     0.040 A 
ATOM     65  F   UNL A   1      40.961  24.777  28.265  1.00  0.00    -0.206 F 
ATOM     66  C   UNL A   1      42.972  25.072  25.270  1.00  0.00     0.006 A 
ENDBRANCH  45  59
BRANCH  46  67
ATOM     67  C   UNL A   1      39.317  32.039  35.380  1.00  0.00     0.057 A 
ATOM     68  C   UNL A   1      39.768  33.349  35.578  1.00  0.00     0.134 A 
ATOM     69  C   UNL A   1      38.435  31.512  36.333  1.00  0.00     0.134 A 
ATOM     70  F   UNL A   1      40.636  33.901  34.717  1.00  0.00    -0.206 F 
ATOM     71  C   UNL A   1      39.361  34.104  36.680  1.00  0.00     0.040 A 
ATOM     72  C   UNL A   1      37.996  32.266  37.422  1.00  0.00     0.040 A 
ATOM     73  F   UNL A   1      37.967  30.262  36.205  1.00  0.00    -0.206 F 
ATOM     74  C   UNL A   1      38.465  33.565  37.601  1.00  0.00     0.006 A 
ENDBRANCH  46  67
BRANCH  58  75
ATOM     75  C   UNL A   1      44.487  27.509  34.321  1.00  0.00     0.057 A 
ATOM     76  C   UNL A   1      45.713  28.173  34.447  1.00  0.00     0.134 A 
ATOM     77  C   UNL A   1      44.295  26.348  35.081  1.00  0.00     0.134 A 
ATOM     78  F   UNL A   1      45.963  29.281  33.731  1.00  0.00    -0.206 F 
ATOM     79  C   UNL A   1      46.721  27.687  35.280  1.00  0.00     0.040 A 
ATOM     80  C   UNL A   1      45.286  25.867  35.936  1.00  0.00     0.040 A 
ATOM     81  F   UNL A   1      43.141  25.670  35.009  1.00  0.00    -0.206 F 
ATOM     82  C   UNL A   1      46.506  26.534  36.033  1.00  0.00     0.006 A 
ENDBRANCH  58  75
ENDBRANCH  32  33
ENDBRANCH  25  27
ENDBRANCH  24  25
ENDBRANCH  23  24
ENDBRANCH   1  23
TORSDOF 15
ENDMDL
MODEL 2
REMARK VINA RESULT:     -11.8      0.791      1.629
REMARK SMILES N#C/C(=C\c1ccc(Oc2ccccc2)cc1Cl)C(=O)OCCOC(=O)c1ccc(-c2c3nc(c(-c4c(F)cccc4F)c4ccc([nH]4)c(-c4c(F)cccc4F)c4nc(c(-c5c(F)cccc5F)c5ccc2[nH]5)C=C4)C=C3)cc1
REMARK SMILES IDX 22 1 21 2 19 3 20 4 3 5 4 6 2 7 1 8 5 9 6 10 17 11 7 12
REMARK SMILES IDX 16 13 18 14 8 15 9 16 10 17 11 18 15 19 12 20 14 21 13 22
REMARK SMILES IDX 23 23 24 24 25 25 26 26 27 27 28 28 80 29 29 30 79 31 30 32
REMARK SMILES IDX 31 33 32 34 73 35 33 36 78 37 72 38 74 39 34 40 77 41 71 42
REMARK SMILES IDX 70 43 35 45 61 46 44 47 60 48 45 49 48 50 59 51 75 52 46 53
REMARK SMILES IDX 47 54 58 56 76 57 49 58 36 59 37 60 42 61 38 62 39 63 41 64
REMARK SMILES IDX 43 65 40 66 62 67 63 68 68 69 64 70 65 71 67 72 69 73 66 74
REMARK SMILES IDX 50 75 51 76 56 77 52 78 53 79 55 80 57 81 54 82
REMARK H PARENT 74 44 48 55
REMARK Flexibility Score: inf
ROOT
ATOM      1  C   UNL A   1      31.543  29.335  24.816  1.00  0.00     0.275 C 
ENDROOT
BRANCH   1   2
ATOM      2  O   UNL A   1      32.274  28.259  25.435  1.00  0.00    -0.458 OA
BRANCH   2   3
ATOM      3  C   UNL A   1      33.401  27.858  24.795  1.00  0.00     0.349 C 
ATOM      4  O   UNL A   1      34.359  28.565  24.519  1.00  0.00    -0.245 OA
BRANCH   3   5
ATOM      5  C   UNL A   1      33.342  26.423  24.476  1.00  0.00     0.138 C 
ATOM      6  C   UNL A   1      33.865  25.527  25.346  1.00  0.00     0.036 C 
BRANCH   5   7
ATOM      7  C   UNL A   1      32.512  25.916  23.308  1.00  0.00     0.107 C 
ATOM      8  N   UNL A   1      31.823  25.495  22.339  1.00  0.00    -0.192 NA
ENDBRANCH   5   7
BRANCH   6   9
ATOM      9  C   UNL A   1      33.575  24.076  25.282  1.00  0.00    -0.005 A 
ATOM     10  C   UNL A   1      32.483  23.620  26.036  1.00  0.00     0.013 A 
ATOM     11  C   UNL A   1      34.235  23.158  24.447  1.00  0.00     0.052 A 
ATOM     12  C   UNL A   1      32.028  22.302  25.908  1.00  0.00     0.048 A 
ATOM     13  C   UNL A   1      33.734  21.862  24.270  1.00  0.00     0.068 A 
ATOM     14  Cl  UNL A   1      35.693  23.570  23.607  1.00  0.00    -0.084 Cl
ATOM     15  C   UNL A   1      32.633  21.422  25.007  1.00  0.00     0.128 A 
BRANCH  15  16
ATOM     16  O   UNL A   1      32.046  20.176  24.945  1.00  0.00    -0.457 OA
BRANCH  16  17
ATOM     17  C   UNL A   1      32.707  19.135  24.342  1.00  0.00     0.127 A 
ATOM     18  C   UNL A   1      32.222  18.688  23.112  1.00  0.00     0.047 A 
ATOM     19  C   UNL A   1      33.759  18.461  24.965  1.00  0.00     0.047 A 
ATOM     20  C   UNL A   1      32.838  17.612  22.470  1.00  0.00     0.004 A 
ATOM     21  C   UNL A   1      34.393  17.406  24.310  1.00  0.00     0.004 A 
ATOM     22  C   UNL A   1      33.935  16.984  23.061  1.00  0.00     0.000 A 
ENDBRANCH  16  17
ENDBRANCH  15  16
ENDBRANCH   6   9
ENDBRANCH   3   5
ENDBRANCH   2   3
ENDBRANCH   1   2
BRANCH   1  23
ATOM     23  C   UNL A   1      31.441  30.520  25.777  1.00  0.00     0.275 C 
BRANCH  23  24
ATOM     24  O   UNL A   1      32.419  30.402  26.829  1.00  0.00    -0.458 OA
BRANCH  24  25
ATOM     25  C   UNL A   1      33.043  31.554  27.171  1.00  0.00     0.338 C 
ATOM     26  O   UNL A   1      32.551  32.669  27.237  1.00  0.00    -0.246 OA
BRANCH  25  27
ATOM     27  C   UNL A   1      34.423  31.281  27.599  1.00  0.00     0.060 A 
ATOM     28  C   UNL A   1      34.769  29.967  27.881  1.00  0.00     0.016 A 
ATOM     29  C   UNL A   1      35.298  32.310  27.929  1.00  0.00     0.016 A 
ATOM     30  C   UNL A   1      35.904  29.682  28.626  1.00  0.00     0.010 A 
ATOM     31  C   UNL A   1      36.520  32.002  28.547  1.00  0.00     0.010 A 
ATOM     32  C   UNL A   1      36.819  30.686  28.946  1.00  0.00    -0.014 A 
BRANCH  32  33
ATOM     33  C   UNL A   1      38.041  30.343  29.731  1.00  0.00     0.031 A 
ATOM     34  C   UNL A   1      39.129  29.509  29.110  1.00  0.00     0.074 A 
ATOM     35  C   UNL A   1      38.211  30.817  30.984  1.00  0.00     0.049 A 
ATOM     36  N   UNL A   1      40.150  28.919  29.681  1.00  0.00    -0.248 NA
ATOM     37  C   UNL A   1      39.052  29.291  27.657  1.00  0.00     0.031 C 
ATOM     38  C   UNL A   1      37.292  31.711  31.692  1.00  0.00     0.029 A 
ATOM     39  N   UNL A   1      39.234  30.628  31.883  1.00  0.00    -0.354 N 
ATOM     40  C   UNL A   1      40.785  28.200  28.677  1.00  0.00     0.074 A 
ATOM     41  C   UNL A   1      40.042  28.432  27.457  1.00  0.00     0.031 C 
ATOM     42  C   UNL A   1      37.818  32.044  32.878  1.00  0.00     0.029 A 
ATOM     43  C   UNL A   1      39.048  31.288  33.074  1.00  0.00     0.049 A 
ATOM     44  H   UNL A   1      40.024  30.074  31.692  1.00  0.00     0.167 HD
ATOM     45  C   UNL A   1      41.884  27.413  28.770  1.00  0.00     0.037 A 
ATOM     46  C   UNL A   1      39.749  31.249  34.223  1.00  0.00     0.037 A 
ATOM     47  C   UNL A   1      42.666  27.257  29.969  1.00  0.00     0.049 A 
ATOM     48  C   UNL A   1      40.934  30.337  34.317  1.00  0.00     0.074 A 
ATOM     49  C   UNL A   1      43.803  26.492  30.166  1.00  0.00     0.029 A 
ATOM     50  N   UNL A   1      42.406  27.900  31.171  1.00  0.00    -0.354 N 
ATOM     51  N   UNL A   1      41.468  29.578  33.391  1.00  0.00    -0.248 NA
ATOM     52  C   UNL A   1      41.595  30.246  35.626  1.00  0.00     0.031 C 
ATOM     53  C   UNL A   1      44.208  26.643  31.496  1.00  0.00     0.029 A 
ATOM     54  C   UNL A   1      43.350  27.536  32.116  1.00  0.00     0.049 A 
ATOM     55  H   UNL A   1      41.660  28.524  31.328  1.00  0.00     0.167 HD
ATOM     56  C   UNL A   1      42.533  28.929  33.999  1.00  0.00     0.074 A 
ATOM     57  C   UNL A   1      42.582  29.400  35.369  1.00  0.00     0.031 C 
ATOM     58  C   UNL A   1      43.388  28.019  33.473  1.00  0.00     0.037 A 
BRANCH  45  59
ATOM     59  C   UNL A   1      42.276  26.618  27.557  1.00  0.00     0.057 A 
ATOM     60  C   UNL A   1      41.813  25.320  27.321  1.00  0.00     0.134 A 
ATOM     61  C   UNL A   1      43.118  27.188  26.590  1.00  0.00     0.134 A 
ATOM     62  F   UNL A   1      41.015  24.710  28.212  1.00  0.00    -0.206 F 
ATOM     63  C   UNL A   1      42.192  24.605  26.182  1.00  0.00     0.040 A 
ATOM     64  C   UNL A   1      43.482  26.495  25.435  1.00  0.00     0.040 A 
ATOM     65  F   UNL A   1      43.593  28.433  26.749  1.00  0.00    -0.206 F 
ATOM     66  C   UNL A   1      43.024  25.195  25.233  1.00  0.00     0.006 A 
ENDBRANCH  45  59
BRANCH  46  67
ATOM     67  C   UNL A   1      39.303  32.048  35.394  1.00  0.00     0.057 A 
ATOM     68  C   UNL A   1      39.738  33.365  35.580  1.00  0.00     0.134 A 
ATOM     69  C   UNL A   1      38.431  31.517  36.354  1.00  0.00     0.134 A 
ATOM     70  F   UNL A   1      40.596  33.921  34.711  1.00  0.00    -0.206 F 
ATOM     71  C   UNL A   1      39.326  34.123  36.678  1.00  0.00     0.040 A 
ATOM     72  C   UNL A   1      37.987  32.274  37.439  1.00  0.00     0.040 A 
ATOM     73  F   UNL A   1      37.979  30.260  36.237  1.00  0.00    -0.206 F 
ATOM     74  C   UNL A   1      38.440  33.580  37.606  1.00  0.00     0.006 A 
ENDBRANCH  46  67
BRANCH  58  75
ATOM     75  C   UNL A   1      44.470  27.506  34.375  1.00  0.00     0.057 A 
ATOM     76  C   UNL A   1      44.312  26.335  35.125  1.00  0.00     0.134 A 
ATOM     77  C   UNL A   1      45.692  28.182  34.476  1.00  0.00     0.134 A 
ATOM     78  F   UNL A   1      43.157  25.651  35.084  1.00  0.00    -0.206 F 
ATOM     79  C   UNL A   1      45.324  25.866  35.963  1.00  0.00     0.040 A 
ATOM     80  C   UNL A   1      46.720  27.710  35.291  1.00  0.00     0.040 A 
ATOM     81  F   UNL A   1      45.908  29.307  33.778  1.00  0.00    -0.206 F 
ATOM     82  C   UNL A   1      46.535  26.550  36.042  1.00  0.00     0.006 A 
ENDBRANCH  58  75
ENDBRANCH  32  33
ENDBRANCH  25  27
ENDBRANCH  24  25
ENDBRANCH  23  24
ENDBRANCH   1  23
TORSDOF 15
ENDMDL
MODEL 3
REMARK VINA RESULT:     -11.8      4.022      9.342
REMARK SMILES N#C/C(=C\c1ccc(Oc2ccccc2)cc1Cl)C(=O)OCCOC(=O)c1ccc(-c2c3nc(c(-c4c(F)cccc4F)c4ccc([nH]4)c(-c4c(F)cccc4F)c4nc(c(-c5c(F)cccc5F)c5ccc2[nH]5)C=C4)C=C3)cc1
REMARK SMILES IDX 22 1 21 2 19 3 20 4 3 5 4 6 2 7 1 8 5 9 6 10 17 11 7 12
REMARK SMILES IDX 16 13 18 14 8 15 9 16 10 17 11 18 15 19 12 20 14 21 13 22
REMARK SMILES IDX 23 23 24 24 25 25 26 26 27 27 28 28 80 29 29 30 79 31 30 32
REMARK SMILES IDX 31 33 32 34 73 35 33 36 78 37 72 38 74 39 34 40 77 41 71 42
REMARK SMILES IDX 70 43 35 45 61 46 44 47 60 48 45 49 48 50 59 51 75 52 46 53
REMARK SMILES IDX 47 54 58 56 76 57 49 58 36 59 37 60 42 61 38 62 39 63 41 64
REMARK SMILES IDX 43 65 40 66 62 67 63 68 68 69 64 70 65 71 67 72 69 73 66 74
REMARK SMILES IDX 50 75 51 76 56 77 52 78 53 79 55 80 57 81 54 82
REMARK H PARENT 74 44 48 55
REMARK Flexibility Score: inf
ROOT
ATOM      1  C   UNL A   1      35.106  22.187  24.182  1.00  0.00     0.275 C 
ENDROOT
BRANCH   1   2
ATOM      2  O   UNL A   1      35.108  23.515  23.624  1.00  0.00    -0.458 OA
BRANCH   2   3
ATOM      3  C   UNL A   1      34.591  24.494  24.410  1.00  0.00     0.349 C 
ATOM      4  O   UNL A   1      35.039  24.859  25.486  1.00  0.00    -0.245 OA
BRANCH   3   5
ATOM      5  C   UNL A   1      33.400  25.093  23.787  1.00  0.00     0.138 C 
ATOM      6  C   UNL A   1      32.446  25.643  24.574  1.00  0.00     0.036 C 
BRANCH   5   7
ATOM      7  C   UNL A   1      33.329  25.308  22.284  1.00  0.00     0.107 C 
ATOM      8  N   UNL A   1      33.270  25.487  21.037  1.00  0.00    -0.192 NA
ENDBRANCH   5   7
BRANCH   6   9
ATOM      9  C   UNL A   1      31.390  26.543  24.053  1.00  0.00    -0.005 A 
ATOM     10  C   UNL A   1      30.111  25.988  23.900  1.00  0.00     0.013 A 
ATOM     11  C   UNL A   1      31.550  27.918  23.811  1.00  0.00     0.052 A 
ATOM     12  C   UNL A   1      29.015  26.797  23.578  1.00  0.00     0.048 A 
ATOM     13  C   UNL A   1      30.440  28.735  23.557  1.00  0.00     0.068 A 
ATOM     14  Cl  UNL A   1      33.111  28.670  23.803  1.00  0.00    -0.084 Cl
ATOM     15  C   UNL A   1      29.167  28.178  23.429  1.00  0.00     0.128 A 
BRANCH  15  16
ATOM     16  O   UNL A   1      27.995  28.856  23.169  1.00  0.00    -0.457 OA
BRANCH  16  17
ATOM     17  C   UNL A   1      28.038  30.145  22.697  1.00  0.00     0.127 A 
ATOM     18  C   UNL A   1      28.037  30.326  21.314  1.00  0.00     0.047 A 
ATOM     19  C   UNL A   1      28.187  31.243  23.546  1.00  0.00     0.047 A 
ATOM     20  C   UNL A   1      28.111  31.614  20.780  1.00  0.00     0.004 A 
ATOM     21  C   UNL A   1      28.230  32.531  23.014  1.00  0.00     0.004 A 
ATOM     22  C   UNL A   1      28.189  32.717  21.632  1.00  0.00     0.000 A 
ENDBRANCH  16  17
ENDBRANCH  15  16
ENDBRANCH   6   9
ENDBRANCH   3   5
ENDBRANCH   2   3
ENDBRANCH   1   2
BRANCH   1  23
ATOM     23  C   UNL A   1      36.533  21.644  24.248  1.00  0.00     0.275 C 
BRANCH  23  24
ATOM     24  O   UNL A   1      36.981  21.566  25.615  1.00  0.00    -0.458 OA
BRANCH  24  25
ATOM     25  C   UNL A   1      38.305  21.335  25.778  1.00  0.00     0.338 C 
ATOM     26  O   UNL A   1      38.952  20.405  25.327  1.00  0.00    -0.246 OA
BRANCH  25  27
ATOM     27  C   UNL A   1      38.936  22.455  26.490  1.00  0.00     0.060 A 
ATOM     28  C   UNL A   1      38.489  23.739  26.211  1.00  0.00     0.016 A 
ATOM     29  C   UNL A   1      40.086  22.276  27.251  1.00  0.00     0.016 A 
ATOM     30  C   UNL A   1      39.260  24.842  26.550  1.00  0.00     0.010 A 
ATOM     31  C   UNL A   1      40.781  23.401  27.723  1.00  0.00     0.010 A 
ATOM     32  C   UNL A   1      40.402  24.701  27.339  1.00  0.00    -0.014 A 
BRANCH  32  33
ATOM     33  C   UNL A   1      41.198  25.909  27.703  1.00  0.00     0.031 A 
ATOM     34  C   UNL A   1      40.605  26.964  28.598  1.00  0.00     0.074 A 
ATOM     35  C   UNL A   1      42.473  26.049  27.279  1.00  0.00     0.049 A 
ATOM     36  N   UNL A   1      41.035  28.175  28.849  1.00  0.00    -0.248 NA
ATOM     37  C   UNL A   1      39.353  26.620  29.290  1.00  0.00     0.031 C 
ATOM     38  C   UNL A   1      43.220  25.073  26.481  1.00  0.00     0.029 A 
ATOM     39  N   UNL A   1      43.378  27.063  27.478  1.00  0.00    -0.354 N 
ATOM     40  C   UNL A   1      40.069  28.761  29.658  1.00  0.00     0.074 A 
ATOM     41  C   UNL A   1      39.034  27.772  29.866  1.00  0.00     0.031 C 
ATOM     42  C   UNL A   1      44.478  25.502  26.317  1.00  0.00     0.029 A 
ATOM     43  C   UNL A   1      44.596  26.839  26.883  1.00  0.00     0.049 A 
ATOM     44  H   UNL A   1      43.174  27.873  27.999  1.00  0.00     0.167 HD
ATOM     45  C   UNL A   1      40.049  30.014  30.173  1.00  0.00     0.037 A 
ATOM     46  C   UNL A   1      45.672  27.636  26.748  1.00  0.00     0.037 A 
ATOM     47  C   UNL A   1      41.124  30.963  30.032  1.00  0.00     0.049 A 
ATOM     48  C   UNL A   1      45.610  29.034  27.286  1.00  0.00     0.074 A 
ATOM     49  C   UNL A   1      41.207  32.255  30.525  1.00  0.00     0.029 A 
ATOM     50  N   UNL A   1      42.317  30.712  29.369  1.00  0.00    -0.354 N 
ATOM     51  N   UNL A   1      44.650  29.617  27.961  1.00  0.00    -0.248 NA
ATOM     52  C   UNL A   1      46.766  29.898  27.013  1.00  0.00     0.031 C 
ATOM     53  C   UNL A   1      42.433  32.797  30.127  1.00  0.00     0.029 A 
ATOM     54  C   UNL A   1      43.133  31.829  29.425  1.00  0.00     0.049 A 
ATOM     55  H   UNL A   1      42.548  29.864  28.924  1.00  0.00     0.167 HD
ATOM     56  C   UNL A   1      45.088  30.911  28.205  1.00  0.00     0.074 A 
ATOM     57  C   UNL A   1      46.410  31.020  27.622  1.00  0.00     0.031 C 
ATOM     58  C   UNL A   1      44.449  31.919  28.846  1.00  0.00     0.037 A 
BRANCH  45  59
ATOM     59  C   UNL A   1      38.805  30.452  30.892  1.00  0.00     0.057 A 
ATOM     60  C   UNL A   1      37.735  31.076  30.241  1.00  0.00     0.134 A 
ATOM     61  C   UNL A   1      38.671  30.212  32.268  1.00  0.00     0.134 A 
ATOM     62  F   UNL A   1      37.802  31.347  28.928  1.00  0.00    -0.206 F 
ATOM     63  C   UNL A   1      36.588  31.469  30.935  1.00  0.00     0.040 A 
ATOM     64  C   UNL A   1      37.520  30.575  32.966  1.00  0.00     0.040 A 
ATOM     65  F   UNL A   1      39.656  29.611  32.952  1.00  0.00    -0.206 F 
ATOM     66  C   UNL A   1      36.476  31.213  32.300  1.00  0.00     0.006 A 
ENDBRANCH  45  59
BRANCH  46  67
ATOM     67  C   UNL A   1      46.870  27.152  26.014  1.00  0.00     0.057 A 
ATOM     68  C   UNL A   1      47.012  27.367  24.638  1.00  0.00     0.134 A 
ATOM     69  C   UNL A   1      47.903  26.466  26.667  1.00  0.00     0.134 A 
ATOM     70  F   UNL A   1      46.045  27.992  23.950  1.00  0.00    -0.206 F 
ATOM     71  C   UNL A   1      48.133  26.915  23.939  1.00  0.00     0.040 A 
ATOM     72  C   UNL A   1      49.043  26.037  25.987  1.00  0.00     0.040 A 
ATOM     73  F   UNL A   1      47.829  26.225  27.984  1.00  0.00    -0.206 F 
ATOM     74  C   UNL A   1      49.157  26.256  24.616  1.00  0.00     0.006 A 
ENDBRANCH  46  67
BRANCH  58  75
ATOM     75  C   UNL A   1      45.193  33.214  28.981  1.00  0.00     0.057 A 
ATOM     76  C   UNL A   1      45.053  34.246  28.046  1.00  0.00     0.134 A 
ATOM     77  C   UNL A   1      46.042  33.435  30.072  1.00  0.00     0.134 A 
ATOM     78  F   UNL A   1      44.267  34.087  26.969  1.00  0.00    -0.206 F 
ATOM     79  C   UNL A   1      45.751  35.447  28.179  1.00  0.00     0.040 A 
ATOM     80  C   UNL A   1      46.725  34.641  30.229  1.00  0.00     0.040 A 
ATOM     81  F   UNL A   1      46.214  32.488  31.006  1.00  0.00    -0.206 F 
ATOM     82  C   UNL A   1      46.585  35.650  29.277  1.00  0.00     0.006 A 
ENDBRANCH  58  75
ENDBRANCH  32  33
ENDBRANCH  25  27
ENDBRANCH  24  25
ENDBRANCH  23  24
ENDBRANCH   1  23
TORSDOF 15
ENDMDL
