MODEL 1
REMARK VINA RESULT:     -11.1      0.000      0.000
REMARK SMILES C/C(=N\[NH+]=C1\NC(=O)[C@H](CC(=O)OCCOC(=O)c2ccc(-c3c4nc(c(-c5c(F)cccc5F)c5ccc([nH]5)c(-c5c(F)cccc5F)c5nc(c(-c6c(F)cccc6F)c6ccc3[nH]6)C=C5)C=C4)cc2)S1)c1ccc([N+](=O)[O-])cc1
REMARK SMILES IDX 14 1 13 2 11 3 12 4 10 5 9 6 4 7 5 8 6 10 73 11 7 12 8 14
REMARK SMILES IDX 3 15 1 16 2 17 74 18 75 19 82 20 76 21 81 22 77 23 78 24
REMARK SMILES IDX 79 25 80 26 15 27 16 28 17 29 18 30 19 31 20 32 72 33 21 34
REMARK SMILES IDX 71 35 22 36 23 37 24 38 65 39 25 40 70 41 64 42 66 43 26 44
REMARK SMILES IDX 69 45 63 46 62 47 27 49 53 50 36 51 52 52 37 53 40 54 51 55
REMARK SMILES IDX 67 56 38 57 39 58 50 60 68 61 41 62 28 63 29 64 34 65 30 66
REMARK SMILES IDX 31 67 33 68 35 69 32 70 54 71 55 72 60 73 56 74 57 75 59 76
REMARK SMILES IDX 61 77 58 78 42 79 43 80 48 81 44 82 45 83 47 84 49 85 46 86
REMARK H PARENT 4 9 6 13 66 48 40 59
REMARK Flexibility Score: inf
ROOT
ATOM      1  C   UNL A   1      31.322  32.046  26.571  1.00  0.00     0.274 C 
ENDROOT
BRANCH   1   2
ATOM      2  O   UNL A   1      32.038  30.981  27.220  1.00  0.00    -0.462 OA
BRANCH   2   3
ATOM      3  C   UNL A   1      33.028  30.368  26.533  1.00  0.00     0.307 C 
ATOM      4  O   UNL A   1      34.211  30.371  26.847  1.00  0.00    -0.252 OA
BRANCH   3   5
ATOM      5  C   UNL A   1      32.508  29.705  25.280  1.00  0.00     0.150 C 
BRANCH   5   6
ATOM      6  C   UNL A   1      32.022  28.292  25.545  1.00  0.00     0.184 C 
ATOM      7  N   UNL A   1      32.891  24.720  24.368  1.00  0.00    -0.142 N 
ATOM      8  C   UNL A   1      32.617  25.957  24.603  1.00  0.00     0.337 C 
ATOM      9  H   UNL A   1      32.328  24.173  23.775  1.00  0.00     0.343 HD
ATOM     10  N   UNL A   1      31.515  26.501  24.047  1.00  0.00    -0.202 N 
ATOM     11  S   UNL A   1      33.427  27.107  25.618  1.00  0.00    -0.020 SA
ATOM     12  C   UNL A   1      31.137  27.749  24.432  1.00  0.00     0.322 C 
ATOM     13  H   UNL A   1      30.995  26.004  23.375  1.00  0.00     0.316 HD
ATOM     14  O   UNL A   1      30.167  28.308  23.940  1.00  0.00    -0.246 OA
BRANCH   7  15
ATOM     15  N   UNL A   1      34.016  24.195  24.989  1.00  0.00    -0.090 NA
ATOM     16  C   UNL A   1      34.422  23.008  22.829  1.00  0.00     0.071 C 
ATOM     17  C   UNL A   1      34.787  23.465  24.231  1.00  0.00     0.088 C 
BRANCH  17  18
ATOM     18  C   UNL A   1      36.119  23.041  24.774  1.00  0.00    -0.000 A 
ATOM     19  C   UNL A   1      36.592  21.746  24.513  1.00  0.00     0.017 A 
ATOM     20  C   UNL A   1      36.864  23.888  25.609  1.00  0.00     0.017 A 
ATOM     21  C   UNL A   1      37.784  21.293  25.088  1.00  0.00     0.086 A 
ATOM     22  C   UNL A   1      38.053  23.440  26.195  1.00  0.00     0.086 A 
ATOM     23  C   UNL A   1      38.505  22.140  25.938  1.00  0.00     0.269 A 
BRANCH  23  24
ATOM     24  N   UNL A   1      39.732  21.659  26.586  1.00  0.00     0.062 N 
ATOM     25  O   UNL A   1      40.228  22.362  27.477  1.00  0.00    -0.258 OA
ATOM     26  O   UNL A   1      40.202  20.580  26.196  1.00  0.00    -0.258 OA
ENDBRANCH  23  24
ENDBRANCH  17  18
ENDBRANCH   7  15
ENDBRANCH   5   6
ENDBRANCH   3   5
ENDBRANCH   2   3
ENDBRANCH   1   2
BRANCH   1  27
ATOM     27  C   UNL A   1      32.030  33.390  26.747  1.00  0.00     0.275 C 
BRANCH  27  28
ATOM     28  O   UNL A   1      32.244  33.685  28.140  1.00  0.00    -0.458 OA
BRANCH  28  29
ATOM     29  C   UNL A   1      33.278  34.516  28.403  1.00  0.00     0.338 C 
ATOM     30  O   UNL A   1      33.273  35.735  28.381  1.00  0.00    -0.246 OA
BRANCH  29  31
ATOM     31  C   UNL A   1      34.435  33.735  28.868  1.00  0.00     0.060 A 
ATOM     32  C   UNL A   1      34.192  32.518  29.516  1.00  0.00     0.016 A 
ATOM     33  C   UNL A   1      35.736  34.219  28.727  1.00  0.00     0.016 A 
ATOM     34  C   UNL A   1      35.255  31.783  30.035  1.00  0.00     0.010 A 
ATOM     35  C   UNL A   1      36.801  33.479  29.248  1.00  0.00     0.010 A 
ATOM     36  C   UNL A   1      36.566  32.264  29.914  1.00  0.00    -0.014 A 
BRANCH  36  37
ATOM     37  C   UNL A   1      37.690  31.511  30.521  1.00  0.00     0.031 A 
ATOM     38  C   UNL A   1      38.064  31.748  31.954  1.00  0.00     0.074 A 
ATOM     39  C   UNL A   1      38.368  30.611  29.784  1.00  0.00     0.049 A 
ATOM     40  N   UNL A   1      39.048  31.238  32.649  1.00  0.00    -0.248 NA
ATOM     41  C   UNL A   1      37.218  32.688  32.707  1.00  0.00     0.031 C 
ATOM     42  C   UNL A   1      38.079  30.272  28.391  1.00  0.00     0.029 A 
ATOM     43  N   UNL A   1      39.443  29.823  30.107  1.00  0.00    -0.354 N 
ATOM     44  C   UNL A   1      38.950  31.801  33.914  1.00  0.00     0.074 A 
ATOM     45  C   UNL A   1      37.822  32.709  33.887  1.00  0.00     0.031 C 
ATOM     46  C   UNL A   1      38.958  29.346  27.977  1.00  0.00     0.029 A 
ATOM     47  C   UNL A   1      39.892  29.055  29.062  1.00  0.00     0.049 A 
ATOM     48  H   UNL A   1      39.852  29.810  31.003  1.00  0.00     0.167 HD
ATOM     49  C   UNL A   1      39.727  31.576  35.001  1.00  0.00     0.037 A 
ATOM     50  C   UNL A   1      40.952  28.229  28.982  1.00  0.00     0.037 A 
ATOM     51  C   UNL A   1      40.844  30.668  35.027  1.00  0.00     0.049 A 
ATOM     52  C   UNL A   1      41.832  28.040  30.186  1.00  0.00     0.074 A 
ATOM     53  C   UNL A   1      41.679  30.359  36.087  1.00  0.00     0.029 A 
ATOM     54  N   UNL A   1      41.284  29.927  33.941  1.00  0.00    -0.354 N 
ATOM     55  N   UNL A   1      41.722  28.566  31.382  1.00  0.00    -0.248 NA
ATOM     56  C   UNL A   1      42.987  27.143  30.029  1.00  0.00     0.031 C 
ATOM     57  C   UNL A   1      42.650  29.460  35.631  1.00  0.00     0.029 A 
ATOM     58  C   UNL A   1      42.393  29.177  34.300  1.00  0.00     0.049 A 
ATOM     59  H   UNL A   1      40.870  29.932  33.048  1.00  0.00     0.167 HD
ATOM     60  C   UNL A   1      42.776  28.050  32.125  1.00  0.00     0.074 A 
ATOM     61  C   UNL A   1      43.508  27.159  31.248  1.00  0.00     0.031 C 
ATOM     62  C   UNL A   1      43.108  28.292  33.416  1.00  0.00     0.037 A 
BRANCH  49  63
ATOM     63  C   UNL A   1      39.407  32.344  36.248  1.00  0.00     0.057 A 
ATOM     64  C   UNL A   1      40.054  33.546  36.563  1.00  0.00     0.134 A 
ATOM     65  C   UNL A   1      38.414  31.892  37.127  1.00  0.00     0.134 A 
ATOM     66  F   UNL A   1      41.024  34.025  35.770  1.00  0.00    -0.206 F 
ATOM     67  C   UNL A   1      39.737  34.263  37.719  1.00  0.00     0.040 A 
ATOM     68  C   UNL A   1      38.075  32.612  38.275  1.00  0.00     0.040 A 
ATOM     69  F   UNL A   1      37.754  30.751  36.882  1.00  0.00    -0.206 F 
ATOM     70  C   UNL A   1      38.740  33.798  38.576  1.00  0.00     0.006 A 
ENDBRANCH  49  63
BRANCH  50  71
ATOM     71  C   UNL A   1      41.250  27.528  27.709  1.00  0.00     0.057 A 
ATOM     72  C   UNL A   1      42.025  28.133  26.713  1.00  0.00     0.134 A 
ATOM     73  C   UNL A   1      40.758  26.243  27.455  1.00  0.00     0.134 A 
ATOM     74  F   UNL A   1      42.502  29.373  26.891  1.00  0.00    -0.206 F 
ATOM     75  C   UNL A   1      42.292  27.489  25.505  1.00  0.00     0.040 A 
ATOM     76  C   UNL A   1      41.036  25.577  26.261  1.00  0.00     0.040 A 
ATOM     77  F   UNL A   1      40.009  25.611  28.370  1.00  0.00    -0.206 F 
ATOM     78  C   UNL A   1      41.801  26.204  25.279  1.00  0.00     0.006 A 
ENDBRANCH  50  71
BRANCH  62  79
ATOM     79  C   UNL A   1      44.295  27.559  33.967  1.00  0.00     0.057 A 
ATOM     80  C   UNL A   1      45.579  28.117  33.947  1.00  0.00     0.134 A 
ATOM     81  C   UNL A   1      44.146  26.297  34.553  1.00  0.00     0.134 A 
ATOM     82  F   UNL A   1      45.792  29.318  33.387  1.00  0.00    -0.206 F 
ATOM     83  C   UNL A   1      46.677  27.435  34.475  1.00  0.00     0.040 A 
ATOM     84  C   UNL A   1      45.231  25.615  35.104  1.00  0.00     0.040 A 
ATOM     85  F   UNL A   1      42.940  25.710  34.610  1.00  0.00    -0.206 F 
ATOM     86  C   UNL A   1      46.503  26.182  35.061  1.00  0.00     0.006 A 
ENDBRANCH  62  79
ENDBRANCH  36  37
ENDBRANCH  29  31
ENDBRANCH  28  29
ENDBRANCH  27  28
ENDBRANCH   1  27
TORSDOF 15
ENDMDL
MODEL 2
REMARK VINA RESULT:     -11.0      2.042      8.619
REMARK SMILES C/C(=N\[NH+]=C1\NC(=O)[C@H](CC(=O)OCCOC(=O)c2ccc(-c3c4nc(c(-c5c(F)cccc5F)c5ccc([nH]5)c(-c5c(F)cccc5F)c5nc(c(-c6c(F)cccc6F)c6ccc3[nH]6)C=C5)C=C4)cc2)S1)c1ccc([N+](=O)[O-])cc1
REMARK SMILES IDX 14 1 13 2 11 3 12 4 10 5 9 6 4 7 5 8 6 10 73 11 7 12 8 14
REMARK SMILES IDX 3 15 1 16 2 17 74 18 75 19 82 20 76 21 81 22 77 23 78 24
REMARK SMILES IDX 79 25 80 26 15 27 16 28 17 29 18 30 19 31 20 32 72 33 21 34
REMARK SMILES IDX 71 35 22 36 23 37 24 38 65 39 25 40 70 41 64 42 66 43 26 44
REMARK SMILES IDX 69 45 63 46 62 47 27 49 53 50 36 51 52 52 37 53 40 54 51 55
REMARK SMILES IDX 67 56 38 57 39 58 50 60 68 61 41 62 28 63 29 64 34 65 30 66
REMARK SMILES IDX 31 67 33 68 35 69 32 70 54 71 55 72 60 73 56 74 57 75 59 76
REMARK SMILES IDX 61 77 58 78 42 79 43 80 48 81 44 82 45 83 47 84 49 85 46 86
REMARK H PARENT 4 9 6 13 66 48 40 59
REMARK Flexibility Score: inf
ROOT
ATOM      1  C   UNL A   1      42.969  20.737  25.746  1.00  0.00     0.274 C 
ENDROOT
BRANCH   1   2
ATOM      2  O   UNL A   1      41.611  21.211  25.755  1.00  0.00    -0.462 OA
BRANCH   2   3
ATOM      3  C   UNL A   1      40.847  20.934  26.836  1.00  0.00     0.307 C 
ATOM      4  O   UNL A   1      40.942  19.928  27.527  1.00  0.00    -0.252 OA
BRANCH   3   5
ATOM      5  C   UNL A   1      39.810  22.006  27.075  1.00  0.00     0.150 C 
BRANCH   5   6
ATOM      6  C   UNL A   1      38.986  22.285  25.831  1.00  0.00     0.184 C 
ATOM      7  N   UNL A   1      35.312  23.109  24.984  1.00  0.00    -0.142 N 
ATOM      8  C   UNL A   1      36.478  22.723  25.372  1.00  0.00     0.337 C 
ATOM      9  H   UNL A   1      34.686  22.490  24.544  1.00  0.00     0.343 HD
ATOM     10  N   UNL A   1      36.856  21.449  25.141  1.00  0.00    -0.202 N 
ATOM     11  S   UNL A   1      37.754  23.617  26.134  1.00  0.00    -0.020 SA
ATOM     12  C   UNL A   1      38.144  21.093  25.397  1.00  0.00     0.322 C 
ATOM     13  H   UNL A   1      36.213  20.789  24.794  1.00  0.00     0.316 HD
ATOM     14  O   UNL A   1      38.539  19.947  25.239  1.00  0.00    -0.246 OA
BRANCH   7  15
ATOM     15  N   UNL A   1      34.979  24.437  25.212  1.00  0.00    -0.090 NA
ATOM     16  C   UNL A   1      33.913  24.362  22.955  1.00  0.00     0.071 C 
ATOM     17  C   UNL A   1      34.237  24.996  24.297  1.00  0.00     0.088 C 
BRANCH  17  18
ATOM     18  C   UNL A   1      33.668  26.355  24.578  1.00  0.00    -0.000 A 
ATOM     19  C   UNL A   1      33.467  26.758  25.908  1.00  0.00     0.017 A 
ATOM     20  C   UNL A   1      33.254  27.197  23.536  1.00  0.00     0.017 A 
ATOM     21  C   UNL A   1      32.848  27.978  26.196  1.00  0.00     0.086 A 
ATOM     22  C   UNL A   1      32.626  28.416  23.816  1.00  0.00     0.086 A 
ATOM     23  C   UNL A   1      32.418  28.799  25.146  1.00  0.00     0.269 A 
BRANCH  23  24
ATOM     24  N   UNL A   1      31.723  30.060  25.437  1.00  0.00     0.062 N 
ATOM     25  O   UNL A   1      30.709  30.325  24.777  1.00  0.00    -0.258 OA
ATOM     26  O   UNL A   1      32.199  30.787  26.322  1.00  0.00    -0.258 OA
ENDBRANCH  23  24
ENDBRANCH  17  18
ENDBRANCH   7  15
ENDBRANCH   5   6
ENDBRANCH   3   5
ENDBRANCH   2   3
ENDBRANCH   1   2
BRANCH   1  27
ATOM     27  C   UNL A   1      43.946  21.835  25.320  1.00  0.00     0.275 C 
BRANCH  27  28
ATOM     28  O   UNL A   1      43.255  23.073  25.066  1.00  0.00    -0.458 OA
BRANCH  28  29
ATOM     29  C   UNL A   1      44.002  24.192  25.204  1.00  0.00     0.338 C 
ATOM     30  O   UNL A   1      44.960  24.530  24.531  1.00  0.00    -0.246 OA
BRANCH  29  31
ATOM     31  C   UNL A   1      43.411  25.057  26.237  1.00  0.00     0.060 A 
ATOM     32  C   UNL A   1      43.901  26.362  26.365  1.00  0.00     0.016 A 
ATOM     33  C   UNL A   1      42.433  24.576  27.109  1.00  0.00     0.016 A 
ATOM     34  C   UNL A   1      43.419  27.189  27.377  1.00  0.00     0.010 A 
ATOM     35  C   UNL A   1      41.950  25.408  28.122  1.00  0.00     0.010 A 
ATOM     36  C   UNL A   1      42.448  26.714  28.269  1.00  0.00    -0.014 A 
BRANCH  36  37
ATOM     37  C   UNL A   1      41.981  27.574  29.382  1.00  0.00     0.031 A 
ATOM     38  C   UNL A   1      42.690  27.540  30.704  1.00  0.00     0.074 A 
ATOM     39  C   UNL A   1      40.926  28.390  29.200  1.00  0.00     0.049 A 
ATOM     40  N   UNL A   1      42.401  28.167  31.815  1.00  0.00    -0.248 NA
ATOM     41  C   UNL A   1      43.881  26.681  30.788  1.00  0.00     0.031 C 
ATOM     42  C   UNL A   1      40.176  28.534  27.953  1.00  0.00     0.029 A 
ATOM     43  N   UNL A   1      40.302  29.247  30.071  1.00  0.00    -0.354 N 
ATOM     44  C   UNL A   1      43.364  27.773  32.733  1.00  0.00     0.074 A 
ATOM     45  C   UNL A   1      44.235  26.835  32.057  1.00  0.00     0.031 C 
ATOM     46  C   UNL A   1      39.188  29.424  28.139  1.00  0.00     0.029 A 
ATOM     47  C   UNL A   1      39.215  29.884  29.525  1.00  0.00     0.049 A 
ATOM     48  H   UNL A   1      40.604  29.390  30.996  1.00  0.00     0.167 HD
ATOM     49  C   UNL A   1      43.512  28.163  34.023  1.00  0.00     0.037 A 
ATOM     50  C   UNL A   1      38.327  30.725  30.088  1.00  0.00     0.037 A 
ATOM     51  C   UNL A   1      42.648  29.101  34.692  1.00  0.00     0.049 A 
ATOM     52  C   UNL A   1      38.480  31.098  31.536  1.00  0.00     0.074 A 
ATOM     53  C   UNL A   1      42.728  29.572  35.990  1.00  0.00     0.029 A 
ATOM     54  N   UNL A   1      41.542  29.706  34.114  1.00  0.00    -0.354 N 
ATOM     55  N   UNL A   1      39.403  30.731  32.393  1.00  0.00    -0.248 NA
ATOM     56  C   UNL A   1      37.465  32.001  32.099  1.00  0.00     0.031 C 
ATOM     57  C   UNL A   1      41.647  30.433  36.211  1.00  0.00     0.029 A 
ATOM     58  C   UNL A   1      40.919  30.530  35.038  1.00  0.00     0.049 A 
ATOM     59  H   UNL A   1      41.244  29.570  33.186  1.00  0.00     0.167 HD
ATOM     60  C   UNL A   1      39.095  31.373  33.584  1.00  0.00     0.074 A 
ATOM     61  C   UNL A   1      37.906  32.163  33.339  1.00  0.00     0.031 C 
ATOM     62  C   UNL A   1      39.738  31.313  34.775  1.00  0.00     0.037 A 
BRANCH  49  63
ATOM     63  C   UNL A   1      44.640  27.556  34.802  1.00  0.00     0.057 A 
ATOM     64  C   UNL A   1      45.902  28.161  34.870  1.00  0.00     0.134 A 
ATOM     65  C   UNL A   1      44.451  26.369  35.520  1.00  0.00     0.134 A 
ATOM     66  F   UNL A   1      46.151  29.292  34.192  1.00  0.00    -0.206 F 
ATOM     67  C   UNL A   1      46.942  27.597  35.611  1.00  0.00     0.040 A 
ATOM     68  C   UNL A   1      45.477  25.807  36.283  1.00  0.00     0.040 A 
ATOM     69  F   UNL A   1      43.266  25.742  35.501  1.00  0.00    -0.206 F 
ATOM     70  C   UNL A   1      46.728  26.419  36.326  1.00  0.00     0.006 A 
ENDBRANCH  49  63
BRANCH  50  71
ATOM     71  C   UNL A   1      37.202  31.261  29.283  1.00  0.00     0.057 A 
ATOM     72  C   UNL A   1      37.240  32.558  28.760  1.00  0.00     0.134 A 
ATOM     73  C   UNL A   1      36.062  30.493  29.025  1.00  0.00     0.134 A 
ATOM     74  F   UNL A   1      38.298  33.349  28.996  1.00  0.00    -0.206 F 
ATOM     75  C   UNL A   1      36.179  33.078  28.019  1.00  0.00     0.040 A 
ATOM     76  C   UNL A   1      35.002  30.991  28.265  1.00  0.00     0.040 A 
ATOM     77  F   UNL A   1      35.965  29.242  29.498  1.00  0.00    -0.206 F 
ATOM     78  C   UNL A   1      35.057  32.290  27.765  1.00  0.00     0.006 A 
ENDBRANCH  50  71
BRANCH  62  79
ATOM     79  C   UNL A   1      39.188  32.149  35.894  1.00  0.00     0.057 A 
ATOM     80  C   UNL A   1      39.538  33.495  36.048  1.00  0.00     0.134 A 
ATOM     81  C   UNL A   1      38.273  31.608  36.804  1.00  0.00     0.134 A 
ATOM     82  F   UNL A   1      40.421  34.069  35.216  1.00  0.00    -0.206 F 
ATOM     83  C   UNL A   1      39.011  34.270  37.083  1.00  0.00     0.040 A 
ATOM     84  C   UNL A   1      37.722  32.378  37.828  1.00  0.00     0.040 A 
ATOM     85  F   UNL A   1      37.890  30.325  36.707  1.00  0.00    -0.206 F 
ATOM     86  C   UNL A   1      38.095  33.713  37.973  1.00  0.00     0.006 A 
ENDBRANCH  62  79
ENDBRANCH  36  37
ENDBRANCH  29  31
ENDBRANCH  28  29
ENDBRANCH  27  28
ENDBRANCH   1  27
TORSDOF 15
ENDMDL
MODEL 3
REMARK VINA RESULT:     -10.9      0.780      6.138
REMARK SMILES C/C(=N\[NH+]=C1\NC(=O)[C@H](CC(=O)OCCOC(=O)c2ccc(-c3c4nc(c(-c5c(F)cccc5F)c5ccc([nH]5)c(-c5c(F)cccc5F)c5nc(c(-c6c(F)cccc6F)c6ccc3[nH]6)C=C5)C=C4)cc2)S1)c1ccc([N+](=O)[O-])cc1
REMARK SMILES IDX 14 1 13 2 11 3 12 4 10 5 9 6 4 7 5 8 6 10 73 11 7 12 8 14
REMARK SMILES IDX 3 15 1 16 2 17 74 18 75 19 82 20 76 21 81 22 77 23 78 24
REMARK SMILES IDX 79 25 80 26 15 27 16 28 17 29 18 30 19 31 20 32 72 33 21 34
REMARK SMILES IDX 71 35 22 36 23 37 24 38 65 39 25 40 70 41 64 42 66 43 26 44
REMARK SMILES IDX 69 45 63 46 62 47 27 49 53 50 36 51 52 52 37 53 40 54 51 55
REMARK SMILES IDX 67 56 38 57 39 58 50 60 68 61 41 62 28 63 29 64 34 65 30 66
REMARK SMILES IDX 31 67 33 68 35 69 32 70 54 71 55 72 60 73 56 74 57 75 59 76
REMARK SMILES IDX 61 77 58 78 42 79 43 80 48 81 44 82 45 83 47 84 49 85 46 86
REMARK H PARENT 4 9 6 13 66 48 40 59
REMARK Flexibility Score: inf
ROOT
ATOM      1  C   UNL A   1      31.587  31.110  26.268  1.00  0.00     0.274 C 
ENDROOT
BRANCH   1   2
ATOM      2  O   UNL A   1      32.047  30.099  27.181  1.00  0.00    -0.462 OA
BRANCH   2   3
ATOM      3  C   UNL A   1      31.619  28.830  26.994  1.00  0.00     0.307 C 
ATOM      4  O   UNL A   1      31.379  28.028  27.886  1.00  0.00    -0.252 OA
BRANCH   3   5
ATOM      5  C   UNL A   1      31.512  28.489  25.527  1.00  0.00     0.150 C 
BRANCH   5   6
ATOM      6  C   UNL A   1      31.583  26.992  25.284  1.00  0.00     0.184 C 
ATOM      7  N   UNL A   1      33.943  24.510  23.506  1.00  0.00    -0.142 N 
ATOM      8  C   UNL A   1      33.176  25.436  23.969  1.00  0.00     0.337 C 
ATOM      9  H   UNL A   1      33.733  24.041  22.666  1.00  0.00     0.343 HD
ATOM     10  N   UNL A   1      32.046  25.745  23.300  1.00  0.00    -0.202 N 
ATOM     11  S   UNL A   1      33.310  26.377  25.419  1.00  0.00    -0.020 SA
ATOM     12  C   UNL A   1      31.158  26.598  23.877  1.00  0.00     0.322 C 
ATOM     13  H   UNL A   1      31.868  25.361  22.411  1.00  0.00     0.316 HD
ATOM     14  O   UNL A   1      30.132  26.942  23.307  1.00  0.00    -0.246 OA
BRANCH   7  15
ATOM     15  N   UNL A   1      35.076  24.202  24.246  1.00  0.00    -0.090 NA
ATOM     16  C   UNL A   1      34.263  21.842  24.159  1.00  0.00     0.071 C 
ATOM     17  C   UNL A   1      35.274  22.932  24.469  1.00  0.00     0.088 C 
BRANCH  17  18
ATOM     18  C   UNL A   1      36.581  22.515  25.076  1.00  0.00    -0.000 A 
ATOM     19  C   UNL A   1      37.326  23.444  25.818  1.00  0.00     0.017 A 
ATOM     20  C   UNL A   1      37.112  21.237  24.845  1.00  0.00     0.017 A 
ATOM     21  C   UNL A   1      38.592  23.111  26.311  1.00  0.00     0.086 A 
ATOM     22  C   UNL A   1      38.380  20.898  25.328  1.00  0.00     0.086 A 
ATOM     23  C   UNL A   1      39.120  21.840  26.053  1.00  0.00     0.269 A 
BRANCH  23  24
ATOM     24  N   UNL A   1      40.468  21.496  26.524  1.00  0.00     0.062 N 
ATOM     25  O   UNL A   1      40.591  21.129  27.701  1.00  0.00    -0.258 OA
ATOM     26  O   UNL A   1      41.403  21.599  25.717  1.00  0.00    -0.258 OA
ENDBRANCH  23  24
ENDBRANCH  17  18
ENDBRANCH   7  15
ENDBRANCH   5   6
ENDBRANCH   3   5
ENDBRANCH   2   3
ENDBRANCH   1   2
BRANCH   1  27
ATOM     27  C   UNL A   1      31.522  32.485  26.936  1.00  0.00     0.275 C 
BRANCH  27  28
ATOM     28  O   UNL A   1      32.787  33.167  26.845  1.00  0.00    -0.458 OA
BRANCH  28  29
ATOM     29  C   UNL A   1      33.163  33.841  27.955  1.00  0.00     0.338 C 
ATOM     30  O   UNL A   1      32.564  34.745  28.511  1.00  0.00    -0.246 OA
BRANCH  29  31
ATOM     31  C   UNL A   1      34.381  33.234  28.514  1.00  0.00     0.060 A 
ATOM     32  C   UNL A   1      34.279  31.969  29.103  1.00  0.00     0.016 A 
ATOM     33  C   UNL A   1      35.595  33.924  28.516  1.00  0.00     0.016 A 
ATOM     34  C   UNL A   1      35.392  31.392  29.707  1.00  0.00     0.010 A 
ATOM     35  C   UNL A   1      36.711  33.342  29.122  1.00  0.00     0.010 A 
ATOM     36  C   UNL A   1      36.614  32.078  29.730  1.00  0.00    -0.014 A 
BRANCH  36  37
ATOM     37  C   UNL A   1      37.782  31.489  30.427  1.00  0.00     0.031 A 
ATOM     38  C   UNL A   1      38.661  30.504  29.715  1.00  0.00     0.074 A 
ATOM     39  C   UNL A   1      38.055  31.847  31.695  1.00  0.00     0.049 A 
ATOM     40  N   UNL A   1      39.689  29.833  30.167  1.00  0.00    -0.248 NA
ATOM     41  C   UNL A   1      38.337  30.233  28.306  1.00  0.00     0.031 C 
ATOM     42  C   UNL A   1      37.293  32.817  32.481  1.00  0.00     0.029 A 
ATOM     43  N   UNL A   1      39.046  31.428  32.546  1.00  0.00    -0.354 N 
ATOM     44  C   UNL A   1      40.129  29.054  29.106  1.00  0.00     0.074 A 
ATOM     45  C   UNL A   1      39.243  29.317  27.992  1.00  0.00     0.031 C 
ATOM     46  C   UNL A   1      37.843  32.917  33.702  1.00  0.00     0.029 A 
ATOM     47  C   UNL A   1      38.971  31.993  33.795  1.00  0.00     0.049 A 
ATOM     48  H   UNL A   1      39.744  30.785  32.285  1.00  0.00     0.167 HD
ATOM     49  C   UNL A   1      41.180  28.200  29.064  1.00  0.00     0.037 A 
ATOM     50  C   UNL A   1      39.713  31.772  34.896  1.00  0.00     0.037 A 
ATOM     51  C   UNL A   1      42.064  27.944  30.172  1.00  0.00     0.049 A 
ATOM     52  C   UNL A   1      40.839  30.778  34.839  1.00  0.00     0.074 A 
ATOM     53  C   UNL A   1      43.168  27.110  30.220  1.00  0.00     0.029 A 
ATOM     54  N   UNL A   1      41.940  28.517  31.429  1.00  0.00    -0.354 N 
ATOM     55  N   UNL A   1      41.256  30.057  33.827  1.00  0.00    -0.248 NA
ATOM     56  C   UNL A   1      41.598  30.564  36.081  1.00  0.00     0.031 C 
ATOM     57  C   UNL A   1      43.688  27.148  31.518  1.00  0.00     0.029 A 
ATOM     58  C   UNL A   1      42.935  28.037  32.266  1.00  0.00     0.049 A 
ATOM     59  H   UNL A   1      41.248  29.167  31.687  1.00  0.00     0.167 HD
ATOM     60  C   UNL A   1      42.335  29.322  34.300  1.00  0.00     0.074 A 
ATOM     61  C   UNL A   1      42.517  29.694  35.687  1.00  0.00     0.031 C 
ATOM     62  C   UNL A   1      43.105  28.421  33.644  1.00  0.00     0.037 A 
BRANCH  49  63
ATOM     63  C   UNL A   1      41.418  27.462  27.781  1.00  0.00     0.057 A 
ATOM     64  C   UNL A   1      42.160  28.022  26.732  1.00  0.00     0.134 A 
ATOM     65  C   UNL A   1      40.927  26.162  27.605  1.00  0.00     0.134 A 
ATOM     66  F   UNL A   1      42.644  29.269  26.831  1.00  0.00    -0.206 F 
ATOM     67  C   UNL A   1      42.390  27.320  25.547  1.00  0.00     0.040 A 
ATOM     68  C   UNL A   1      41.170  25.443  26.433  1.00  0.00     0.040 A 
ATOM     69  F   UNL A   1      40.214  25.567  28.572  1.00  0.00    -0.206 F 
ATOM     70  C   UNL A   1      41.899  26.024  25.398  1.00  0.00     0.006 A 
ENDBRANCH  49  63
BRANCH  50  71
ATOM     71  C   UNL A   1      39.406  32.498  36.153  1.00  0.00     0.057 A 
ATOM     72  C   UNL A   1      40.061  33.689  36.480  1.00  0.00     0.134 A 
ATOM     73  C   UNL A   1      38.457  32.011  37.059  1.00  0.00     0.134 A 
ATOM     74  F   UNL A   1      40.997  34.191  35.661  1.00  0.00    -0.206 F 
ATOM     75  C   UNL A   1      39.793  34.367  37.670  1.00  0.00     0.040 A 
ATOM     76  C   UNL A   1      38.162  32.690  38.242  1.00  0.00     0.040 A 
ATOM     77  F   UNL A   1      37.795  30.873  36.803  1.00  0.00    -0.206 F 
ATOM     78  C   UNL A   1      38.836  33.869  38.553  1.00  0.00     0.006 A 
ENDBRANCH  50  71
BRANCH  62  79
ATOM     79  C   UNL A   1      44.234  27.798  34.411  1.00  0.00     0.057 A 
ATOM     80  C   UNL A   1      45.493  28.406  34.492  1.00  0.00     0.134 A 
ATOM     81  C   UNL A   1      44.049  26.595  35.103  1.00  0.00     0.134 A 
ATOM     82  F   UNL A   1      45.739  29.553  33.840  1.00  0.00    -0.206 F 
ATOM     83  C   UNL A   1      46.535  27.828  35.219  1.00  0.00     0.040 A 
ATOM     84  C   UNL A   1      45.075  26.020  35.852  1.00  0.00     0.040 A 
ATOM     85  F   UNL A   1      42.864  25.966  35.072  1.00  0.00    -0.206 F 
ATOM     86  C   UNL A   1      46.325  26.634  35.907  1.00  0.00     0.006 A 
ENDBRANCH  62  79
ENDBRANCH  36  37
ENDBRANCH  29  31
ENDBRANCH  28  29
ENDBRANCH  27  28
ENDBRANCH   1  27
TORSDOF 15
ENDMDL
