MODEL 1
REMARK VINA RESULT:     -10.7      0.000      0.000
REMARK SMILES CC1(C)C(C(=O)N2CCOC[C@H]2C(=O)OCCOC(=O)c2ccc(-c3c4nc(c(-c5c(F)cccc5F)c5ccc([nH]5)c(-c5c(F)cccc5F)c5nc(c(-c6c(F)cccc6F)c6ccc3[nH]6)C=C5)C=C4)cc2)C1(C)C
REMARK SMILES IDX 16 1 15 2 13 3 14 4 12 5 7 6 8 7 9 8 11 9 10 10 5 11 6 12
REMARK SMILES IDX 4 13 1 14 2 15 3 16 75 17 76 18 77 19 17 20 18 21 19 22
REMARK SMILES IDX 20 23 21 24 22 25 74 26 23 27 73 28 24 29 25 30 26 31 67 32
REMARK SMILES IDX 27 33 72 34 66 35 68 36 28 37 71 38 65 39 64 40 29 42 55 43
REMARK SMILES IDX 38 44 54 45 39 46 42 47 53 48 69 49 40 50 41 51 52 53 70 54
REMARK SMILES IDX 43 55 30 56 31 57 36 58 32 59 33 60 35 61 37 62 34 63 56 64
REMARK SMILES IDX 57 65 62 66 58 67 59 68 61 69 63 70 60 71 44 72 45 73 50 74
REMARK SMILES IDX 46 75 47 76 49 77 51 78 48 79
REMARK H PARENT 68 41 42 52
REMARK Flexibility Score: inf
ROOT
ATOM      1  C   UNL A   1      37.796  21.611  25.163  1.00  0.00     0.274 C 
ENDROOT
BRANCH   1   2
ATOM      2  O   UNL A   1      36.462  21.545  24.626  1.00  0.00    -0.460 OA
BRANCH   2   3
ATOM      3  C   UNL A   1      36.108  22.496  23.723  1.00  0.00     0.331 C 
ATOM      4  O   UNL A   1      36.793  22.812  22.753  1.00  0.00    -0.250 OA
BRANCH   3   5
ATOM      5  C   UNL A   1      34.844  23.274  24.120  1.00  0.00     0.221 C 
ATOM      6  N   UNL A   1      33.989  23.907  23.084  1.00  0.00    -0.324 N 
ATOM      7  C   UNL A   1      33.251  22.975  22.243  1.00  0.00     0.149 C 
ATOM      8  C   UNL A   1      32.512  21.935  23.102  1.00  0.00     0.181 C 
ATOM      9  C   UNL A   1      33.978  22.306  24.937  1.00  0.00     0.197 C 
ATOM     10  O   UNL A   1      33.367  21.321  24.084  1.00  0.00    -0.377 OA
BRANCH   6  11
ATOM     11  C   UNL A   1      33.916  25.291  23.082  1.00  0.00     0.227 C 
ATOM     12  O   UNL A   1      33.937  25.908  22.016  1.00  0.00    -0.275 OA
BRANCH  11  13
ATOM     13  C   UNL A   1      33.902  26.155  24.307  1.00  0.00     0.091 C 
ATOM     14  C   UNL A   1      33.970  27.962  26.146  1.00  0.00     0.012 C 
ATOM     15  C   UNL A   1      33.329  27.462  24.851  1.00  0.00    -0.017 C 
ATOM     16  C   UNL A   1      32.945  28.643  24.001  1.00  0.00     0.012 C 
ATOM     17  C   UNL A   1      32.460  26.213  24.906  1.00  0.00    -0.017 C 
ATOM     18  C   UNL A   1      32.211  25.468  26.198  1.00  0.00     0.012 C 
ATOM     19  C   UNL A   1      31.267  26.084  23.973  1.00  0.00     0.012 C 
ENDBRANCH  11  13
ENDBRANCH   6  11
ENDBRANCH   3   5
ENDBRANCH   2   3
ENDBRANCH   1   2
BRANCH   1  20
ATOM     20  C   UNL A   1      38.492  20.257  25.033  1.00  0.00     0.275 C 
BRANCH  20  21
ATOM     21  O   UNL A   1      39.211  19.935  26.236  1.00  0.00    -0.458 OA
BRANCH  21  22
ATOM     22  C   UNL A   1      40.555  19.849  26.089  1.00  0.00     0.338 C 
ATOM     23  O   UNL A   1      41.188  18.976  25.526  1.00  0.00    -0.246 OA
BRANCH  22  24
ATOM     24  C   UNL A   1      41.161  21.077  26.621  1.00  0.00     0.060 A 
ATOM     25  C   UNL A   1      41.118  21.293  28.000  1.00  0.00     0.016 A 
ATOM     26  C   UNL A   1      41.710  22.032  25.767  1.00  0.00     0.016 A 
ATOM     27  C   UNL A   1      41.606  22.479  28.537  1.00  0.00     0.010 A 
ATOM     28  C   UNL A   1      42.207  23.221  26.306  1.00  0.00     0.010 A 
ATOM     29  C   UNL A   1      42.143  23.458  27.692  1.00  0.00    -0.014 A 
BRANCH  29  30
ATOM     30  C   UNL A   1      42.574  24.760  28.248  1.00  0.00     0.031 A 
ATOM     31  C   UNL A   1      41.554  25.838  28.475  1.00  0.00     0.074 A 
ATOM     32  C   UNL A   1      43.869  24.971  28.546  1.00  0.00     0.049 A 
ATOM     33  N   UNL A   1      41.731  27.084  28.827  1.00  0.00    -0.248 NA
ATOM     34  C   UNL A   1      40.145  25.462  28.273  1.00  0.00     0.031 C 
ATOM     35  C   UNL A   1      44.938  23.982  28.417  1.00  0.00     0.029 A 
ATOM     36  N   UNL A   1      44.503  26.094  29.011  1.00  0.00    -0.354 N 
ATOM     37  C   UNL A   1      40.464  27.650  28.860  1.00  0.00     0.074 A 
ATOM     38  C   UNL A   1      39.525  26.614  28.484  1.00  0.00     0.031 C 
ATOM     39  C   UNL A   1      46.101  24.545  28.789  1.00  0.00     0.029 A 
ATOM     40  C   UNL A   1      45.863  25.945  29.133  1.00  0.00     0.049 A 
ATOM     41  H   UNL A   1      44.030  26.928  29.235  1.00  0.00     0.167 HD
ATOM     42  C   UNL A   1      40.119  28.920  29.179  1.00  0.00     0.037 A 
ATOM     43  C   UNL A   1      46.810  26.846  29.452  1.00  0.00     0.037 A 
ATOM     44  C   UNL A   1      41.056  29.935  29.584  1.00  0.00     0.049 A 
ATOM     45  C   UNL A   1      46.403  28.264  29.748  1.00  0.00     0.074 A 
ATOM     46  C   UNL A   1      40.802  31.244  29.952  1.00  0.00     0.029 A 
ATOM     47  N   UNL A   1      42.427  29.749  29.678  1.00  0.00    -0.354 N 
ATOM     48  N   UNL A   1      45.203  28.792  29.774  1.00  0.00    -0.248 NA
ATOM     49  C   UNL A   1      47.482  29.214  30.050  1.00  0.00     0.031 C 
ATOM     50  C   UNL A   1      42.024  31.864  30.229  1.00  0.00     0.029 A 
ATOM     51  C   UNL A   1      43.035  30.927  30.078  1.00  0.00     0.049 A 
ATOM     52  H   UNL A   1      42.897  28.906  29.489  1.00  0.00     0.167 HD
ATOM     53  C   UNL A   1      45.380  30.124  30.124  1.00  0.00     0.074 A 
ATOM     54  C   UNL A   1      46.803  30.322  30.310  1.00  0.00     0.031 C 
ATOM     55  C   UNL A   1      44.450  31.097  30.277  1.00  0.00     0.037 A 
BRANCH  42  56
ATOM     56  C   UNL A   1      38.672  29.296  29.076  1.00  0.00     0.057 A 
ATOM     57  C   UNL A   1      38.087  29.674  27.861  1.00  0.00     0.134 A 
ATOM     58  C   UNL A   1      37.840  29.226  30.200  1.00  0.00     0.134 A 
ATOM     59  F   UNL A   1      38.831  29.773  26.749  1.00  0.00    -0.206 F 
ATOM     60  C   UNL A   1      36.728  29.980  27.771  1.00  0.00     0.040 A 
ATOM     61  C   UNL A   1      36.475  29.509  30.119  1.00  0.00     0.040 A 
ATOM     62  F   UNL A   1      38.337  28.868  31.394  1.00  0.00    -0.206 F 
ATOM     63  C   UNL A   1      35.917  29.890  28.901  1.00  0.00     0.006 A 
ENDBRANCH  42  56
BRANCH  43  64
ATOM     64  C   UNL A   1      48.241  26.451  29.483  1.00  0.00     0.057 A 
ATOM     65  C   UNL A   1      48.817  25.905  30.636  1.00  0.00     0.134 A 
ATOM     66  C   UNL A   1      49.075  26.641  28.374  1.00  0.00     0.134 A 
ATOM     67  F   UNL A   1      48.076  25.722  31.740  1.00  0.00    -0.206 F 
ATOM     68  C   UNL A   1      50.174  25.584  30.693  1.00  0.00     0.040 A 
ATOM     69  C   UNL A   1      50.427  26.299  28.409  1.00  0.00     0.040 A 
ATOM     70  F   UNL A   1      48.585  27.161  27.240  1.00  0.00    -0.206 F 
ATOM     71  C   UNL A   1      50.982  25.778  29.575  1.00  0.00     0.006 A 
ENDBRANCH  43  64
BRANCH  55  72
ATOM     72  C   UNL A   1      44.936  32.447  30.713  1.00  0.00     0.057 A 
ATOM     73  C   UNL A   1      45.266  33.447  29.791  1.00  0.00     0.134 A 
ATOM     74  C   UNL A   1      45.033  32.762  32.074  1.00  0.00     0.134 A 
ATOM     75  F   UNL A   1      45.206  33.204  28.473  1.00  0.00    -0.206 F 
ATOM     76  C   UNL A   1      45.695  34.708  30.208  1.00  0.00     0.040 A 
ATOM     77  C   UNL A   1      45.438  34.026  32.504  1.00  0.00     0.040 A 
ATOM     78  F   UNL A   1      44.722  31.849  33.009  1.00  0.00    -0.206 F 
ATOM     79  C   UNL A   1      45.775  35.002  31.569  1.00  0.00     0.006 A 
ENDBRANCH  55  72
ENDBRANCH  29  30
ENDBRANCH  22  24
ENDBRANCH  21  22
ENDBRANCH  20  21
ENDBRANCH   1  20
TORSDOF 13
ENDMDL
MODEL 2
REMARK VINA RESULT:     -10.5      3.561      8.467
REMARK SMILES CC1(C)C(C(=O)N2CCOC[C@H]2C(=O)OCCOC(=O)c2ccc(-c3c4nc(c(-c5c(F)cccc5F)c5ccc([nH]5)c(-c5c(F)cccc5F)c5nc(c(-c6c(F)cccc6F)c6ccc3[nH]6)C=C5)C=C4)cc2)C1(C)C
REMARK SMILES IDX 16 1 15 2 13 3 14 4 12 5 7 6 8 7 9 8 11 9 10 10 5 11 6 12
REMARK SMILES IDX 4 13 1 14 2 15 3 16 75 17 76 18 77 19 17 20 18 21 19 22
REMARK SMILES IDX 20 23 21 24 22 25 74 26 23 27 73 28 24 29 25 30 26 31 67 32
REMARK SMILES IDX 27 33 72 34 66 35 68 36 28 37 71 38 65 39 64 40 29 42 55 43
REMARK SMILES IDX 38 44 54 45 39 46 42 47 53 48 69 49 40 50 41 51 52 53 70 54
REMARK SMILES IDX 43 55 30 56 31 57 36 58 32 59 33 60 35 61 37 62 34 63 56 64
REMARK SMILES IDX 57 65 62 66 58 67 59 68 61 69 63 70 60 71 44 72 45 73 50 74
REMARK SMILES IDX 46 75 47 76 49 77 51 78 48 79
REMARK H PARENT 68 41 42 52
REMARK Flexibility Score: inf
ROOT
ATOM      1  C   UNL A   1      31.994  30.588  26.760  1.00  0.00     0.274 C 
ENDROOT
BRANCH   1   2
ATOM      2  O   UNL A   1      32.618  29.314  26.520  1.00  0.00    -0.460 OA
BRANCH   2   3
ATOM      3  C   UNL A   1      31.929  28.205  26.896  1.00  0.00     0.331 C 
ATOM      4  O   UNL A   1      31.257  28.127  27.921  1.00  0.00    -0.250 OA
BRANCH   3   5
ATOM      5  C   UNL A   1      32.206  26.984  26.004  1.00  0.00     0.221 C 
ATOM      6  N   UNL A   1      31.388  25.752  26.133  1.00  0.00    -0.324 N 
ATOM      7  C   UNL A   1      30.012  25.877  25.674  1.00  0.00     0.149 C 
ATOM      8  C   UNL A   1      29.961  26.508  24.272  1.00  0.00     0.181 C 
ATOM      9  C   UNL A   1      32.114  27.477  24.554  1.00  0.00     0.197 C 
ATOM     10  O   UNL A   1      30.744  27.712  24.179  1.00  0.00    -0.377 OA
BRANCH   6  11
ATOM     11  C   UNL A   1      32.030  24.611  26.586  1.00  0.00     0.227 C 
ATOM     12  O   UNL A   1      31.447  23.835  27.345  1.00  0.00    -0.275 OA
BRANCH  11  13
ATOM     13  C   UNL A   1      33.457  24.254  26.301  1.00  0.00     0.091 C 
ATOM     14  C   UNL A   1      35.868  23.353  26.125  1.00  0.00     0.012 C 
ATOM     15  C   UNL A   1      34.370  23.057  26.041  1.00  0.00    -0.017 C 
ATOM     16  C   UNL A   1      34.113  21.664  26.549  1.00  0.00     0.012 C 
ATOM     17  C   UNL A   1      33.580  23.631  24.873  1.00  0.00    -0.017 C 
ATOM     18  C   UNL A   1      34.235  24.470  23.799  1.00  0.00     0.012 C 
ATOM     19  C   UNL A   1      32.405  22.852  24.304  1.00  0.00     0.012 C 
ENDBRANCH  11  13
ENDBRANCH   6  11
ENDBRANCH   3   5
ENDBRANCH   2   3
ENDBRANCH   1   2
BRANCH   1  20
ATOM     20  C   UNL A   1      32.916  31.490  27.580  1.00  0.00     0.275 C 
BRANCH  20  21
ATOM     21  O   UNL A   1      32.760  32.866  27.195  1.00  0.00    -0.458 OA
BRANCH  21  22
ATOM     22  C   UNL A   1      33.093  33.765  28.152  1.00  0.00     0.338 C 
ATOM     23  O   UNL A   1      32.411  34.672  28.593  1.00  0.00    -0.246 OA
BRANCH  22  24
ATOM     24  C   UNL A   1      34.408  33.401  28.697  1.00  0.00     0.060 A 
ATOM     25  C   UNL A   1      35.544  33.700  27.941  1.00  0.00     0.016 A 
ATOM     26  C   UNL A   1      34.517  32.718  29.908  1.00  0.00     0.016 A 
ATOM     27  C   UNL A   1      36.800  33.299  28.380  1.00  0.00     0.010 A 
ATOM     28  C   UNL A   1      35.779  32.322  30.353  1.00  0.00     0.010 A 
ATOM     29  C   UNL A   1      36.926  32.595  29.584  1.00  0.00    -0.014 A 
BRANCH  29  30
ATOM     30  C   UNL A   1      38.249  32.082  30.007  1.00  0.00     0.031 A 
ATOM     31  C   UNL A   1      38.740  30.774  29.461  1.00  0.00     0.074 A 
ATOM     32  C   UNL A   1      39.000  32.787  30.873  1.00  0.00     0.049 A 
ATOM     33  N   UNL A   1      39.799  30.084  29.794  1.00  0.00    -0.248 NA
ATOM     34  C   UNL A   1      37.926  30.156  28.402  1.00  0.00     0.031 C 
ATOM     35  C   UNL A   1      38.650  34.094  31.428  1.00  0.00     0.029 A 
ATOM     36  N   UNL A   1      40.213  32.494  31.443  1.00  0.00    -0.354 N 
ATOM     37  C   UNL A   1      39.765  28.938  29.009  1.00  0.00     0.074 A 
ATOM     38  C   UNL A   1      38.575  29.021  28.189  1.00  0.00     0.031 C 
ATOM     39  C   UNL A   1      39.625  34.488  32.265  1.00  0.00     0.029 A 
ATOM     40  C   UNL A   1      40.639  33.440  32.341  1.00  0.00     0.049 A 
ATOM     41  H   UNL A   1      40.727  31.682  31.229  1.00  0.00     0.167 HD
ATOM     42  C   UNL A   1      40.650  27.914  28.978  1.00  0.00     0.037 A 
ATOM     43  C   UNL A   1      41.709  33.442  33.157  1.00  0.00     0.037 A 
ATOM     44  C   UNL A   1      41.848  27.856  29.774  1.00  0.00     0.049 A 
ATOM     45  C   UNL A   1      42.646  32.265  33.141  1.00  0.00     0.074 A 
ATOM     46  C   UNL A   1      42.821  26.873  29.795  1.00  0.00     0.029 A 
ATOM     47  N   UNL A   1      42.236  28.827  30.685  1.00  0.00    -0.354 N 
ATOM     48  N   UNL A   1      42.604  31.185  32.399  1.00  0.00    -0.248 NA
ATOM     49  C   UNL A   1      43.774  32.302  34.082  1.00  0.00     0.031 C 
ATOM     50  C   UNL A   1      43.779  27.228  30.750  1.00  0.00     0.029 A 
ATOM     51  C   UNL A   1      43.424  28.455  31.291  1.00  0.00     0.049 A 
ATOM     52  H   UNL A   1      41.740  29.656  30.874  1.00  0.00     0.167 HD
ATOM     53  C   UNL A   1      43.714  30.431  32.760  1.00  0.00     0.074 A 
ATOM     54  C   UNL A   1      44.415  31.181  33.782  1.00  0.00     0.031 C 
ATOM     55  C   UNL A   1      44.116  29.226  32.291  1.00  0.00     0.037 A 
BRANCH  42  56
ATOM     56  C   UNL A   1      40.345  26.756  28.076  1.00  0.00     0.057 A 
ATOM     57  C   UNL A   1      40.925  26.629  26.808  1.00  0.00     0.134 A 
ATOM     58  C   UNL A   1      39.499  25.727  28.507  1.00  0.00     0.134 A 
ATOM     59  F   UNL A   1      41.733  27.587  26.330  1.00  0.00    -0.206 F 
ATOM     60  C   UNL A   1      40.665  25.523  25.996  1.00  0.00     0.040 A 
ATOM     61  C   UNL A   1      39.249  24.606  27.714  1.00  0.00     0.040 A 
ATOM     62  F   UNL A   1      38.914  25.786  29.713  1.00  0.00    -0.206 F 
ATOM     63  C   UNL A   1      39.832  24.504  26.453  1.00  0.00     0.006 A 
ENDBRANCH  42  56
BRANCH  43  64
ATOM     64  C   UNL A   1      41.945  34.579  34.083  1.00  0.00     0.057 A 
ATOM     65  C   UNL A   1      41.476  34.549  35.401  1.00  0.00     0.134 A 
ATOM     66  C   UNL A   1      42.612  35.736  33.663  1.00  0.00     0.134 A 
ATOM     67  F   UNL A   1      40.807  33.478  35.856  1.00  0.00    -0.206 F 
ATOM     68  C   UNL A   1      41.642  35.636  36.261  1.00  0.00     0.040 A 
ATOM     69  C   UNL A   1      42.808  36.819  34.520  1.00  0.00     0.040 A 
ATOM     70  F   UNL A   1      43.084  35.830  32.411  1.00  0.00    -0.206 F 
ATOM     71  C   UNL A   1      42.313  36.774  35.821  1.00  0.00     0.006 A 
ENDBRANCH  43  64
BRANCH  55  72
ATOM     72  C   UNL A   1      45.395  28.669  32.839  1.00  0.00     0.057 A 
ATOM     73  C   UNL A   1      45.415  27.820  33.952  1.00  0.00     0.134 A 
ATOM     74  C   UNL A   1      46.618  28.952  32.218  1.00  0.00     0.134 A 
ATOM     75  F   UNL A   1      44.279  27.521  34.599  1.00  0.00    -0.206 F 
ATOM     76  C   UNL A   1      46.610  27.289  34.441  1.00  0.00     0.040 A 
ATOM     77  C   UNL A   1      47.815  28.408  32.682  1.00  0.00     0.040 A 
ATOM     78  F   UNL A   1      46.666  29.752  31.141  1.00  0.00    -0.206 F 
ATOM     79  C   UNL A   1      47.814  27.578  33.800  1.00  0.00     0.006 A 
ENDBRANCH  55  72
ENDBRANCH  29  30
ENDBRANCH  22  24
ENDBRANCH  21  22
ENDBRANCH  20  21
ENDBRANCH   1  20
TORSDOF 13
ENDMDL
MODEL 3
REMARK VINA RESULT:     -10.5      2.879      7.597
REMARK SMILES CC1(C)C(C(=O)N2CCOC[C@H]2C(=O)OCCOC(=O)c2ccc(-c3c4nc(c(-c5c(F)cccc5F)c5ccc([nH]5)c(-c5c(F)cccc5F)c5nc(c(-c6c(F)cccc6F)c6ccc3[nH]6)C=C5)C=C4)cc2)C1(C)C
REMARK SMILES IDX 16 1 15 2 13 3 14 4 12 5 7 6 8 7 9 8 11 9 10 10 5 11 6 12
REMARK SMILES IDX 4 13 1 14 2 15 3 16 75 17 76 18 77 19 17 20 18 21 19 22
REMARK SMILES IDX 20 23 21 24 22 25 74 26 23 27 73 28 24 29 25 30 26 31 67 32
REMARK SMILES IDX 27 33 72 34 66 35 68 36 28 37 71 38 65 39 64 40 29 42 55 43
REMARK SMILES IDX 38 44 54 45 39 46 42 47 53 48 69 49 40 50 41 51 52 53 70 54
REMARK SMILES IDX 43 55 30 56 31 57 36 58 32 59 33 60 35 61 37 62 34 63 56 64
REMARK SMILES IDX 57 65 62 66 58 67 59 68 61 69 63 70 60 71 44 72 45 73 50 74
REMARK SMILES IDX 46 75 47 76 49 77 51 78 48 79
REMARK H PARENT 68 41 42 52
REMARK Flexibility Score: inf
ROOT
ATOM      1  C   UNL A   1      32.445  30.184  27.156  1.00  0.00     0.274 C 
ENDROOT
BRANCH   1   2
ATOM      2  O   UNL A   1      32.522  28.984  26.365  1.00  0.00    -0.460 OA
BRANCH   2   3
ATOM      3  C   UNL A   1      31.928  27.870  26.868  1.00  0.00     0.331 C 
ATOM      4  O   UNL A   1      31.358  27.826  27.955  1.00  0.00    -0.250 OA
BRANCH   3   5
ATOM      5  C   UNL A   1      32.184  26.610  26.026  1.00  0.00     0.221 C 
ATOM      6  N   UNL A   1      31.342  25.400  26.200  1.00  0.00    -0.324 N 
ATOM      7  C   UNL A   1      29.970  25.533  25.731  1.00  0.00     0.149 C 
ATOM      8  C   UNL A   1      29.935  26.110  24.305  1.00  0.00     0.181 C 
ATOM      9  C   UNL A   1      32.106  27.047  24.557  1.00  0.00     0.197 C 
ATOM     10  O   UNL A   1      30.742  27.293  24.168  1.00  0.00    -0.377 OA
BRANCH   6  11
ATOM     11  C   UNL A   1      31.960  24.265  26.700  1.00  0.00     0.227 C 
ATOM     12  O   UNL A   1      31.401  23.587  27.563  1.00  0.00    -0.275 OA
BRANCH  11  13
ATOM     13  C   UNL A   1      33.342  23.808  26.342  1.00  0.00     0.091 C 
ATOM     14  C   UNL A   1      35.669  22.735  26.039  1.00  0.00     0.012 C 
ATOM     15  C   UNL A   1      34.151  22.550  26.029  1.00  0.00    -0.017 C 
ATOM     16  C   UNL A   1      33.817  21.175  26.539  1.00  0.00     0.012 C 
ATOM     17  C   UNL A   1      33.348  23.192  24.905  1.00  0.00    -0.017 C 
ATOM     18  C   UNL A   1      34.010  23.992  23.805  1.00  0.00     0.012 C 
ATOM     19  C   UNL A   1      32.092  22.507  24.390  1.00  0.00     0.012 C 
ENDBRANCH  11  13
ENDBRANCH   6  11
ENDBRANCH   3   5
ENDBRANCH   2   3
ENDBRANCH   1   2
BRANCH   1  20
ATOM     20  C   UNL A   1      33.839  30.763  27.388  1.00  0.00     0.275 C 
BRANCH  20  21
ATOM     21  O   UNL A   1      34.639  29.867  28.180  1.00  0.00    -0.458 OA
BRANCH  21  22
ATOM     22  C   UNL A   1      35.507  30.475  29.023  1.00  0.00     0.338 C 
ATOM     23  O   UNL A   1      35.258  31.304  29.879  1.00  0.00    -0.246 OA
BRANCH  22  24
ATOM     24  C   UNL A   1      36.836  29.877  28.835  1.00  0.00     0.060 A 
ATOM     25  C   UNL A   1      37.489  29.350  29.951  1.00  0.00     0.016 A 
ATOM     26  C   UNL A   1      37.456  29.890  27.586  1.00  0.00     0.016 A 
ATOM     27  C   UNL A   1      38.781  28.850  29.833  1.00  0.00     0.010 A 
ATOM     28  C   UNL A   1      38.751  29.380  27.465  1.00  0.00     0.010 A 
ATOM     29  C   UNL A   1      39.426  28.873  28.591  1.00  0.00    -0.014 A 
BRANCH  29  30
ATOM     30  C   UNL A   1      40.835  28.431  28.480  1.00  0.00     0.031 A 
ATOM     31  C   UNL A   1      41.937  29.433  28.662  1.00  0.00     0.074 A 
ATOM     32  C   UNL A   1      41.119  27.142  28.220  1.00  0.00     0.049 A 
ATOM     33  N   UNL A   1      43.224  29.289  28.480  1.00  0.00    -0.248 NA
ATOM     34  C   UNL A   1      41.536  30.779  29.102  1.00  0.00     0.031 C 
ATOM     35  C   UNL A   1      40.133  26.071  28.076  1.00  0.00     0.029 A 
ATOM     36  N   UNL A   1      42.324  26.519  28.020  1.00  0.00    -0.354 N 
ATOM     37  C   UNL A   1      43.784  30.531  28.754  1.00  0.00     0.074 A 
ATOM     38  C   UNL A   1      42.697  31.419  29.105  1.00  0.00     0.031 C 
ATOM     39  C   UNL A   1      40.775  24.921  27.805  1.00  0.00     0.029 A 
ATOM     40  C   UNL A   1      42.208  25.187  27.708  1.00  0.00     0.049 A 
ATOM     41  H   UNL A   1      43.190  26.982  28.094  1.00  0.00     0.167 HD
ATOM     42  C   UNL A   1      45.088  30.891  28.716  1.00  0.00     0.037 A 
ATOM     43  C   UNL A   1      43.149  24.294  27.350  1.00  0.00     0.037 A 
ATOM     44  C   UNL A   1      46.166  29.992  28.397  1.00  0.00     0.049 A 
ATOM     45  C   UNL A   1      44.584  24.736  27.262  1.00  0.00     0.074 A 
ATOM     46  C   UNL A   1      47.524  30.255  28.356  1.00  0.00     0.029 A 
ATOM     47  N   UNL A   1      46.005  28.654  28.068  1.00  0.00    -0.354 N 
ATOM     48  N   UNL A   1      45.104  25.912  27.519  1.00  0.00    -0.248 NA
ATOM     49  C   UNL A   1      45.562  23.730  26.826  1.00  0.00     0.031 C 
ATOM     50  C   UNL A   1      48.183  29.086  27.963  1.00  0.00     0.029 A 
ATOM     51  C   UNL A   1      47.239  28.083  27.803  1.00  0.00     0.049 A 
ATOM     52  H   UNL A   1      45.143  28.181  28.029  1.00  0.00     0.167 HD
ATOM     53  C   UNL A   1      46.471  25.779  27.306  1.00  0.00     0.074 A 
ATOM     54  C   UNL A   1      46.700  24.405  26.908  1.00  0.00     0.031 C 
ATOM     55  C   UNL A   1      47.447  26.709  27.428  1.00  0.00     0.037 A 
BRANCH  42  56
ATOM     56  C   UNL A   1      45.425  32.324  28.998  1.00  0.00     0.057 A 
ATOM     57  C   UNL A   1      45.757  32.771  30.283  1.00  0.00     0.134 A 
ATOM     58  C   UNL A   1      45.469  33.259  27.955  1.00  0.00     0.134 A 
ATOM     59  F   UNL A   1      45.721  31.929  31.326  1.00  0.00    -0.206 F 
ATOM     60  C   UNL A   1      46.110  34.100  30.522  1.00  0.00     0.040 A 
ATOM     61  C   UNL A   1      45.841  34.585  28.178  1.00  0.00     0.040 A 
ATOM     62  F   UNL A   1      45.165  32.894  26.701  1.00  0.00    -0.206 F 
ATOM     63  C   UNL A   1      46.161  35.009  29.467  1.00  0.00     0.006 A 
ENDBRANCH  42  56
BRANCH  43  64
ATOM     64  C   UNL A   1      42.769  22.898  27.017  1.00  0.00     0.057 A 
ATOM     65  C   UNL A   1      42.461  21.971  28.020  1.00  0.00     0.134 A 
ATOM     66  C   UNL A   1      42.738  22.446  25.691  1.00  0.00     0.134 A 
ATOM     67  F   UNL A   1      42.498  22.337  29.311  1.00  0.00    -0.206 F 
ATOM     68  C   UNL A   1      42.160  20.642  27.720  1.00  0.00     0.040 A 
ATOM     69  C   UNL A   1      42.412  21.126  25.376  1.00  0.00     0.040 A 
ATOM     70  F   UNL A   1      43.024  23.282  24.684  1.00  0.00    -0.206 F 
ATOM     71  C   UNL A   1      42.131  20.218  26.394  1.00  0.00     0.006 A 
ENDBRANCH  43  64
BRANCH  55  72
ATOM     72  C   UNL A   1      48.856  26.260  27.177  1.00  0.00     0.057 A 
ATOM     73  C   UNL A   1      49.445  26.347  25.910  1.00  0.00     0.134 A 
ATOM     74  C   UNL A   1      49.645  25.776  28.228  1.00  0.00     0.134 A 
ATOM     75  F   UNL A   1      48.737  26.790  24.860  1.00  0.00    -0.206 F 
ATOM     76  C   UNL A   1      50.765  25.948  25.693  1.00  0.00     0.040 A 
ATOM     77  C   UNL A   1      50.973  25.397  28.028  1.00  0.00     0.040 A 
ATOM     78  F   UNL A   1      49.142  25.677  29.469  1.00  0.00    -0.206 F 
ATOM     79  C   UNL A   1      51.534  25.477  26.757  1.00  0.00     0.006 A 
ENDBRANCH  55  72
ENDBRANCH  29  30
ENDBRANCH  22  24
ENDBRANCH  21  22
ENDBRANCH  20  21
ENDBRANCH   1  20
TORSDOF 13
ENDMDL
