MODEL 1
REMARK VINA RESULT:     -11.9      0.000      0.000
REMARK SMILES CC1(C)[C@H](C(=O)Nc2ccc(C(=O)NCCc3ccccc3)cc2)[C@H]1C(=O)OCCOC(=O)c1ccc(-c2c3nc(c(-c4c(F)cccc4F)c4ccc([nH]4)c(-c4c(F)cccc4F)c4nc(c(-c5c(F)cccc5F)c5ccc2[nH]5)C=C4)C=C3)cc1
REMARK SMILES IDX 26 1 27 2 25 3 1 4 2 5 3 6 4 7 5 8 6 9 7 10 8 12 9 13 24 14
REMARK SMILES IDX 10 15 23 16 11 17 12 18 13 19 14 20 15 22 16 23 17 24 18 25
REMARK SMILES IDX 22 26 19 27 21 28 20 29 28 30 29 31 30 32 31 33 32 34 33 35
REMARK SMILES IDX 34 36 35 37 87 38 36 39 86 40 37 41 38 42 39 43 80 44 40 45
REMARK SMILES IDX 85 46 79 47 81 48 41 49 84 50 78 51 77 52 42 54 68 55 51 56
REMARK SMILES IDX 67 57 52 58 55 59 66 60 82 61 53 62 54 63 65 65 83 66 56 67
REMARK SMILES IDX 43 68 44 69 49 70 45 71 46 72 48 73 50 74 47 75 69 76 70 77
REMARK SMILES IDX 75 78 71 79 72 80 74 81 76 82 73 83 57 84 58 85 63 86 59 87
REMARK SMILES IDX 60 88 62 89 64 90 61 91
REMARK H PARENT 7 11 14 21 81 53 55 64
REMARK Flexibility Score: inf
ROOT
ATOM      1  C   UNL A   1      37.769  23.033  25.817  1.00  0.00     0.310 C 
ATOM      2  O   UNL A   1      38.076  24.176  26.125  1.00  0.00    -0.252 OA
ENDROOT
BRANCH   1   3
ATOM      3  C   UNL A   1      36.398  22.718  25.369  1.00  0.00     0.118 C 
ATOM      4  C   UNL A   1      36.876  22.953  22.772  1.00  0.00     0.013 C 
ATOM      5  C   UNL A   1      35.922  22.753  23.926  1.00  0.00    -0.009 C 
ATOM      6  C   UNL A   1      34.634  23.504  23.718  1.00  0.00     0.013 C 
ATOM      7  C   UNL A   1      36.074  21.423  24.681  1.00  0.00     0.100 C 
BRANCH   7   8
ATOM      8  C   UNL A   1      34.994  20.494  25.148  1.00  0.00     0.228 C 
ATOM      9  O   UNL A   1      34.909  19.387  24.626  1.00  0.00    -0.274 OA
ATOM     10  N   UNL A   1      34.347  20.787  26.328  1.00  0.00    -0.326 N 
ATOM     11  H   UNL A   1      34.704  20.388  27.154  1.00  0.00     0.169 HD
BRANCH  10  12
ATOM     12  C   UNL A   1      33.216  21.611  26.445  1.00  0.00     0.041 A 
ATOM     13  C   UNL A   1      33.160  22.532  27.489  1.00  0.00     0.027 A 
ATOM     14  C   UNL A   1      32.171  21.556  25.521  1.00  0.00     0.027 A 
ATOM     15  C   UNL A   1      32.175  23.525  27.479  1.00  0.00     0.016 A 
ATOM     16  C   UNL A   1      31.189  22.549  25.508  1.00  0.00     0.016 A 
ATOM     17  C   UNL A   1      31.256  23.593  26.427  1.00  0.00     0.039 A 
BRANCH  17  18
ATOM     18  C   UNL A   1      30.405  24.799  26.325  1.00  0.00     0.251 C 
ATOM     19  O   UNL A   1      29.309  24.804  26.875  1.00  0.00    -0.269 OA
ATOM     20  N   UNL A   1      30.857  25.934  25.703  1.00  0.00    -0.352 N 
ATOM     21  H   UNL A   1      30.210  26.676  25.701  1.00  0.00     0.163 HD
BRANCH  20  22
ATOM     22  C   UNL A   1      32.122  26.245  25.041  1.00  0.00     0.121 C 
BRANCH  22  23
ATOM     23  C   UNL A   1      33.233  26.551  26.055  1.00  0.00     0.057 C 
BRANCH  23  24
ATOM     24  C   UNL A   1      33.209  27.997  26.494  1.00  0.00    -0.046 A 
ATOM     25  C   UNL A   1      32.043  28.760  26.352  1.00  0.00     0.004 A 
ATOM     26  C   UNL A   1      34.367  28.609  26.992  1.00  0.00     0.004 A 
ATOM     27  C   UNL A   1      32.040  30.115  26.688  1.00  0.00     0.000 A 
ATOM     28  C   UNL A   1      34.362  29.964  27.324  1.00  0.00     0.000 A 
ATOM     29  C   UNL A   1      33.202  30.717  27.168  1.00  0.00     0.000 A 
ENDBRANCH  23  24
ENDBRANCH  22  23
ENDBRANCH  20  22
ENDBRANCH  17  18
ENDBRANCH  10  12
ENDBRANCH   7   8
ENDBRANCH   1   3
BRANCH   1  30
ATOM     30  O   UNL A   1      38.608  21.979  25.694  1.00  0.00    -0.462 OA
BRANCH  30  31
ATOM     31  C   UNL A   1      39.634  21.833  26.692  1.00  0.00     0.274 C 
BRANCH  31  32
ATOM     32  C   UNL A   1      40.959  22.344  26.126  1.00  0.00     0.275 C 
BRANCH  32  33
ATOM     33  O   UNL A   1      41.553  23.312  27.016  1.00  0.00    -0.458 OA
BRANCH  33  34
ATOM     34  C   UNL A   1      41.802  24.521  26.464  1.00  0.00     0.338 C 
ATOM     35  O   UNL A   1      42.254  24.764  25.358  1.00  0.00    -0.246 OA
BRANCH  34  36
ATOM     36  C   UNL A   1      41.324  25.580  27.363  1.00  0.00     0.060 A 
ATOM     37  C   UNL A   1      42.051  26.763  27.405  1.00  0.00     0.016 A 
ATOM     38  C   UNL A   1      40.272  25.367  28.253  1.00  0.00     0.016 A 
ATOM     39  C   UNL A   1      41.783  27.709  28.384  1.00  0.00     0.010 A 
ATOM     40  C   UNL A   1      39.974  26.349  29.211  1.00  0.00     0.010 A 
ATOM     41  C   UNL A   1      40.754  27.514  29.313  1.00  0.00    -0.014 A 
BRANCH  41  42
ATOM     42  C   UNL A   1      40.569  28.510  30.407  1.00  0.00     0.031 A 
ATOM     43  C   UNL A   1      39.468  29.537  30.326  1.00  0.00     0.074 A 
ATOM     44  C   UNL A   1      41.335  28.449  31.515  1.00  0.00     0.049 A 
ATOM     45  N   UNL A   1      39.208  30.538  31.128  1.00  0.00    -0.248 NA
ATOM     46  C   UNL A   1      38.550  29.435  29.181  1.00  0.00     0.031 C 
ATOM     47  C   UNL A   1      42.403  27.476  31.757  1.00  0.00     0.029 A 
ATOM     48  N   UNL A   1      41.319  29.209  32.660  1.00  0.00    -0.354 N 
ATOM     49  C   UNL A   1      38.121  31.201  30.571  1.00  0.00     0.074 A 
ATOM     50  C   UNL A   1      37.787  30.505  29.346  1.00  0.00     0.031 C 
ATOM     51  C   UNL A   1      42.908  27.671  32.984  1.00  0.00     0.029 A 
ATOM     52  C   UNL A   1      42.255  28.827  33.589  1.00  0.00     0.049 A 
ATOM     53  H   UNL A   1      40.695  29.958  32.799  1.00  0.00     0.167 HD
ATOM     54  C   UNL A   1      37.460  32.289  31.036  1.00  0.00     0.037 A 
ATOM     55  C   UNL A   1      42.578  29.362  34.783  1.00  0.00     0.037 A 
ATOM     56  C   UNL A   1      37.750  32.945  32.287  1.00  0.00     0.049 A 
ATOM     57  C   UNL A   1      41.849  30.584  35.265  1.00  0.00     0.074 A 
ATOM     58  C   UNL A   1      37.132  34.052  32.844  1.00  0.00     0.029 A 
ATOM     59  N   UNL A   1      38.723  32.537  33.186  1.00  0.00    -0.354 N 
ATOM     60  N   UNL A   1      40.866  31.237  34.696  1.00  0.00    -0.248 NA
ATOM     61  C   UNL A   1      42.285  31.151  36.548  1.00  0.00     0.031 C 
ATOM     62  C   UNL A   1      37.758  34.337  34.063  1.00  0.00     0.029 A 
ATOM     63  C   UNL A   1      38.737  33.383  34.284  1.00  0.00     0.049 A 
ATOM     64  H   UNL A   1      39.318  31.762  33.062  1.00  0.00     0.167 HD
ATOM     65  C   UNL A   1      40.553  32.280  35.558  1.00  0.00     0.074 A 
ATOM     66  C   UNL A   1      41.440  32.162  36.696  1.00  0.00     0.031 C 
ATOM     67  C   UNL A   1      39.618  33.250  35.415  1.00  0.00     0.037 A 
BRANCH  54  68
ATOM     68  C   UNL A   1      36.378  32.867  30.172  1.00  0.00     0.057 A 
ATOM     69  C   UNL A   1      35.018  32.698  30.458  1.00  0.00     0.134 A 
ATOM     70  C   UNL A   1      36.710  33.642  29.052  1.00  0.00     0.134 A 
ATOM     71  F   UNL A   1      34.628  31.954  31.504  1.00  0.00    -0.206 F 
ATOM     72  C   UNL A   1      34.028  33.265  29.651  1.00  0.00     0.040 A 
ATOM     73  C   UNL A   1      35.731  34.232  28.252  1.00  0.00     0.040 A 
ATOM     74  F   UNL A   1      37.994  33.849  28.724  1.00  0.00    -0.206 F 
ATOM     75  C   UNL A   1      34.384  34.041  28.549  1.00  0.00     0.006 A 
ENDBRANCH  54  68
BRANCH  55  76
ATOM     76  C   UNL A   1      43.667  28.761  35.594  1.00  0.00     0.057 A 
ATOM     77  C   UNL A   1      43.399  27.786  36.562  1.00  0.00     0.134 A 
ATOM     78  C   UNL A   1      45.002  29.150  35.424  1.00  0.00     0.134 A 
ATOM     79  F   UNL A   1      42.138  27.389  36.789  1.00  0.00    -0.206 F 
ATOM     80  C   UNL A   1      44.415  27.229  37.339  1.00  0.00     0.040 A 
ATOM     81  C   UNL A   1      46.031  28.581  36.174  1.00  0.00     0.040 A 
ATOM     82  F   UNL A   1      45.325  30.078  34.511  1.00  0.00    -0.206 F 
ATOM     83  C   UNL A   1      45.738  27.622  37.140  1.00  0.00     0.006 A 
ENDBRANCH  55  76
BRANCH  67  84
ATOM     84  C   UNL A   1      39.487  34.240  36.533  1.00  0.00     0.057 A 
ATOM     85  C   UNL A   1      38.759  33.951  37.694  1.00  0.00     0.134 A 
ATOM     86  C   UNL A   1      40.115  35.489  36.458  1.00  0.00     0.134 A 
ATOM     87  F   UNL A   1      38.121  32.777  37.821  1.00  0.00    -0.206 F 
ATOM     88  C   UNL A   1      38.642  34.878  38.731  1.00  0.00     0.040 A 
ATOM     89  C   UNL A   1      40.025  36.415  37.498  1.00  0.00     0.040 A 
ATOM     90  F   UNL A   1      40.834  35.827  35.377  1.00  0.00    -0.206 F 
ATOM     91  C   UNL A   1      39.281  36.112  38.636  1.00  0.00     0.006 A 
ENDBRANCH  67  84
ENDBRANCH  41  42
ENDBRANCH  34  36
ENDBRANCH  33  34
ENDBRANCH  32  33
ENDBRANCH  31  32
ENDBRANCH  30  31
ENDBRANCH   1  30
TORSDOF 17
ENDMDL
MODEL 2
REMARK VINA RESULT:     -11.8      4.134      7.854
REMARK SMILES CC1(C)[C@H](C(=O)Nc2ccc(C(=O)NCCc3ccccc3)cc2)[C@H]1C(=O)OCCOC(=O)c1ccc(-c2c3nc(c(-c4c(F)cccc4F)c4ccc([nH]4)c(-c4c(F)cccc4F)c4nc(c(-c5c(F)cccc5F)c5ccc2[nH]5)C=C4)C=C3)cc1
REMARK SMILES IDX 26 1 27 2 25 3 1 4 2 5 3 6 4 7 5 8 6 9 7 10 8 12 9 13 24 14
REMARK SMILES IDX 10 15 23 16 11 17 12 18 13 19 14 20 15 22 16 23 17 24 18 25
REMARK SMILES IDX 22 26 19 27 21 28 20 29 28 30 29 31 30 32 31 33 32 34 33 35
REMARK SMILES IDX 34 36 35 37 87 38 36 39 86 40 37 41 38 42 39 43 80 44 40 45
REMARK SMILES IDX 85 46 79 47 81 48 41 49 84 50 78 51 77 52 42 54 68 55 51 56
REMARK SMILES IDX 67 57 52 58 55 59 66 60 82 61 53 62 54 63 65 65 83 66 56 67
REMARK SMILES IDX 43 68 44 69 49 70 45 71 46 72 48 73 50 74 47 75 69 76 70 77
REMARK SMILES IDX 75 78 71 79 72 80 74 81 76 82 73 83 57 84 58 85 63 86 59 87
REMARK SMILES IDX 60 88 62 89 64 90 61 91
REMARK H PARENT 7 11 14 21 81 53 55 64
REMARK Flexibility Score: inf
ROOT
ATOM      1  C   UNL A   1      35.122  21.385  25.538  1.00  0.00     0.310 C 
ATOM      2  O   UNL A   1      35.474  21.852  26.612  1.00  0.00    -0.252 OA
ENDROOT
BRANCH   1   3
ATOM      3  C   UNL A   1      33.767  21.647  25.014  1.00  0.00     0.118 C 
ATOM      4  C   UNL A   1      33.120  19.111  24.588  1.00  0.00     0.013 C 
ATOM      5  C   UNL A   1      32.819  20.588  24.475  1.00  0.00    -0.009 C 
ATOM      6  C   UNL A   1      32.204  20.927  23.144  1.00  0.00     0.013 C 
ATOM      7  C   UNL A   1      32.537  21.304  25.805  1.00  0.00     0.100 C 
BRANCH   7   8
ATOM      8  C   UNL A   1      31.456  22.296  26.110  1.00  0.00     0.228 C 
ATOM      9  O   UNL A   1      30.292  21.980  25.885  1.00  0.00    -0.274 OA
ATOM     10  N   UNL A   1      31.769  23.380  26.901  1.00  0.00    -0.326 N 
ATOM     11  H   UNL A   1      31.622  23.294  27.870  1.00  0.00     0.169 HD
BRANCH  10  12
ATOM     12  C   UNL A   1      32.283  24.599  26.431  1.00  0.00     0.041 A 
ATOM     13  C   UNL A   1      31.470  25.730  26.467  1.00  0.00     0.027 A 
ATOM     14  C   UNL A   1      33.595  24.711  25.968  1.00  0.00     0.027 A 
ATOM     15  C   UNL A   1      32.033  26.991  26.245  1.00  0.00     0.016 A 
ATOM     16  C   UNL A   1      34.160  25.970  25.749  1.00  0.00     0.016 A 
ATOM     17  C   UNL A   1      33.404  27.113  25.991  1.00  0.00     0.039 A 
BRANCH  17  18
ATOM     18  C   UNL A   1      33.996  28.469  26.018  1.00  0.00     0.251 C 
ATOM     19  O   UNL A   1      34.744  28.775  26.940  1.00  0.00    -0.269 OA
ATOM     20  N   UNL A   1      33.789  29.352  24.990  1.00  0.00    -0.352 N 
ATOM     21  H   UNL A   1      34.236  30.221  25.111  1.00  0.00     0.163 HD
BRANCH  20  22
ATOM     22  C   UNL A   1      33.028  29.242  23.748  1.00  0.00     0.121 C 
BRANCH  22  23
ATOM     23  C   UNL A   1      33.712  28.304  22.743  1.00  0.00     0.057 C 
BRANCH  23  24
ATOM     24  C   UNL A   1      32.974  26.992  22.609  1.00  0.00    -0.046 A 
ATOM     25  C   UNL A   1      31.594  26.929  22.845  1.00  0.00     0.004 A 
ATOM     26  C   UNL A   1      33.668  25.812  22.309  1.00  0.00     0.004 A 
ATOM     27  C   UNL A   1      30.924  25.705  22.794  1.00  0.00     0.000 A 
ATOM     28  C   UNL A   1      32.997  24.590  22.262  1.00  0.00     0.000 A 
ATOM     29  C   UNL A   1      31.628  24.536  22.509  1.00  0.00     0.000 A 
ENDBRANCH  23  24
ENDBRANCH  22  23
ENDBRANCH  20  22
ENDBRANCH  17  18
ENDBRANCH  10  12
ENDBRANCH   7   8
ENDBRANCH   1   3
BRANCH   1  30
ATOM     30  O   UNL A   1      35.904  20.733  24.647  1.00  0.00    -0.462 OA
BRANCH  30  31
ATOM     31  C   UNL A   1      37.301  21.073  24.623  1.00  0.00     0.274 C 
BRANCH  31  32
ATOM     32  C   UNL A   1      38.126  19.826  24.943  1.00  0.00     0.275 C 
BRANCH  32  33
ATOM     33  O   UNL A   1      38.738  19.942  26.245  1.00  0.00    -0.458 OA
BRANCH  33  34
ATOM     34  C   UNL A   1      40.079  20.115  26.235  1.00  0.00     0.338 C 
ATOM     35  O   UNL A   1      40.928  19.383  25.754  1.00  0.00    -0.246 OA
BRANCH  34  36
ATOM     36  C   UNL A   1      40.410  21.430  26.801  1.00  0.00     0.060 A 
ATOM     37  C   UNL A   1      39.790  22.542  26.243  1.00  0.00     0.016 A 
ATOM     38  C   UNL A   1      41.412  21.587  27.757  1.00  0.00     0.016 A 
ATOM     39  C   UNL A   1      40.219  23.818  26.580  1.00  0.00     0.010 A 
ATOM     40  C   UNL A   1      41.809  22.881  28.130  1.00  0.00     0.010 A 
ATOM     41  C   UNL A   1      41.244  24.011  27.514  1.00  0.00    -0.014 A 
BRANCH  41  42
ATOM     42  C   UNL A   1      41.739  25.395  27.769  1.00  0.00     0.031 A 
ATOM     43  C   UNL A   1      43.072  25.839  27.223  1.00  0.00     0.074 A 
ATOM     44  C   UNL A   1      40.963  26.283  28.422  1.00  0.00     0.049 A 
ATOM     45  N   UNL A   1      43.712  26.965  27.415  1.00  0.00    -0.248 NA
ATOM     46  C   UNL A   1      43.788  24.884  26.363  1.00  0.00     0.031 C 
ATOM     47  C   UNL A   1      39.628  26.010  28.959  1.00  0.00     0.029 A 
ATOM     48  N   UNL A   1      41.175  27.606  28.726  1.00  0.00    -0.354 N 
ATOM     49  C   UNL A   1      44.914  26.842  26.729  1.00  0.00     0.074 A 
ATOM     50  C   UNL A   1      44.928  25.520  26.137  1.00  0.00     0.031 C 
ATOM     51  C   UNL A   1      39.126  27.137  29.487  1.00  0.00     0.029 A 
ATOM     52  C   UNL A   1      40.129  28.193  29.394  1.00  0.00     0.049 A 
ATOM     53  H   UNL A   1      42.000  28.087  28.487  1.00  0.00     0.167 HD
ATOM     54  C   UNL A   1      45.915  27.747  26.600  1.00  0.00     0.037 A 
ATOM     55  C   UNL A   1      39.997  29.432  29.906  1.00  0.00     0.037 A 
ATOM     56  C   UNL A   1      45.877  29.086  27.133  1.00  0.00     0.049 A 
ATOM     57  C   UNL A   1      41.131  30.409  29.774  1.00  0.00     0.074 A 
ATOM     58  C   UNL A   1      46.842  30.075  27.051  1.00  0.00     0.029 A 
ATOM     59  N   UNL A   1      44.806  29.630  27.825  1.00  0.00    -0.354 N 
ATOM     60  N   UNL A   1      42.287  30.256  29.178  1.00  0.00    -0.248 NA
ATOM     61  C   UNL A   1      40.947  31.725  30.401  1.00  0.00     0.031 C 
ATOM     62  C   UNL A   1      46.370  31.206  27.727  1.00  0.00     0.029 A 
ATOM     63  C   UNL A   1      45.094  30.935  28.194  1.00  0.00     0.049 A 
ATOM     64  H   UNL A   1      43.964  29.159  28.026  1.00  0.00     0.167 HD
ATOM     65  C   UNL A   1      42.961  31.459  29.339  1.00  0.00     0.074 A 
ATOM     66  C   UNL A   1      42.077  32.338  30.076  1.00  0.00     0.031 C 
ATOM     67  C   UNL A   1      44.203  31.802  28.919  1.00  0.00     0.037 A 
BRANCH  54  68
ATOM     68  C   UNL A   1      47.159  27.310  25.884  1.00  0.00     0.057 A 
ATOM     69  C   UNL A   1      48.190  26.612  26.525  1.00  0.00     0.134 A 
ATOM     70  C   UNL A   1      47.307  27.561  24.512  1.00  0.00     0.134 A 
ATOM     71  F   UNL A   1      48.123  26.354  27.840  1.00  0.00    -0.206 F 
ATOM     72  C   UNL A   1      49.329  26.196  25.832  1.00  0.00     0.040 A 
ATOM     73  C   UNL A   1      48.430  27.130  23.805  1.00  0.00     0.040 A 
ATOM     74  F   UNL A   1      46.355  28.219  23.834  1.00  0.00    -0.206 F 
ATOM     75  C   UNL A   1      49.448  26.449  24.466  1.00  0.00     0.006 A 
ENDBRANCH  54  68
BRANCH  55  76
ATOM     76  C   UNL A   1      38.750  29.812  30.618  1.00  0.00     0.057 A 
ATOM     77  C   UNL A   1      37.706  30.468  29.957  1.00  0.00     0.134 A 
ATOM     78  C   UNL A   1      38.575  29.531  31.979  1.00  0.00     0.134 A 
ATOM     79  F   UNL A   1      37.823  30.786  28.660  1.00  0.00    -0.206 F 
ATOM     80  C   UNL A   1      36.539  30.842  30.624  1.00  0.00     0.040 A 
ATOM     81  C   UNL A   1      37.402  29.873  32.653  1.00  0.00     0.040 A 
ATOM     82  F   UNL A   1      39.537  28.902  32.670  1.00  0.00    -0.206 F 
ATOM     83  C   UNL A   1      36.382  30.537  31.976  1.00  0.00     0.006 A 
ENDBRANCH  55  76
BRANCH  67  84
ATOM     84  C   UNL A   1      44.663  33.197  29.219  1.00  0.00     0.057 A 
ATOM     85  C   UNL A   1      44.402  34.264  28.350  1.00  0.00     0.134 A 
ATOM     86  C   UNL A   1      45.356  33.481  30.402  1.00  0.00     0.134 A 
ATOM     87  F   UNL A   1      43.755  34.055  27.193  1.00  0.00    -0.206 F 
ATOM     88  C   UNL A   1      44.833  35.560  28.637  1.00  0.00     0.040 A 
ATOM     89  C   UNL A   1      45.771  34.776  30.711  1.00  0.00     0.040 A 
ATOM     90  F   UNL A   1      45.632  32.506  31.281  1.00  0.00    -0.206 F 
ATOM     91  C   UNL A   1      45.516  35.819  29.823  1.00  0.00     0.006 A 
ENDBRANCH  67  84
ENDBRANCH  41  42
ENDBRANCH  34  36
ENDBRANCH  33  34
ENDBRANCH  32  33
ENDBRANCH  31  32
ENDBRANCH  30  31
ENDBRANCH   1  30
TORSDOF 17
ENDMDL
MODEL 3
REMARK VINA RESULT:     -11.6      1.354      2.062
REMARK SMILES CC1(C)[C@H](C(=O)Nc2ccc(C(=O)NCCc3ccccc3)cc2)[C@H]1C(=O)OCCOC(=O)c1ccc(-c2c3nc(c(-c4c(F)cccc4F)c4ccc([nH]4)c(-c4c(F)cccc4F)c4nc(c(-c5c(F)cccc5F)c5ccc2[nH]5)C=C4)C=C3)cc1
REMARK SMILES IDX 26 1 27 2 25 3 1 4 2 5 3 6 4 7 5 8 6 9 7 10 8 12 9 13 24 14
REMARK SMILES IDX 10 15 23 16 11 17 12 18 13 19 14 20 15 22 16 23 17 24 18 25
REMARK SMILES IDX 22 26 19 27 21 28 20 29 28 30 29 31 30 32 31 33 32 34 33 35
REMARK SMILES IDX 34 36 35 37 87 38 36 39 86 40 37 41 38 42 39 43 80 44 40 45
REMARK SMILES IDX 85 46 79 47 81 48 41 49 84 50 78 51 77 52 42 54 68 55 51 56
REMARK SMILES IDX 67 57 52 58 55 59 66 60 82 61 53 62 54 63 65 65 83 66 56 67
REMARK SMILES IDX 43 68 44 69 49 70 45 71 46 72 48 73 50 74 47 75 69 76 70 77
REMARK SMILES IDX 75 78 71 79 72 80 74 81 76 82 73 83 57 84 58 85 63 86 59 87
REMARK SMILES IDX 60 88 62 89 64 90 61 91
REMARK H PARENT 7 11 14 21 81 53 55 64
REMARK Flexibility Score: inf
ROOT
ATOM      1  C   UNL A   1      36.693  22.102  24.219  1.00  0.00     0.310 C 
ATOM      2  O   UNL A   1      36.968  22.487  23.092  1.00  0.00    -0.252 OA
ENDROOT
BRANCH   1   3
ATOM      3  C   UNL A   1      35.287  21.899  24.622  1.00  0.00     0.118 C 
ATOM      4  C   UNL A   1      35.408  19.256  24.795  1.00  0.00     0.013 C 
ATOM      5  C   UNL A   1      34.622  20.547  24.823  1.00  0.00    -0.009 C 
ATOM      6  C   UNL A   1      33.293  20.402  24.133  1.00  0.00     0.013 C 
ATOM      7  C   UNL A   1      34.921  21.471  26.014  1.00  0.00     0.100 C 
BRANCH   7   8
ATOM      8  C   UNL A   1      33.947  22.220  26.873  1.00  0.00     0.228 C 
ATOM      9  O   UNL A   1      33.325  21.598  27.728  1.00  0.00    -0.274 OA
ATOM     10  N   UNL A   1      34.007  23.596  26.881  1.00  0.00    -0.326 N 
ATOM     11  H   UNL A   1      34.563  24.022  27.572  1.00  0.00     0.169 HD
BRANCH  10  12
ATOM     12  C   UNL A   1      33.336  24.438  25.980  1.00  0.00     0.041 A 
ATOM     13  C   UNL A   1      34.067  25.404  25.291  1.00  0.00     0.027 A 
ATOM     14  C   UNL A   1      31.970  24.304  25.730  1.00  0.00     0.027 A 
ATOM     15  C   UNL A   1      33.478  26.077  24.216  1.00  0.00     0.016 A 
ATOM     16  C   UNL A   1      31.380  24.972  24.655  1.00  0.00     0.016 A 
ATOM     17  C   UNL A   1      32.165  25.777  23.834  1.00  0.00     0.039 A 
BRANCH  17  18
ATOM     18  C   UNL A   1      31.676  26.320  22.548  1.00  0.00     0.251 C 
ATOM     19  O   UNL A   1      32.096  25.840  21.500  1.00  0.00    -0.269 OA
ATOM     20  N   UNL A   1      30.704  27.286  22.510  1.00  0.00    -0.352 N 
ATOM     21  H   UNL A   1      30.452  27.566  21.600  1.00  0.00     0.163 HD
BRANCH  20  22
ATOM     22  C   UNL A   1      29.974  27.976  23.570  1.00  0.00     0.121 C 
BRANCH  22  23
ATOM     23  C   UNL A   1      30.694  29.255  24.017  1.00  0.00     0.057 C 
BRANCH  23  24
ATOM     24  C   UNL A   1      31.664  28.988  25.145  1.00  0.00    -0.046 A 
ATOM     25  C   UNL A   1      31.270  28.223  26.251  1.00  0.00     0.004 A 
ATOM     26  C   UNL A   1      32.948  29.550  25.128  1.00  0.00     0.004 A 
ATOM     27  C   UNL A   1      32.140  28.037  27.327  1.00  0.00     0.000 A 
ATOM     28  C   UNL A   1      33.814  29.365  26.206  1.00  0.00     0.000 A 
ATOM     29  C   UNL A   1      33.409  28.614  27.307  1.00  0.00     0.000 A 
ENDBRANCH  23  24
ENDBRANCH  22  23
ENDBRANCH  20  22
ENDBRANCH  17  18
ENDBRANCH  10  12
ENDBRANCH   7   8
ENDBRANCH   1   3
BRANCH   1  30
ATOM     30  O   UNL A   1      37.566  21.678  25.162  1.00  0.00    -0.462 OA
BRANCH  30  31
ATOM     31  C   UNL A   1      38.248  22.686  25.929  1.00  0.00     0.274 C 
BRANCH  31  32
ATOM     32  C   UNL A   1      39.642  22.176  26.298  1.00  0.00     0.275 C 
BRANCH  32  33
ATOM     33  O   UNL A   1      40.223  22.993  27.336  1.00  0.00    -0.458 OA
BRANCH  33  34
ATOM     34  C   UNL A   1      40.978  24.026  26.899  1.00  0.00     0.338 C 
ATOM     35  O   UNL A   1      41.725  24.055  25.936  1.00  0.00    -0.246 OA
BRANCH  34  36
ATOM     36  C   UNL A   1      40.685  25.222  27.698  1.00  0.00     0.060 A 
ATOM     37  C   UNL A   1      41.697  26.163  27.839  1.00  0.00     0.016 A 
ATOM     38  C   UNL A   1      39.496  25.354  28.414  1.00  0.00     0.016 A 
ATOM     39  C   UNL A   1      41.561  27.199  28.753  1.00  0.00     0.010 A 
ATOM     40  C   UNL A   1      39.344  26.431  29.302  1.00  0.00     0.010 A 
ATOM     41  C   UNL A   1      40.393  27.343  29.511  1.00  0.00    -0.014 A 
BRANCH  41  42
ATOM     42  C   UNL A   1      40.332  28.410  30.550  1.00  0.00     0.031 A 
ATOM     43  C   UNL A   1      39.290  29.497  30.467  1.00  0.00     0.074 A 
ATOM     44  C   UNL A   1      41.157  28.367  31.615  1.00  0.00     0.049 A 
ATOM     45  N   UNL A   1      39.138  30.558  31.220  1.00  0.00    -0.248 NA
ATOM     46  C   UNL A   1      38.302  29.386  29.383  1.00  0.00     0.031 C 
ATOM     47  C   UNL A   1      42.179  27.344  31.856  1.00  0.00     0.029 A 
ATOM     48  N   UNL A   1      41.254  29.191  32.710  1.00  0.00    -0.354 N 
ATOM     49  C   UNL A   1      38.061  31.254  30.683  1.00  0.00     0.074 A 
ATOM     50  C   UNL A   1      37.614  30.510  29.525  1.00  0.00     0.031 C 
ATOM     51  C   UNL A   1      42.766  27.579  33.040  1.00  0.00     0.029 A 
ATOM     52  C   UNL A   1      42.219  28.807  33.608  1.00  0.00     0.049 A 
ATOM     53  H   UNL A   1      40.685  29.984  32.838  1.00  0.00     0.167 HD
ATOM     54  C   UNL A   1      37.493  32.405  31.117  1.00  0.00     0.037 A 
ATOM     55  C   UNL A   1      42.643  29.388  34.746  1.00  0.00     0.037 A 
ATOM     56  C   UNL A   1      37.894  33.114  32.307  1.00  0.00     0.049 A 
ATOM     57  C   UNL A   1      42.018  30.679  35.192  1.00  0.00     0.074 A 
ATOM     58  C   UNL A   1      37.377  34.287  32.828  1.00  0.00     0.029 A 
ATOM     59  N   UNL A   1      38.894  32.699  33.173  1.00  0.00    -0.354 N 
ATOM     60  N   UNL A   1      41.043  31.359  34.640  1.00  0.00    -0.248 NA
ATOM     61  C   UNL A   1      42.561  31.292  36.412  1.00  0.00     0.031 C 
ATOM     62  C   UNL A   1      38.090  34.604  33.990  1.00  0.00     0.029 A 
ATOM     63  C   UNL A   1      39.023  33.605  34.215  1.00  0.00     0.049 A 
ATOM     64  H   UNL A   1      39.434  31.883  33.065  1.00  0.00     0.167 HD
ATOM     65  C   UNL A   1      40.843  32.467  35.452  1.00  0.00     0.074 A 
ATOM     66  C   UNL A   1      41.788  32.361  36.544  1.00  0.00     0.031 C 
ATOM     67  C   UNL A   1      39.960  33.483  35.301  1.00  0.00     0.037 A 
BRANCH  54  68
ATOM     68  C   UNL A   1      36.398  32.998  30.281  1.00  0.00     0.057 A 
ATOM     69  C   UNL A   1      35.043  32.839  30.594  1.00  0.00     0.134 A 
ATOM     70  C   UNL A   1      36.712  33.779  29.159  1.00  0.00     0.134 A 
ATOM     71  F   UNL A   1      34.669  32.090  31.643  1.00  0.00    -0.206 F 
ATOM     72  C   UNL A   1      34.041  33.420  29.813  1.00  0.00     0.040 A 
ATOM     73  C   UNL A   1      35.721  34.383  28.385  1.00  0.00     0.040 A 
ATOM     74  F   UNL A   1      37.991  33.978  28.805  1.00  0.00    -0.206 F 
ATOM     75  C   UNL A   1      34.379  34.200  28.709  1.00  0.00     0.006 A 
ENDBRANCH  54  68
BRANCH  55  76
ATOM     76  C   UNL A   1      43.741  28.769  35.531  1.00  0.00     0.057 A 
ATOM     77  C   UNL A   1      45.082  29.070  35.268  1.00  0.00     0.134 A 
ATOM     78  C   UNL A   1      43.476  27.857  36.561  1.00  0.00     0.134 A 
ATOM     79  F   UNL A   1      45.402  29.918  34.279  1.00  0.00    -0.206 F 
ATOM     80  C   UNL A   1      46.120  28.480  35.991  1.00  0.00     0.040 A 
ATOM     81  C   UNL A   1      44.501  27.280  37.311  1.00  0.00     0.040 A 
ATOM     82  F   UNL A   1      42.212  27.527  36.864  1.00  0.00    -0.206 F 
ATOM     83  C   UNL A   1      45.829  27.587  37.022  1.00  0.00     0.006 A 
ENDBRANCH  55  76
BRANCH  67  84
ATOM     84  C   UNL A   1      39.953  34.543  36.362  1.00  0.00     0.057 A 
ATOM     85  C   UNL A   1      39.164  34.431  37.513  1.00  0.00     0.134 A 
ATOM     86  C   UNL A   1      40.765  35.678  36.242  1.00  0.00     0.134 A 
ATOM     87  F   UNL A   1      38.353  33.374  37.681  1.00  0.00    -0.206 F 
ATOM     88  C   UNL A   1      39.164  35.421  38.496  1.00  0.00     0.040 A 
ATOM     89  C   UNL A   1      40.791  36.664  37.229  1.00  0.00     0.040 A 
ATOM     90  F   UNL A   1      41.551  35.844  35.167  1.00  0.00    -0.206 F 
ATOM     91  C   UNL A   1      39.983  36.540  38.358  1.00  0.00     0.006 A 
ENDBRANCH  67  84
ENDBRANCH  41  42
ENDBRANCH  34  36
ENDBRANCH  33  34
ENDBRANCH  32  33
ENDBRANCH  31  32
ENDBRANCH  30  31
ENDBRANCH   1  30
TORSDOF 17
ENDMDL
