MODEL 1
REMARK VINA RESULT:     -11.7      0.000      0.000
REMARK SMILES O=C(N[C@@H](C(=O)OCCOC(=O)c1ccc(-c2c3nc(c(-c4c(F)cccc4F)c4ccc([nH]4)c(-c4c(F)cccc4F)c4nc(c(-c5c(F)cccc5F)c5ccc2[nH]5)C=C4)C=C3)cc1)c1ccccc1)c1ccc(Br)nc1
REMARK SMILES IDX 8 1 7 2 5 3 6 4 4 5 3 6 1 7 2 8 73 10 74 11 79 12 75 13
REMARK SMILES IDX 78 14 76 15 77 16 67 17 68 18 72 19 69 20 71 21 70 22 9 23
REMARK SMILES IDX 10 24 11 25 12 26 13 27 14 28 66 29 15 30 65 31 16 32 17 33
REMARK SMILES IDX 18 34 59 35 19 36 64 37 58 38 60 39 20 40 63 41 57 42 56 43
REMARK SMILES IDX 21 45 47 46 30 47 46 48 31 49 34 50 45 51 61 52 32 53 33 54
REMARK SMILES IDX 44 56 62 57 35 58 22 59 23 60 28 61 24 62 25 63 27 64 29 65
REMARK SMILES IDX 26 66 48 67 49 68 54 69 50 70 51 71 53 72 55 73 52 74 36 75
REMARK SMILES IDX 37 76 42 77 38 78 39 79 41 80 43 81 40 82
REMARK H PARENT 3 9 60 44 34 55
REMARK Flexibility Score: inf
ROOT
ATOM      1  C   UNL A   1      31.571  28.883  25.705  1.00  0.00     0.274 C 
ENDROOT
BRANCH   1   2
ATOM      2  O   UNL A   1      32.628  28.281  24.927  1.00  0.00    -0.460 OA
BRANCH   2   3
ATOM      3  C   UNL A   1      32.611  28.505  23.580  1.00  0.00     0.333 C 
ATOM      4  O   UNL A   1      33.329  29.321  23.013  1.00  0.00    -0.249 OA
BRANCH   3   5
ATOM      5  C   UNL A   1      31.496  27.689  22.871  1.00  0.00     0.223 C 
BRANCH   5   6
ATOM      6  N   UNL A   1      31.952  27.064  21.624  1.00  0.00    -0.335 N 
ATOM      7  O   UNL A   1      32.889  25.465  20.328  1.00  0.00    -0.269 OA
ATOM      8  C   UNL A   1      32.524  25.835  21.438  1.00  0.00     0.253 C 
ATOM      9  H   UNL A   1      31.829  27.602  20.810  1.00  0.00     0.165 HD
BRANCH   8  10
ATOM     10  C   UNL A   1      32.792  24.984  22.604  1.00  0.00     0.058 A 
ATOM     11  C   UNL A   1      34.022  25.093  23.247  1.00  0.00     0.018 A 
ATOM     12  C   UNL A   1      31.844  24.113  23.120  1.00  0.00     0.126 A 
ATOM     13  C   UNL A   1      34.237  24.375  24.420  1.00  0.00     0.037 A 
ATOM     14  N   UNL A   1      32.024  23.415  24.267  1.00  0.00    -0.249 NA
ATOM     15  C   UNL A   1      33.213  23.566  24.896  1.00  0.00     0.106 A 
ATOM     16  Br  UNL A   1      33.464  22.644  26.534  1.00  0.00    -0.029 Br
ENDBRANCH   8  10
ENDBRANCH   5   6
BRANCH   5  17
ATOM     17  C   UNL A   1      30.199  28.472  22.661  1.00  0.00    -0.014 A 
ATOM     18  C   UNL A   1      28.985  27.957  23.151  1.00  0.00     0.006 A 
ATOM     19  C   UNL A   1      30.165  29.715  21.997  1.00  0.00     0.006 A 
ATOM     20  C   UNL A   1      27.787  28.663  22.996  1.00  0.00     0.000 A 
ATOM     21  C   UNL A   1      28.965  30.415  21.838  1.00  0.00     0.000 A 
ATOM     22  C   UNL A   1      27.777  29.890  22.339  1.00  0.00     0.000 A 
ENDBRANCH   5  17
ENDBRANCH   3   5
ENDBRANCH   2   3
ENDBRANCH   1   2
BRANCH   1  23
ATOM     23  C   UNL A   1      31.809  30.381  25.904  1.00  0.00     0.275 C 
BRANCH  23  24
ATOM     24  O   UNL A   1      32.382  30.650  27.198  1.00  0.00    -0.458 OA
BRANCH  24  25
ATOM     25  C   UNL A   1      33.125  31.772  27.266  1.00  0.00     0.338 C 
ATOM     26  O   UNL A   1      32.743  32.932  27.117  1.00  0.00    -0.246 OA
BRANCH  25  27
ATOM     27  C   UNL A   1      34.464  31.451  27.766  1.00  0.00     0.060 A 
ATOM     28  C   UNL A   1      34.687  30.126  28.125  1.00  0.00     0.016 A 
ATOM     29  C   UNL A   1      35.437  32.419  28.007  1.00  0.00     0.016 A 
ATOM     30  C   UNL A   1      35.844  29.761  28.794  1.00  0.00     0.010 A 
ATOM     31  C   UNL A   1      36.629  32.041  28.644  1.00  0.00     0.010 A 
ATOM     32  C   UNL A   1      36.827  30.714  29.071  1.00  0.00    -0.014 A 
BRANCH  32  33
ATOM     33  C   UNL A   1      37.995  30.311  29.896  1.00  0.00     0.031 A 
ATOM     34  C   UNL A   1      39.080  29.470  29.285  1.00  0.00     0.074 A 
ATOM     35  C   UNL A   1      38.147  30.784  31.147  1.00  0.00     0.049 A 
ATOM     36  N   UNL A   1      40.114  28.909  29.859  1.00  0.00    -0.248 NA
ATOM     37  C   UNL A   1      38.995  29.233  27.836  1.00  0.00     0.031 C 
ATOM     38  C   UNL A   1      37.231  31.702  31.826  1.00  0.00     0.029 A 
ATOM     39  N   UNL A   1      39.149  30.578  32.064  1.00  0.00    -0.354 N 
ATOM     40  C   UNL A   1      40.769  28.209  28.854  1.00  0.00     0.074 A 
ATOM     41  C   UNL A   1      40.026  28.426  27.632  1.00  0.00     0.031 C 
ATOM     42  C   UNL A   1      37.732  32.011  33.033  1.00  0.00     0.029 A 
ATOM     43  C   UNL A   1      38.961  31.254  33.245  1.00  0.00     0.049 A 
ATOM     44  H   UNL A   1      39.927  30.000  31.891  1.00  0.00     0.167 HD
ATOM     45  C   UNL A   1      41.884  27.448  28.949  1.00  0.00     0.037 A 
ATOM     46  C   UNL A   1      39.679  31.237  34.383  1.00  0.00     0.037 A 
ATOM     47  C   UNL A   1      42.651  27.275  30.153  1.00  0.00     0.049 A 
ATOM     48  C   UNL A   1      40.884  30.344  34.480  1.00  0.00     0.074 A 
ATOM     49  C   UNL A   1      43.770  26.486  30.360  1.00  0.00     0.029 A 
ATOM     50  N   UNL A   1      42.390  27.923  31.350  1.00  0.00    -0.354 N 
ATOM     51  N   UNL A   1      41.426  29.586  33.558  1.00  0.00    -0.248 NA
ATOM     52  C   UNL A   1      41.556  30.280  35.785  1.00  0.00     0.031 C 
ATOM     53  C   UNL A   1      44.178  26.646  31.689  1.00  0.00     0.029 A 
ATOM     54  C   UNL A   1      43.327  27.553  32.300  1.00  0.00     0.049 A 
ATOM     55  H   UNL A   1      41.650  28.553  31.501  1.00  0.00     0.167 HD
ATOM     56  C   UNL A   1      42.500  28.955  34.169  1.00  0.00     0.074 A 
ATOM     57  C   UNL A   1      42.549  29.437  35.535  1.00  0.00     0.031 C 
ATOM     58  C   UNL A   1      43.360  28.046  33.651  1.00  0.00     0.037 A 
BRANCH  45  59
ATOM     59  C   UNL A   1      42.310  26.704  27.720  1.00  0.00     0.057 A 
ATOM     60  C   UNL A   1      41.873  25.403  27.450  1.00  0.00     0.134 A 
ATOM     61  C   UNL A   1      43.159  27.313  26.788  1.00  0.00     0.134 A 
ATOM     62  F   UNL A   1      41.074  24.760  28.315  1.00  0.00    -0.206 F 
ATOM     63  C   UNL A   1      42.277  24.726  26.298  1.00  0.00     0.040 A 
ATOM     64  C   UNL A   1      43.556  26.653  25.625  1.00  0.00     0.040 A 
ATOM     65  F   UNL A   1      43.612  28.558  26.992  1.00  0.00    -0.206 F 
ATOM     66  C   UNL A   1      43.117  25.354  25.379  1.00  0.00     0.006 A 
ENDBRANCH  45  59
BRANCH  46  67
ATOM     67  C   UNL A   1      39.249  32.051  35.546  1.00  0.00     0.057 A 
ATOM     68  C   UNL A   1      38.320  31.561  36.469  1.00  0.00     0.134 A 
ATOM     69  C   UNL A   1      39.748  33.343  35.755  1.00  0.00     0.134 A 
ATOM     70  F   UNL A   1      37.787  30.340  36.306  1.00  0.00    -0.206 F 
ATOM     71  C   UNL A   1      37.895  32.327  37.555  1.00  0.00     0.040 A 
ATOM     72  C   UNL A   1      39.349  34.112  36.849  1.00  0.00     0.040 A 
ATOM     73  F   UNL A   1      40.638  33.871  34.903  1.00  0.00    -0.206 F 
ATOM     74  C   UNL A   1      38.416  33.605  37.750  1.00  0.00     0.006 A 
ENDBRANCH  46  67
BRANCH  58  75
ATOM     75  C   UNL A   1      44.432  27.528  34.560  1.00  0.00     0.057 A 
ATOM     76  C   UNL A   1      45.657  28.194  34.697  1.00  0.00     0.134 A 
ATOM     77  C   UNL A   1      44.224  26.378  35.328  1.00  0.00     0.134 A 
ATOM     78  F   UNL A   1      45.916  29.294  33.977  1.00  0.00    -0.206 F 
ATOM     79  C   UNL A   1      46.646  27.722  35.560  1.00  0.00     0.040 A 
ATOM     80  C   UNL A   1      45.200  25.905  36.207  1.00  0.00     0.040 A 
ATOM     81  F   UNL A   1      43.070  25.700  35.242  1.00  0.00    -0.206 F 
ATOM     82  C   UNL A   1      46.417  26.577  36.322  1.00  0.00     0.006 A 
ENDBRANCH  58  75
ENDBRANCH  32  33
ENDBRANCH  25  27
ENDBRANCH  24  25
ENDBRANCH  23  24
ENDBRANCH   1  23
TORSDOF 14
ENDMDL
MODEL 2
REMARK VINA RESULT:     -11.5      3.034      6.887
REMARK SMILES O=C(N[C@@H](C(=O)OCCOC(=O)c1ccc(-c2c3nc(c(-c4c(F)cccc4F)c4ccc([nH]4)c(-c4c(F)cccc4F)c4nc(c(-c5c(F)cccc5F)c5ccc2[nH]5)C=C4)C=C3)cc1)c1ccccc1)c1ccc(Br)nc1
REMARK SMILES IDX 8 1 7 2 5 3 6 4 4 5 3 6 1 7 2 8 73 10 74 11 79 12 75 13
REMARK SMILES IDX 78 14 76 15 77 16 67 17 68 18 72 19 69 20 71 21 70 22 9 23
REMARK SMILES IDX 10 24 11 25 12 26 13 27 14 28 66 29 15 30 65 31 16 32 17 33
REMARK SMILES IDX 18 34 59 35 19 36 64 37 58 38 60 39 20 40 63 41 57 42 56 43
REMARK SMILES IDX 21 45 47 46 30 47 46 48 31 49 34 50 45 51 61 52 32 53 33 54
REMARK SMILES IDX 44 56 62 57 35 58 22 59 23 60 28 61 24 62 25 63 27 64 29 65
REMARK SMILES IDX 26 66 48 67 49 68 54 69 50 70 51 71 53 72 55 73 52 74 36 75
REMARK SMILES IDX 37 76 42 77 38 78 39 79 41 80 43 81 40 82
REMARK H PARENT 3 9 60 44 34 55
REMARK Flexibility Score: inf
ROOT
ATOM      1  C   UNL A   1      32.153  28.132  25.979  1.00  0.00     0.274 C 
ENDROOT
BRANCH   1   2
ATOM      2  O   UNL A   1      32.294  29.202  25.020  1.00  0.00    -0.460 OA
BRANCH   2   3
ATOM      3  C   UNL A   1      32.690  28.858  23.759  1.00  0.00     0.333 C 
ATOM      4  O   UNL A   1      33.690  29.308  23.209  1.00  0.00    -0.249 OA
BRANCH   3   5
ATOM      5  C   UNL A   1      31.664  27.923  23.064  1.00  0.00     0.223 C 
BRANCH   5   6
ATOM      6  N   UNL A   1      32.215  27.249  21.882  1.00  0.00    -0.335 N 
ATOM      7  O   UNL A   1      33.213  25.584  20.722  1.00  0.00    -0.269 OA
ATOM      8  C   UNL A   1      32.754  25.996  21.782  1.00  0.00     0.253 C 
ATOM      9  H   UNL A   1      32.193  27.770  21.048  1.00  0.00     0.165 HD
BRANCH   8  10
ATOM     10  C   UNL A   1      32.873  25.166  22.987  1.00  0.00     0.058 A 
ATOM     11  C   UNL A   1      33.945  25.384  23.849  1.00  0.00     0.018 A 
ATOM     12  C   UNL A   1      31.928  24.209  23.325  1.00  0.00     0.126 A 
ATOM     13  C   UNL A   1      33.999  24.681  25.051  1.00  0.00     0.037 A 
ATOM     14  N   UNL A   1      31.951  23.524  24.494  1.00  0.00    -0.249 NA
ATOM     15  C   UNL A   1      32.981  23.780  25.334  1.00  0.00     0.106 A 
ATOM     16  Br  UNL A   1      33.000  22.876  27.000  1.00  0.00    -0.029 Br
ENDBRANCH   8  10
ENDBRANCH   5   6
BRANCH   5  17
ATOM     17  C   UNL A   1      30.329  28.599  22.748  1.00  0.00    -0.014 A 
ATOM     18  C   UNL A   1      29.131  28.041  23.230  1.00  0.00     0.006 A 
ATOM     19  C   UNL A   1      30.242  29.786  21.992  1.00  0.00     0.006 A 
ATOM     20  C   UNL A   1      27.897  28.651  22.979  1.00  0.00     0.000 A 
ATOM     21  C   UNL A   1      29.007  30.390  21.737  1.00  0.00     0.000 A 
ATOM     22  C   UNL A   1      27.836  29.824  22.231  1.00  0.00     0.000 A 
ENDBRANCH   5  17
ENDBRANCH   3   5
ENDBRANCH   2   3
ENDBRANCH   1   2
BRANCH   1  23
ATOM     23  C   UNL A   1      32.932  28.428  27.262  1.00  0.00     0.275 C 
BRANCH  23  24
ATOM     24  O   UNL A   1      34.262  28.896  26.969  1.00  0.00    -0.458 OA
BRANCH  24  25
ATOM     25  C   UNL A   1      34.633  30.006  27.635  1.00  0.00     0.338 C 
ATOM     26  O   UNL A   1      33.921  30.958  27.956  1.00  0.00    -0.246 OA
BRANCH  25  27
ATOM     27  C   UNL A   1      35.999  29.851  28.137  1.00  0.00     0.060 A 
ATOM     28  C   UNL A   1      37.023  30.092  27.226  1.00  0.00     0.016 A 
ATOM     29  C   UNL A   1      36.291  29.360  29.408  1.00  0.00     0.016 A 
ATOM     30  C   UNL A   1      38.335  29.778  27.540  1.00  0.00     0.010 A 
ATOM     31  C   UNL A   1      37.625  29.084  29.742  1.00  0.00     0.010 A 
ATOM     32  C   UNL A   1      38.654  29.262  28.797  1.00  0.00    -0.014 A 
BRANCH  32  33
ATOM     33  C   UNL A   1      40.051  28.824  29.052  1.00  0.00     0.031 A 
ATOM     34  C   UNL A   1      40.956  29.681  29.891  1.00  0.00     0.074 A 
ATOM     35  C   UNL A   1      40.479  27.618  28.635  1.00  0.00     0.049 A 
ATOM     36  N   UNL A   1      42.236  29.547  30.130  1.00  0.00    -0.248 NA
ATOM     37  C   UNL A   1      40.340  30.841  30.555  1.00  0.00     0.031 C 
ATOM     38  C   UNL A   1      39.672  26.634  27.912  1.00  0.00     0.029 A 
ATOM     39  N   UNL A   1      41.696  27.000  28.788  1.00  0.00    -0.354 N 
ATOM     40  C   UNL A   1      42.588  30.631  30.923  1.00  0.00     0.074 A 
ATOM     41  C   UNL A   1      41.386  31.407  31.138  1.00  0.00     0.031 C 
ATOM     42  C   UNL A   1      40.401  25.523  27.719  1.00  0.00     0.029 A 
ATOM     43  C   UNL A   1      41.749  25.745  28.233  1.00  0.00     0.049 A 
ATOM     44  H   UNL A   1      42.458  27.419  29.250  1.00  0.00     0.167 HD
ATOM     45  C   UNL A   1      43.806  30.953  31.417  1.00  0.00     0.037 A 
ATOM     46  C   UNL A   1      42.777  24.884  28.120  1.00  0.00     0.037 A 
ATOM     47  C   UNL A   1      44.990  30.154  31.246  1.00  0.00     0.049 A 
ATOM     48  C   UNL A   1      44.133  25.286  28.631  1.00  0.00     0.074 A 
ATOM     49  C   UNL A   1      46.281  30.418  31.670  1.00  0.00     0.029 A 
ATOM     50  N   UNL A   1      45.019  28.919  30.618  1.00  0.00    -0.354 N 
ATOM     51  N   UNL A   1      44.484  26.373  29.273  1.00  0.00    -0.248 NA
ATOM     52  C   UNL A   1      45.239  24.354  28.372  1.00  0.00     0.031 C 
ATOM     53  C   UNL A   1      47.095  29.348  31.284  1.00  0.00     0.029 A 
ATOM     54  C   UNL A   1      46.305  28.407  30.643  1.00  0.00     0.049 A 
ATOM     55  H   UNL A   1      44.240  28.472  30.215  1.00  0.00     0.167 HD
ATOM     56  C   UNL A   1      45.849  26.258  29.494  1.00  0.00     0.074 A 
ATOM     57  C   UNL A   1      46.259  24.984  28.941  1.00  0.00     0.031 C 
ATOM     58  C   UNL A   1      46.691  27.136  30.089  1.00  0.00     0.037 A 
BRANCH  45  59
ATOM     59  C   UNL A   1      43.926  32.254  32.149  1.00  0.00     0.057 A 
ATOM     60  C   UNL A   1      44.231  33.451  31.494  1.00  0.00     0.134 A 
ATOM     61  C   UNL A   1      43.712  32.305  33.532  1.00  0.00     0.134 A 
ATOM     62  F   UNL A   1      44.466  33.463  30.173  1.00  0.00    -0.206 F 
ATOM     63  C   UNL A   1      44.335  34.655  32.193  1.00  0.00     0.040 A 
ATOM     64  C   UNL A   1      43.796  33.504  34.239  1.00  0.00     0.040 A 
ATOM     65  F   UNL A   1      43.417  31.189  34.217  1.00  0.00    -0.206 F 
ATOM     66  C   UNL A   1      44.112  34.684  33.569  1.00  0.00     0.006 A 
ENDBRANCH  45  59
BRANCH  46  67
ATOM     67  C   UNL A   1      42.583  23.577  27.446  1.00  0.00     0.057 A 
ATOM     68  C   UNL A   1      42.255  22.429  28.174  1.00  0.00     0.134 A 
ATOM     69  C   UNL A   1      42.733  23.444  26.060  1.00  0.00     0.134 A 
ATOM     70  F   UNL A   1      42.124  22.490  29.508  1.00  0.00    -0.206 F 
ATOM     71  C   UNL A   1      42.090  21.192  27.550  1.00  0.00     0.040 A 
ATOM     72  C   UNL A   1      42.548  22.217  25.420  1.00  0.00     0.040 A 
ATOM     73  F   UNL A   1      43.051  24.507  25.308  1.00  0.00    -0.206 F 
ATOM     74  C   UNL A   1      42.230  21.086  26.167  1.00  0.00     0.006 A 
ENDBRANCH  46  67
BRANCH  58  75
ATOM     75  C   UNL A   1      48.132  26.740  30.183  1.00  0.00     0.057 A 
ATOM     76  C   UNL A   1      48.612  25.983  31.259  1.00  0.00     0.134 A 
ATOM     77  C   UNL A   1      49.037  27.087  29.175  1.00  0.00     0.134 A 
ATOM     78  F   UNL A   1      47.793  25.631  32.261  1.00  0.00    -0.206 F 
ATOM     79  C   UNL A   1      49.950  25.596  31.335  1.00  0.00     0.040 A 
ATOM     80  C   UNL A   1      50.375  26.693  29.231  1.00  0.00     0.040 A 
ATOM     81  F   UNL A   1      48.636  27.810  28.118  1.00  0.00    -0.206 F 
ATOM     82  C   UNL A   1      50.835  25.947  30.316  1.00  0.00     0.006 A 
ENDBRANCH  58  75
ENDBRANCH  32  33
ENDBRANCH  25  27
ENDBRANCH  24  25
ENDBRANCH  23  24
ENDBRANCH   1  23
TORSDOF 14
ENDMDL
MODEL 3
REMARK VINA RESULT:     -11.5      4.358      9.086
REMARK SMILES O=C(N[C@@H](C(=O)OCCOC(=O)c1ccc(-c2c3nc(c(-c4c(F)cccc4F)c4ccc([nH]4)c(-c4c(F)cccc4F)c4nc(c(-c5c(F)cccc5F)c5ccc2[nH]5)C=C4)C=C3)cc1)c1ccccc1)c1ccc(Br)nc1
REMARK SMILES IDX 8 1 7 2 5 3 6 4 4 5 3 6 1 7 2 8 73 10 74 11 79 12 75 13
REMARK SMILES IDX 78 14 76 15 77 16 67 17 68 18 72 19 69 20 71 21 70 22 9 23
REMARK SMILES IDX 10 24 11 25 12 26 13 27 14 28 66 29 15 30 65 31 16 32 17 33
REMARK SMILES IDX 18 34 59 35 19 36 64 37 58 38 60 39 20 40 63 41 57 42 56 43
REMARK SMILES IDX 21 45 47 46 30 47 46 48 31 49 34 50 45 51 61 52 32 53 33 54
REMARK SMILES IDX 44 56 62 57 35 58 22 59 23 60 28 61 24 62 25 63 27 64 29 65
REMARK SMILES IDX 26 66 48 67 49 68 54 69 50 70 51 71 53 72 55 73 52 74 36 75
REMARK SMILES IDX 37 76 42 77 38 78 39 79 41 80 43 81 40 82
REMARK H PARENT 3 9 60 44 34 55
REMARK Flexibility Score: inf
ROOT
ATOM      1  C   UNL A   1      35.518  20.446  25.141  1.00  0.00     0.274 C 
ENDROOT
BRANCH   1   2
ATOM      2  O   UNL A   1      35.376  21.799  25.628  1.00  0.00    -0.460 OA
BRANCH   2   3
ATOM      3  C   UNL A   1      34.397  22.025  26.552  1.00  0.00     0.333 C 
ATOM      4  O   UNL A   1      34.336  21.458  27.638  1.00  0.00    -0.249 OA
BRANCH   3   5
ATOM      5  C   UNL A   1      33.308  22.995  26.018  1.00  0.00     0.223 C 
BRANCH   5   6
ATOM      6  N   UNL A   1      32.018  22.836  26.699  1.00  0.00    -0.335 N 
ATOM      7  O   UNL A   1      29.935  23.419  27.357  1.00  0.00    -0.269 OA
ATOM      8  C   UNL A   1      30.938  23.676  26.701  1.00  0.00     0.253 C 
ATOM      9  H   UNL A   1      31.916  22.012  27.227  1.00  0.00     0.165 HD
BRANCH   8  10
ATOM     10  C   UNL A   1      31.020  24.953  25.982  1.00  0.00     0.058 A 
ATOM     11  C   UNL A   1      30.302  25.104  24.798  1.00  0.00     0.018 A 
ATOM     12  C   UNL A   1      31.743  26.032  26.466  1.00  0.00     0.126 A 
ATOM     13  C   UNL A   1      30.283  26.349  24.174  1.00  0.00     0.037 A 
ATOM     14  N   UNL A   1      31.728  27.256  25.886  1.00  0.00    -0.249 NA
ATOM     15  C   UNL A   1      30.993  27.390  24.758  1.00  0.00     0.106 A 
ATOM     16  Br  UNL A   1      30.911  29.109  23.962  1.00  0.00    -0.029 Br
ENDBRANCH   8  10
ENDBRANCH   5   6
BRANCH   5  17
ATOM     17  C   UNL A   1      33.144  22.961  24.498  1.00  0.00    -0.014 A 
ATOM     18  C   UNL A   1      32.434  21.906  23.895  1.00  0.00     0.006 A 
ATOM     19  C   UNL A   1      33.670  23.962  23.657  1.00  0.00     0.006 A 
ATOM     20  C   UNL A   1      32.244  21.861  22.510  1.00  0.00     0.000 A 
ATOM     21  C   UNL A   1      33.486  23.911  22.272  1.00  0.00     0.000 A 
ATOM     22  C   UNL A   1      32.772  22.863  21.699  1.00  0.00     0.000 A 
ENDBRANCH   5  17
ENDBRANCH   3   5
ENDBRANCH   2   3
ENDBRANCH   1   2
BRANCH   1  23
ATOM     23  C   UNL A   1      36.991  20.058  24.997  1.00  0.00     0.275 C 
BRANCH  23  24
ATOM     24  O   UNL A   1      37.855  21.174  25.287  1.00  0.00    -0.458 OA
BRANCH  24  25
ATOM     25  C   UNL A   1      38.993  20.857  25.934  1.00  0.00     0.338 C 
ATOM     26  O   UNL A   1      39.600  19.787  25.898  1.00  0.00    -0.246 OA
BRANCH  25  27
ATOM     27  C   UNL A   1      39.562  22.055  26.554  1.00  0.00     0.060 A 
ATOM     28  C   UNL A   1      39.025  23.273  26.150  1.00  0.00     0.016 A 
ATOM     29  C   UNL A   1      40.667  22.020  27.402  1.00  0.00     0.016 A 
ATOM     30  C   UNL A   1      39.626  24.466  26.520  1.00  0.00     0.010 A 
ATOM     31  C   UNL A   1      41.248  23.229  27.813  1.00  0.00     0.010 A 
ATOM     32  C   UNL A   1      40.750  24.461  27.348  1.00  0.00    -0.014 A 
BRANCH  32  33
ATOM     33  C   UNL A   1      41.435  25.750  27.622  1.00  0.00     0.031 A 
ATOM     34  C   UNL A   1      40.771  26.773  28.500  1.00  0.00     0.074 A 
ATOM     35  C   UNL A   1      42.691  25.965  27.186  1.00  0.00     0.049 A 
ATOM     36  N   UNL A   1      41.137  28.002  28.763  1.00  0.00    -0.248 NA
ATOM     37  C   UNL A   1      39.533  26.357  29.178  1.00  0.00     0.031 C 
ATOM     38  C   UNL A   1      43.500  25.014  26.423  1.00  0.00     0.029 A 
ATOM     39  N   UNL A   1      43.520  27.048  27.350  1.00  0.00    -0.354 N 
ATOM     40  C   UNL A   1      40.149  28.522  29.588  1.00  0.00     0.074 A 
ATOM     41  C   UNL A   1      39.175  27.473  29.796  1.00  0.00     0.031 C 
ATOM     42  C   UNL A   1      44.720  25.537  26.220  1.00  0.00     0.029 A 
ATOM     43  C   UNL A   1      44.753  26.890  26.767  1.00  0.00     0.049 A 
ATOM     44  H   UNL A   1      43.254  27.861  27.838  1.00  0.00     0.167 HD
ATOM     45  C   UNL A   1      40.062  29.765  30.115  1.00  0.00     0.037 A 
ATOM     46  C   UNL A   1      45.782  27.750  26.656  1.00  0.00     0.037 A 
ATOM     47  C   UNL A   1      41.057  30.790  29.951  1.00  0.00     0.049 A 
ATOM     48  C   UNL A   1      45.641  29.142  27.205  1.00  0.00     0.074 A 
ATOM     49  C   UNL A   1      41.036  32.097  30.408  1.00  0.00     0.029 A 
ATOM     50  N   UNL A   1      42.264  30.614  29.295  1.00  0.00    -0.354 N 
ATOM     51  N   UNL A   1      44.646  29.666  27.879  1.00  0.00    -0.248 NA
ATOM     52  C   UNL A   1      46.751  30.070  26.948  1.00  0.00     0.031 C 
ATOM     53  C   UNL A   1      42.228  32.716  30.015  1.00  0.00     0.029 A 
ATOM     54  C   UNL A   1      42.999  31.786  29.335  1.00  0.00     0.049 A 
ATOM     55  H   UNL A   1      42.557  29.778  28.865  1.00  0.00     0.167 HD
ATOM     56  C   UNL A   1      45.008  30.982  28.127  1.00  0.00     0.074 A 
ATOM     57  C   UNL A   1      46.325  31.172  27.553  1.00  0.00     0.031 C 
ATOM     58  C   UNL A   1      44.308  31.953  28.760  1.00  0.00     0.037 A 
BRANCH  45  59
ATOM     59  C   UNL A   1      38.817  30.097  30.881  1.00  0.00     0.057 A 
ATOM     60  C   UNL A   1      38.708  29.871  32.257  1.00  0.00     0.134 A 
ATOM     61  C   UNL A   1      37.720  30.669  30.226  1.00  0.00     0.134 A 
ATOM     62  F   UNL A   1      39.719  29.308  32.936  1.00  0.00    -0.206 F 
ATOM     63  C   UNL A   1      37.542  30.191  32.954  1.00  0.00     0.040 A 
ATOM     64  C   UNL A   1      36.556  31.008  30.915  1.00  0.00     0.040 A 
ATOM     65  F   UNL A   1      37.764  30.908  28.906  1.00  0.00    -0.206 F 
ATOM     66  C   UNL A   1      36.464  30.766  32.283  1.00  0.00     0.006 A 
ENDBRANCH  45  59
BRANCH  46  67
ATOM     67  C   UNL A   1      47.020  27.342  25.948  1.00  0.00     0.057 A 
ATOM     68  C   UNL A   1      48.087  26.754  26.634  1.00  0.00     0.134 A 
ATOM     69  C   UNL A   1      47.169  27.542  24.570  1.00  0.00     0.134 A 
ATOM     70  F   UNL A   1      48.012  26.562  27.960  1.00  0.00    -0.206 F 
ATOM     71  C   UNL A   1      49.262  26.385  25.979  1.00  0.00     0.040 A 
ATOM     72  C   UNL A   1      48.330  27.156  23.897  1.00  0.00     0.040 A 
ATOM     73  F   UNL A   1      46.183  28.104  23.856  1.00  0.00    -0.206 F 
ATOM     74  C   UNL A   1      49.383  26.581  24.604  1.00  0.00     0.006 A 
ENDBRANCH  46  67
BRANCH  58  75
ATOM     75  C   UNL A   1      44.958  33.297  28.876  1.00  0.00     0.057 A 
ATOM     76  C   UNL A   1      45.812  33.605  29.942  1.00  0.00     0.134 A 
ATOM     77  C   UNL A   1      44.757  34.276  27.897  1.00  0.00     0.134 A 
ATOM     78  F   UNL A   1      46.032  32.711  30.916  1.00  0.00    -0.206 F 
ATOM     79  C   UNL A   1      46.434  34.850  30.037  1.00  0.00     0.040 A 
ATOM     80  C   UNL A   1      45.386  35.519  27.972  1.00  0.00     0.040 A 
ATOM     81  F   UNL A   1      43.952  34.037  26.850  1.00  0.00    -0.206 F 
ATOM     82  C   UNL A   1      46.225  35.810  29.047  1.00  0.00     0.006 A 
ENDBRANCH  58  75
ENDBRANCH  32  33
ENDBRANCH  25  27
ENDBRANCH  24  25
ENDBRANCH  23  24
ENDBRANCH   1  23
TORSDOF 14
ENDMDL
