MODEL 1
REMARK VINA RESULT:     -11.4      0.000      0.000
REMARK SMILES CC(C)N(c1cc2c(cc1Cl)C=C(C(=O)OCCOC(=O)c1ccc(-c3c4nc(c(-c5c(F)cccc5F)c5ccc([nH]5)c(-c5c(F)cccc5F)c5nc(c(-c6c(F)cccc6F)c6ccc3[nH]6)C=C5)C=C4)cc1)[C@@H](C(F)(F)F)O2)C(C)C
REMARK SMILES IDX 17 1 16 2 14 3 15 4 13 5 5 6 6 7 10 8 7 9 9 10 11 11 8 12
REMARK SMILES IDX 81 13 12 14 76 15 4 16 2 17 1 18 3 19 82 20 83 21 84 22
REMARK SMILES IDX 77 23 78 24 79 25 80 26 18 27 19 28 20 29 21 30 22 31 23 32
REMARK SMILES IDX 75 33 24 34 74 35 25 36 26 37 27 38 68 39 28 40 73 41 67 42
REMARK SMILES IDX 69 43 29 44 72 45 66 46 65 47 30 49 56 50 39 51 55 52 40 53
REMARK SMILES IDX 43 54 54 55 70 56 41 57 42 58 53 60 71 61 44 62 31 63 32 64
REMARK SMILES IDX 37 65 33 66 34 67 36 68 38 69 35 70 57 71 58 72 63 73 59 74
REMARK SMILES IDX 60 75 62 76 64 77 61 78 45 79 46 80 51 81 47 82 48 83 50 84
REMARK SMILES IDX 52 85 49 86
REMARK H PARENT 69 48 43 59
REMARK Flexibility Score: inf
ROOT
ATOM      1  C   UNL A   1      30.632  31.564  25.287  1.00  0.00     0.275 C 
ENDROOT
BRANCH   1   2
ATOM      2  O   UNL A   1      31.591  30.520  25.008  1.00  0.00    -0.459 OA
BRANCH   2   3
ATOM      3  C   UNL A   1      31.072  29.374  24.509  1.00  0.00     0.338 C 
ATOM      4  O   UNL A   1      30.024  29.260  23.891  1.00  0.00    -0.246 OA
BRANCH   3   5
ATOM      5  C   UNL A   1      31.983  28.239  24.747  1.00  0.00     0.087 C 
ATOM      6  C   UNL A   1      34.177  23.685  24.548  1.00  0.00     0.060 A 
ATOM      7  C   UNL A   1      34.230  24.783  25.445  1.00  0.00     0.074 A 
ATOM      8  C   UNL A   1      33.419  23.860  23.369  1.00  0.00     0.065 A 
ATOM      9  C   UNL A   1      33.527  25.970  25.212  1.00  0.00     0.130 A 
ATOM     10  C   UNL A   1      32.756  25.062  23.114  1.00  0.00     0.034 A 
ATOM     11  Cl  UNL A   1      33.131  22.606  22.209  1.00  0.00    -0.082 Cl
ATOM     12  C   UNL A   1      32.790  26.097  24.045  1.00  0.00     0.019 A 
ATOM     13  O   UNL A   1      33.608  26.956  26.157  1.00  0.00    -0.475 OA
ATOM     14  C   UNL A   1      32.008  27.286  23.810  1.00  0.00     0.027 C 
ATOM     15  C   UNL A   1      32.708  28.107  26.056  1.00  0.00     0.316 C 
BRANCH   6  16
ATOM     16  N   UNL A   1      34.837  22.486  24.885  1.00  0.00    -0.365 N 
BRANCH  16  17
ATOM     17  C   UNL A   1      36.289  22.400  24.608  1.00  0.00     0.076 C 
ATOM     18  C   UNL A   1      36.657  22.925  23.221  1.00  0.00     0.030 C 
ATOM     19  C   UNL A   1      37.160  23.051  25.679  1.00  0.00     0.030 C 
ENDBRANCH  16  17
BRANCH  16  20
ATOM     20  C   UNL A   1      34.005  21.448  25.535  1.00  0.00     0.076 C 
ATOM     21  C   UNL A   1      34.205  20.061  24.933  1.00  0.00     0.030 C 
ATOM     22  C   UNL A   1      34.148  21.429  27.052  1.00  0.00     0.030 C 
ENDBRANCH  16  20
ENDBRANCH   6  16
BRANCH  15  23
ATOM     23  C   UNL A   1      31.710  28.069  27.226  1.00  0.00     0.430 C 
ATOM     24  F   UNL A   1      30.647  27.278  26.949  1.00  0.00    -0.167 F 
ATOM     25  F   UNL A   1      32.281  27.570  28.349  1.00  0.00    -0.167 F 
ATOM     26  F   UNL A   1      31.234  29.298  27.530  1.00  0.00    -0.167 F 
ENDBRANCH  15  23
ENDBRANCH   3   5
ENDBRANCH   2   3
ENDBRANCH   1   2
BRANCH   1  27
ATOM     27  C   UNL A   1      31.049  32.401  26.497  1.00  0.00     0.275 C 
BRANCH  27  28
ATOM     28  O   UNL A   1      32.407  32.105  26.872  1.00  0.00    -0.458 OA
BRANCH  28  29
ATOM     29  C   UNL A   1      33.033  33.054  27.602  1.00  0.00     0.338 C 
ATOM     30  O   UNL A   1      32.603  34.144  27.935  1.00  0.00    -0.246 OA
BRANCH  29  31
ATOM     31  C   UNL A   1      34.341  32.548  28.048  1.00  0.00     0.060 A 
ATOM     32  C   UNL A   1      35.406  33.403  28.296  1.00  0.00     0.016 A 
ATOM     33  C   UNL A   1      34.441  31.202  28.376  1.00  0.00     0.016 A 
ATOM     34  C   UNL A   1      36.579  32.884  28.863  1.00  0.00     0.010 A 
ATOM     35  C   UNL A   1      35.540  30.723  29.082  1.00  0.00     0.010 A 
ATOM     36  C   UNL A   1      36.649  31.545  29.303  1.00  0.00    -0.014 A 
BRANCH  36  37
ATOM     37  C   UNL A   1      37.871  31.007  29.974  1.00  0.00     0.031 A 
ATOM     38  C   UNL A   1      38.177  31.326  31.422  1.00  0.00     0.074 A 
ATOM     39  C   UNL A   1      38.741  30.251  29.273  1.00  0.00     0.049 A 
ATOM     40  N   UNL A   1      39.173  30.910  32.169  1.00  0.00    -0.248 NA
ATOM     41  C   UNL A   1      37.282  32.269  32.110  1.00  0.00     0.031 C 
ATOM     42  C   UNL A   1      38.646  29.951  27.842  1.00  0.00     0.029 A 
ATOM     43  N   UNL A   1      39.867  29.573  29.674  1.00  0.00    -0.354 N 
ATOM     44  C   UNL A   1      39.033  31.562  33.390  1.00  0.00     0.074 A 
ATOM     45  C   UNL A   1      37.910  32.461  33.259  1.00  0.00     0.031 C 
ATOM     46  C   UNL A   1      39.613  29.084  27.507  1.00  0.00     0.029 A 
ATOM     47  C   UNL A   1      40.420  28.793  28.686  1.00  0.00     0.049 A 
ATOM     48  H   UNL A   1      40.242  29.641  30.583  1.00  0.00     0.167 HD
ATOM     49  C   UNL A   1      39.738  31.400  34.536  1.00  0.00     0.037 A 
ATOM     50  C   UNL A   1      41.444  27.920  28.732  1.00  0.00     0.037 A 
ATOM     51  C   UNL A   1      40.817  30.462  34.695  1.00  0.00     0.049 A 
ATOM     52  C   UNL A   1      42.170  27.700  30.028  1.00  0.00     0.074 A 
ATOM     53  C   UNL A   1      41.537  30.154  35.837  1.00  0.00     0.029 A 
ATOM     54  N   UNL A   1      41.327  29.672  33.677  1.00  0.00    -0.354 N 
ATOM     55  N   UNL A   1      41.960  28.252  31.199  1.00  0.00    -0.248 NA
ATOM     56  C   UNL A   1      43.275  26.731  30.009  1.00  0.00     0.031 C 
ATOM     57  C   UNL A   1      42.498  29.193  35.503  1.00  0.00     0.029 A 
ATOM     58  C   UNL A   1      42.356  28.882  34.160  1.00  0.00     0.049 A 
ATOM     59  H   UNL A   1      41.004  29.672  32.746  1.00  0.00     0.167 HD
ATOM     60  C   UNL A   1      42.890  27.683  32.058  1.00  0.00     0.074 A 
ATOM     61  C   UNL A   1      43.651  26.727  31.280  1.00  0.00     0.031 C 
ATOM     62  C   UNL A   1      43.100  27.934  33.373  1.00  0.00     0.037 A 
BRANCH  49  63
ATOM     63  C   UNL A   1      39.332  32.235  35.718  1.00  0.00     0.057 A 
ATOM     64  C   UNL A   1      38.406  31.758  36.655  1.00  0.00     0.134 A 
ATOM     65  C   UNL A   1      39.857  33.519  35.928  1.00  0.00     0.134 A 
ATOM     66  F   UNL A   1      37.853  30.546  36.511  1.00  0.00    -0.206 F 
ATOM     67  C   UNL A   1      38.032  32.521  37.764  1.00  0.00     0.040 A 
ATOM     68  C   UNL A   1      39.514  34.277  37.049  1.00  0.00     0.040 A 
ATOM     69  F   UNL A   1      40.755  34.033  35.074  1.00  0.00    -0.206 F 
ATOM     70  C   UNL A   1      38.596  33.778  37.970  1.00  0.00     0.006 A 
ENDBRANCH  49  63
BRANCH  50  71
ATOM     71  C   UNL A   1      41.799  27.127  27.527  1.00  0.00     0.057 A 
ATOM     72  C   UNL A   1      41.280  25.847  27.306  1.00  0.00     0.134 A 
ATOM     73  C   UNL A   1      42.669  27.648  26.561  1.00  0.00     0.134 A 
ATOM     74  F   UNL A   1      40.448  25.290  28.198  1.00  0.00    -0.206 F 
ATOM     75  C   UNL A   1      41.615  25.112  26.168  1.00  0.00     0.040 A 
ATOM     76  C   UNL A   1      42.994  26.933  25.407  1.00  0.00     0.040 A 
ATOM     77  F   UNL A   1      43.185  28.876  26.710  1.00  0.00    -0.206 F 
ATOM     78  C   UNL A   1      42.469  25.658  25.211  1.00  0.00     0.006 A 
ENDBRANCH  50  71
BRANCH  62  79
ATOM     79  C   UNL A   1      44.180  27.146  34.052  1.00  0.00     0.057 A 
ATOM     80  C   UNL A   1      43.896  25.914  34.651  1.00  0.00     0.134 A 
ATOM     81  C   UNL A   1      45.497  27.617  34.127  1.00  0.00     0.134 A 
ATOM     82  F   UNL A   1      42.652  25.410  34.619  1.00  0.00    -0.206 F 
ATOM     83  C   UNL A   1      44.885  25.174  35.300  1.00  0.00     0.040 A 
ATOM     84  C   UNL A   1      46.500  26.876  34.753  1.00  0.00     0.040 A 
ATOM     85  F   UNL A   1      45.835  28.784  33.559  1.00  0.00    -0.206 F 
ATOM     86  C   UNL A   1      46.194  25.652  35.346  1.00  0.00     0.006 A 
ENDBRANCH  62  79
ENDBRANCH  36  37
ENDBRANCH  29  31
ENDBRANCH  28  29
ENDBRANCH  27  28
ENDBRANCH   1  27
TORSDOF 15
ENDMDL
MODEL 2
REMARK VINA RESULT:     -11.4      4.176      9.186
REMARK SMILES CC(C)N(c1cc2c(cc1Cl)C=C(C(=O)OCCOC(=O)c1ccc(-c3c4nc(c(-c5c(F)cccc5F)c5ccc([nH]5)c(-c5c(F)cccc5F)c5nc(c(-c6c(F)cccc6F)c6ccc3[nH]6)C=C5)C=C4)cc1)[C@@H](C(F)(F)F)O2)C(C)C
REMARK SMILES IDX 17 1 16 2 14 3 15 4 13 5 5 6 6 7 10 8 7 9 9 10 11 11 8 12
REMARK SMILES IDX 81 13 12 14 76 15 4 16 2 17 1 18 3 19 82 20 83 21 84 22
REMARK SMILES IDX 77 23 78 24 79 25 80 26 18 27 19 28 20 29 21 30 22 31 23 32
REMARK SMILES IDX 75 33 24 34 74 35 25 36 26 37 27 38 68 39 28 40 73 41 67 42
REMARK SMILES IDX 69 43 29 44 72 45 66 46 65 47 30 49 56 50 39 51 55 52 40 53
REMARK SMILES IDX 43 54 54 55 70 56 41 57 42 58 53 60 71 61 44 62 31 63 32 64
REMARK SMILES IDX 37 65 33 66 34 67 36 68 38 69 35 70 57 71 58 72 63 73 59 74
REMARK SMILES IDX 60 75 62 76 64 77 61 78 45 79 46 80 51 81 47 82 48 83 50 84
REMARK SMILES IDX 52 85 49 86
REMARK H PARENT 69 48 43 59
REMARK Flexibility Score: inf
ROOT
ATOM      1  C   UNL A   1      35.368  19.897  25.083  1.00  0.00     0.275 C 
ENDROOT
BRANCH   1   2
ATOM      2  O   UNL A   1      34.157  20.092  24.318  1.00  0.00    -0.459 OA
BRANCH   2   3
ATOM      3  C   UNL A   1      33.015  20.140  25.043  1.00  0.00     0.338 C 
ATOM      4  O   UNL A   1      32.490  19.208  25.634  1.00  0.00    -0.246 OA
BRANCH   3   5
ATOM      5  C   UNL A   1      32.487  21.516  25.098  1.00  0.00     0.087 C 
ATOM      6  C   UNL A   1      31.409  26.323  23.950  1.00  0.00     0.060 A 
ATOM      7  C   UNL A   1      31.364  25.543  25.134  1.00  0.00     0.074 A 
ATOM      8  C   UNL A   1      31.747  25.650  22.755  1.00  0.00     0.065 A 
ATOM      9  C   UNL A   1      31.687  24.182  25.142  1.00  0.00     0.130 A 
ATOM     10  C   UNL A   1      32.023  24.282  22.755  1.00  0.00     0.034 A 
ATOM     11  Cl  UNL A   1      31.972  26.441  21.230  1.00  0.00    -0.082 Cl
ATOM     12  C   UNL A   1      32.019  23.563  23.947  1.00  0.00     0.019 A 
ATOM     13  O   UNL A   1      31.654  23.524  26.341  1.00  0.00    -0.475 OA
ATOM     14  C   UNL A   1      32.416  22.175  23.938  1.00  0.00     0.027 C 
ATOM     15  C   UNL A   1      32.206  22.171  26.421  1.00  0.00     0.316 C 
BRANCH   6  16
ATOM     16  N   UNL A   1      31.157  27.708  24.027  1.00  0.00    -0.365 N 
BRANCH  16  17
ATOM     17  C   UNL A   1      29.820  28.187  23.609  1.00  0.00     0.076 C 
ATOM     18  C   UNL A   1      29.864  29.012  22.324  1.00  0.00     0.030 C 
ATOM     19  C   UNL A   1      28.774  27.080  23.503  1.00  0.00     0.030 C 
ENDBRANCH  16  17
BRANCH  16  20
ATOM     20  C   UNL A   1      32.256  28.538  24.571  1.00  0.00     0.076 C 
ATOM     21  C   UNL A   1      33.270  28.956  23.510  1.00  0.00     0.030 C 
ATOM     22  C   UNL A   1      31.761  29.733  25.377  1.00  0.00     0.030 C 
ENDBRANCH  16  20
ENDBRANCH   6  16
BRANCH  15  23
ATOM     23  C   UNL A   1      33.475  22.195  27.292  1.00  0.00     0.430 C 
ATOM     24  F   UNL A   1      33.295  22.926  28.416  1.00  0.00    -0.167 F 
ATOM     25  F   UNL A   1      33.824  20.948  27.692  1.00  0.00    -0.167 F 
ATOM     26  F   UNL A   1      34.536  22.716  26.633  1.00  0.00    -0.167 F 
ENDBRANCH  15  23
ENDBRANCH   3   5
ENDBRANCH   2   3
ENDBRANCH   1   2
BRANCH   1  27
ATOM     27  C   UNL A   1      36.484  20.834  24.617  1.00  0.00     0.275 C 
BRANCH  27  28
ATOM     28  O   UNL A   1      37.125  21.453  25.747  1.00  0.00    -0.458 OA
BRANCH  28  29
ATOM     29  C   UNL A   1      38.456  21.246  25.850  1.00  0.00     0.338 C 
ATOM     30  O   UNL A   1      39.098  20.296  25.440  1.00  0.00    -0.246 OA
BRANCH  29  31
ATOM     31  C   UNL A   1      39.090  22.417  26.479  1.00  0.00     0.060 A 
ATOM     32  C   UNL A   1      40.268  22.306  27.205  1.00  0.00     0.016 A 
ATOM     33  C   UNL A   1      38.568  23.672  26.191  1.00  0.00     0.016 A 
ATOM     34  C   UNL A   1      40.905  23.472  27.651  1.00  0.00     0.010 A 
ATOM     35  C   UNL A   1      39.284  24.826  26.495  1.00  0.00     0.010 A 
ATOM     36  C   UNL A   1      40.446  24.750  27.268  1.00  0.00    -0.014 A 
BRANCH  36  37
ATOM     37  C   UNL A   1      41.165  25.993  27.681  1.00  0.00     0.031 A 
ATOM     38  C   UNL A   1      42.572  26.283  27.205  1.00  0.00     0.074 A 
ATOM     39  C   UNL A   1      40.568  26.863  28.523  1.00  0.00     0.049 A 
ATOM     40  N   UNL A   1      43.326  27.332  27.436  1.00  0.00    -0.248 NA
ATOM     41  C   UNL A   1      43.241  25.244  26.405  1.00  0.00     0.031 C 
ATOM     42  C   UNL A   1      39.263  26.670  29.160  1.00  0.00     0.029 A 
ATOM     43  N   UNL A   1      40.970  28.098  28.971  1.00  0.00    -0.354 N 
ATOM     44  C   UNL A   1      44.552  27.061  26.839  1.00  0.00     0.074 A 
ATOM     45  C   UNL A   1      44.473  25.720  26.308  1.00  0.00     0.031 C 
ATOM     46  C   UNL A   1      38.934  27.779  29.840  1.00  0.00     0.029 A 
ATOM     47  C   UNL A   1      40.018  28.747  29.720  1.00  0.00     0.049 A 
ATOM     48  H   UNL A   1      41.856  28.481  28.774  1.00  0.00     0.167 HD
ATOM     49  C   UNL A   1      45.635  27.864  26.697  1.00  0.00     0.037 A 
ATOM     50  C   UNL A   1      40.006  29.994  30.230  1.00  0.00     0.037 A 
ATOM     51  C   UNL A   1      45.701  29.222  27.166  1.00  0.00     0.049 A 
ATOM     52  C   UNL A   1      41.186  30.895  30.003  1.00  0.00     0.074 A 
ATOM     53  C   UNL A   1      46.714  30.150  26.995  1.00  0.00     0.029 A 
ATOM     54  N   UNL A   1      44.704  29.849  27.896  1.00  0.00    -0.354 N 
ATOM     55  N   UNL A   1      42.297  30.656  29.350  1.00  0.00    -0.248 NA
ATOM     56  C   UNL A   1      41.107  32.243  30.583  1.00  0.00     0.031 C 
ATOM     57  C   UNL A   1      46.338  31.333  27.642  1.00  0.00     0.029 A 
ATOM     58  C   UNL A   1      45.078  31.149  28.190  1.00  0.00     0.049 A 
ATOM     59  H   UNL A   1      43.854  29.432  28.166  1.00  0.00     0.167 HD
ATOM     60  C   UNL A   1      43.038  31.828  29.423  1.00  0.00     0.074 A 
ATOM     61  C   UNL A   1      42.242  32.784  30.164  1.00  0.00     0.031 C 
ATOM     62  C   UNL A   1      44.272  32.088  28.925  1.00  0.00     0.037 A 
BRANCH  49  63
ATOM     63  C   UNL A   1      46.822  27.297  25.969  1.00  0.00     0.057 A 
ATOM     64  C   UNL A   1      46.961  27.451  24.584  1.00  0.00     0.134 A 
ATOM     65  C   UNL A   1      47.831  26.591  26.642  1.00  0.00     0.134 A 
ATOM     66  F   UNL A   1      46.029  28.102  23.873  1.00  0.00    -0.206 F 
ATOM     67  C   UNL A   1      48.067  26.940  23.900  1.00  0.00     0.040 A 
ATOM     68  C   UNL A   1      48.955  26.103  25.974  1.00  0.00     0.040 A 
ATOM     69  F   UNL A   1      47.765  26.415  27.971  1.00  0.00    -0.206 F 
ATOM     70  C   UNL A   1      49.074  26.275  24.597  1.00  0.00     0.006 A 
ENDBRANCH  49  63
BRANCH  50  71
ATOM     71  C   UNL A   1      38.803  30.494  30.942  1.00  0.00     0.057 A 
ATOM     72  C   UNL A   1      37.787  31.188  30.279  1.00  0.00     0.134 A 
ATOM     73  C   UNL A   1      38.646  30.276  32.318  1.00  0.00     0.134 A 
ATOM     74  F   UNL A   1      37.881  31.434  28.964  1.00  0.00    -0.206 F 
ATOM     75  C   UNL A   1      36.656  31.649  30.957  1.00  0.00     0.040 A 
ATOM     76  C   UNL A   1      37.511  30.712  33.003  1.00  0.00     0.040 A 
ATOM     77  F   UNL A   1      39.580  29.603  33.005  1.00  0.00    -0.206 F 
ATOM     78  C   UNL A   1      36.514  31.405  32.322  1.00  0.00     0.006 A 
ENDBRANCH  50  71
BRANCH  62  79
ATOM     79  C   UNL A   1      44.820  33.465  29.150  1.00  0.00     0.057 A 
ATOM     80  C   UNL A   1      44.564  34.493  28.235  1.00  0.00     0.134 A 
ATOM     81  C   UNL A   1      45.614  33.768  30.262  1.00  0.00     0.134 A 
ATOM     82  F   UNL A   1      43.814  34.266  27.145  1.00  0.00    -0.206 F 
ATOM     83  C   UNL A   1      45.078  35.777  28.421  1.00  0.00     0.040 A 
ATOM     84  C   UNL A   1      46.115  35.054  30.471  1.00  0.00     0.040 A 
ATOM     85  F   UNL A   1      45.883  32.829  31.182  1.00  0.00    -0.206 F 
ATOM     86  C   UNL A   1      45.850  36.062  29.545  1.00  0.00     0.006 A 
ENDBRANCH  62  79
ENDBRANCH  36  37
ENDBRANCH  29  31
ENDBRANCH  28  29
ENDBRANCH  27  28
ENDBRANCH   1  27
TORSDOF 15
ENDMDL
MODEL 3
REMARK VINA RESULT:     -11.3      0.196      1.650
REMARK SMILES CC(C)N(c1cc2c(cc1Cl)C=C(C(=O)OCCOC(=O)c1ccc(-c3c4nc(c(-c5c(F)cccc5F)c5ccc([nH]5)c(-c5c(F)cccc5F)c5nc(c(-c6c(F)cccc6F)c6ccc3[nH]6)C=C5)C=C4)cc1)[C@@H](C(F)(F)F)O2)C(C)C
REMARK SMILES IDX 17 1 16 2 14 3 15 4 13 5 5 6 6 7 10 8 7 9 9 10 11 11 8 12
REMARK SMILES IDX 81 13 12 14 76 15 4 16 2 17 1 18 3 19 82 20 83 21 84 22
REMARK SMILES IDX 77 23 78 24 79 25 80 26 18 27 19 28 20 29 21 30 22 31 23 32
REMARK SMILES IDX 75 33 24 34 74 35 25 36 26 37 27 38 68 39 28 40 73 41 67 42
REMARK SMILES IDX 69 43 29 44 72 45 66 46 65 47 30 49 56 50 39 51 55 52 40 53
REMARK SMILES IDX 43 54 54 55 70 56 41 57 42 58 53 60 71 61 44 62 31 63 32 64
REMARK SMILES IDX 37 65 33 66 34 67 36 68 38 69 35 70 57 71 58 72 63 73 59 74
REMARK SMILES IDX 60 75 62 76 64 77 61 78 45 79 46 80 51 81 47 82 48 83 50 84
REMARK SMILES IDX 52 85 49 86
REMARK H PARENT 69 48 43 59
REMARK Flexibility Score: inf
ROOT
ATOM      1  C   UNL A   1      30.618  31.633  25.403  1.00  0.00     0.275 C 
ENDROOT
BRANCH   1   2
ATOM      2  O   UNL A   1      31.601  30.584  25.253  1.00  0.00    -0.459 OA
BRANCH   2   3
ATOM      3  C   UNL A   1      31.172  29.475  24.607  1.00  0.00     0.338 C 
ATOM      4  O   UNL A   1      30.200  29.394  23.871  1.00  0.00    -0.246 OA
BRANCH   3   5
ATOM      5  C   UNL A   1      32.083  28.342  24.849  1.00  0.00     0.087 C 
ATOM      6  C   UNL A   1      34.291  23.795  24.656  1.00  0.00     0.060 A 
ATOM      7  C   UNL A   1      34.334  24.890  25.556  1.00  0.00     0.074 A 
ATOM      8  C   UNL A   1      33.542  23.971  23.470  1.00  0.00     0.065 A 
ATOM      9  C   UNL A   1      33.630  26.076  25.320  1.00  0.00     0.130 A 
ATOM     10  C   UNL A   1      32.879  25.171  23.213  1.00  0.00     0.034 A 
ATOM     11  Cl  UNL A   1      33.268  22.720  22.304  1.00  0.00    -0.082 Cl
ATOM     12  C   UNL A   1      32.902  26.204  24.148  1.00  0.00     0.019 A 
ATOM     13  O   UNL A   1      33.700  27.060  26.269  1.00  0.00    -0.475 OA
ATOM     14  C   UNL A   1      32.119  27.392  23.910  1.00  0.00     0.027 C 
ATOM     15  C   UNL A   1      32.799  28.208  26.164  1.00  0.00     0.316 C 
BRANCH   6  16
ATOM     16  N   UNL A   1      34.952  22.596  24.995  1.00  0.00    -0.365 N 
BRANCH  16  17
ATOM     17  C   UNL A   1      34.143  21.513  25.598  1.00  0.00     0.076 C 
ATOM     18  C   UNL A   1      34.441  20.145  24.988  1.00  0.00     0.030 C 
ATOM     19  C   UNL A   1      34.230  21.454  27.121  1.00  0.00     0.030 C 
ENDBRANCH  16  17
BRANCH  16  20
ATOM     20  C   UNL A   1      36.392  22.533  24.659  1.00  0.00     0.076 C 
ATOM     21  C   UNL A   1      36.692  22.976  23.230  1.00  0.00     0.030 C 
ATOM     22  C   UNL A   1      37.275  23.257  25.669  1.00  0.00     0.030 C 
ENDBRANCH  16  20
ENDBRANCH   6  16
BRANCH  15  23
ATOM     23  C   UNL A   1      31.790  28.164  27.325  1.00  0.00     0.430 C 
ATOM     24  F   UNL A   1      32.324  27.590  28.428  1.00  0.00    -0.167 F 
ATOM     25  F   UNL A   1      31.398  29.410  27.688  1.00  0.00    -0.167 F 
ATOM     26  F   UNL A   1      30.674  27.470  27.005  1.00  0.00    -0.167 F 
ENDBRANCH  15  23
ENDBRANCH   3   5
ENDBRANCH   2   3
ENDBRANCH   1   2
BRANCH   1  27
ATOM     27  C   UNL A   1      31.122  32.748  26.321  1.00  0.00     0.275 C 
BRANCH  27  28
ATOM     28  O   UNL A   1      32.287  32.315  27.047  1.00  0.00    -0.458 OA
BRANCH  28  29
ATOM     29  C   UNL A   1      32.953  33.282  27.715  1.00  0.00     0.338 C 
ATOM     30  O   UNL A   1      32.558  34.398  28.005  1.00  0.00    -0.246 OA
BRANCH  29  31
ATOM     31  C   UNL A   1      34.261  32.768  28.153  1.00  0.00     0.060 A 
ATOM     32  C   UNL A   1      35.320  33.619  28.438  1.00  0.00     0.016 A 
ATOM     33  C   UNL A   1      34.365  31.412  28.434  1.00  0.00     0.016 A 
ATOM     34  C   UNL A   1      36.491  33.085  28.995  1.00  0.00     0.010 A 
ATOM     35  C   UNL A   1      35.462  30.913  29.131  1.00  0.00     0.010 A 
ATOM     36  C   UNL A   1      36.565  31.732  29.388  1.00  0.00    -0.014 A 
BRANCH  36  37
ATOM     37  C   UNL A   1      37.785  31.177  30.049  1.00  0.00     0.031 A 
ATOM     38  C   UNL A   1      38.110  31.493  31.493  1.00  0.00     0.074 A 
ATOM     39  C   UNL A   1      38.636  30.405  29.341  1.00  0.00     0.049 A 
ATOM     40  N   UNL A   1      39.106  31.064  32.231  1.00  0.00    -0.248 NA
ATOM     41  C   UNL A   1      37.235  32.451  32.187  1.00  0.00     0.031 C 
ATOM     42  C   UNL A   1      38.523  30.105  27.912  1.00  0.00     0.029 A 
ATOM     43  N   UNL A   1      39.756  29.711  29.733  1.00  0.00    -0.354 N 
ATOM     44  C   UNL A   1      38.987  31.719  33.452  1.00  0.00     0.074 A 
ATOM     45  C   UNL A   1      37.877  32.635  33.330  1.00  0.00     0.031 C 
ATOM     46  C   UNL A   1      39.474  29.222  27.569  1.00  0.00     0.029 A 
ATOM     47  C   UNL A   1      40.287  28.921  28.742  1.00  0.00     0.049 A 
ATOM     48  H   UNL A   1      40.140  29.775  30.638  1.00  0.00     0.167 HD
ATOM     49  C   UNL A   1      39.700  31.548  34.592  1.00  0.00     0.037 A 
ATOM     50  C   UNL A   1      41.298  28.032  28.779  1.00  0.00     0.037 A 
ATOM     51  C   UNL A   1      40.766  30.594  34.743  1.00  0.00     0.049 A 
ATOM     52  C   UNL A   1      42.033  27.804  30.069  1.00  0.00     0.074 A 
ATOM     53  C   UNL A   1      41.492  30.277  35.879  1.00  0.00     0.029 A 
ATOM     54  N   UNL A   1      41.254  29.795  33.722  1.00  0.00    -0.354 N 
ATOM     55  N   UNL A   1      41.842  28.361  31.241  1.00  0.00    -0.248 NA
ATOM     56  C   UNL A   1      43.122  26.818  30.042  1.00  0.00     0.031 C 
ATOM     57  C   UNL A   1      42.435  29.301  35.538  1.00  0.00     0.029 A 
ATOM     58  C   UNL A   1      42.276  28.990  34.197  1.00  0.00     0.049 A 
ATOM     59  H   UNL A   1      40.923  29.798  32.794  1.00  0.00     0.167 HD
ATOM     60  C   UNL A   1      42.771  27.779  32.092  1.00  0.00     0.074 A 
ATOM     61  C   UNL A   1      43.511  26.811  31.309  1.00  0.00     0.031 C 
ATOM     62  C   UNL A   1      42.998  28.029  33.405  1.00  0.00     0.037 A 
BRANCH  49  63
ATOM     63  C   UNL A   1      39.318  32.392  35.777  1.00  0.00     0.057 A 
ATOM     64  C   UNL A   1      39.872  33.666  35.964  1.00  0.00     0.134 A 
ATOM     65  C   UNL A   1      38.401  31.942  36.738  1.00  0.00     0.134 A 
ATOM     66  F   UNL A   1      40.765  34.156  35.093  1.00  0.00    -0.206 F 
ATOM     67  C   UNL A   1      39.514  34.463  37.054  1.00  0.00     0.040 A 
ATOM     68  C   UNL A   1      38.013  32.742  37.813  1.00  0.00     0.040 A 
ATOM     69  F   UNL A   1      37.827  30.735  36.614  1.00  0.00    -0.206 F 
ATOM     70  C   UNL A   1      38.573  34.007  37.974  1.00  0.00     0.006 A 
ENDBRANCH  49  63
BRANCH  50  71
ATOM     71  C   UNL A   1      41.629  27.231  27.573  1.00  0.00     0.057 A 
ATOM     72  C   UNL A   1      41.065  25.973  27.344  1.00  0.00     0.134 A 
ATOM     73  C   UNL A   1      42.522  27.725  26.612  1.00  0.00     0.134 A 
ATOM     74  F   UNL A   1      40.209  25.443  28.230  1.00  0.00    -0.206 F 
ATOM     75  C   UNL A   1      41.379  25.230  26.204  1.00  0.00     0.040 A 
ATOM     76  C   UNL A   1      42.826  27.003  25.458  1.00  0.00     0.040 A 
ATOM     77  F   UNL A   1      43.082  28.932  26.769  1.00  0.00    -0.206 F 
ATOM     78  C   UNL A   1      42.256  25.748  25.253  1.00  0.00     0.006 A 
ENDBRANCH  50  71
BRANCH  62  79
ATOM     79  C   UNL A   1      44.072  27.226  34.075  1.00  0.00     0.057 A 
ATOM     80  C   UNL A   1      45.395  27.680  34.096  1.00  0.00     0.134 A 
ATOM     81  C   UNL A   1      43.797  25.996  34.684  1.00  0.00     0.134 A 
ATOM     82  F   UNL A   1      45.725  28.849  33.525  1.00  0.00    -0.206 F 
ATOM     83  C   UNL A   1      46.410  26.939  34.703  1.00  0.00     0.040 A 
ATOM     84  C   UNL A   1      44.799  25.255  35.314  1.00  0.00     0.040 A 
ATOM     85  F   UNL A   1      42.545  25.513  34.709  1.00  0.00    -0.206 F 
ATOM     86  C   UNL A   1      46.112  25.726  35.320  1.00  0.00     0.006 A 
ENDBRANCH  62  79
ENDBRANCH  36  37
ENDBRANCH  29  31
ENDBRANCH  28  29
ENDBRANCH  27  28
ENDBRANCH   1  27
TORSDOF 15
ENDMDL
