MODEL 1
REMARK VINA RESULT:     -10.5      0.000      0.000
REMARK SMILES COC(=O)[C@H]1CCN(C(=O)N[C@H](C(=O)OCCOC(=O)c2ccc(-c3c4nc(c(-c5c(F)cccc5F)c5ccc([nH]5)c(-c5c(F)cccc5F)c5nc(c(-c6c(F)cccc6F)c6ccc3[nH]6)C=C5)C=C4)cc2)C2CC2)C1
REMARK SMILES IDX 16 1 15 2 13 3 14 4 12 5 11 6 9 7 10 8 8 10 5 11 6 12 78 13
REMARK SMILES IDX 7 14 3 15 4 16 2 17 1 18 75 19 76 20 77 21 17 22 18 23 19 24
REMARK SMILES IDX 20 25 21 26 22 27 74 28 23 29 73 30 24 31 25 32 26 33 67 34
REMARK SMILES IDX 27 35 72 36 66 37 68 38 28 39 71 40 65 41 64 42 29 44 55 45
REMARK SMILES IDX 38 46 54 47 39 48 42 49 53 50 69 51 40 52 41 53 52 55 70 56
REMARK SMILES IDX 43 57 30 58 31 59 36 60 32 61 33 62 35 63 37 64 34 65 56 66
REMARK SMILES IDX 57 67 62 68 58 69 59 70 61 71 63 72 60 73 44 74 45 75 50 76
REMARK SMILES IDX 46 77 47 78 49 79 51 80 48 81
REMARK H PARENT 11 9 68 43 42 54
REMARK Flexibility Score: inf
ROOT
ATOM      1  C   UNL A   1      37.656  21.152  25.058  1.00  0.00     0.274 C 
ENDROOT
BRANCH   1   2
ATOM      2  O   UNL A   1      36.462  21.623  25.713  1.00  0.00    -0.461 OA
BRANCH   2   3
ATOM      3  C   UNL A   1      35.308  21.335  25.068  1.00  0.00     0.329 C 
ATOM      4  O   UNL A   1      34.951  20.200  24.752  1.00  0.00    -0.250 OA
BRANCH   3   5
ATOM      5  C   UNL A   1      34.355  22.545  24.982  1.00  0.00     0.197 C 
BRANCH   5   6
ATOM      6  N   UNL A   1      34.148  23.303  23.700  1.00  0.00    -0.324 N 
ATOM      7  C   UNL A   1      33.707  24.560  23.301  1.00  0.00     0.318 C 
ATOM      8  O   UNL A   1      33.798  24.841  22.106  1.00  0.00    -0.249 OA
ATOM      9  H   UNL A   1      34.396  22.753  22.922  1.00  0.00     0.166 HD
BRANCH   7  10
ATOM     10  N   UNL A   1      33.161  25.437  24.202  1.00  0.00    -0.324 N 
ATOM     11  C   UNL A   1      32.541  26.809  26.157  1.00  0.00     0.120 C 
ATOM     12  C   UNL A   1      31.552  26.781  25.057  1.00  0.00     0.039 C 
ATOM     13  C   UNL A   1      33.771  26.231  25.368  1.00  0.00     0.136 C 
ATOM     14  C   UNL A   1      31.784  25.634  24.197  1.00  0.00     0.122 C 
BRANCH  11  15
ATOM     15  C   UNL A   1      32.389  28.014  27.215  1.00  0.00     0.310 C 
ATOM     16  O   UNL A   1      31.463  27.935  28.031  1.00  0.00    -0.252 OA
BRANCH  15  17
ATOM     17  O   UNL A   1      33.220  29.230  27.235  1.00  0.00    -0.469 OA
ATOM     18  C   UNL A   1      34.870  30.473  27.628  1.00  0.00     0.282 C 
ENDBRANCH  15  17
ENDBRANCH  11  15
ENDBRANCH   7  10
ENDBRANCH   5   6
BRANCH   5  19
ATOM     19  C   UNL A   1      33.092  22.290  25.787  1.00  0.00     0.023 C 
ATOM     20  C   UNL A   1      33.025  21.751  27.193  1.00  0.00     0.007 C 
ATOM     21  C   UNL A   1      32.733  23.202  26.936  1.00  0.00     0.007 C 
ENDBRANCH   5  19
ENDBRANCH   3   5
ENDBRANCH   2   3
ENDBRANCH   1   2
BRANCH   1  22
ATOM     22  C   UNL A   1      38.877  21.625  25.846  1.00  0.00     0.275 C 
BRANCH  22  23
ATOM     23  O   UNL A   1      38.724  23.022  26.213  1.00  0.00    -0.458 OA
BRANCH  23  24
ATOM     24  C   UNL A   1      39.822  23.583  26.769  1.00  0.00     0.338 C 
ATOM     25  O   UNL A   1      40.921  23.056  26.877  1.00  0.00    -0.246 OA
BRANCH  24  26
ATOM     26  C   UNL A   1      39.643  25.004  27.169  1.00  0.00     0.060 A 
ATOM     27  C   UNL A   1      40.516  25.978  26.673  1.00  0.00     0.016 A 
ATOM     28  C   UNL A   1      38.937  25.248  28.358  1.00  0.00     0.016 A 
ATOM     29  C   UNL A   1      40.832  27.083  27.483  1.00  0.00     0.010 A 
ATOM     30  C   UNL A   1      39.181  26.402  29.121  1.00  0.00     0.010 A 
ATOM     31  C   UNL A   1      40.205  27.289  28.744  1.00  0.00    -0.014 A 
BRANCH  31  32
ATOM     32  C   UNL A   1      40.718  28.332  29.729  1.00  0.00     0.031 A 
ATOM     33  C   UNL A   1      41.723  28.066  30.906  1.00  0.00     0.074 A 
ATOM     34  C   UNL A   1      39.937  29.431  29.712  1.00  0.00     0.049 A 
ATOM     35  N   UNL A   1      41.216  28.099  32.485  1.00  0.00    -0.248 NA
ATOM     36  C   UNL A   1      43.765  27.803  30.922  1.00  0.00     0.031 C 
ATOM     37  C   UNL A   1      39.011  29.733  28.610  1.00  0.00     0.029 A 
ATOM     38  N   UNL A   1      39.717  30.441  30.617  1.00  0.00    -0.354 N 
ATOM     39  C   UNL A   1      42.634  27.855  33.620  1.00  0.00     0.074 A 
ATOM     40  C   UNL A   1      44.203  27.589  32.506  1.00  0.00     0.031 C 
ATOM     41  C   UNL A   1      38.291  30.811  28.910  1.00  0.00     0.029 A 
ATOM     42  C   UNL A   1      38.638  31.227  30.253  1.00  0.00     0.049 A 
ATOM     43  H   UNL A   1      40.260  30.588  31.424  1.00  0.00     0.167 HD
ATOM     44  C   UNL A   1      42.849  28.421  34.856  1.00  0.00     0.037 A 
ATOM     45  C   UNL A   1      37.915  32.136  30.925  1.00  0.00     0.037 A 
ATOM     46  C   UNL A   1      42.172  29.587  35.420  1.00  0.00     0.049 A 
ATOM     47  C   UNL A   1      38.308  32.494  32.314  1.00  0.00     0.074 A 
ATOM     48  C   UNL A   1      42.559  30.272  36.567  1.00  0.00     0.029 A 
ATOM     49  N   UNL A   1      41.128  30.339  34.869  1.00  0.00    -0.354 N 
ATOM     50  N   UNL A   1      39.210  31.942  33.087  1.00  0.00    -0.248 NA
ATOM     51  C   UNL A   1      37.601  33.635  32.899  1.00  0.00     0.031 C 
ATOM     52  C   UNL A   1      41.802  31.440  36.686  1.00  0.00     0.029 A 
ATOM     53  C   UNL A   1      40.918  31.501  35.624  1.00  0.00     0.049 A 
ATOM     54  H   UNL A   1      40.615  30.089  34.067  1.00  0.00     0.167 HD
ATOM     55  C   UNL A   1      39.207  32.697  34.250  1.00  0.00     0.074 A 
ATOM     56  C   UNL A   1      38.226  33.753  34.058  1.00  0.00     0.031 C 
ATOM     57  C   UNL A   1      39.943  32.544  35.377  1.00  0.00     0.037 A 
BRANCH  44  58
ATOM     58  C   UNL A   1      44.023  27.878  35.628  1.00  0.00     0.057 A 
ATOM     59  C   UNL A   1      45.293  28.467  35.639  1.00  0.00     0.134 A 
ATOM     60  C   UNL A   1      43.830  26.788  36.489  1.00  0.00     0.134 A 
ATOM     61  F   UNL A   1      45.525  29.607  34.971  1.00  0.00    -0.206 F 
ATOM     62  C   UNL A   1      46.363  27.902  36.338  1.00  0.00     0.040 A 
ATOM     63  C   UNL A   1      44.876  26.250  37.246  1.00  0.00     0.040 A 
ATOM     64  F   UNL A   1      42.607  26.259  36.652  1.00  0.00    -0.206 F 
ATOM     65  C   UNL A   1      46.157  26.783  37.140  1.00  0.00     0.006 A 
ENDBRANCH  44  58
BRANCH  45  66
ATOM     66  C   UNL A   1      36.757  32.771  30.245  1.00  0.00     0.057 A 
ATOM     67  C   UNL A   1      35.448  32.445  30.610  1.00  0.00     0.134 A 
ATOM     68  C   UNL A   1      36.933  33.799  29.307  1.00  0.00     0.134 A 
ATOM     69  F   UNL A   1      35.222  31.477  31.510  1.00  0.00    -0.206 F 
ATOM     70  C   UNL A   1      34.351  33.105  30.057  1.00  0.00     0.040 A 
ATOM     71  C   UNL A   1      35.846  34.490  28.770  1.00  0.00     0.040 A 
ATOM     72  F   UNL A   1      38.166  34.188  28.953  1.00  0.00    -0.206 F 
ATOM     73  C   UNL A   1      34.549  34.139  29.142  1.00  0.00     0.006 A 
ENDBRANCH  45  66
BRANCH  57  74
ATOM     74  C   UNL A   1      39.736  33.610  36.426  1.00  0.00     0.057 A 
ATOM     75  C   UNL A   1      40.419  34.834  36.375  1.00  0.00     0.134 A 
ATOM     76  C   UNL A   1      38.894  33.391  37.525  1.00  0.00     0.134 A 
ATOM     77  F   UNL A   1      41.284  35.085  35.380  1.00  0.00    -0.206 F 
ATOM     78  C   UNL A   1      40.287  35.790  37.385  1.00  0.00     0.040 A 
ATOM     79  C   UNL A   1      38.728  34.354  38.525  1.00  0.00     0.040 A 
ATOM     80  F   UNL A   1      38.225  32.236  37.651  1.00  0.00    -0.206 F 
ATOM     81  C   UNL A   1      39.432  35.554  38.459  1.00  0.00     0.006 A 
ENDBRANCH  57  74
ENDBRANCH  31  32
ENDBRANCH  24  26
ENDBRANCH  23  24
ENDBRANCH  22  23
ENDBRANCH   1  22
TORSDOF 16
ENDMDL
MODEL 2
REMARK VINA RESULT:     -10.5      4.946      9.977
REMARK SMILES COC(=O)[C@H]1CCN(C(=O)N[C@H](C(=O)OCCOC(=O)c2ccc(-c3c4nc(c(-c5c(F)cccc5F)c5ccc([nH]5)c(-c5c(F)cccc5F)c5nc(c(-c6c(F)cccc6F)c6ccc3[nH]6)C=C5)C=C4)cc2)C2CC2)C1
REMARK SMILES IDX 16 1 15 2 13 3 14 4 12 5 11 6 9 7 10 8 8 10 5 11 6 12 78 13
REMARK SMILES IDX 7 14 3 15 4 16 2 17 1 18 75 19 76 20 77 21 17 22 18 23 19 24
REMARK SMILES IDX 20 25 21 26 22 27 74 28 23 29 73 30 24 31 25 32 26 33 67 34
REMARK SMILES IDX 27 35 72 36 66 37 68 38 28 39 71 40 65 41 64 42 29 44 55 45
REMARK SMILES IDX 38 46 54 47 39 48 42 49 53 50 69 51 40 52 41 53 52 55 70 56
REMARK SMILES IDX 43 57 30 58 31 59 36 60 32 61 33 62 35 63 37 64 34 65 56 66
REMARK SMILES IDX 57 67 62 68 58 69 59 70 61 71 63 72 60 73 44 74 45 75 50 76
REMARK SMILES IDX 46 77 47 78 49 79 51 80 48 81
REMARK H PARENT 11 9 68 43 42 54
REMARK Flexibility Score: inf
ROOT
ATOM      1  C   UNL A   1      32.199  30.339  26.807  1.00  0.00     0.274 C 
ENDROOT
BRANCH   1   2
ATOM      2  O   UNL A   1      32.596  28.969  26.607  1.00  0.00    -0.461 OA
BRANCH   2   3
ATOM      3  C   UNL A   1      31.750  28.050  27.128  1.00  0.00     0.329 C 
ATOM      4  O   UNL A   1      31.045  28.236  28.120  1.00  0.00    -0.250 OA
BRANCH   3   5
ATOM      5  C   UNL A   1      31.564  26.824  26.211  1.00  0.00     0.197 C 
BRANCH   5   6
ATOM      6  N   UNL A   1      31.239  25.463  26.763  1.00  0.00    -0.324 N 
ATOM      7  C   UNL A   1      31.749  24.171  26.697  1.00  0.00     0.318 C 
ATOM      8  O   UNL A   1      31.232  23.317  27.417  1.00  0.00    -0.249 OA
ATOM      9  H   UNL A   1      30.437  25.496  27.333  1.00  0.00     0.166 HD
BRANCH   7  10
ATOM     10  N   UNL A   1      32.769  23.856  25.836  1.00  0.00    -0.324 N 
ATOM     11  C   UNL A   1      34.872  23.660  24.561  1.00  0.00     0.120 C 
ATOM     12  C   UNL A   1      33.682  23.054  23.926  1.00  0.00     0.039 C 
ATOM     13  C   UNL A   1      34.295  23.821  26.014  1.00  0.00     0.136 C 
ATOM     14  C   UNL A   1      32.467  23.600  24.502  1.00  0.00     0.122 C 
BRANCH  11  15
ATOM     15  C   UNL A   1      36.301  23.172  24.000  1.00  0.00     0.310 C 
ATOM     16  O   UNL A   1      36.386  22.954  22.786  1.00  0.00    -0.252 OA
BRANCH  15  17
ATOM     17  O   UNL A   1      37.486  22.897  24.832  1.00  0.00    -0.469 OA
ATOM     18  C   UNL A   1      38.884  23.114  26.388  1.00  0.00     0.282 C 
ENDBRANCH  15  17
ENDBRANCH  11  15
ENDBRANCH   7  10
ENDBRANCH   5   6
BRANCH   5  19
ATOM     19  C   UNL A   1      30.801  27.205  24.955  1.00  0.00     0.023 C 
ATOM     20  C   UNL A   1      31.124  28.349  24.028  1.00  0.00     0.007 C 
ATOM     21  C   UNL A   1      31.402  26.936  23.596  1.00  0.00     0.007 C 
ENDBRANCH   5  19
ENDBRANCH   3   5
ENDBRANCH   2   3
ENDBRANCH   1   2
BRANCH   1  22
ATOM     22  C   UNL A   1      33.419  31.155  27.232  1.00  0.00     0.275 C 
BRANCH  22  23
ATOM     23  O   UNL A   1      34.360  30.312  27.947  1.00  0.00    -0.458 OA
BRANCH  23  24
ATOM     24  C   UNL A   1      35.603  30.830  28.069  1.00  0.00     0.338 C 
ATOM     25  O   UNL A   1      35.880  32.018  28.168  1.00  0.00    -0.246 OA
BRANCH  24  26
ATOM     26  C   UNL A   1      36.678  29.810  28.196  1.00  0.00     0.060 A 
ATOM     27  C   UNL A   1      37.013  29.310  29.459  1.00  0.00     0.016 A 
ATOM     28  C   UNL A   1      37.614  29.737  27.152  1.00  0.00     0.016 A 
ATOM     29  C   UNL A   1      38.346  28.946  29.714  1.00  0.00     0.010 A 
ATOM     30  C   UNL A   1      38.922  29.280  27.384  1.00  0.00     0.010 A 
ATOM     31  C   UNL A   1      39.336  28.971  28.692  1.00  0.00    -0.014 A 
BRANCH  31  32
ATOM     32  C   UNL A   1      40.819  28.823  29.013  1.00  0.00     0.031 A 
ATOM     33  C   UNL A   1      41.851  29.999  29.139  1.00  0.00     0.074 A 
ATOM     34  C   UNL A   1      41.226  27.554  28.816  1.00  0.00     0.049 A 
ATOM     35  N   UNL A   1      43.022  30.235  27.987  1.00  0.00    -0.248 NA
ATOM     36  C   UNL A   1      42.192  31.358  30.648  1.00  0.00     0.031 C 
ATOM     37  C   UNL A   1      40.292  26.421  28.728  1.00  0.00     0.029 A 
ATOM     38  N   UNL A   1      42.457  26.988  28.583  1.00  0.00    -0.354 N 
ATOM     39  C   UNL A   1      44.128  31.614  28.468  1.00  0.00     0.074 A 
ATOM     40  C   UNL A   1      43.450  32.316  30.149  1.00  0.00     0.031 C 
ATOM     41  C   UNL A   1      40.957  25.311  28.419  1.00  0.00     0.029 A 
ATOM     42  C   UNL A   1      42.345  25.663  28.200  1.00  0.00     0.049 A 
ATOM     43  H   UNL A   1      43.312  27.465  28.677  1.00  0.00     0.167 HD
ATOM     44  C   UNL A   1      45.481  31.742  28.254  1.00  0.00     0.037 A 
ATOM     45  C   UNL A   1      43.217  24.806  27.644  1.00  0.00     0.037 A 
ATOM     46  C   UNL A   1      46.417  30.681  27.883  1.00  0.00     0.049 A 
ATOM     47  C   UNL A   1      44.620  25.243  27.419  1.00  0.00     0.074 A 
ATOM     48  C   UNL A   1      47.804  30.787  27.892  1.00  0.00     0.029 A 
ATOM     49  N   UNL A   1      46.145  29.337  27.606  1.00  0.00    -0.354 N 
ATOM     50  N   UNL A   1      45.148  26.435  27.551  1.00  0.00    -0.248 NA
ATOM     51  C   UNL A   1      45.552  24.192  27.004  1.00  0.00     0.031 C 
ATOM     52  C   UNL A   1      48.365  29.526  27.674  1.00  0.00     0.029 A 
ATOM     53  C   UNL A   1      47.341  28.611  27.510  1.00  0.00     0.049 A 
ATOM     54  H   UNL A   1      45.245  28.956  27.493  1.00  0.00     0.167 HD
ATOM     55  C   UNL A   1      46.495  26.272  27.269  1.00  0.00     0.074 A 
ATOM     56  C   UNL A   1      46.693  24.860  26.982  1.00  0.00     0.031 C 
ATOM     57  C   UNL A   1      47.488  27.194  27.250  1.00  0.00     0.037 A 
BRANCH  44  58
ATOM     58  C   UNL A   1      46.076  33.080  28.606  1.00  0.00     0.057 A 
ATOM     59  C   UNL A   1      46.675  33.372  29.837  1.00  0.00     0.134 A 
ATOM     60  C   UNL A   1      46.154  34.074  27.619  1.00  0.00     0.134 A 
ATOM     61  F   UNL A   1      46.788  32.428  30.784  1.00  0.00    -0.206 F 
ATOM     62  C   UNL A   1      47.175  34.643  30.132  1.00  0.00     0.040 A 
ATOM     63  C   UNL A   1      46.712  35.330  27.878  1.00  0.00     0.040 A 
ATOM     64  F   UNL A   1      45.740  33.823  26.367  1.00  0.00    -0.206 F 
ATOM     65  C   UNL A   1      47.187  35.630  29.152  1.00  0.00     0.006 A 
ENDBRANCH  44  58
BRANCH  45  66
ATOM     66  C   UNL A   1      42.750  23.439  27.296  1.00  0.00     0.057 A 
ATOM     67  C   UNL A   1      42.569  23.066  25.960  1.00  0.00     0.134 A 
ATOM     68  C   UNL A   1      42.593  22.448  28.274  1.00  0.00     0.134 A 
ATOM     69  F   UNL A   1      42.718  23.972  24.982  1.00  0.00    -0.206 F 
ATOM     70  C   UNL A   1      42.234  21.759  25.608  1.00  0.00     0.040 A 
ATOM     71  C   UNL A   1      42.289  21.129  27.934  1.00  0.00     0.040 A 
ATOM     72  F   UNL A   1      42.799  22.735  29.568  1.00  0.00    -0.206 F 
ATOM     73  C   UNL A   1      42.103  20.783  26.597  1.00  0.00     0.006 A 
ENDBRANCH  45  66
BRANCH  57  74
ATOM     74  C   UNL A   1      48.868  26.644  26.979  1.00  0.00     0.057 A 
ATOM     75  C   UNL A   1      49.399  26.601  25.682  1.00  0.00     0.134 A 
ATOM     76  C   UNL A   1      49.648  26.102  28.010  1.00  0.00     0.134 A 
ATOM     77  F   UNL A   1      48.682  27.050  24.641  1.00  0.00    -0.206 F 
ATOM     78  C   UNL A   1      50.645  26.023  25.419  1.00  0.00     0.040 A 
ATOM     79  C   UNL A   1      50.909  25.552  27.764  1.00  0.00     0.040 A 
ATOM     80  F   UNL A   1      49.194  26.091  29.273  1.00  0.00    -0.206 F 
ATOM     81  C   UNL A   1      51.407  25.505  26.464  1.00  0.00     0.006 A 
ENDBRANCH  57  74
ENDBRANCH  31  32
ENDBRANCH  24  26
ENDBRANCH  23  24
ENDBRANCH  22  23
ENDBRANCH   1  22
TORSDOF 16
ENDMDL
MODEL 3
REMARK VINA RESULT:     -10.5      1.730      4.037
REMARK SMILES COC(=O)[C@H]1CCN(C(=O)N[C@H](C(=O)OCCOC(=O)c2ccc(-c3c4nc(c(-c5c(F)cccc5F)c5ccc([nH]5)c(-c5c(F)cccc5F)c5nc(c(-c6c(F)cccc6F)c6ccc3[nH]6)C=C5)C=C4)cc2)C2CC2)C1
REMARK SMILES IDX 16 1 15 2 13 3 14 4 12 5 11 6 9 7 10 8 8 10 5 11 6 12 78 13
REMARK SMILES IDX 7 14 3 15 4 16 2 17 1 18 75 19 76 20 77 21 17 22 18 23 19 24
REMARK SMILES IDX 20 25 21 26 22 27 74 28 23 29 73 30 24 31 25 32 26 33 67 34
REMARK SMILES IDX 27 35 72 36 66 37 68 38 28 39 71 40 65 41 64 42 29 44 55 45
REMARK SMILES IDX 38 46 54 47 39 48 42 49 53 50 69 51 40 52 41 53 52 55 70 56
REMARK SMILES IDX 43 57 30 58 31 59 36 60 32 61 33 62 35 63 37 64 34 65 56 66
REMARK SMILES IDX 57 67 62 68 58 69 59 70 61 71 63 72 60 73 44 74 45 75 50 76
REMARK SMILES IDX 46 77 47 78 49 79 51 80 48 81
REMARK H PARENT 11 9 68 43 42 54
REMARK Flexibility Score: inf
ROOT
ATOM      1  C   UNL A   1      37.790  21.328  25.014  1.00  0.00     0.274 C 
ENDROOT
BRANCH   1   2
ATOM      2  O   UNL A   1      36.811  22.382  24.922  1.00  0.00    -0.461 OA
BRANCH   2   3
ATOM      3  C   UNL A   1      35.594  22.073  25.427  1.00  0.00     0.329 C 
ATOM      4  O   UNL A   1      35.412  21.431  26.462  1.00  0.00    -0.250 OA
BRANCH   3   5
ATOM      5  C   UNL A   1      34.447  22.817  24.715  1.00  0.00     0.197 C 
BRANCH   5   6
ATOM      6  N   UNL A   1      33.005  22.585  25.077  1.00  0.00    -0.324 N 
ATOM      7  C   UNL A   1      32.094  21.535  25.073  1.00  0.00     0.318 C 
ATOM      8  O   UNL A   1      30.989  21.738  25.576  1.00  0.00    -0.249 OA
ATOM      9  H   UNL A   1      32.588  23.412  25.411  1.00  0.00     0.166 HD
BRANCH   7  10
ATOM     10  N   UNL A   1      32.406  20.328  24.501  1.00  0.00    -0.324 N 
ATOM     11  C   UNL A   1      33.391  18.178  23.797  1.00  0.00     0.120 C 
ATOM     12  C   UNL A   1      32.357  18.733  22.896  1.00  0.00     0.039 C 
ATOM     13  C   UNL A   1      33.094  19.071  25.056  1.00  0.00     0.136 C 
ATOM     14  C   UNL A   1      32.183  20.153  23.139  1.00  0.00     0.122 C 
BRANCH  11  15
ATOM     15  C   UNL A   1      33.718  16.611  23.620  1.00  0.00     0.310 C 
ATOM     16  O   UNL A   1      34.357  16.277  22.615  1.00  0.00    -0.252 OA
BRANCH  15  17
ATOM     17  O   UNL A   1      33.252  15.544  24.522  1.00  0.00    -0.469 OA
ATOM     18  C   UNL A   1      32.239  14.632  26.125  1.00  0.00     0.282 C 
ENDBRANCH  15  17
ENDBRANCH  11  15
ENDBRANCH   7  10
ENDBRANCH   5   6
BRANCH   5  19
ATOM     19  C   UNL A   1      34.820  24.268  24.470  1.00  0.00     0.023 C 
ATOM     20  C   UNL A   1      33.882  25.372  24.054  1.00  0.00     0.007 C 
ATOM     21  C   UNL A   1      34.409  25.331  25.461  1.00  0.00     0.007 C 
ENDBRANCH   5  19
ENDBRANCH   3   5
ENDBRANCH   2   3
ENDBRANCH   1   2
BRANCH   1  22
ATOM     22  C   UNL A   1      38.918  21.775  25.942  1.00  0.00     0.275 C 
BRANCH  22  23
ATOM     23  O   UNL A   1      38.828  23.204  26.187  1.00  0.00    -0.458 OA
BRANCH  23  24
ATOM     24  C   UNL A   1      39.810  23.706  26.969  1.00  0.00     0.338 C 
ATOM     25  O   UNL A   1      40.843  23.131  27.284  1.00  0.00    -0.246 OA
BRANCH  24  26
ATOM     26  C   UNL A   1      39.608  25.127  27.362  1.00  0.00     0.060 A 
ATOM     27  C   UNL A   1      40.437  26.117  26.826  1.00  0.00     0.016 A 
ATOM     28  C   UNL A   1      38.939  25.363  28.574  1.00  0.00     0.016 A 
ATOM     29  C   UNL A   1      40.753  27.238  27.614  1.00  0.00     0.010 A 
ATOM     30  C   UNL A   1      39.180  26.531  29.317  1.00  0.00     0.010 A 
ATOM     31  C   UNL A   1      40.167  27.440  28.896  1.00  0.00    -0.014 A 
BRANCH  31  32
ATOM     32  C   UNL A   1      40.687  28.506  29.852  1.00  0.00     0.031 A 
ATOM     33  C   UNL A   1      41.712  28.270  31.018  1.00  0.00     0.074 A 
ATOM     34  C   UNL A   1      39.900  29.599  29.825  1.00  0.00     0.049 A 
ATOM     35  N   UNL A   1      41.228  28.331  32.604  1.00  0.00    -0.248 NA
ATOM     36  C   UNL A   1      43.755  28.020  31.009  1.00  0.00     0.031 C 
ATOM     37  C   UNL A   1      38.954  29.874  28.732  1.00  0.00     0.029 A 
ATOM     38  N   UNL A   1      39.686  30.626  30.713  1.00  0.00    -0.354 N 
ATOM     39  C   UNL A   1      42.664  28.119  33.723  1.00  0.00     0.074 A 
ATOM     40  C   UNL A   1      44.219  27.840  32.591  1.00  0.00     0.031 C 
ATOM     41  C   UNL A   1      38.233  30.953  29.020  1.00  0.00     0.029 A 
ATOM     42  C   UNL A   1      38.597  31.398  30.350  1.00  0.00     0.049 A 
ATOM     43  H   UNL A   1      40.240  30.792  31.509  1.00  0.00     0.167 HD
ATOM     44  C   UNL A   1      42.894  28.710  34.944  1.00  0.00     0.037 A 
ATOM     45  C   UNL A   1      37.877  32.315  31.015  1.00  0.00     0.037 A 
ATOM     46  C   UNL A   1      42.218  29.883  35.494  1.00  0.00     0.049 A 
ATOM     47  C   UNL A   1      38.290  32.704  32.390  1.00  0.00     0.074 A 
ATOM     48  C   UNL A   1      42.617  30.593  36.622  1.00  0.00     0.029 A 
ATOM     49  N   UNL A   1      41.161  30.618  34.944  1.00  0.00    -0.354 N 
ATOM     50  N   UNL A   1      39.206  32.173  33.161  1.00  0.00    -0.248 NA
ATOM     51  C   UNL A   1      37.583  33.851  32.963  1.00  0.00     0.031 C 
ATOM     52  C   UNL A   1      41.855  31.758  36.729  1.00  0.00     0.029 A 
ATOM     53  C   UNL A   1      40.954  31.793  35.680  1.00  0.00     0.049 A 
ATOM     54  H   UNL A   1      40.637  30.348  34.155  1.00  0.00     0.167 HD
ATOM     55  C   UNL A   1      39.215  32.950  34.308  1.00  0.00     0.074 A 
ATOM     56  C   UNL A   1      38.225  33.996  34.110  1.00  0.00     0.031 C 
ATOM     57  C   UNL A   1      39.969  32.825  35.426  1.00  0.00     0.037 A 
BRANCH  44  58
ATOM     58  C   UNL A   1      44.083  28.190  35.708  1.00  0.00     0.057 A 
ATOM     59  C   UNL A   1      44.089  26.987  36.424  1.00  0.00     0.134 A 
ATOM     60  C   UNL A   1      45.305  28.872  35.618  1.00  0.00     0.134 A 
ATOM     61  F   UNL A   1      43.011  26.188  36.431  1.00  0.00    -0.206 F 
ATOM     62  C   UNL A   1      45.205  26.567  37.153  1.00  0.00     0.040 A 
ATOM     63  C   UNL A   1      46.449  28.429  36.289  1.00  0.00     0.040 A 
ATOM     64  F   UNL A   1      45.424  29.952  34.829  1.00  0.00    -0.206 F 
ATOM     65  C   UNL A   1      46.389  27.295  37.093  1.00  0.00     0.006 A 
ENDBRANCH  44  58
BRANCH  45  66
ATOM     66  C   UNL A   1      36.706  32.930  30.339  1.00  0.00     0.057 A 
ATOM     67  C   UNL A   1      36.881  33.914  29.362  1.00  0.00     0.134 A 
ATOM     68  C   UNL A   1      35.403  32.465  30.566  1.00  0.00     0.134 A 
ATOM     69  F   UNL A   1      38.108  34.388  29.096  1.00  0.00    -0.206 F 
ATOM     70  C   UNL A   1      35.802  34.428  28.643  1.00  0.00     0.040 A 
ATOM     71  C   UNL A   1      34.318  32.947  29.832  1.00  0.00     0.040 A 
ATOM     72  F   UNL A   1      35.178  31.489  31.458  1.00  0.00    -0.206 F 
ATOM     73  C   UNL A   1      34.517  33.936  28.870  1.00  0.00     0.006 A 
ENDBRANCH  45  66
BRANCH  57  74
ATOM     74  C   UNL A   1      39.771  33.910  36.458  1.00  0.00     0.057 A 
ATOM     75  C   UNL A   1      40.431  35.143  36.362  1.00  0.00     0.134 A 
ATOM     76  C   UNL A   1      38.961  33.702  37.583  1.00  0.00     0.134 A 
ATOM     77  F   UNL A   1      41.266  35.387  35.339  1.00  0.00    -0.206 F 
ATOM     78  C   UNL A   1      40.309  36.119  37.354  1.00  0.00     0.040 A 
ATOM     79  C   UNL A   1      38.805  34.683  38.565  1.00  0.00     0.040 A 
ATOM     80  F   UNL A   1      38.315  32.538  37.751  1.00  0.00    -0.206 F 
ATOM     81  C   UNL A   1      39.486  35.893  38.455  1.00  0.00     0.006 A 
ENDBRANCH  57  74
ENDBRANCH  31  32
ENDBRANCH  24  26
ENDBRANCH  23  24
ENDBRANCH  22  23
ENDBRANCH   1  22
TORSDOF 16
ENDMDL
