MODEL 1
REMARK VINA RESULT:     -11.4      0.000      0.000
REMARK SMILES C[C@@H](C(=O)OCCOC(=O)c1ccc(-c2c3nc(c(-c4c(F)cccc4F)c4ccc([nH]4)c(-c4c(F)cccc4F)c4nc(c(-c5c(F)cccc5F)c5ccc2[nH]5)C=C4)C=C3)cc1)c1ccc(C(=O)c2cccs2)cc1
REMARK SMILES IDX 6 1 5 2 3 3 4 4 2 5 1 6 65 7 66 8 77 9 67 10 76 11 68 12
REMARK SMILES IDX 69 13 70 14 71 15 72 16 75 17 73 18 74 19 7 20 8 21 9 22
REMARK SMILES IDX 10 23 11 24 12 25 64 26 13 27 63 28 14 29 15 30 16 31 57 32
REMARK SMILES IDX 17 33 62 34 56 35 58 36 18 37 61 38 55 39 54 40 19 42 45 43
REMARK SMILES IDX 28 44 44 45 29 46 32 47 43 48 59 49 30 50 31 51 42 53 60 54
REMARK SMILES IDX 33 55 20 56 21 57 26 58 22 59 23 60 25 61 27 62 24 63 46 64
REMARK SMILES IDX 47 65 52 66 48 67 49 68 51 69 53 70 50 71 34 72 35 73 40 74
REMARK SMILES IDX 36 75 37 76 39 77 41 78 38 79
REMARK H PARENT 58 41 32 52
REMARK Flexibility Score: inf
ROOT
ATOM      1  C   UNL A   1      42.378  21.243  26.157  1.00  0.00     0.274 C 
ENDROOT
BRANCH   1   2
ATOM      2  O   UNL A   1      41.104  21.634  25.607  1.00  0.00    -0.462 OA
BRANCH   2   3
ATOM      3  C   UNL A   1      40.093  21.845  26.495  1.00  0.00     0.313 C 
ATOM      4  O   UNL A   1      40.050  21.344  27.613  1.00  0.00    -0.252 OA
BRANCH   3   5
ATOM      5  C   UNL A   1      38.973  22.719  25.909  1.00  0.00     0.126 C 
ATOM      6  C   UNL A   1      38.699  23.986  26.724  1.00  0.00     0.025 C 
BRANCH   5   7
ATOM      7  C   UNL A   1      37.710  21.902  25.639  1.00  0.00    -0.034 A 
ATOM      8  C   UNL A   1      36.459  22.513  25.792  1.00  0.00     0.005 A 
ATOM      9  C   UNL A   1      37.740  20.580  25.170  1.00  0.00     0.005 A 
ATOM     10  C   UNL A   1      35.281  21.825  25.484  1.00  0.00     0.012 A 
ATOM     11  C   UNL A   1      36.554  19.895  24.842  1.00  0.00     0.012 A 
ATOM     12  C   UNL A   1      35.306  20.506  25.001  1.00  0.00     0.023 A 
BRANCH  12  13
ATOM     13  C   UNL A   1      33.983  19.892  24.623  1.00  0.00     0.202 C 
ATOM     14  O   UNL A   1      33.070  20.688  24.389  1.00  0.00    -0.288 OA
BRANCH  13  15
ATOM     15  C   UNL A   1      33.790  18.452  24.503  1.00  0.00     0.075 A 
ATOM     16  C   UNL A   1      34.253  17.528  23.585  1.00  0.00     0.024 A 
ATOM     17  S   UNL A   1      32.897  17.671  25.754  1.00  0.00    -0.140 S 
ATOM     18  C   UNL A   1      33.835  16.197  23.886  1.00  0.00     0.012 A 
ATOM     19  C   UNL A   1      33.095  16.135  25.043  1.00  0.00     0.065 A 
ENDBRANCH  13  15
ENDBRANCH  12  13
ENDBRANCH   5   7
ENDBRANCH   3   5
ENDBRANCH   2   3
ENDBRANCH   1   2
BRANCH   1  20
ATOM     20  C   UNL A   1      43.505  22.083  25.563  1.00  0.00     0.275 C 
BRANCH  20  21
ATOM     21  O   UNL A   1      42.977  23.298  25.001  1.00  0.00    -0.458 OA
BRANCH  21  22
ATOM     22  C   UNL A   1      43.722  24.407  25.188  1.00  0.00     0.338 C 
ATOM     23  O   UNL A   1      44.785  24.696  24.655  1.00  0.00    -0.246 OA
BRANCH  22  24
ATOM     24  C   UNL A   1      43.050  25.298  26.140  1.00  0.00     0.060 A 
ATOM     25  C   UNL A   1      43.470  26.621  26.234  1.00  0.00     0.016 A 
ATOM     26  C   UNL A   1      42.111  24.791  27.039  1.00  0.00     0.016 A 
ATOM     27  C   UNL A   1      43.032  27.410  27.293  1.00  0.00     0.010 A 
ATOM     28  C   UNL A   1      41.604  25.618  28.051  1.00  0.00     0.010 A 
ATOM     29  C   UNL A   1      42.096  26.924  28.221  1.00  0.00    -0.014 A 
BRANCH  29  30
ATOM     30  C   UNL A   1      41.695  27.772  29.381  1.00  0.00     0.031 A 
ATOM     31  C   UNL A   1      40.490  28.678  29.294  1.00  0.00     0.074 A 
ATOM     32  C   UNL A   1      42.360  27.673  30.550  1.00  0.00     0.049 A 
ATOM     33  N   UNL A   1      40.033  29.537  30.173  1.00  0.00    -0.248 NA
ATOM     34  C   UNL A   1      39.697  28.619  28.056  1.00  0.00     0.031 C 
ATOM     35  C   UNL A   1      43.513  26.804  30.796  1.00  0.00     0.029 A 
ATOM     36  N   UNL A   1      42.133  28.269  31.765  1.00  0.00    -0.354 N 
ATOM     37  C   UNL A   1      38.920  30.129  29.589  1.00  0.00     0.074 A 
ATOM     38  C   UNL A   1      38.790  29.565  28.262  1.00  0.00     0.031 C 
ATOM     39  C   UNL A   1      43.835  26.858  32.098  1.00  0.00     0.029 A 
ATOM     40  C   UNL A   1      42.967  27.824  32.762  1.00  0.00     0.049 A 
ATOM     41  H   UNL A   1      41.438  28.953  31.908  1.00  0.00     0.167 HD
ATOM     42  C   UNL A   1      38.061  31.032  30.119  1.00  0.00     0.037 A 
ATOM     43  C   UNL A   1      43.040  28.162  34.063  1.00  0.00     0.037 A 
ATOM     44  C   UNL A   1      38.127  31.529  31.469  1.00  0.00     0.049 A 
ATOM     45  C   UNL A   1      42.117  29.214  34.604  1.00  0.00     0.074 A 
ATOM     46  C   UNL A   1      37.273  32.417  32.101  1.00  0.00     0.029 A 
ATOM     47  N   UNL A   1      39.083  31.161  32.401  1.00  0.00    -0.354 N 
ATOM     48  N   UNL A   1      41.134  29.839  34.004  1.00  0.00    -0.248 NA
ATOM     49  C   UNL A   1      42.338  29.633  35.996  1.00  0.00     0.031 C 
ATOM     50  C   UNL A   1      37.715  32.590  33.418  1.00  0.00     0.029 A 
ATOM     51  C   UNL A   1      38.830  31.792  33.609  1.00  0.00     0.049 A 
ATOM     52  H   UNL A   1      39.831  30.544  32.231  1.00  0.00     0.167 HD
ATOM     53  C   UNL A   1      40.625  30.727  34.940  1.00  0.00     0.074 A 
ATOM     54  C   UNL A   1      41.389  30.544  36.156  1.00  0.00     0.031 C 
ATOM     55  C   UNL A   1      39.617  31.622  34.801  1.00  0.00     0.037 A 
BRANCH  42  56
ATOM     56  C   UNL A   1      36.950  31.532  29.246  1.00  0.00     0.057 A 
ATOM     57  C   UNL A   1      35.832  30.743  28.951  1.00  0.00     0.134 A 
ATOM     58  C   UNL A   1      36.965  32.843  28.751  1.00  0.00     0.134 A 
ATOM     59  F   UNL A   1      35.758  29.477  29.389  1.00  0.00    -0.206 F 
ATOM     60  C   UNL A   1      34.774  31.233  28.184  1.00  0.00     0.040 A 
ATOM     61  C   UNL A   1      35.905  33.350  27.998  1.00  0.00     0.040 A 
ATOM     62  F   UNL A   1      38.003  33.654  29.006  1.00  0.00    -0.206 F 
ATOM     63  C   UNL A   1      34.805  32.543  27.712  1.00  0.00     0.006 A 
ENDBRANCH  42  56
BRANCH  43  64
ATOM     64  C   UNL A   1      44.050  27.520  34.939  1.00  0.00     0.057 A 
ATOM     65  C   UNL A   1      45.331  28.064  35.086  1.00  0.00     0.134 A 
ATOM     66  C   UNL A   1      43.762  26.348  35.649  1.00  0.00     0.134 A 
ATOM     67  F   UNL A   1      45.680  29.165  34.404  1.00  0.00    -0.206 F 
ATOM     68  C   UNL A   1      46.287  27.466  35.909  1.00  0.00     0.040 A 
ATOM     69  C   UNL A   1      44.699  25.754  36.494  1.00  0.00     0.040 A 
ATOM     70  F   UNL A   1      42.553  25.774  35.545  1.00  0.00    -0.206 F 
ATOM     71  C   UNL A   1      45.969  26.313  36.623  1.00  0.00     0.006 A 
ENDBRANCH  43  64
BRANCH  55  72
ATOM     72  C   UNL A   1      39.296  32.469  35.993  1.00  0.00     0.057 A 
ATOM     73  C   UNL A   1      39.892  33.723  36.175  1.00  0.00     0.134 A 
ATOM     74  C   UNL A   1      38.380  32.036  36.958  1.00  0.00     0.134 A 
ATOM     75  F   UNL A   1      40.790  34.183  35.291  1.00  0.00    -0.206 F 
ATOM     76  C   UNL A   1      39.599  34.511  37.288  1.00  0.00     0.040 A 
ATOM     77  C   UNL A   1      38.066  32.822  38.067  1.00  0.00     0.040 A 
ATOM     78  F   UNL A   1      37.773  30.845  36.836  1.00  0.00    -0.206 F 
ATOM     79  C   UNL A   1      38.680  34.062  38.236  1.00  0.00     0.006 A 
ENDBRANCH  55  72
ENDBRANCH  29  30
ENDBRANCH  22  24
ENDBRANCH  21  22
ENDBRANCH  20  21
ENDBRANCH   1  20
TORSDOF 14
ENDMDL
MODEL 2
REMARK VINA RESULT:     -11.1      1.718      2.037
REMARK SMILES C[C@@H](C(=O)OCCOC(=O)c1ccc(-c2c3nc(c(-c4c(F)cccc4F)c4ccc([nH]4)c(-c4c(F)cccc4F)c4nc(c(-c5c(F)cccc5F)c5ccc2[nH]5)C=C4)C=C3)cc1)c1ccc(C(=O)c2cccs2)cc1
REMARK SMILES IDX 6 1 5 2 3 3 4 4 2 5 1 6 65 7 66 8 77 9 67 10 76 11 68 12
REMARK SMILES IDX 69 13 70 14 71 15 72 16 75 17 73 18 74 19 7 20 8 21 9 22
REMARK SMILES IDX 10 23 11 24 12 25 64 26 13 27 63 28 14 29 15 30 16 31 57 32
REMARK SMILES IDX 17 33 62 34 56 35 58 36 18 37 61 38 55 39 54 40 19 42 45 43
REMARK SMILES IDX 28 44 44 45 29 46 32 47 43 48 59 49 30 50 31 51 42 53 60 54
REMARK SMILES IDX 33 55 20 56 21 57 26 58 22 59 23 60 25 61 27 62 24 63 46 64
REMARK SMILES IDX 47 65 52 66 48 67 49 68 51 69 53 70 50 71 34 72 35 73 40 74
REMARK SMILES IDX 36 75 37 76 39 77 41 78 38 79
REMARK H PARENT 58 41 32 52
REMARK Flexibility Score: inf
ROOT
ATOM      1  C   UNL A   1      43.942  21.492  25.544  1.00  0.00     0.274 C 
ENDROOT
BRANCH   1   2
ATOM      2  O   UNL A   1      42.571  21.167  25.240  1.00  0.00    -0.462 OA
BRANCH   2   3
ATOM      3  C   UNL A   1      41.765  20.862  26.295  1.00  0.00     0.313 C 
ATOM      4  O   UNL A   1      41.508  19.717  26.650  1.00  0.00    -0.252 OA
BRANCH   3   5
ATOM      5  C   UNL A   1      41.154  22.113  26.945  1.00  0.00     0.126 C 
ATOM      6  C   UNL A   1      41.201  22.091  28.475  1.00  0.00     0.025 C 
BRANCH   5   7
ATOM      7  C   UNL A   1      39.755  22.399  26.398  1.00  0.00    -0.034 A 
ATOM      8  C   UNL A   1      39.052  21.371  25.759  1.00  0.00     0.005 A 
ATOM      9  C   UNL A   1      39.105  23.630  26.568  1.00  0.00     0.005 A 
ATOM     10  C   UNL A   1      37.742  21.568  25.310  1.00  0.00     0.012 A 
ATOM     11  C   UNL A   1      37.780  23.821  26.134  1.00  0.00     0.012 A 
ATOM     12  C   UNL A   1      37.080  22.794  25.491  1.00  0.00     0.023 A 
BRANCH  12  13
ATOM     13  C   UNL A   1      35.644  22.868  25.043  1.00  0.00     0.202 C 
ATOM     14  O   UNL A   1      35.466  23.002  23.829  1.00  0.00    -0.288 OA
BRANCH  13  15
ATOM     15  C   UNL A   1      34.525  22.754  25.970  1.00  0.00     0.075 A 
ATOM     16  C   UNL A   1      34.468  22.539  27.334  1.00  0.00     0.024 A 
ATOM     17  S   UNL A   1      32.944  23.009  25.330  1.00  0.00    -0.140 S 
ATOM     18  C   UNL A   1      33.132  22.538  27.836  1.00  0.00     0.012 A 
ATOM     19  C   UNL A   1      32.208  22.787  26.850  1.00  0.00     0.065 A 
ENDBRANCH  13  15
ENDBRANCH  12  13
ENDBRANCH   5   7
ENDBRANCH   3   5
ENDBRANCH   2   3
ENDBRANCH   1   2
BRANCH   1  20
ATOM     20  C   UNL A   1      44.433  22.640  24.665  1.00  0.00     0.275 C 
BRANCH  20  21
ATOM     21  O   UNL A   1      43.616  23.807  24.868  1.00  0.00    -0.458 OA
BRANCH  21  22
ATOM     22  C   UNL A   1      44.279  24.953  25.126  1.00  0.00     0.338 C 
ATOM     23  O   UNL A   1      45.334  25.336  24.639  1.00  0.00    -0.246 OA
BRANCH  22  24
ATOM     24  C   UNL A   1      43.521  25.753  26.094  1.00  0.00     0.060 A 
ATOM     25  C   UNL A   1      43.829  27.102  26.238  1.00  0.00     0.016 A 
ATOM     26  C   UNL A   1      42.616  25.140  26.961  1.00  0.00     0.016 A 
ATOM     27  C   UNL A   1      43.312  27.816  27.315  1.00  0.00     0.010 A 
ATOM     28  C   UNL A   1      42.028  25.888  27.990  1.00  0.00     0.010 A 
ATOM     29  C   UNL A   1      42.407  27.224  28.210  1.00  0.00    -0.014 A 
BRANCH  29  30
ATOM     30  C   UNL A   1      41.920  27.996  29.391  1.00  0.00     0.031 A 
ATOM     31  C   UNL A   1      40.666  28.833  29.301  1.00  0.00     0.074 A 
ATOM     32  C   UNL A   1      42.555  27.887  30.576  1.00  0.00     0.049 A 
ATOM     33  N   UNL A   1      40.133  29.625  30.199  1.00  0.00    -0.248 NA
ATOM     34  C   UNL A   1      39.917  28.781  28.036  1.00  0.00     0.031 C 
ATOM     35  C   UNL A   1      43.749  27.078  30.824  1.00  0.00     0.029 A 
ATOM     36  N   UNL A   1      42.255  28.417  31.806  1.00  0.00    -0.354 N 
ATOM     37  C   UNL A   1      39.004  30.176  29.603  1.00  0.00     0.074 A 
ATOM     38  C   UNL A   1      38.949  29.663  28.251  1.00  0.00     0.031 C 
ATOM     39  C   UNL A   1      44.028  27.095  32.137  1.00  0.00     0.029 A 
ATOM     40  C   UNL A   1      43.084  27.979  32.811  1.00  0.00     0.049 A 
ATOM     41  H   UNL A   1      41.516  29.052  31.954  1.00  0.00     0.167 HD
ATOM     42  C   UNL A   1      38.077  31.004  30.141  1.00  0.00     0.037 A 
ATOM     43  C   UNL A   1      43.096  28.265  34.126  1.00  0.00     0.037 A 
ATOM     44  C   UNL A   1      38.072  31.445  31.511  1.00  0.00     0.049 A 
ATOM     45  C   UNL A   1      42.096  29.236  34.679  1.00  0.00     0.074 A 
ATOM     46  C   UNL A   1      37.148  32.255  32.151  1.00  0.00     0.029 A 
ATOM     47  N   UNL A   1      39.020  31.095  32.459  1.00  0.00    -0.354 N 
ATOM     48  N   UNL A   1      41.096  29.828  34.073  1.00  0.00    -0.248 NA
ATOM     49  C   UNL A   1      42.249  29.608  36.093  1.00  0.00     0.031 C 
ATOM     50  C   UNL A   1      37.538  32.396  33.487  1.00  0.00     0.029 A 
ATOM     51  C   UNL A   1      38.692  31.657  33.682  1.00  0.00     0.049 A 
ATOM     52  H   UNL A   1      39.808  30.530  32.288  1.00  0.00     0.167 HD
ATOM     53  C   UNL A   1      40.507  30.644  35.027  1.00  0.00     0.074 A 
ATOM     54  C   UNL A   1      41.243  30.454  36.259  1.00  0.00     0.031 C 
ATOM     55  C   UNL A   1      39.452  31.483  34.892  1.00  0.00     0.037 A 
BRANCH  42  56
ATOM     56  C   UNL A   1      36.965  31.475  29.253  1.00  0.00     0.057 A 
ATOM     57  C   UNL A   1      35.844  30.679  28.991  1.00  0.00     0.134 A 
ATOM     58  C   UNL A   1      36.983  32.766  28.710  1.00  0.00     0.134 A 
ATOM     59  F   UNL A   1      35.767  29.431  29.475  1.00  0.00    -0.206 F 
ATOM     60  C   UNL A   1      34.785  31.143  28.209  1.00  0.00     0.040 A 
ATOM     61  C   UNL A   1      35.923  33.248  27.941  1.00  0.00     0.040 A 
ATOM     62  F   UNL A   1      38.024  33.583  28.932  1.00  0.00    -0.206 F 
ATOM     63  C   UNL A   1      34.819  32.435  27.688  1.00  0.00     0.006 A 
ENDBRANCH  42  56
BRANCH  43  64
ATOM     64  C   UNL A   1      44.117  27.646  35.008  1.00  0.00     0.057 A 
ATOM     65  C   UNL A   1      45.355  28.260  35.224  1.00  0.00     0.134 A 
ATOM     66  C   UNL A   1      43.879  26.427  35.655  1.00  0.00     0.134 A 
ATOM     67  F   UNL A   1      45.655  29.411  34.605  1.00  0.00    -0.206 F 
ATOM     68  C   UNL A   1      46.320  27.685  36.053  1.00  0.00     0.040 A 
ATOM     69  C   UNL A   1      44.825  25.853  36.506  1.00  0.00     0.040 A 
ATOM     70  F   UNL A   1      42.714  25.785  35.483  1.00  0.00    -0.206 F 
ATOM     71  C   UNL A   1      46.051  26.482  36.704  1.00  0.00     0.006 A 
ENDBRANCH  43  64
BRANCH  55  72
ATOM     72  C   UNL A   1      39.044  32.258  36.106  1.00  0.00     0.057 A 
ATOM     73  C   UNL A   1      39.496  33.567  36.318  1.00  0.00     0.134 A 
ATOM     74  C   UNL A   1      38.189  31.700  37.063  1.00  0.00     0.134 A 
ATOM     75  F   UNL A   1      40.330  34.148  35.443  1.00  0.00    -0.206 F 
ATOM     76  C   UNL A   1      39.122  34.288  37.452  1.00  0.00     0.040 A 
ATOM     77  C   UNL A   1      37.795  32.418  38.193  1.00  0.00     0.040 A 
ATOM     78  F   UNL A   1      37.721  30.452  36.912  1.00  0.00    -0.206 F 
ATOM     79  C   UNL A   1      38.265  33.715  38.391  1.00  0.00     0.006 A 
ENDBRANCH  55  72
ENDBRANCH  29  30
ENDBRANCH  22  24
ENDBRANCH  21  22
ENDBRANCH  20  21
ENDBRANCH   1  20
TORSDOF 14
ENDMDL
MODEL 3
REMARK VINA RESULT:     -11.1      4.241      8.479
REMARK SMILES C[C@@H](C(=O)OCCOC(=O)c1ccc(-c2c3nc(c(-c4c(F)cccc4F)c4ccc([nH]4)c(-c4c(F)cccc4F)c4nc(c(-c5c(F)cccc5F)c5ccc2[nH]5)C=C4)C=C3)cc1)c1ccc(C(=O)c2cccs2)cc1
REMARK SMILES IDX 6 1 5 2 3 3 4 4 2 5 1 6 65 7 66 8 77 9 67 10 76 11 68 12
REMARK SMILES IDX 69 13 70 14 71 15 72 16 75 17 73 18 74 19 7 20 8 21 9 22
REMARK SMILES IDX 10 23 11 24 12 25 64 26 13 27 63 28 14 29 15 30 16 31 57 32
REMARK SMILES IDX 17 33 62 34 56 35 58 36 18 37 61 38 55 39 54 40 19 42 45 43
REMARK SMILES IDX 28 44 44 45 29 46 32 47 43 48 59 49 30 50 31 51 42 53 60 54
REMARK SMILES IDX 33 55 20 56 21 57 26 58 22 59 23 60 25 61 27 62 24 63 46 64
REMARK SMILES IDX 47 65 52 66 48 67 49 68 51 69 53 70 50 71 34 72 35 73 40 74
REMARK SMILES IDX 36 75 37 76 39 77 41 78 38 79
REMARK H PARENT 58 41 32 52
REMARK Flexibility Score: inf
ROOT
ATOM      1  C   UNL A   1      35.855  19.999  25.073  1.00  0.00     0.274 C 
ENDROOT
BRANCH   1   2
ATOM      2  O   UNL A   1      35.557  21.408  25.142  1.00  0.00    -0.462 OA
BRANCH   2   3
ATOM      3  C   UNL A   1      34.571  21.866  24.321  1.00  0.00     0.313 C 
ATOM      4  O   UNL A   1      33.492  21.305  24.171  1.00  0.00    -0.252 OA
BRANCH   3   5
ATOM      5  C   UNL A   1      34.994  23.123  23.545  1.00  0.00     0.126 C 
ATOM      6  C   UNL A   1      36.512  23.300  23.450  1.00  0.00     0.025 C 
BRANCH   5   7
ATOM      7  C   UNL A   1      34.281  24.370  24.071  1.00  0.00    -0.034 A 
ATOM      8  C   UNL A   1      33.993  24.462  25.438  1.00  0.00     0.005 A 
ATOM      9  C   UNL A   1      33.965  25.468  23.259  1.00  0.00     0.005 A 
ATOM     10  C   UNL A   1      33.410  25.615  25.973  1.00  0.00     0.012 A 
ATOM     11  C   UNL A   1      33.396  26.637  23.802  1.00  0.00     0.012 A 
ATOM     12  C   UNL A   1      33.103  26.724  25.167  1.00  0.00     0.023 A 
BRANCH  12  13
ATOM     13  C   UNL A   1      32.555  27.943  25.862  1.00  0.00     0.202 C 
ATOM     14  O   UNL A   1      31.328  28.066  25.842  1.00  0.00    -0.288 OA
BRANCH  13  15
ATOM     15  C   UNL A   1      33.408  28.906  26.550  1.00  0.00     0.075 A 
ATOM     16  C   UNL A   1      34.741  28.871  26.912  1.00  0.00     0.024 A 
ATOM     17  S   UNL A   1      32.712  30.434  26.941  1.00  0.00    -0.140 S 
ATOM     18  C   UNL A   1      35.170  30.075  27.548  1.00  0.00     0.012 A 
ATOM     19  C   UNL A   1      34.164  31.008  27.622  1.00  0.00     0.065 A 
ENDBRANCH  13  15
ENDBRANCH  12  13
ENDBRANCH   5   7
ENDBRANCH   3   5
ENDBRANCH   2   3
ENDBRANCH   1   2
BRANCH   1  20
ATOM     20  C   UNL A   1      37.336  19.774  24.780  1.00  0.00     0.275 C 
BRANCH  20  21
ATOM     21  O   UNL A   1      38.106  20.915  25.199  1.00  0.00    -0.458 OA
BRANCH  21  22
ATOM     22  C   UNL A   1      39.191  20.649  25.954  1.00  0.00     0.338 C 
ATOM     23  O   UNL A   1      39.764  19.577  26.095  1.00  0.00    -0.246 OA
BRANCH  22  24
ATOM     24  C   UNL A   1      39.655  21.882  26.601  1.00  0.00     0.060 A 
ATOM     25  C   UNL A   1      39.077  23.092  26.234  1.00  0.00     0.016 A 
ATOM     26  C   UNL A   1      40.758  21.858  27.456  1.00  0.00     0.016 A 
ATOM     27  C   UNL A   1      39.666  24.288  26.635  1.00  0.00     0.010 A 
ATOM     28  C   UNL A   1      41.292  23.063  27.931  1.00  0.00     0.010 A 
ATOM     29  C   UNL A   1      40.783  24.296  27.487  1.00  0.00    -0.014 A 
BRANCH  29  30
ATOM     30  C   UNL A   1      41.429  25.591  27.848  1.00  0.00     0.031 A 
ATOM     31  C   UNL A   1      42.806  25.936  27.333  1.00  0.00     0.074 A 
ATOM     32  C   UNL A   1      40.751  26.504  28.573  1.00  0.00     0.049 A 
ATOM     33  N   UNL A   1      43.553  26.980  27.598  1.00  0.00    -0.248 NA
ATOM     34  C   UNL A   1      43.432  24.981  26.405  1.00  0.00     0.031 C 
ATOM     35  C   UNL A   1      39.395  26.330  29.098  1.00  0.00     0.029 A 
ATOM     36  N   UNL A   1      41.088  27.780  28.951  1.00  0.00    -0.354 N 
ATOM     37  C   UNL A   1      44.735  26.797  26.889  1.00  0.00     0.074 A 
ATOM     38  C   UNL A   1      44.627  25.522  26.214  1.00  0.00     0.031 C 
ATOM     39  C   UNL A   1      38.985  27.482  29.650  1.00  0.00     0.029 A 
ATOM     40  C   UNL A   1      40.075  28.449  29.594  1.00  0.00     0.049 A 
ATOM     41  H   UNL A   1      41.973  28.177  28.780  1.00  0.00     0.167 HD
ATOM     42  C   UNL A   1      45.797  27.629  26.779  1.00  0.00     0.037 A 
ATOM     43  C   UNL A   1      40.027  29.698  30.095  1.00  0.00     0.037 A 
ATOM     44  C   UNL A   1      45.875  28.939  27.370  1.00  0.00     0.049 A 
ATOM     45  C   UNL A   1      41.243  30.571  30.015  1.00  0.00     0.074 A 
ATOM     46  C   UNL A   1      46.900  29.866  27.278  1.00  0.00     0.029 A 
ATOM     47  N   UNL A   1      44.881  29.519  28.142  1.00  0.00    -0.354 N 
ATOM     48  N   UNL A   1      42.391  30.338  29.428  1.00  0.00    -0.248 NA
ATOM     49  C   UNL A   1      41.170  31.870  30.700  1.00  0.00     0.031 C 
ATOM     50  C   UNL A   1      46.526  31.008  27.995  1.00  0.00     0.029 A 
ATOM     51  C   UNL A   1      45.261  30.798  28.516  1.00  0.00     0.049 A 
ATOM     52  H   UNL A   1      44.031  29.087  28.387  1.00  0.00     0.167 HD
ATOM     53  C   UNL A   1      43.176  31.455  29.677  1.00  0.00     0.074 A 
ATOM     54  C   UNL A   1      42.367  32.377  30.447  1.00  0.00     0.031 C 
ATOM     55  C   UNL A   1      44.457  31.691  29.307  1.00  0.00     0.037 A 
BRANCH  42  56
ATOM     56  C   UNL A   1      46.966  27.162  25.964  1.00  0.00     0.057 A 
ATOM     57  C   UNL A   1      47.072  27.445  24.598  1.00  0.00     0.134 A 
ATOM     58  C   UNL A   1      48.031  26.482  26.569  1.00  0.00     0.134 A 
ATOM     59  F   UNL A   1      46.084  28.087  23.958  1.00  0.00    -0.206 F 
ATOM     60  C   UNL A   1      48.189  27.057  23.856  1.00  0.00     0.040 A 
ATOM     61  C   UNL A   1      49.161  26.104  25.842  1.00  0.00     0.040 A 
ATOM     62  F   UNL A   1      47.996  26.189  27.877  1.00  0.00    -0.206 F 
ATOM     63  C   UNL A   1      49.241  26.391  24.480  1.00  0.00     0.006 A 
ENDBRANCH  42  56
BRANCH  43  64
ATOM     64  C   UNL A   1      38.788  30.185  30.752  1.00  0.00     0.057 A 
ATOM     65  C   UNL A   1      37.850  30.949  30.049  1.00  0.00     0.134 A 
ATOM     66  C   UNL A   1      38.513  29.899  32.094  1.00  0.00     0.134 A 
ATOM     67  F   UNL A   1      38.073  31.285  28.770  1.00  0.00    -0.206 F 
ATOM     68  C   UNL A   1      36.681  31.409  30.658  1.00  0.00     0.040 A 
ATOM     69  C   UNL A   1      37.338  30.332  32.709  1.00  0.00     0.040 A 
ATOM     70  F   UNL A   1      39.377  29.176  32.823  1.00  0.00    -0.206 F 
ATOM     71  C   UNL A   1      36.419  31.093  31.990  1.00  0.00     0.006 A 
ENDBRANCH  43  64
BRANCH  55  72
ATOM     72  C   UNL A   1      45.056  32.994  29.739  1.00  0.00     0.057 A 
ATOM     73  C   UNL A   1      44.909  34.153  28.968  1.00  0.00     0.134 A 
ATOM     74  C   UNL A   1      45.773  33.094  30.937  1.00  0.00     0.134 A 
ATOM     75  F   UNL A   1      44.245  34.114  27.803  1.00  0.00    -0.206 F 
ATOM     76  C   UNL A   1      45.471  35.366  29.366  1.00  0.00     0.040 A 
ATOM     77  C   UNL A   1      46.326  34.305  31.354  1.00  0.00     0.040 A 
ATOM     78  F   UNL A   1      45.945  32.018  31.720  1.00  0.00    -0.206 F 
ATOM     79  C   UNL A   1      46.179  35.445  30.565  1.00  0.00     0.006 A 
ENDBRANCH  55  72
ENDBRANCH  29  30
ENDBRANCH  22  24
ENDBRANCH  21  22
ENDBRANCH  20  21
ENDBRANCH   1  20
TORSDOF 14
ENDMDL
