MODEL 1
REMARK VINA RESULT:     -12.1      0.000      0.000
REMARK SMILES COc1ccc2c(c1)c(CC(=O)OCCOC(=O)c1ccc(-c3c4nc(c(-c5c(F)cccc5F)c5ccc([nH]5)c(-c5c(F)cccc5F)c5nc(c(-c6c(F)cccc6F)c6ccc3[nH]6)C=C5)C=C4)cc1)c(C(F)(F)F)n2C(=O)c1ccc(Cl)cc1
REMARK SMILES IDX 14 1 13 2 11 3 12 4 10 5 9 6 3 7 4 8 8 9 5 10 7 11 6 12
REMARK SMILES IDX 78 13 73 14 2 15 1 16 79 17 80 18 81 19 82 20 87 21 83 22
REMARK SMILES IDX 86 23 84 24 85 25 74 26 75 27 76 28 77 29 15 30 16 31 17 32
REMARK SMILES IDX 18 33 19 34 20 35 72 36 21 37 71 38 22 39 23 40 24 41 65 42
REMARK SMILES IDX 25 43 70 44 64 45 66 46 26 47 69 48 63 49 62 50 27 52 53 53
REMARK SMILES IDX 36 54 52 55 37 56 40 57 51 58 67 59 38 60 39 61 50 63 68 64
REMARK SMILES IDX 41 65 28 66 29 67 34 68 30 69 31 70 33 71 35 72 32 73 54 74
REMARK SMILES IDX 55 75 60 76 56 77 57 78 59 79 61 80 58 81 42 82 43 83 48 84
REMARK SMILES IDX 44 85 45 86 47 87 49 88 46 89
REMARK H PARENT 66 51 40 62
REMARK Flexibility Score: inf
ROOT
ATOM      1  C   UNL A   1      36.915  21.885  24.557  1.00  0.00     0.274 C 
ENDROOT
BRANCH   1   2
ATOM      2  O   UNL A   1      36.093  22.843  25.266  1.00  0.00    -0.462 OA
BRANCH   2   3
ATOM      3  C   UNL A   1      35.172  23.466  24.498  1.00  0.00     0.310 C 
ATOM      4  O   UNL A   1      35.291  23.617  23.284  1.00  0.00    -0.252 OA
BRANCH   3   5
ATOM      5  C   UNL A   1      34.021  24.090  25.236  1.00  0.00     0.161 C 
BRANCH   5   6
ATOM      6  C   UNL A   1      33.365  25.392  24.826  1.00  0.00     0.002 A 
ATOM      7  C   UNL A   1      34.044  28.847  26.539  1.00  0.00     0.119 A 
ATOM      8  C   UNL A   1      33.136  29.559  25.805  1.00  0.00     0.048 A 
ATOM      9  C   UNL A   1      34.225  27.490  26.248  1.00  0.00     0.057 A 
ATOM     10  C   UNL A   1      32.364  28.899  24.845  1.00  0.00     0.031 A 
ATOM     11  C   UNL A   1      33.466  26.757  25.294  1.00  0.00     0.008 A 
ATOM     12  C   UNL A   1      32.522  27.511  24.579  1.00  0.00     0.057 A 
ATOM     13  N   UNL A   1      31.931  26.664  23.626  1.00  0.00    -0.271 N 
ATOM     14  C   UNL A   1      32.267  25.363  23.957  1.00  0.00     0.135 A 
BRANCH   7  15
ATOM     15  O   UNL A   1      34.871  29.352  27.502  1.00  0.00    -0.497 OA
ATOM     16  C   UNL A   1      34.727  30.733  27.813  1.00  0.00     0.278 C 
ENDBRANCH   7  15
BRANCH  13  17
ATOM     17  C   UNL A   1      31.168  27.069  22.502  1.00  0.00     0.262 C 
ATOM     18  O   UNL A   1      31.424  26.583  21.404  1.00  0.00    -0.268 OA
BRANCH  17  19
ATOM     19  C   UNL A   1      30.141  28.110  22.539  1.00  0.00     0.040 A 
ATOM     20  C   UNL A   1      30.453  29.381  22.042  1.00  0.00     0.015 A 
ATOM     21  C   UNL A   1      28.926  27.851  23.180  1.00  0.00     0.015 A 
ATOM     22  C   UNL A   1      29.558  30.427  22.253  1.00  0.00     0.021 A 
ATOM     23  C   UNL A   1      28.032  28.903  23.376  1.00  0.00     0.021 A 
ATOM     24  C   UNL A   1      28.358  30.187  22.927  1.00  0.00     0.041 A 
ATOM     25  Cl  UNL A   1      27.289  31.495  23.246  1.00  0.00    -0.084 Cl
ENDBRANCH  17  19
ENDBRANCH  13  17
BRANCH  14  26
ATOM     26  C   UNL A   1      31.582  24.142  23.410  1.00  0.00     0.432 C 
ATOM     27  F   UNL A   1      32.266  23.626  22.359  1.00  0.00    -0.165 F 
ATOM     28  F   UNL A   1      31.570  23.164  24.363  1.00  0.00    -0.165 F 
ATOM     29  F   UNL A   1      30.287  24.284  23.063  1.00  0.00    -0.165 F 
ENDBRANCH  14  26
ENDBRANCH   5   6
ENDBRANCH   3   5
ENDBRANCH   2   3
ENDBRANCH   1   2
BRANCH   1  30
ATOM     30  C   UNL A   1      38.145  21.500  25.383  1.00  0.00     0.275 C 
BRANCH  30  31
ATOM     31  O   UNL A   1      38.655  22.675  26.040  1.00  0.00    -0.458 OA
BRANCH  31  32
ATOM     32  C   UNL A   1      39.682  22.475  26.900  1.00  0.00     0.338 C 
ATOM     33  O   UNL A   1      40.263  21.429  27.128  1.00  0.00    -0.246 OA
BRANCH  32  34
ATOM     34  C   UNL A   1      40.254  23.808  27.154  1.00  0.00     0.060 A 
ATOM     35  C   UNL A   1      41.298  24.073  28.027  1.00  0.00     0.016 A 
ATOM     36  C   UNL A   1      39.503  24.863  26.652  1.00  0.00     0.016 A 
ATOM     37  C   UNL A   1      41.445  25.381  28.497  1.00  0.00     0.010 A 
ATOM     38  C   UNL A   1      39.662  26.153  27.066  1.00  0.00     0.010 A 
ATOM     39  C   UNL A   1      40.552  26.384  28.083  1.00  0.00    -0.014 A 
BRANCH  39  40
ATOM     40  C   UNL A   1      40.601  27.744  28.571  1.00  0.00     0.031 A 
ATOM     41  C   UNL A   1      41.734  28.493  28.004  1.00  0.00     0.074 A 
ATOM     42  C   UNL A   1      39.646  28.389  29.271  1.00  0.00     0.049 A 
ATOM     43  N   UNL A   1      42.868  28.676  28.580  1.00  0.00    -0.248 NA
ATOM     44  C   UNL A   1      41.693  28.907  26.593  1.00  0.00     0.031 C 
ATOM     45  C   UNL A   1      38.285  27.993  29.620  1.00  0.00     0.029 A 
ATOM     46  N   UNL A   1      39.745  29.634  29.814  1.00  0.00    -0.354 N 
ATOM     47  C   UNL A   1      43.632  29.406  27.686  1.00  0.00     0.074 A 
ATOM     48  C   UNL A   1      42.944  29.340  26.424  1.00  0.00     0.031 C 
ATOM     49  C   UNL A   1      37.629  29.043  30.175  1.00  0.00     0.029 A 
ATOM     50  C   UNL A   1      38.575  30.128  30.374  1.00  0.00     0.049 A 
ATOM     51  H   UNL A   1      40.585  30.147  29.811  1.00  0.00     0.167 HD
ATOM     52  C   UNL A   1      44.649  30.186  28.137  1.00  0.00     0.037 A 
ATOM     53  C   UNL A   1      38.420  31.337  30.967  1.00  0.00     0.037 A 
ATOM     54  C   UNL A   1      44.946  29.892  29.523  1.00  0.00     0.049 A 
ATOM     55  C   UNL A   1      39.774  31.812  31.353  1.00  0.00     0.074 A 
ATOM     56  C   UNL A   1      45.355  28.763  30.209  1.00  0.00     0.029 A 
ATOM     57  N   UNL A   1      44.430  30.739  30.475  1.00  0.00    -0.354 N 
ATOM     58  N   UNL A   1      40.487  31.273  32.302  1.00  0.00    -0.248 NA
ATOM     59  C   UNL A   1      40.523  32.594  30.380  1.00  0.00     0.031 C 
ATOM     60  C   UNL A   1      44.637  28.796  31.441  1.00  0.00     0.029 A 
ATOM     61  C   UNL A   1      43.873  29.964  31.461  1.00  0.00     0.049 A 
ATOM     62  H   UNL A   1      44.455  31.723  30.454  1.00  0.00     0.167 HD
ATOM     63  C   UNL A   1      41.787  31.279  31.817  1.00  0.00     0.074 A 
ATOM     64  C   UNL A   1      41.762  32.187  30.672  1.00  0.00     0.031 C 
ATOM     65  C   UNL A   1      42.692  30.334  32.210  1.00  0.00     0.037 A 
BRANCH  52  66
ATOM     66  C   UNL A   1      45.114  31.455  27.478  1.00  0.00     0.057 A 
ATOM     67  C   UNL A   1      44.487  32.710  27.607  1.00  0.00     0.134 A 
ATOM     68  C   UNL A   1      46.410  31.486  26.933  1.00  0.00     0.134 A 
ATOM     69  F   UNL A   1      43.275  32.864  28.151  1.00  0.00    -0.206 F 
ATOM     70  C   UNL A   1      45.122  33.908  27.272  1.00  0.00     0.040 A 
ATOM     71  C   UNL A   1      47.073  32.682  26.645  1.00  0.00     0.040 A 
ATOM     72  F   UNL A   1      47.107  30.355  26.746  1.00  0.00    -0.206 F 
ATOM     73  C   UNL A   1      46.433  33.901  26.829  1.00  0.00     0.006 A 
ENDBRANCH  52  66
BRANCH  53  74
ATOM     74  C   UNL A   1      37.229  32.210  31.055  1.00  0.00     0.057 A 
ATOM     75  C   UNL A   1      36.230  31.970  32.012  1.00  0.00     0.134 A 
ATOM     76  C   UNL A   1      36.900  33.110  30.031  1.00  0.00     0.134 A 
ATOM     77  F   UNL A   1      36.416  31.073  32.991  1.00  0.00    -0.206 F 
ATOM     78  C   UNL A   1      34.968  32.572  31.944  1.00  0.00     0.040 A 
ATOM     79  C   UNL A   1      35.639  33.717  29.949  1.00  0.00     0.040 A 
ATOM     80  F   UNL A   1      37.773  33.374  29.048  1.00  0.00    -0.206 F 
ATOM     81  C   UNL A   1      34.663  33.437  30.901  1.00  0.00     0.006 A 
ENDBRANCH  53  74
BRANCH  65  82
ATOM     82  C   UNL A   1      42.317  29.442  33.361  1.00  0.00     0.057 A 
ATOM     83  C   UNL A   1      42.790  29.756  34.639  1.00  0.00     0.134 A 
ATOM     84  C   UNL A   1      41.648  28.217  33.218  1.00  0.00     0.134 A 
ATOM     85  F   UNL A   1      43.486  30.885  34.844  1.00  0.00    -0.206 F 
ATOM     86  C   UNL A   1      42.605  28.897  35.726  1.00  0.00     0.040 A 
ATOM     87  C   UNL A   1      41.429  27.362  34.302  1.00  0.00     0.040 A 
ATOM     88  F   UNL A   1      41.240  27.787  32.017  1.00  0.00    -0.206 F 
ATOM     89  C   UNL A   1      41.916  27.698  35.561  1.00  0.00     0.006 A 
ENDBRANCH  65  82
ENDBRANCH  39  40
ENDBRANCH  32  34
ENDBRANCH  31  32
ENDBRANCH  30  31
ENDBRANCH   1  30
TORSDOF 16
ENDMDL
MODEL 2
REMARK VINA RESULT:     -12.1      3.022      8.000
REMARK SMILES COc1ccc2c(c1)c(CC(=O)OCCOC(=O)c1ccc(-c3c4nc(c(-c5c(F)cccc5F)c5ccc([nH]5)c(-c5c(F)cccc5F)c5nc(c(-c6c(F)cccc6F)c6ccc3[nH]6)C=C5)C=C4)cc1)c(C(F)(F)F)n2C(=O)c1ccc(Cl)cc1
REMARK SMILES IDX 14 1 13 2 11 3 12 4 10 5 9 6 3 7 4 8 8 9 5 10 7 11 6 12
REMARK SMILES IDX 78 13 73 14 2 15 1 16 79 17 80 18 81 19 82 20 87 21 83 22
REMARK SMILES IDX 86 23 84 24 85 25 74 26 75 27 76 28 77 29 15 30 16 31 17 32
REMARK SMILES IDX 18 33 19 34 20 35 72 36 21 37 71 38 22 39 23 40 24 41 65 42
REMARK SMILES IDX 25 43 70 44 64 45 66 46 26 47 69 48 63 49 62 50 27 52 53 53
REMARK SMILES IDX 36 54 52 55 37 56 40 57 51 58 67 59 38 60 39 61 50 63 68 64
REMARK SMILES IDX 41 65 28 66 29 67 34 68 30 69 31 70 33 71 35 72 32 73 54 74
REMARK SMILES IDX 55 75 60 76 56 77 57 78 59 79 61 80 58 81 42 82 43 83 48 84
REMARK SMILES IDX 44 85 45 86 47 87 49 88 46 89
REMARK H PARENT 66 51 40 62
REMARK Flexibility Score: inf
ROOT
ATOM      1  C   UNL A   1      32.688  29.073  26.896  1.00  0.00     0.274 C 
ENDROOT
BRANCH   1   2
ATOM      2  O   UNL A   1      33.704  28.042  26.839  1.00  0.00    -0.462 OA
BRANCH   2   3
ATOM      3  C   UNL A   1      33.597  27.209  25.781  1.00  0.00     0.310 C 
ATOM      4  O   UNL A   1      33.756  27.568  24.616  1.00  0.00    -0.252 OA
BRANCH   3   5
ATOM      5  C   UNL A   1      33.143  25.811  26.094  1.00  0.00     0.161 C 
BRANCH   5   6
ATOM      6  C   UNL A   1      33.632  24.583  25.356  1.00  0.00     0.002 A 
ATOM      7  C   UNL A   1      37.337  23.314  25.387  1.00  0.00     0.119 A 
ATOM      8  C   UNL A   1      37.148  22.279  24.515  1.00  0.00     0.048 A 
ATOM      9  C   UNL A   1      36.231  24.086  25.762  1.00  0.00     0.057 A 
ATOM     10  C   UNL A   1      35.880  22.069  23.966  1.00  0.00     0.031 A 
ATOM     11  C   UNL A   1      34.919  23.933  25.233  1.00  0.00     0.008 A 
ATOM     12  C   UNL A   1      34.765  22.880  24.318  1.00  0.00     0.057 A 
ATOM     13  N   UNL A   1      33.406  22.811  23.968  1.00  0.00    -0.271 N 
ATOM     14  C   UNL A   1      32.804  23.979  24.402  1.00  0.00     0.135 A 
BRANCH   7  15
ATOM     15  O   UNL A   1      38.511  23.638  26.007  1.00  0.00    -0.497 OA
ATOM     16  C   UNL A   1      39.241  22.570  26.598  1.00  0.00     0.278 C 
ENDBRANCH   7  15
BRANCH  13  17
ATOM     17  C   UNL A   1      32.758  21.726  23.328  1.00  0.00     0.262 C 
ATOM     18  O   UNL A   1      32.217  21.913  22.241  1.00  0.00    -0.268 OA
BRANCH  17  19
ATOM     19  C   UNL A   1      32.602  20.397  23.920  1.00  0.00     0.040 A 
ATOM     20  C   UNL A   1      32.770  20.253  25.302  1.00  0.00     0.015 A 
ATOM     21  C   UNL A   1      32.418  19.293  23.084  1.00  0.00     0.015 A 
ATOM     22  C   UNL A   1      32.823  18.972  25.846  1.00  0.00     0.021 A 
ATOM     23  C   UNL A   1      32.461  18.014  23.640  1.00  0.00     0.021 A 
ATOM     24  C   UNL A   1      32.678  17.859  25.013  1.00  0.00     0.041 A 
ATOM     25  Cl  UNL A   1      32.813  16.280  25.680  1.00  0.00    -0.084 Cl
ENDBRANCH  17  19
ENDBRANCH  13  17
BRANCH  14  26
ATOM     26  C   UNL A   1      31.456  24.461  23.944  1.00  0.00     0.432 C 
ATOM     27  F   UNL A   1      30.480  23.583  24.284  1.00  0.00    -0.165 F 
ATOM     28  F   UNL A   1      31.148  25.626  24.588  1.00  0.00    -0.165 F 
ATOM     29  F   UNL A   1      31.337  24.763  22.636  1.00  0.00    -0.165 F 
ENDBRANCH  14  26
ENDBRANCH   5   6
ENDBRANCH   3   5
ENDBRANCH   2   3
ENDBRANCH   1   2
BRANCH   1  30
ATOM     30  C   UNL A   1      33.318  30.467  26.837  1.00  0.00     0.275 C 
BRANCH  30  31
ATOM     31  O   UNL A   1      34.169  30.646  27.984  1.00  0.00    -0.458 OA
BRANCH  31  32
ATOM     32  C   UNL A   1      35.131  31.592  27.867  1.00  0.00     0.338 C 
ATOM     33  O   UNL A   1      34.982  32.768  27.590  1.00  0.00    -0.246 OA
BRANCH  32  34
ATOM     34  C   UNL A   1      36.307  31.054  28.572  1.00  0.00     0.060 A 
ATOM     35  C   UNL A   1      37.429  31.788  28.923  1.00  0.00     0.016 A 
ATOM     36  C   UNL A   1      36.350  29.668  28.646  1.00  0.00     0.016 A 
ATOM     37  C   UNL A   1      38.615  31.093  29.177  1.00  0.00     0.010 A 
ATOM     38  C   UNL A   1      37.487  28.973  28.936  1.00  0.00     0.010 A 
ATOM     39  C   UNL A   1      38.647  29.692  29.077  1.00  0.00    -0.014 A 
BRANCH  39  40
ATOM     40  C   UNL A   1      39.847  28.907  29.264  1.00  0.00     0.031 A 
ATOM     41  C   UNL A   1      40.168  28.723  30.689  1.00  0.00     0.074 A 
ATOM     42  C   UNL A   1      40.511  28.206  28.326  1.00  0.00     0.049 A 
ATOM     43  N   UNL A   1      41.011  29.427  31.359  1.00  0.00    -0.248 NA
ATOM     44  C   UNL A   1      39.344  27.820  31.506  1.00  0.00     0.031 C 
ATOM     45  C   UNL A   1      40.178  27.917  26.933  1.00  0.00     0.029 A 
ATOM     46  N   UNL A   1      41.697  27.555  28.491  1.00  0.00    -0.354 N 
ATOM     47  C   UNL A   1      40.978  28.928  32.649  1.00  0.00     0.074 A 
ATOM     48  C   UNL A   1      39.806  28.096  32.727  1.00  0.00     0.031 C 
ATOM     49  C   UNL A   1      41.056  27.015  26.428  1.00  0.00     0.029 A 
ATOM     50  C   UNL A   1      42.108  26.794  27.406  1.00  0.00     0.049 A 
ATOM     51  H   UNL A   1      42.224  27.621  29.319  1.00  0.00     0.167 HD
ATOM     52  C   UNL A   1      42.055  29.073  33.464  1.00  0.00     0.037 A 
ATOM     53  C   UNL A   1      43.243  26.056  27.331  1.00  0.00     0.037 A 
ATOM     54  C   UNL A   1      43.000  30.015  32.902  1.00  0.00     0.049 A 
ATOM     55  C   UNL A   1      44.176  26.582  28.361  1.00  0.00     0.074 A 
ATOM     56  C   UNL A   1      42.945  31.349  32.545  1.00  0.00     0.029 A 
ATOM     57  N   UNL A   1      44.093  29.499  32.245  1.00  0.00    -0.354 N 
ATOM     58  N   UNL A   1      44.754  27.748  28.287  1.00  0.00    -0.248 NA
ATOM     59  C   UNL A   1      44.111  26.004  29.695  1.00  0.00     0.031 C 
ATOM     60  C   UNL A   1      43.704  31.444  31.342  1.00  0.00     0.029 A 
ATOM     61  C   UNL A   1      44.222  30.179  31.060  1.00  0.00     0.049 A 
ATOM     62  H   UNL A   1      44.676  28.774  32.565  1.00  0.00     0.167 HD
ATOM     63  C   UNL A   1      44.734  28.238  29.585  1.00  0.00     0.074 A 
ATOM     64  C   UNL A   1      44.412  27.084  30.422  1.00  0.00     0.031 C 
ATOM     65  C   UNL A   1      44.699  29.581  29.833  1.00  0.00     0.037 A 
BRANCH  52  66
ATOM     66  C   UNL A   1      42.445  28.111  34.552  1.00  0.00     0.057 A 
ATOM     67  C   UNL A   1      42.173  28.286  35.922  1.00  0.00     0.134 A 
ATOM     68  C   UNL A   1      42.848  26.815  34.181  1.00  0.00     0.134 A 
ATOM     69  F   UNL A   1      41.731  29.441  36.433  1.00  0.00    -0.206 F 
ATOM     70  C   UNL A   1      42.240  27.240  36.844  1.00  0.00     0.040 A 
ATOM     71  C   UNL A   1      42.866  25.751  35.086  1.00  0.00     0.040 A 
ATOM     72  F   UNL A   1      43.151  26.525  32.907  1.00  0.00    -0.206 F 
ATOM     73  C   UNL A   1      42.547  25.958  36.421  1.00  0.00     0.006 A 
ENDBRANCH  52  66
BRANCH  53  74
ATOM     74  C   UNL A   1      43.522  24.811  26.584  1.00  0.00     0.057 A 
ATOM     75  C   UNL A   1      44.164  24.848  25.336  1.00  0.00     0.134 A 
ATOM     76  C   UNL A   1      42.916  23.594  26.930  1.00  0.00     0.134 A 
ATOM     77  F   UNL A   1      44.712  25.982  24.878  1.00  0.00    -0.206 F 
ATOM     78  C   UNL A   1      44.183  23.748  24.470  1.00  0.00     0.040 A 
ATOM     79  C   UNL A   1      42.924  22.486  26.072  1.00  0.00     0.040 A 
ATOM     80  F   UNL A   1      42.245  23.471  28.085  1.00  0.00    -0.206 F 
ATOM     81  C   UNL A   1      43.548  22.566  24.831  1.00  0.00     0.006 A 
ENDBRANCH  53  74
BRANCH  65  82
ATOM     82  C   UNL A   1      44.931  30.513  28.675  1.00  0.00     0.057 A 
ATOM     83  C   UNL A   1      46.187  31.109  28.530  1.00  0.00     0.134 A 
ATOM     84  C   UNL A   1      43.918  30.951  27.807  1.00  0.00     0.134 A 
ATOM     85  F   UNL A   1      47.191  30.779  29.357  1.00  0.00    -0.206 F 
ATOM     86  C   UNL A   1      46.431  32.093  27.568  1.00  0.00     0.040 A 
ATOM     87  C   UNL A   1      44.156  31.913  26.821  1.00  0.00     0.040 A 
ATOM     88  F   UNL A   1      42.661  30.507  27.929  1.00  0.00    -0.206 F 
ATOM     89  C   UNL A   1      45.414  32.493  26.704  1.00  0.00     0.006 A 
ENDBRANCH  65  82
ENDBRANCH  39  40
ENDBRANCH  32  34
ENDBRANCH  31  32
ENDBRANCH  30  31
ENDBRANCH   1  30
TORSDOF 16
ENDMDL
MODEL 3
REMARK VINA RESULT:     -12.0      3.075      5.335
REMARK SMILES COc1ccc2c(c1)c(CC(=O)OCCOC(=O)c1ccc(-c3c4nc(c(-c5c(F)cccc5F)c5ccc([nH]5)c(-c5c(F)cccc5F)c5nc(c(-c6c(F)cccc6F)c6ccc3[nH]6)C=C5)C=C4)cc1)c(C(F)(F)F)n2C(=O)c1ccc(Cl)cc1
REMARK SMILES IDX 14 1 13 2 11 3 12 4 10 5 9 6 3 7 4 8 8 9 5 10 7 11 6 12
REMARK SMILES IDX 78 13 73 14 2 15 1 16 79 17 80 18 81 19 82 20 87 21 83 22
REMARK SMILES IDX 86 23 84 24 85 25 74 26 75 27 76 28 77 29 15 30 16 31 17 32
REMARK SMILES IDX 18 33 19 34 20 35 72 36 21 37 71 38 22 39 23 40 24 41 65 42
REMARK SMILES IDX 25 43 70 44 64 45 66 46 26 47 69 48 63 49 62 50 27 52 53 53
REMARK SMILES IDX 36 54 52 55 37 56 40 57 51 58 67 59 38 60 39 61 50 63 68 64
REMARK SMILES IDX 41 65 28 66 29 67 34 68 30 69 31 70 33 71 35 72 32 73 54 74
REMARK SMILES IDX 55 75 60 76 56 77 57 78 59 79 61 80 58 81 42 82 43 83 48 84
REMARK SMILES IDX 44 85 45 86 47 87 49 88 46 89
REMARK H PARENT 66 51 40 62
REMARK Flexibility Score: inf
ROOT
ATOM      1  C   UNL A   1      40.970  19.954  26.511  1.00  0.00     0.274 C 
ENDROOT
BRANCH   1   2
ATOM      2  O   UNL A   1      39.702  19.881  25.815  1.00  0.00    -0.462 OA
BRANCH   2   3
ATOM      3  C   UNL A   1      39.020  21.046  25.771  1.00  0.00     0.310 C 
ATOM      4  O   UNL A   1      39.187  21.961  26.575  1.00  0.00    -0.252 OA
BRANCH   3   5
ATOM      5  C   UNL A   1      37.933  21.128  24.737  1.00  0.00     0.161 C 
BRANCH   5   6
ATOM      6  C   UNL A   1      36.455  21.099  25.066  1.00  0.00     0.002 A 
ATOM      7  C   UNL A   1      34.153  17.962  24.627  1.00  0.00     0.119 A 
ATOM      8  C   UNL A   1      32.989  18.577  24.995  1.00  0.00     0.048 A 
ATOM      9  C   UNL A   1      35.344  18.695  24.674  1.00  0.00     0.057 A 
ATOM     10  C   UNL A   1      33.009  19.933  25.332  1.00  0.00     0.031 A 
ATOM     11  C   UNL A   1      35.432  20.078  24.997  1.00  0.00     0.008 A 
ATOM     12  C   UNL A   1      34.215  20.687  25.341  1.00  0.00     0.057 A 
ATOM     13  N   UNL A   1      34.491  22.013  25.716  1.00  0.00    -0.271 N 
ATOM     14  C   UNL A   1      35.782  22.302  25.308  1.00  0.00     0.135 A 
BRANCH   7  15
ATOM     15  O   UNL A   1      34.292  16.647  24.279  1.00  0.00    -0.497 OA
ATOM     16  C   UNL A   1      33.272  15.757  24.715  1.00  0.00     0.278 C 
ENDBRANCH   7  15
BRANCH  13  17
ATOM     17  C   UNL A   1      33.624  22.884  26.422  1.00  0.00     0.262 C 
ATOM     18  O   UNL A   1      33.599  22.831  27.649  1.00  0.00    -0.268 OA
BRANCH  17  19
ATOM     19  C   UNL A   1      32.671  23.791  25.783  1.00  0.00     0.040 A 
ATOM     20  C   UNL A   1      32.439  25.043  26.365  1.00  0.00     0.015 A 
ATOM     21  C   UNL A   1      31.926  23.341  24.689  1.00  0.00     0.015 A 
ATOM     22  C   UNL A   1      31.394  25.828  25.884  1.00  0.00     0.021 A 
ATOM     23  C   UNL A   1      30.890  24.141  24.207  1.00  0.00     0.021 A 
ATOM     24  C   UNL A   1      30.619  25.371  24.816  1.00  0.00     0.041 A 
ATOM     25  Cl  UNL A   1      29.289  26.314  24.271  1.00  0.00    -0.084 Cl
ENDBRANCH  17  19
ENDBRANCH  13  17
BRANCH  14  26
ATOM     26  C   UNL A   1      36.351  23.690  25.209  1.00  0.00     0.432 C 
ATOM     27  F   UNL A   1      36.928  24.067  26.377  1.00  0.00    -0.165 F 
ATOM     28  F   UNL A   1      37.351  23.705  24.279  1.00  0.00    -0.165 F 
ATOM     29  F   UNL A   1      35.506  24.660  24.805  1.00  0.00    -0.165 F 
ENDBRANCH  14  26
ENDBRANCH   5   6
ENDBRANCH   3   5
ENDBRANCH   2   3
ENDBRANCH   1   2
BRANCH   1  30
ATOM     30  C   UNL A   1      42.052  19.174  25.759  1.00  0.00     0.275 C 
BRANCH  30  31
ATOM     31  O   UNL A   1      43.344  19.698  26.120  1.00  0.00    -0.458 OA
BRANCH  31  32
ATOM     32  C   UNL A   1      44.060  20.255  25.114  1.00  0.00     0.338 C 
ATOM     33  O   UNL A   1      44.231  19.810  23.994  1.00  0.00    -0.246 OA
BRANCH  32  34
ATOM     34  C   UNL A   1      44.204  21.677  25.468  1.00  0.00     0.060 A 
ATOM     35  C   UNL A   1      45.172  22.192  26.316  1.00  0.00     0.016 A 
ATOM     36  C   UNL A   1      43.127  22.474  25.101  1.00  0.00     0.016 A 
ATOM     37  C   UNL A   1      44.936  23.439  26.901  1.00  0.00     0.010 A 
ATOM     38  C   UNL A   1      42.904  23.713  25.628  1.00  0.00     0.010 A 
ATOM     39  C   UNL A   1      43.748  24.136  26.623  1.00  0.00    -0.014 A 
BRANCH  39  40
ATOM     40  C   UNL A   1      43.404  25.399  27.235  1.00  0.00     0.031 A 
ATOM     41  C   UNL A   1      44.332  26.473  26.841  1.00  0.00     0.074 A 
ATOM     42  C   UNL A   1      42.271  25.696  27.901  1.00  0.00     0.049 A 
ATOM     43  N   UNL A   1      45.339  26.876  27.532  1.00  0.00    -0.248 NA
ATOM     44  C   UNL A   1      44.272  27.016  25.477  1.00  0.00     0.031 C 
ATOM     45  C   UNL A   1      41.043  24.927  28.090  1.00  0.00     0.029 A 
ATOM     46  N   UNL A   1      42.002  26.857  28.562  1.00  0.00    -0.354 N 
ATOM     47  C   UNL A   1      45.937  27.872  26.780  1.00  0.00     0.074 A 
ATOM     48  C   UNL A   1      45.371  27.773  25.460  1.00  0.00     0.031 C 
ATOM     49  C   UNL A   1      40.100  25.705  28.676  1.00  0.00     0.029 A 
ATOM     50  C   UNL A   1      40.710  26.968  29.057  1.00  0.00     0.049 A 
ATOM     51  H   UNL A   1      42.675  27.565  28.681  1.00  0.00     0.167 HD
ATOM     52  C   UNL A   1      46.680  28.832  27.389  1.00  0.00     0.037 A 
ATOM     53  C   UNL A   1      40.204  28.024  29.741  1.00  0.00     0.037 A 
ATOM     54  C   UNL A   1      46.957  28.472  28.763  1.00  0.00     0.049 A 
ATOM     55  C   UNL A   1      41.357  28.784  30.289  1.00  0.00     0.074 A 
ATOM     56  C   UNL A   1      47.606  27.417  29.378  1.00  0.00     0.029 A 
ATOM     57  N   UNL A   1      46.176  29.047  29.739  1.00  0.00    -0.354 N 
ATOM     58  N   UNL A   1      42.126  28.344  31.245  1.00  0.00    -0.248 NA
ATOM     59  C   UNL A   1      41.932  29.835  29.462  1.00  0.00     0.031 C 
ATOM     60  C   UNL A   1      46.829  27.128  30.538  1.00  0.00     0.029 A 
ATOM     61  C   UNL A   1      45.784  28.050  30.596  1.00  0.00     0.049 A 
ATOM     62  H   UNL A   1      45.941  30.001  29.809  1.00  0.00     0.167 HD
ATOM     63  C   UNL A   1      43.406  28.738  30.881  1.00  0.00     0.074 A 
ATOM     64  C   UNL A   1      43.213  29.731  29.826  1.00  0.00     0.031 C 
ATOM     65  C   UNL A   1      44.502  28.020  31.266  1.00  0.00     0.037 A 
BRANCH  52  66
ATOM     66  C   UNL A   1      46.834  30.243  26.892  1.00  0.00     0.057 A 
ATOM     67  C   UNL A   1      45.772  31.143  26.674  1.00  0.00     0.134 A 
ATOM     68  C   UNL A   1      48.115  30.822  26.916  1.00  0.00     0.134 A 
ATOM     69  F   UNL A   1      44.489  30.767  26.673  1.00  0.00    -0.206 F 
ATOM     70  C   UNL A   1      45.966  32.520  26.547  1.00  0.00     0.040 A 
ATOM     71  C   UNL A   1      48.314  32.203  26.842  1.00  0.00     0.040 A 
ATOM     72  F   UNL A   1      49.210  30.068  27.100  1.00  0.00    -0.206 F 
ATOM     73  C   UNL A   1      47.235  33.060  26.672  1.00  0.00     0.006 A 
ENDBRANCH  52  66
BRANCH  53  74
ATOM     74  C   UNL A   1      38.822  28.545  29.801  1.00  0.00     0.057 A 
ATOM     75  C   UNL A   1      38.274  29.261  28.724  1.00  0.00     0.134 A 
ATOM     76  C   UNL A   1      38.112  28.610  31.010  1.00  0.00     0.134 A 
ATOM     77  F   UNL A   1      38.911  29.324  27.546  1.00  0.00    -0.206 F 
ATOM     78  C   UNL A   1      37.103  30.017  28.845  1.00  0.00     0.040 A 
ATOM     79  C   UNL A   1      36.939  29.366  31.146  1.00  0.00     0.040 A 
ATOM     80  F   UNL A   1      38.574  27.993  32.106  1.00  0.00    -0.206 F 
ATOM     81  C   UNL A   1      36.438  30.084  30.064  1.00  0.00     0.006 A 
ENDBRANCH  53  74
BRANCH  65  82
ATOM     82  C   UNL A   1      44.306  26.939  32.294  1.00  0.00     0.057 A 
ATOM     83  C   UNL A   1      44.117  25.623  31.860  1.00  0.00     0.134 A 
ATOM     84  C   UNL A   1      44.143  27.183  33.666  1.00  0.00     0.134 A 
ATOM     85  F   UNL A   1      44.204  25.322  30.556  1.00  0.00    -0.206 F 
ATOM     86  C   UNL A   1      43.784  24.595  32.747  1.00  0.00     0.040 A 
ATOM     87  C   UNL A   1      43.840  26.159  34.568  1.00  0.00     0.040 A 
ATOM     88  F   UNL A   1      44.213  28.425  34.162  1.00  0.00    -0.206 F 
ATOM     89  C   UNL A   1      43.652  24.860  34.108  1.00  0.00     0.006 A 
ENDBRANCH  65  82
ENDBRANCH  39  40
ENDBRANCH  32  34
ENDBRANCH  31  32
ENDBRANCH  30  31
ENDBRANCH   1  30
TORSDOF 16
ENDMDL
