MODEL 1
REMARK VINA RESULT:     -12.9      0.000      0.000
REMARK SMILES Cc1ccc(C(=O)NC2(CC(=O)OCCOC(=O)c3ccc(-c4c5nc(c(-c6c(F)cccc6F)c6ccc([nH]6)c(-c6c(F)cccc6F)c6nc(c(-c7c(F)cccc7F)c7ccc4[nH]7)C=C6)C=C5)cc3)CCC2)cc1
REMARK SMILES IDX 14 1 13 2 11 3 12 4 10 5 9 6 73 7 75 8 74 9 8 10 6 11 7 12
REMARK SMILES IDX 5 14 1 15 2 16 3 17 77 18 4 19 76 20 15 21 16 22 17 23 18 24
REMARK SMILES IDX 19 25 20 26 72 27 21 28 71 29 22 30 23 31 24 32 65 33 25 34
REMARK SMILES IDX 70 35 64 36 66 37 26 38 69 39 63 40 62 41 27 43 53 44 36 45
REMARK SMILES IDX 52 46 37 47 40 48 51 49 67 50 38 51 39 52 50 54 68 55 41 56
REMARK SMILES IDX 28 57 29 58 34 59 30 60 31 61 33 62 35 63 32 64 54 65 55 66
REMARK SMILES IDX 60 67 56 68 57 69 59 70 61 71 58 72 42 73 43 74 48 75 44 76
REMARK SMILES IDX 45 77 47 78 49 79 46 80
REMARK H PARENT 8 13 66 42 40 53
REMARK Flexibility Score: inf
ROOT
ATOM      1  C   UNL A   1      33.755  27.759  26.466  1.00  0.00     0.274 C 
ENDROOT
BRANCH   1   2
ATOM      2  O   UNL A   1      32.506  26.109  26.507  1.00  0.00    -0.462 OA
BRANCH   2   3
ATOM      3  C   UNL A   1      32.211  24.714  26.474  1.00  0.00     0.308 C 
ATOM      4  O   UNL A   1      31.388  24.244  27.268  1.00  0.00    -0.252 OA
BRANCH   3   5
ATOM      5  C   UNL A   1      32.562  23.636  25.480  1.00  0.00     0.151 C 
BRANCH   5   6
ATOM      6  C   UNL A   1      33.826  23.397  24.688  1.00  0.00     0.051 C 
ATOM      7  C   UNL A   1      34.773  22.451  25.503  1.00  0.00     0.029 C 
ATOM      8  C   UNL A   1      34.991  24.426  24.738  1.00  0.00     0.029 C 
ATOM      9  C   UNL A   1      35.497  23.715  26.005  1.00  0.00     0.005 C 
BRANCH   6  10
ATOM     10  N   UNL A   1      33.581  22.851  23.346  1.00  0.00    -0.346 N 
ATOM     11  C   UNL A   1      33.179  23.616  22.303  1.00  0.00     0.251 C 
ATOM     12  O   UNL A   1      33.403  23.357  21.134  1.00  0.00    -0.269 OA
ATOM     13  H   UNL A   1      33.715  21.886  23.198  1.00  0.00     0.164 HD
BRANCH  11  14
ATOM     14  C   UNL A   1      32.554  24.856  22.722  1.00  0.00     0.039 A 
ATOM     15  C   UNL A   1      30.519  29.363  24.014  1.00  0.00     0.044 C 
ATOM     16  C   UNL A   1      31.146  28.078  23.531  1.00  0.00    -0.051 A 
ATOM     17  C   UNL A   1      30.121  26.679  23.639  1.00  0.00     0.004 A 
ATOM     18  C   UNL A   1      32.828  27.923  23.036  1.00  0.00     0.004 A 
ATOM     19  C   UNL A   1      30.801  25.060  23.293  1.00  0.00     0.014 A 
ATOM     20  C   UNL A   1      33.562  26.341  22.636  1.00  0.00     0.014 A 
ENDBRANCH  11  14
ENDBRANCH   6  10
ENDBRANCH   5   6
ENDBRANCH   3   5
ENDBRANCH   2   3
ENDBRANCH   1   2
BRANCH   1  21
ATOM     21  C   UNL A   1      33.170  29.495  26.869  1.00  0.00     0.275 C 
BRANCH  21  22
ATOM     22  O   UNL A   1      33.931  30.710  27.752  1.00  0.00    -0.458 OA
BRANCH  22  23
ATOM     23  C   UNL A   1      35.065  31.491  28.088  1.00  0.00     0.338 C 
ATOM     24  O   UNL A   1      35.254  32.580  27.554  1.00  0.00    -0.246 OA
BRANCH  23  25
ATOM     25  C   UNL A   1      36.156  31.043  29.089  1.00  0.00     0.060 A 
ATOM     26  C   UNL A   1      36.198  29.789  29.773  1.00  0.00     0.016 A 
ATOM     27  C   UNL A   1      37.349  31.682  28.906  1.00  0.00     0.016 A 
ATOM     28  C   UNL A   1      37.443  29.039  29.954  1.00  0.00     0.010 A 
ATOM     29  C   UNL A   1      38.474  30.849  28.900  1.00  0.00     0.010 A 
ATOM     30  C   UNL A   1      38.625  29.500  29.373  1.00  0.00    -0.014 A 
BRANCH  30  31
ATOM     31  C   UNL A   1      40.004  28.812  29.093  1.00  0.00     0.031 A 
ATOM     32  C   UNL A   1      40.393  27.382  28.622  1.00  0.00     0.074 A 
ATOM     33  C   UNL A   1      41.065  29.656  29.223  1.00  0.00     0.049 A 
ATOM     34  N   UNL A   1      41.206  26.531  29.204  1.00  0.00    -0.248 NA
ATOM     35  C   UNL A   1      40.037  26.838  27.313  1.00  0.00     0.031 C 
ATOM     36  C   UNL A   1      42.488  29.487  29.014  1.00  0.00     0.029 A 
ATOM     37  N   UNL A   1      41.029  30.947  29.788  1.00  0.00    -0.354 N 
ATOM     38  C   UNL A   1      41.533  25.531  28.248  1.00  0.00     0.074 A 
ATOM     39  C   UNL A   1      40.523  25.600  27.253  1.00  0.00     0.031 C 
ATOM     40  C   UNL A   1      43.125  30.373  29.819  1.00  0.00     0.029 A 
ATOM     41  C   UNL A   1      42.110  31.044  30.635  1.00  0.00     0.049 A 
ATOM     42  H   UNL A   1      40.360  31.646  29.612  1.00  0.00     0.167 HD
ATOM     43  C   UNL A   1      42.803  25.046  28.023  1.00  0.00     0.037 A 
ATOM     44  C   UNL A   1      41.838  30.987  31.973  1.00  0.00     0.037 A 
ATOM     45  C   UNL A   1      43.742  25.831  28.787  1.00  0.00     0.049 A 
ATOM     46  C   UNL A   1      42.510  29.796  32.591  1.00  0.00     0.074 A 
ATOM     47  C   UNL A   1      44.660  26.817  28.478  1.00  0.00     0.029 A 
ATOM     48  N   UNL A   1      43.584  25.856  30.143  1.00  0.00    -0.354 N 
ATOM     49  N   UNL A   1      43.087  28.872  31.879  1.00  0.00    -0.248 NA
ATOM     50  C   UNL A   1      42.570  29.509  34.018  1.00  0.00     0.031 C 
ATOM     51  C   UNL A   1      45.069  27.421  29.703  1.00  0.00     0.029 A 
ATOM     52  C   UNL A   1      44.401  26.783  30.732  1.00  0.00     0.049 A 
ATOM     53  H   UNL A   1      42.961  25.278  30.638  1.00  0.00     0.167 HD
ATOM     54  C   UNL A   1      43.611  27.917  32.686  1.00  0.00     0.074 A 
ATOM     55  C   UNL A   1      43.229  28.335  34.021  1.00  0.00     0.031 C 
ATOM     56  C   UNL A   1      44.314  26.870  32.171  1.00  0.00     0.037 A 
BRANCH  43  57
ATOM     57  C   UNL A   1      43.285  24.091  26.909  1.00  0.00     0.057 A 
ATOM     58  C   UNL A   1      43.769  24.596  25.676  1.00  0.00     0.134 A 
ATOM     59  C   UNL A   1      43.375  22.687  27.000  1.00  0.00     0.134 A 
ATOM     60  F   UNL A   1      43.889  25.910  25.448  1.00  0.00    -0.206 F 
ATOM     61  C   UNL A   1      44.192  23.790  24.605  1.00  0.00     0.040 A 
ATOM     62  C   UNL A   1      43.773  21.862  25.922  1.00  0.00     0.040 A 
ATOM     63  F   UNL A   1      43.133  22.042  28.151  1.00  0.00    -0.206 F 
ATOM     64  C   UNL A   1      44.173  22.413  24.713  1.00  0.00     0.006 A 
ENDBRANCH  43  57
BRANCH  44  65
ATOM     65  C   UNL A   1      40.483  31.554  32.358  1.00  0.00     0.057 A 
ATOM     66  C   UNL A   1      40.221  32.931  32.161  1.00  0.00     0.134 A 
ATOM     67  C   UNL A   1      39.356  30.757  32.602  1.00  0.00     0.134 A 
ATOM     68  F   UNL A   1      41.227  33.775  31.874  1.00  0.00    -0.206 F 
ATOM     69  C   UNL A   1      38.922  33.465  32.131  1.00  0.00     0.040 A 
ATOM     70  C   UNL A   1      38.049  31.282  32.583  1.00  0.00     0.040 A 
ATOM     71  F   UNL A   1      39.480  29.434  32.782  1.00  0.00    -0.206 F 
ATOM     72  C   UNL A   1      37.827  32.634  32.328  1.00  0.00     0.006 A 
ENDBRANCH  44  65
BRANCH  56  73
ATOM     73  C   UNL A   1      44.908  25.776  32.995  1.00  0.00     0.057 A 
ATOM     74  C   UNL A   1      44.118  24.959  33.801  1.00  0.00     0.134 A 
ATOM     75  C   UNL A   1      46.303  25.567  33.086  1.00  0.00     0.134 A 
ATOM     76  F   UNL A   1      42.794  25.155  33.901  1.00  0.00    -0.206 F 
ATOM     77  C   UNL A   1      44.665  23.922  34.560  1.00  0.00     0.040 A 
ATOM     78  C   UNL A   1      46.865  24.576  33.882  1.00  0.00     0.040 A 
ATOM     79  F   UNL A   1      47.195  26.293  32.399  1.00  0.00    -0.206 F 
ATOM     80  C   UNL A   1      46.041  23.727  34.600  1.00  0.00     0.006 A 
ENDBRANCH  56  73
ENDBRANCH  30  31
ENDBRANCH  23  25
ENDBRANCH  22  23
ENDBRANCH  21  22
ENDBRANCH   1  21
TORSDOF 14
ENDMDL
MODEL 2
REMARK VINA RESULT:     -12.6      1.732      3.349
REMARK SMILES Cc1ccc(C(=O)NC2(CC(=O)OCCOC(=O)c3ccc(-c4c5nc(c(-c6c(F)cccc6F)c6ccc([nH]6)c(-c6c(F)cccc6F)c6nc(c(-c7c(F)cccc7F)c7ccc4[nH]7)C=C6)C=C5)cc3)CCC2)cc1
REMARK SMILES IDX 14 1 13 2 11 3 12 4 10 5 9 6 73 7 75 8 74 9 8 10 6 11 7 12
REMARK SMILES IDX 5 14 1 15 2 16 3 17 77 18 4 19 76 20 15 21 16 22 17 23 18 24
REMARK SMILES IDX 19 25 20 26 72 27 21 28 71 29 22 30 23 31 24 32 65 33 25 34
REMARK SMILES IDX 70 35 64 36 66 37 26 38 69 39 63 40 62 41 27 43 53 44 36 45
REMARK SMILES IDX 52 46 37 47 40 48 51 49 67 50 38 51 39 52 50 54 68 55 41 56
REMARK SMILES IDX 28 57 29 58 34 59 30 60 31 61 33 62 35 63 32 64 54 65 55 66
REMARK SMILES IDX 60 67 56 68 57 69 59 70 61 71 58 72 42 73 43 74 48 75 44 76
REMARK SMILES IDX 45 77 47 78 49 79 46 80
REMARK H PARENT 8 13 66 42 40 53
REMARK Flexibility Score: inf
ROOT
ATOM      1  C   UNL A   1      34.254  29.146  26.997  1.00  0.00     0.274 C 
ENDROOT
BRANCH   1   2
ATOM      2  O   UNL A   1      33.598  27.311  26.299  1.00  0.00    -0.462 OA
BRANCH   2   3
ATOM      3  C   UNL A   1      32.641  26.272  26.105  1.00  0.00     0.308 C 
ATOM      4  O   UNL A   1      31.827  26.015  26.999  1.00  0.00    -0.252 OA
BRANCH   3   5
ATOM      5  C   UNL A   1      32.244  25.487  24.881  1.00  0.00     0.151 C 
BRANCH   5   6
ATOM      6  C   UNL A   1      31.439  25.890  23.667  1.00  0.00     0.051 C 
ATOM      7  C   UNL A   1      30.453  27.041  24.062  1.00  0.00     0.029 C 
ATOM      8  C   UNL A   1      30.169  25.088  23.264  1.00  0.00     0.029 C 
ATOM      9  C   UNL A   1      29.369  25.961  24.245  1.00  0.00     0.005 C 
BRANCH   6  10
ATOM     10  N   UNL A   1      32.269  26.292  22.522  1.00  0.00    -0.346 N 
ATOM     11  C   UNL A   1      32.972  25.405  21.776  1.00  0.00     0.251 C 
ATOM     12  O   UNL A   1      33.273  25.577  20.608  1.00  0.00    -0.269 OA
ATOM     13  H   UNL A   1      32.317  27.247  22.287  1.00  0.00     0.164 HD
BRANCH  11  14
ATOM     14  C   UNL A   1      33.228  24.161  22.474  1.00  0.00     0.039 A 
ATOM     15  C   UNL A   1      34.256  19.924  25.143  1.00  0.00     0.044 C 
ATOM     16  C   UNL A   1      33.955  21.232  24.454  1.00  0.00    -0.051 A 
ATOM     17  C   UNL A   1      32.526  21.226  23.465  1.00  0.00     0.004 A 
ATOM     18  C   UNL A   1      35.018  22.635  24.487  1.00  0.00     0.004 A 
ATOM     19  C   UNL A   1      32.162  22.643  22.434  1.00  0.00     0.014 A 
ATOM     20  C   UNL A   1      34.694  24.100  23.512  1.00  0.00     0.014 A 
ENDBRANCH  11  14
ENDBRANCH   6  10
ENDBRANCH   5   6
ENDBRANCH   3   5
ENDBRANCH   2   3
ENDBRANCH   1   2
BRANCH   1  21
ATOM     21  C   UNL A   1      33.176  30.681  27.006  1.00  0.00     0.275 C 
BRANCH  21  22
ATOM     22  O   UNL A   1      33.494  32.217  27.620  1.00  0.00    -0.458 OA
BRANCH  22  23
ATOM     23  C   UNL A   1      34.282  33.128  28.368  1.00  0.00     0.338 C 
ATOM     24  O   UNL A   1      34.264  34.328  28.107  1.00  0.00    -0.246 OA
BRANCH  23  25
ATOM     25  C   UNL A   1      35.236  32.709  29.510  1.00  0.00     0.060 A 
ATOM     26  C   UNL A   1      35.201  31.467  30.214  1.00  0.00     0.016 A 
ATOM     27  C   UNL A   1      36.436  33.360  29.474  1.00  0.00     0.016 A 
ATOM     28  C   UNL A   1      36.418  30.735  30.570  1.00  0.00     0.010 A 
ATOM     29  C   UNL A   1      37.560  32.540  29.630  1.00  0.00     0.010 A 
ATOM     30  C   UNL A   1      37.662  31.201  30.142  1.00  0.00    -0.014 A 
BRANCH  30  31
ATOM     31  C   UNL A   1      39.072  30.526  30.057  1.00  0.00     0.031 A 
ATOM     32  C   UNL A   1      39.563  29.178  29.457  1.00  0.00     0.074 A 
ATOM     33  C   UNL A   1      40.075  31.308  30.546  1.00  0.00     0.049 A 
ATOM     34  N   UNL A   1      40.235  28.222  30.054  1.00  0.00    -0.248 NA
ATOM     35  C   UNL A   1      39.502  28.859  28.031  1.00  0.00     0.031 C 
ATOM     36  C   UNL A   1      41.511  31.132  30.622  1.00  0.00     0.029 A 
ATOM     37  N   UNL A   1      39.911  32.493  31.291  1.00  0.00    -0.354 N 
ATOM     38  C   UNL A   1      40.767  27.377  29.043  1.00  0.00     0.074 A 
ATOM     39  C   UNL A   1      39.995  27.632  27.879  1.00  0.00     0.031 C 
ATOM     40  C   UNL A   1      41.953  31.860  31.677  1.00  0.00     0.029 A 
ATOM     41  C   UNL A   1      40.782  32.423  32.354  1.00  0.00     0.049 A 
ATOM     42  H   UNL A   1      39.291  33.230  31.089  1.00  0.00     0.167 HD
ATOM     43  C   UNL A   1      42.058  26.897  29.020  1.00  0.00     0.037 A 
ATOM     44  C   UNL A   1      40.227  32.163  33.575  1.00  0.00     0.037 A 
ATOM     45  C   UNL A   1      42.805  27.523  30.084  1.00  0.00     0.049 A 
ATOM     46  C   UNL A   1      40.756  30.870  34.123  1.00  0.00     0.074 A 
ATOM     47  C   UNL A   1      43.763  28.518  30.142  1.00  0.00     0.029 A 
ATOM     48  N   UNL A   1      42.358  27.337  31.361  1.00  0.00    -0.354 N 
ATOM     49  N   UNL A   1      41.479  30.054  33.412  1.00  0.00    -0.248 NA
ATOM     50  C   UNL A   1      40.508  30.359  35.465  1.00  0.00     0.031 C 
ATOM     51  C   UNL A   1      43.893  28.909  31.507  1.00  0.00     0.029 A 
ATOM     52  C   UNL A   1      43.022  28.135  32.252  1.00  0.00     0.049 A 
ATOM     53  H   UNL A   1      41.645  26.706  31.610  1.00  0.00     0.167 HD
ATOM     54  C   UNL A   1      41.822  28.968  34.148  1.00  0.00     0.074 A 
ATOM     55  C   UNL A   1      41.157  29.181  35.420  1.00  0.00     0.031 C 
ATOM     56  C   UNL A   1      42.625  27.995  33.634  1.00  0.00     0.037 A 
BRANCH  43  57
ATOM     57  C   UNL A   1      42.776  26.117  27.897  1.00  0.00     0.057 A 
ATOM     58  C   UNL A   1      42.708  24.702  27.834  1.00  0.00     0.134 A 
ATOM     59  C   UNL A   1      43.479  26.681  26.813  1.00  0.00     0.134 A 
ATOM     60  F   UNL A   1      41.974  23.990  28.699  1.00  0.00    -0.206 F 
ATOM     61  C   UNL A   1      43.361  23.924  26.864  1.00  0.00     0.040 A 
ATOM     62  C   UNL A   1      44.164  25.910  25.845  1.00  0.00     0.040 A 
ATOM     63  F   UNL A   1      43.498  28.006  26.603  1.00  0.00    -0.206 F 
ATOM     64  C   UNL A   1      44.116  24.524  25.875  1.00  0.00     0.006 A 
ENDBRANCH  43  57
BRANCH  44  65
ATOM     65  C   UNL A   1      38.818  32.701  33.746  1.00  0.00     0.057 A 
ATOM     66  C   UNL A   1      38.583  34.092  33.625  1.00  0.00     0.134 A 
ATOM     67  C   UNL A   1      37.674  31.892  33.704  1.00  0.00     0.134 A 
ATOM     68  F   UNL A   1      39.615  34.952  33.608  1.00  0.00    -0.206 F 
ATOM     69  C   UNL A   1      37.307  34.633  33.399  1.00  0.00     0.040 A 
ATOM     70  C   UNL A   1      36.389  32.423  33.486  1.00  0.00     0.040 A 
ATOM     71  F   UNL A   1      37.777  30.558  33.788  1.00  0.00    -0.206 F 
ATOM     72  C   UNL A   1      36.203  33.794  33.312  1.00  0.00     0.006 A 
ENDBRANCH  44  65
BRANCH  56  73
ATOM     73  C   UNL A   1      43.034  26.768  34.380  1.00  0.00     0.057 A 
ATOM     74  C   UNL A   1      44.376  26.433  34.551  1.00  0.00     0.134 A 
ATOM     75  C   UNL A   1      42.097  25.829  34.867  1.00  0.00     0.134 A 
ATOM     76  F   UNL A   1      45.352  27.179  34.011  1.00  0.00    -0.206 F 
ATOM     77  C   UNL A   1      44.765  25.297  35.263  1.00  0.00     0.040 A 
ATOM     78  C   UNL A   1      42.473  24.665  35.528  1.00  0.00     0.040 A 
ATOM     79  F   UNL A   1      40.773  25.993  34.751  1.00  0.00    -0.206 F 
ATOM     80  C   UNL A   1      43.813  24.411  35.756  1.00  0.00     0.006 A 
ENDBRANCH  56  73
ENDBRANCH  30  31
ENDBRANCH  23  25
ENDBRANCH  22  23
ENDBRANCH  21  22
ENDBRANCH   1  21
TORSDOF 14
ENDMDL
MODEL 3
REMARK VINA RESULT:     -12.6      2.804      8.205
REMARK SMILES Cc1ccc(C(=O)NC2(CC(=O)OCCOC(=O)c3ccc(-c4c5nc(c(-c6c(F)cccc6F)c6ccc([nH]6)c(-c6c(F)cccc6F)c6nc(c(-c7c(F)cccc7F)c7ccc4[nH]7)C=C6)C=C5)cc3)CCC2)cc1
REMARK SMILES IDX 14 1 13 2 11 3 12 4 10 5 9 6 73 7 75 8 74 9 8 10 6 11 7 12
REMARK SMILES IDX 5 14 1 15 2 16 3 17 77 18 4 19 76 20 15 21 16 22 17 23 18 24
REMARK SMILES IDX 19 25 20 26 72 27 21 28 71 29 22 30 23 31 24 32 65 33 25 34
REMARK SMILES IDX 70 35 64 36 66 37 26 38 69 39 63 40 62 41 27 43 53 44 36 45
REMARK SMILES IDX 52 46 37 47 40 48 51 49 67 50 38 51 39 52 50 54 68 55 41 56
REMARK SMILES IDX 28 57 29 58 34 59 30 60 31 61 33 62 35 63 32 64 54 65 55 66
REMARK SMILES IDX 60 67 56 68 57 69 59 70 61 71 58 72 42 73 43 74 48 75 44 76
REMARK SMILES IDX 45 77 47 78 49 79 46 80
REMARK H PARENT 8 13 66 42 40 53
REMARK Flexibility Score: inf
ROOT
ATOM      1  C   UNL A   1      36.274  23.391  23.762  1.00  0.00     0.274 C 
ENDROOT
BRANCH   1   2
ATOM      2  O   UNL A   1      34.480  24.364  23.417  1.00  0.00    -0.462 OA
BRANCH   2   3
ATOM      3  C   UNL A   1      33.647  25.366  22.839  1.00  0.00     0.308 C 
ATOM      4  O   UNL A   1      33.665  25.547  21.616  1.00  0.00    -0.252 OA
BRANCH   3   5
ATOM      5  C   UNL A   1      32.519  26.187  23.410  1.00  0.00     0.151 C 
BRANCH   5   6
ATOM      6  C   UNL A   1      32.232  26.620  24.829  1.00  0.00     0.051 C 
ATOM      7  C   UNL A   1      32.663  28.116  25.009  1.00  0.00     0.029 C 
ATOM      8  C   UNL A   1      33.245  26.305  25.967  1.00  0.00     0.029 C 
ATOM      9  C   UNL A   1      33.992  27.594  25.588  1.00  0.00     0.005 C 
BRANCH   6  10
ATOM     10  N   UNL A   1      30.827  26.436  25.224  1.00  0.00    -0.346 N 
ATOM     11  C   UNL A   1      30.358  25.281  25.755  1.00  0.00     0.251 C 
ATOM     12  O   UNL A   1      29.398  25.209  26.501  1.00  0.00    -0.269 OA
ATOM     13  H   UNL A   1      30.201  27.186  25.097  1.00  0.00     0.164 HD
BRANCH  11  14
ATOM     14  C   UNL A   1      31.194  24.138  25.444  1.00  0.00     0.039 A 
ATOM     15  C   UNL A   1      34.133  20.036  24.626  1.00  0.00     0.044 C 
ATOM     16  C   UNL A   1      33.223  21.193  24.960  1.00  0.00    -0.051 A 
ATOM     17  C   UNL A   1      32.183  21.702  23.663  1.00  0.00     0.004 A 
ATOM     18  C   UNL A   1      33.280  22.094  26.470  1.00  0.00     0.004 A 
ATOM     19  C   UNL A   1      31.201  23.186  23.852  1.00  0.00     0.014 A 
ATOM     20  C   UNL A   1      32.296  23.563  26.743  1.00  0.00     0.014 A 
ENDBRANCH  11  14
ENDBRANCH   6  10
ENDBRANCH   5   6
ENDBRANCH   3   5
ENDBRANCH   2   3
ENDBRANCH   1   2
BRANCH   1  21
ATOM     21  C   UNL A   1      36.781  22.748  25.450  1.00  0.00     0.275 C 
BRANCH  21  22
ATOM     22  O   UNL A   1      38.185  23.038  26.335  1.00  0.00    -0.458 OA
BRANCH  22  23
ATOM     23  C   UNL A   1      39.591  22.993  26.502  1.00  0.00     0.338 C 
ATOM     24  O   UNL A   1      40.189  21.920  26.476  1.00  0.00    -0.246 OA
BRANCH  23  25
ATOM     25  C   UNL A   1      40.470  24.237  26.765  1.00  0.00     0.060 A 
ATOM     26  C   UNL A   1      40.440  25.454  26.018  1.00  0.00     0.016 A 
ATOM     27  C   UNL A   1      40.911  24.321  28.055  1.00  0.00     0.016 A 
ATOM     28  C   UNL A   1      40.520  26.768  26.659  1.00  0.00     0.010 A 
ATOM     29  C   UNL A   1      40.765  25.578  28.652  1.00  0.00     0.010 A 
ATOM     30  C   UNL A   1      40.538  26.864  28.052  1.00  0.00    -0.014 A 
BRANCH  30  31
ATOM     31  C   UNL A   1      40.292  28.060  29.033  1.00  0.00     0.031 A 
ATOM     32  C   UNL A   1      39.228  29.193  29.070  1.00  0.00     0.074 A 
ATOM     33  C   UNL A   1      41.139  28.064  30.100  1.00  0.00     0.049 A 
ATOM     34  N   UNL A   1      39.427  30.490  29.112  1.00  0.00    -0.248 NA
ATOM     35  C   UNL A   1      37.799  28.952  29.260  1.00  0.00     0.031 C 
ATOM     36  C   UNL A   1      41.248  28.920  31.265  1.00  0.00     0.029 A 
ATOM     37  N   UNL A   1      42.292  27.268  30.244  1.00  0.00    -0.354 N 
ATOM     38  C   UNL A   1      38.201  31.098  29.498  1.00  0.00     0.074 A 
ATOM     39  C   UNL A   1      37.191  30.137  29.232  1.00  0.00     0.031 C 
ATOM     40  C   UNL A   1      42.541  28.887  31.672  1.00  0.00     0.029 A 
ATOM     41  C   UNL A   1      43.296  28.092  30.699  1.00  0.00     0.049 A 
ATOM     42  H   UNL A   1      42.366  26.304  30.056  1.00  0.00     0.167 HD
ATOM     43  C   UNL A   1      38.084  32.099  30.437  1.00  0.00     0.037 A 
ATOM     44  C   UNL A   1      44.251  28.441  29.787  1.00  0.00     0.037 A 
ATOM     45  C   UNL A   1      39.367  32.298  31.067  1.00  0.00     0.049 A 
ATOM     46  C   UNL A   1      44.254  29.928  29.579  1.00  0.00     0.074 A 
ATOM     47  C   UNL A   1      39.907  31.964  32.295  1.00  0.00     0.029 A 
ATOM     48  N   UNL A   1      40.413  32.656  30.265  1.00  0.00    -0.354 N 
ATOM     49  N   UNL A   1      43.328  30.703  30.065  1.00  0.00    -0.248 NA
ATOM     50  C   UNL A   1      45.239  30.668  28.802  1.00  0.00     0.031 C 
ATOM     51  C   UNL A   1      41.317  32.160  32.210  1.00  0.00     0.029 A 
ATOM     52  C   UNL A   1      41.604  32.619  30.938  1.00  0.00     0.049 A 
ATOM     53  H   UNL A   1      40.321  32.911  29.319  1.00  0.00     0.167 HD
ATOM     54  C   UNL A   1      43.573  31.993  29.730  1.00  0.00     0.074 A 
ATOM     55  C   UNL A   1      44.762  31.923  28.902  1.00  0.00     0.031 C 
ATOM     56  C   UNL A   1      42.767  32.999  30.171  1.00  0.00     0.037 A 
BRANCH  43  57
ATOM     57  C   UNL A   1      36.799  32.705  31.041  1.00  0.00     0.057 A 
ATOM     58  C   UNL A   1      36.076  33.712  30.354  1.00  0.00     0.134 A 
ATOM     59  C   UNL A   1      36.176  32.304  32.242  1.00  0.00     0.134 A 
ATOM     60  F   UNL A   1      36.434  34.132  29.134  1.00  0.00    -0.206 F 
ATOM     61  C   UNL A   1      34.919  34.334  30.856  1.00  0.00     0.040 A 
ATOM     62  C   UNL A   1      35.028  32.939  32.771  1.00  0.00     0.040 A 
ATOM     63  F   UNL A   1      36.613  31.245  32.938  1.00  0.00    -0.206 F 
ATOM     64  C   UNL A   1      34.402  33.967  32.083  1.00  0.00     0.006 A 
ENDBRANCH  43  57
BRANCH  44  65
ATOM     65  C   UNL A   1      44.518  27.386  28.729  1.00  0.00     0.057 A 
ATOM     66  C   UNL A   1      45.047  26.131  29.113  1.00  0.00     0.134 A 
ATOM     67  C   UNL A   1      43.987  27.444  27.433  1.00  0.00     0.134 A 
ATOM     68  F   UNL A   1      45.539  25.956  30.352  1.00  0.00    -0.206 F 
ATOM     69  C   UNL A   1      44.980  24.991  28.295  1.00  0.00     0.040 A 
ATOM     70  C   UNL A   1      43.923  26.311  26.600  1.00  0.00     0.040 A 
ATOM     71  F   UNL A   1      43.440  28.576  26.968  1.00  0.00    -0.206 F 
ATOM     72  C   UNL A   1      44.401  25.075  27.035  1.00  0.00     0.006 A 
ENDBRANCH  44  65
BRANCH  56  73
ATOM     73  C   UNL A   1      42.967  34.440  29.833  1.00  0.00     0.057 A 
ATOM     74  C   UNL A   1      42.881  34.899  28.519  1.00  0.00     0.134 A 
ATOM     75  C   UNL A   1      43.350  35.400  30.796  1.00  0.00     0.134 A 
ATOM     76  F   UNL A   1      42.660  34.052  27.502  1.00  0.00    -0.206 F 
ATOM     77  C   UNL A   1      43.048  36.247  28.198  1.00  0.00     0.040 A 
ATOM     78  C   UNL A   1      43.575  36.735  30.480  1.00  0.00     0.040 A 
ATOM     79  F   UNL A   1      43.506  35.107  32.094  1.00  0.00    -0.206 F 
ATOM     80  C   UNL A   1      43.393  37.169  29.180  1.00  0.00     0.006 A 
ENDBRANCH  56  73
ENDBRANCH  30  31
ENDBRANCH  23  25
ENDBRANCH  22  23
ENDBRANCH  21  22
ENDBRANCH   1  21
TORSDOF 14
ENDMDL
