MODEL 1
REMARK VINA RESULT:     -10.3      0.000      0.000
REMARK SMILES COCCN1C[C@H](C(=O)N[C@@H](C(=O)OCCOC(=O)c2ccc(-c3c4nc(c(-c5c(F)cccc5F)c5ccc([nH]5)c(-c5c(F)cccc5F)c5nc(c(-c6c(F)cccc6F)c6ccc3[nH]6)C=C5)C=C4)cc2)[C@@H](C)O)CC1=O
REMARK SMILES IDX 14 1 12 2 13 3 11 4 10 5 8 6 9 7 7 9 5 10 6 11 78 12 77 13
REMARK SMILES IDX 79 14 4 15 3 16 2 17 1 18 74 19 75 20 76 21 15 23 16 24
REMARK SMILES IDX 17 25 18 26 19 27 20 28 21 29 73 30 22 31 72 32 23 33 24 34
REMARK SMILES IDX 25 35 66 36 26 37 71 38 65 39 67 40 27 41 70 42 64 43 63 44
REMARK SMILES IDX 28 46 54 47 37 48 53 49 38 50 41 51 52 52 68 53 39 54 40 55
REMARK SMILES IDX 51 57 69 58 42 59 29 60 30 61 35 62 31 63 32 64 34 65 36 66
REMARK SMILES IDX 33 67 55 68 56 69 61 70 57 71 58 72 60 73 62 74 59 75 43 76
REMARK SMILES IDX 44 77 49 78 45 79 46 80 48 81 50 82 47 83
REMARK H PARENT 10 8 76 22 67 45 41 56
REMARK Flexibility Score: inf
ROOT
ATOM      1  O   UNL A   1      34.709  21.519  26.868  1.00  0.00    -0.460 OA
ENDROOT
BRANCH   1   2
ATOM      2  C   UNL A   1      33.476  22.022  27.148  1.00  0.00     0.331 C 
ATOM      3  O   UNL A   1      33.027  22.190  28.277  1.00  0.00    -0.250 OA
BRANCH   2   4
ATOM      4  C   UNL A   1      32.634  22.276  25.876  1.00  0.00     0.221 C 
BRANCH   4   5
ATOM      5  N   UNL A   1      31.589  23.286  26.087  1.00  0.00    -0.340 N 
ATOM      6  C   UNL A   1      31.541  24.554  25.581  1.00  0.00     0.226 C 
ATOM      7  O   UNL A   1      30.534  25.233  25.749  1.00  0.00    -0.275 OA
ATOM      8  H   UNL A   1      30.833  23.017  26.658  1.00  0.00     0.164 HD
BRANCH   6   9
ATOM      9  C   UNL A   1      32.758  25.042  24.813  1.00  0.00     0.107 C 
ATOM     10  N   UNL A   1      32.786  27.373  24.628  1.00  0.00    -0.340 N 
ATOM     11  C   UNL A   1      32.471  26.191  23.857  1.00  0.00     0.133 C 
ATOM     12  C   UNL A   1      33.311  27.069  25.866  1.00  0.00     0.223 C 
ATOM     13  C   UNL A   1      33.758  25.647  25.796  1.00  0.00     0.115 C 
ATOM     14  O   UNL A   1      33.506  27.811  26.815  1.00  0.00    -0.275 OA
BRANCH  10  15
ATOM     15  C   UNL A   1      32.509  28.713  24.145  1.00  0.00     0.148 C 
BRANCH  15  16
ATOM     16  C   UNL A   1      31.247  29.360  24.745  1.00  0.00     0.181 C 
BRANCH  16  17
ATOM     17  O   UNL A   1      30.284  29.767  23.763  1.00  0.00    -0.383 OA
ATOM     18  C   UNL A   1      29.691  28.690  23.048  1.00  0.00     0.194 C 
ENDBRANCH  16  17
ENDBRANCH  15  16
ENDBRANCH  10  15
ENDBRANCH   6   9
ENDBRANCH   4   5
BRANCH   4  19
ATOM     19  C   UNL A   1      32.033  21.007  25.236  1.00  0.00     0.145 C 
ATOM     20  C   UNL A   1      32.443  20.860  23.772  1.00  0.00     0.041 C 
BRANCH  19  21
ATOM     21  O   UNL A   1      32.433  19.795  25.878  1.00  0.00    -0.391 OA
ATOM     22  H   UNL A   1      32.674  19.137  25.205  1.00  0.00     0.211 HD
ENDBRANCH  19  21
ENDBRANCH   4  19
ENDBRANCH   2   4
ENDBRANCH   1   2
BRANCH   1  23
ATOM     23  C   UNL A   1      35.438  22.067  25.748  1.00  0.00     0.274 C 
BRANCH  23  24
ATOM     24  C   UNL A   1      36.399  21.021  25.180  1.00  0.00     0.275 C 
BRANCH  24  25
ATOM     25  O   UNL A   1      37.682  21.617  24.905  1.00  0.00    -0.458 OA
BRANCH  25  26
ATOM     26  C   UNL A   1      38.685  21.170  25.692  1.00  0.00     0.338 C 
ATOM     27  O   UNL A   1      39.223  20.075  25.671  1.00  0.00    -0.246 OA
BRANCH  26  28
ATOM     28  C   UNL A   1      39.239  22.277  26.473  1.00  0.00     0.060 A 
ATOM     29  C   UNL A   1      38.756  23.543  26.175  1.00  0.00     0.016 A 
ATOM     30  C   UNL A   1      40.362  22.130  27.276  1.00  0.00     0.016 A 
ATOM     31  C   UNL A   1      39.483  24.671  26.516  1.00  0.00     0.010 A 
ATOM     32  C   UNL A   1      41.004  23.279  27.760  1.00  0.00     0.010 A 
ATOM     33  C   UNL A   1      40.602  24.564  27.343  1.00  0.00    -0.014 A 
BRANCH  33  34
ATOM     34  C   UNL A   1      41.351  25.792  27.731  1.00  0.00     0.031 A 
ATOM     35  C   UNL A   1      40.685  26.849  28.571  1.00  0.00     0.074 A 
ATOM     36  C   UNL A   1      42.639  25.950  27.361  1.00  0.00     0.049 A 
ATOM     37  N   UNL A   1      41.077  28.073  28.826  1.00  0.00    -0.248 NA
ATOM     38  C   UNL A   1      39.403  26.490  29.198  1.00  0.00     0.031 C 
ATOM     39  C   UNL A   1      43.442  24.975  26.616  1.00  0.00     0.029 A 
ATOM     40  N   UNL A   1      43.508  26.995  27.565  1.00  0.00    -0.354 N 
ATOM     41  C   UNL A   1      40.068  28.643  29.595  1.00  0.00     0.074 A 
ATOM     42  C   UNL A   1      39.039  27.638  29.751  1.00  0.00     0.031 C 
ATOM     43  C   UNL A   1      44.685  25.449  26.457  1.00  0.00     0.029 A 
ATOM     44  C   UNL A   1      44.737  26.807  26.977  1.00  0.00     0.049 A 
ATOM     45  H   UNL A   1      43.274  27.800  28.081  1.00  0.00     0.167 HD
ATOM     46  C   UNL A   1      40.011  29.890  30.122  1.00  0.00     0.037 A 
ATOM     47  C   UNL A   1      45.771  27.651  26.808  1.00  0.00     0.037 A 
ATOM     48  C   UNL A   1      41.061  30.867  29.992  1.00  0.00     0.049 A 
ATOM     49  C   UNL A   1      45.646  29.056  27.322  1.00  0.00     0.074 A 
ATOM     50  C   UNL A   1      41.097  32.165  30.471  1.00  0.00     0.029 A 
ATOM     51  N   UNL A   1      42.272  30.645  29.351  1.00  0.00    -0.354 N 
ATOM     52  N   UNL A   1      44.658  29.611  27.981  1.00  0.00    -0.248 NA
ATOM     53  C   UNL A   1      46.773  29.958  27.054  1.00  0.00     0.031 C 
ATOM     54  C   UNL A   1      42.310  32.743  30.082  1.00  0.00     0.029 A 
ATOM     55  C   UNL A   1      43.056  31.786  29.411  1.00  0.00     0.049 A 
ATOM     56  H   UNL A   1      42.535  29.801  28.918  1.00  0.00     0.167 HD
ATOM     57  C   UNL A   1      45.056  30.917  28.229  1.00  0.00     0.074 A 
ATOM     58  C   UNL A   1      46.382  31.065  27.667  1.00  0.00     0.031 C 
ATOM     59  C   UNL A   1      44.382  31.908  28.861  1.00  0.00     0.037 A 
BRANCH  46  60
ATOM     60  C   UNL A   1      38.761  30.281  30.858  1.00  0.00     0.057 A 
ATOM     61  C   UNL A   1      38.595  30.038  32.228  1.00  0.00     0.134 A 
ATOM     62  C   UNL A   1      37.722  30.944  30.193  1.00  0.00     0.134 A 
ATOM     63  F   UNL A   1      39.544  29.393  32.925  1.00  0.00    -0.206 F 
ATOM     64  C   UNL A   1      37.432  30.419  32.902  1.00  0.00     0.040 A 
ATOM     65  C   UNL A   1      36.568  31.357  30.862  1.00  0.00     0.040 A 
ATOM     66  F   UNL A   1      37.817  31.216  28.882  1.00  0.00    -0.206 F 
ATOM     67  C   UNL A   1      36.418  31.088  32.220  1.00  0.00     0.006 A 
ENDBRANCH  46  60
BRANCH  47  68
ATOM     68  C   UNL A   1      46.979  27.218  26.058  1.00  0.00     0.057 A 
ATOM     69  C   UNL A   1      48.080  26.658  26.714  1.00  0.00     0.134 A 
ATOM     70  C   UNL A   1      47.074  27.381  24.668  1.00  0.00     0.134 A 
ATOM     71  F   UNL A   1      48.062  26.495  28.045  1.00  0.00    -0.206 F 
ATOM     72  C   UNL A   1      49.239  26.300  26.022  1.00  0.00     0.040 A 
ATOM     73  C   UNL A   1      48.211  26.993  23.959  1.00  0.00     0.040 A 
ATOM     74  F   UNL A   1      46.052  27.908  23.975  1.00  0.00    -0.206 F 
ATOM     75  C   UNL A   1      49.303  26.461  24.640  1.00  0.00     0.006 A 
ENDBRANCH  47  68
BRANCH  59  76
ATOM     76  C   UNL A   1      45.095  33.217  29.028  1.00  0.00     0.057 A 
ATOM     77  C   UNL A   1      44.962  34.259  28.102  1.00  0.00     0.134 A 
ATOM     78  C   UNL A   1      45.909  33.443  30.145  1.00  0.00     0.134 A 
ATOM     79  F   UNL A   1      44.211  34.100  27.002  1.00  0.00    -0.206 F 
ATOM     80  C   UNL A   1      45.637  35.469  28.267  1.00  0.00     0.040 A 
ATOM     81  C   UNL A   1      46.564  34.659  30.337  1.00  0.00     0.040 A 
ATOM     82  F   UNL A   1      46.073  32.488  31.074  1.00  0.00    -0.206 F 
ATOM     83  C   UNL A   1      46.435  35.674  29.391  1.00  0.00     0.006 A 
ENDBRANCH  59  76
ENDBRANCH  33  34
ENDBRANCH  26  28
ENDBRANCH  25  26
ENDBRANCH  24  25
ENDBRANCH  23  24
ENDBRANCH   1  23
TORSDOF 18
ENDMDL
MODEL 2
REMARK VINA RESULT:     -10.1      3.716      8.954
REMARK SMILES COCCN1C[C@H](C(=O)N[C@@H](C(=O)OCCOC(=O)c2ccc(-c3c4nc(c(-c5c(F)cccc5F)c5ccc([nH]5)c(-c5c(F)cccc5F)c5nc(c(-c6c(F)cccc6F)c6ccc3[nH]6)C=C5)C=C4)cc2)[C@@H](C)O)CC1=O
REMARK SMILES IDX 14 1 12 2 13 3 11 4 10 5 8 6 9 7 7 9 5 10 6 11 78 12 77 13
REMARK SMILES IDX 79 14 4 15 3 16 2 17 1 18 74 19 75 20 76 21 15 23 16 24
REMARK SMILES IDX 17 25 18 26 19 27 20 28 21 29 73 30 22 31 72 32 23 33 24 34
REMARK SMILES IDX 25 35 66 36 26 37 71 38 65 39 67 40 27 41 70 42 64 43 63 44
REMARK SMILES IDX 28 46 54 47 37 48 53 49 38 50 41 51 52 52 68 53 39 54 40 55
REMARK SMILES IDX 51 57 69 58 42 59 29 60 30 61 35 62 31 63 32 64 34 65 36 66
REMARK SMILES IDX 33 67 55 68 56 69 61 70 57 71 58 72 60 73 62 74 59 75 43 76
REMARK SMILES IDX 44 77 49 78 45 79 46 80 48 81 50 82 47 83
REMARK H PARENT 10 8 76 22 67 45 41 56
REMARK Flexibility Score: inf
ROOT
ATOM      1  O   UNL A   1      31.000  28.158  25.257  1.00  0.00    -0.460 OA
ENDROOT
BRANCH   1   2
ATOM      2  C   UNL A   1      31.213  27.046  26.011  1.00  0.00     0.331 C 
ATOM      3  O   UNL A   1      31.331  27.038  27.232  1.00  0.00    -0.250 OA
BRANCH   2   4
ATOM      4  C   UNL A   1      31.398  25.772  25.154  1.00  0.00     0.221 C 
BRANCH   4   5
ATOM      5  N   UNL A   1      32.795  25.561  24.755  1.00  0.00    -0.340 N 
ATOM      6  C   UNL A   1      33.635  24.560  25.156  1.00  0.00     0.226 C 
ATOM      7  O   UNL A   1      34.738  24.452  24.632  1.00  0.00    -0.275 OA
ATOM      8  H   UNL A   1      33.171  26.216  24.124  1.00  0.00     0.164 HD
BRANCH   6   9
ATOM      9  C   UNL A   1      33.126  23.618  26.235  1.00  0.00     0.107 C 
ATOM     10  N   UNL A   1      33.162  21.391  25.524  1.00  0.00    -0.340 N 
ATOM     11  C   UNL A   1      32.245  22.493  25.713  1.00  0.00     0.133 C 
ATOM     12  C   UNL A   1      34.436  21.687  25.956  1.00  0.00     0.223 C 
ATOM     13  C   UNL A   1      34.312  22.877  26.848  1.00  0.00     0.115 C 
ATOM     14  O   UNL A   1      35.468  21.061  25.776  1.00  0.00    -0.275 OA
BRANCH  10  15
ATOM     15  C   UNL A   1      32.764  20.149  24.887  1.00  0.00     0.148 C 
BRANCH  15  16
ATOM     16  C   UNL A   1      32.924  18.899  25.771  1.00  0.00     0.181 C 
BRANCH  16  17
ATOM     17  O   UNL A   1      32.087  17.802  25.378  1.00  0.00    -0.383 OA
ATOM     18  C   UNL A   1      32.752  16.546  25.343  1.00  0.00     0.194 C 
ENDBRANCH  16  17
ENDBRANCH  15  16
ENDBRANCH  10  15
ENDBRANCH   6   9
ENDBRANCH   4   5
BRANCH   4  19
ATOM     19  C   UNL A   1      30.469  25.682  23.925  1.00  0.00     0.145 C 
ATOM     20  C   UNL A   1      30.522  24.302  23.272  1.00  0.00     0.041 C 
BRANCH  19  21
ATOM     21  O   UNL A   1      29.092  25.921  24.225  1.00  0.00    -0.391 OA
ATOM     22  H   UNL A   1      28.964  26.862  24.426  1.00  0.00     0.211 HD
ENDBRANCH  19  21
ENDBRANCH   4  19
ENDBRANCH   2   4
ENDBRANCH   1   2
BRANCH   1  23
ATOM     23  C   UNL A   1      32.057  29.138  25.162  1.00  0.00     0.274 C 
BRANCH  23  24
ATOM     24  C   UNL A   1      31.679  30.401  25.939  1.00  0.00     0.275 C 
BRANCH  24  25
ATOM     25  O   UNL A   1      32.451  30.492  27.152  1.00  0.00    -0.458 OA
BRANCH  25  26
ATOM     26  C   UNL A   1      33.119  31.657  27.303  1.00  0.00     0.338 C 
ATOM     27  O   UNL A   1      32.657  32.786  27.342  1.00  0.00    -0.246 OA
BRANCH  26  28
ATOM     28  C   UNL A   1      34.515  31.391  27.652  1.00  0.00     0.060 A 
ATOM     29  C   UNL A   1      34.839  30.073  27.939  1.00  0.00     0.016 A 
ATOM     30  C   UNL A   1      35.414  32.410  27.943  1.00  0.00     0.016 A 
ATOM     31  C   UNL A   1      35.969  29.772  28.679  1.00  0.00     0.010 A 
ATOM     32  C   UNL A   1      36.637  32.082  28.546  1.00  0.00     0.010 A 
ATOM     33  C   UNL A   1      36.907  30.764  28.967  1.00  0.00    -0.014 A 
BRANCH  33  34
ATOM     34  C   UNL A   1      38.137  30.415  29.732  1.00  0.00     0.031 A 
ATOM     35  C   UNL A   1      39.187  29.530  29.113  1.00  0.00     0.074 A 
ATOM     36  C   UNL A   1      38.334  30.915  30.970  1.00  0.00     0.049 A 
ATOM     37  N   UNL A   1      40.205  28.933  29.678  1.00  0.00    -0.248 NA
ATOM     38  C   UNL A   1      39.069  29.271  27.669  1.00  0.00     0.031 C 
ATOM     39  C   UNL A   1      37.446  31.850  31.668  1.00  0.00     0.029 A 
ATOM     40  N   UNL A   1      39.355  30.708  31.867  1.00  0.00    -0.354 N 
ATOM     41  C   UNL A   1      40.815  28.189  28.675  1.00  0.00     0.074 A 
ATOM     42  C   UNL A   1      40.044  28.395  27.469  1.00  0.00     0.031 C 
ATOM     43  C   UNL A   1      37.973  32.160  32.860  1.00  0.00     0.029 A 
ATOM     44  C   UNL A   1      39.169  31.357  33.065  1.00  0.00     0.049 A 
ATOM     45  H   UNL A   1      40.142  30.150  31.671  1.00  0.00     0.167 HD
ATOM     46  C   UNL A   1      41.920  27.408  28.757  1.00  0.00     0.037 A 
ATOM     47  C   UNL A   1      39.840  31.268  34.228  1.00  0.00     0.037 A 
ATOM     48  C   UNL A   1      42.703  27.243  29.955  1.00  0.00     0.049 A 
ATOM     49  C   UNL A   1      41.006  30.327  34.318  1.00  0.00     0.074 A 
ATOM     50  C   UNL A   1      43.828  26.461  30.150  1.00  0.00     0.029 A 
ATOM     51  N   UNL A   1      42.451  27.889  31.157  1.00  0.00    -0.354 N 
ATOM     52  N   UNL A   1      41.530  29.568  33.386  1.00  0.00    -0.248 NA
ATOM     53  C   UNL A   1      41.663  30.215  35.627  1.00  0.00     0.031 C 
ATOM     54  C   UNL A   1      44.231  26.600  31.483  1.00  0.00     0.029 A 
ATOM     55  C   UNL A   1      43.393  27.513  32.102  1.00  0.00     0.049 A 
ATOM     56  H   UNL A   1      41.713  28.521  31.315  1.00  0.00     0.167 HD
ATOM     57  C   UNL A   1      42.594  28.911  33.988  1.00  0.00     0.074 A 
ATOM     58  C   UNL A   1      42.651  29.375  35.359  1.00  0.00     0.031 C 
ATOM     59  C   UNL A   1      43.445  28.000  33.456  1.00  0.00     0.037 A 
BRANCH  46  60
ATOM     60  C   UNL A   1      42.330  26.647  27.528  1.00  0.00     0.057 A 
ATOM     61  C   UNL A   1      43.187  27.192  26.563  1.00  0.00     0.134 A 
ATOM     62  C   UNL A   1      41.887  25.332  27.325  1.00  0.00     0.134 A 
ATOM     63  F   UNL A   1      43.637  28.450  26.686  1.00  0.00    -0.206 F 
ATOM     64  C   UNL A   1      43.570  26.467  25.432  1.00  0.00     0.040 A 
ATOM     65  C   UNL A   1      42.287  24.587  26.214  1.00  0.00     0.040 A 
ATOM     66  F   UNL A   1      41.070  24.745  28.212  1.00  0.00    -0.206 F 
ATOM     67  C   UNL A   1      43.126  25.157  25.259  1.00  0.00     0.006 A 
ENDBRANCH  46  60
BRANCH  47  68
ATOM     68  C   UNL A   1      39.383  32.032  35.419  1.00  0.00     0.057 A 
ATOM     69  C   UNL A   1      38.486  31.478  36.338  1.00  0.00     0.134 A 
ATOM     70  C   UNL A   1      39.811  33.347  35.652  1.00  0.00     0.134 A 
ATOM     71  F   UNL A   1      38.022  30.232  36.161  1.00  0.00    -0.206 F 
ATOM     72  C   UNL A   1      38.011  32.208  37.429  1.00  0.00     0.040 A 
ATOM     73  C   UNL A   1      39.373  34.076  36.758  1.00  0.00     0.040 A 
ATOM     74  F   UNL A   1      40.675  33.939  34.813  1.00  0.00    -0.206 F 
ATOM     75  C   UNL A   1      38.461  33.509  37.644  1.00  0.00     0.006 A 
ENDBRANCH  47  68
BRANCH  59  76
ATOM     76  C   UNL A   1      44.543  27.495  34.345  1.00  0.00     0.057 A 
ATOM     77  C   UNL A   1      45.776  28.151  34.447  1.00  0.00     0.134 A 
ATOM     78  C   UNL A   1      44.352  26.348  35.124  1.00  0.00     0.134 A 
ATOM     79  F   UNL A   1      46.029  29.245  33.714  1.00  0.00    -0.206 F 
ATOM     80  C   UNL A   1      46.791  27.666  35.273  1.00  0.00     0.040 A 
ATOM     81  C   UNL A   1      45.347  25.871  35.977  1.00  0.00     0.040 A 
ATOM     82  F   UNL A   1      43.191  25.677  35.078  1.00  0.00    -0.206 F 
ATOM     83  C   UNL A   1      46.574  26.527  36.046  1.00  0.00     0.006 A 
ENDBRANCH  59  76
ENDBRANCH  33  34
ENDBRANCH  26  28
ENDBRANCH  25  26
ENDBRANCH  24  25
ENDBRANCH  23  24
ENDBRANCH   1  23
TORSDOF 18
ENDMDL
MODEL 3
REMARK VINA RESULT:     -10.1      5.500     10.487
REMARK SMILES COCCN1C[C@H](C(=O)N[C@@H](C(=O)OCCOC(=O)c2ccc(-c3c4nc(c(-c5c(F)cccc5F)c5ccc([nH]5)c(-c5c(F)cccc5F)c5nc(c(-c6c(F)cccc6F)c6ccc3[nH]6)C=C5)C=C4)cc2)[C@@H](C)O)CC1=O
REMARK SMILES IDX 14 1 12 2 13 3 11 4 10 5 8 6 9 7 7 9 5 10 6 11 78 12 77 13
REMARK SMILES IDX 79 14 4 15 3 16 2 17 1 18 74 19 75 20 76 21 15 23 16 24
REMARK SMILES IDX 17 25 18 26 19 27 20 28 21 29 73 30 22 31 72 32 23 33 24 34
REMARK SMILES IDX 25 35 66 36 26 37 71 38 65 39 67 40 27 41 70 42 64 43 63 44
REMARK SMILES IDX 28 46 54 47 37 48 53 49 38 50 41 51 52 52 68 53 39 54 40 55
REMARK SMILES IDX 51 57 69 58 42 59 29 60 30 61 35 62 31 63 32 64 34 65 36 66
REMARK SMILES IDX 33 67 55 68 56 69 61 70 57 71 58 72 60 73 62 74 59 75 43 76
REMARK SMILES IDX 44 77 49 78 45 79 46 80 48 81 50 82 47 83
REMARK H PARENT 10 8 76 22 67 45 41 56
REMARK Flexibility Score: inf
ROOT
ATOM      1  O   UNL A   1      32.887  35.130  29.275  1.00  0.00    -0.460 OA
ENDROOT
BRANCH   1   2
ATOM      2  C   UNL A   1      33.153  36.300  29.917  1.00  0.00     0.331 C 
ATOM      3  O   UNL A   1      33.002  37.416  29.431  1.00  0.00    -0.250 OA
BRANCH   2   4
ATOM      4  C   UNL A   1      33.773  36.083  31.317  1.00  0.00     0.221 C 
BRANCH   4   5
ATOM      5  N   UNL A   1      33.407  34.786  31.899  1.00  0.00    -0.340 N 
ATOM      6  C   UNL A   1      34.233  33.736  32.182  1.00  0.00     0.226 C 
ATOM      7  O   UNL A   1      33.791  32.764  32.785  1.00  0.00    -0.275 OA
ATOM      8  H   UNL A   1      32.454  34.658  32.112  1.00  0.00     0.164 HD
BRANCH   6   9
ATOM      9  C   UNL A   1      35.682  33.853  31.735  1.00  0.00     0.107 C 
ATOM     10  N   UNL A   1      37.156  33.075  33.374  1.00  0.00    -0.340 N 
ATOM     11  C   UNL A   1      36.635  34.309  32.829  1.00  0.00     0.133 C 
ATOM     12  C   UNL A   1      36.715  31.967  32.684  1.00  0.00     0.223 C 
ATOM     13  C   UNL A   1      36.204  32.465  31.372  1.00  0.00     0.115 C 
ATOM     14  O   UNL A   1      36.814  30.789  32.987  1.00  0.00    -0.275 OA
BRANCH  10  15
ATOM     15  C   UNL A   1      37.998  33.041  34.556  1.00  0.00     0.148 C 
BRANCH  15  16
ATOM     16  C   UNL A   1      37.253  33.299  35.878  1.00  0.00     0.181 C 
BRANCH  16  17
ATOM     17  O   UNL A   1      37.356  32.221  36.820  1.00  0.00    -0.383 OA
ATOM     18  C   UNL A   1      38.093  31.102  36.345  1.00  0.00     0.194 C 
ENDBRANCH  16  17
ENDBRANCH  15  16
ENDBRANCH  10  15
ENDBRANCH   6   9
ENDBRANCH   4   5
BRANCH   4  19
ATOM     19  C   UNL A   1      33.501  37.220  32.325  1.00  0.00     0.145 C 
ATOM     20  C   UNL A   1      33.815  36.796  33.759  1.00  0.00     0.041 C 
BRANCH  19  21
ATOM     21  O   UNL A   1      34.276  38.397  32.087  1.00  0.00    -0.391 OA
ATOM     22  H   UNL A   1      34.595  38.750  32.933  1.00  0.00     0.211 HD
ENDBRANCH  19  21
ENDBRANCH   4  19
ENDBRANCH   2   4
ENDBRANCH   1   2
BRANCH   1  23
ATOM     23  C   UNL A   1      33.918  34.549  28.448  1.00  0.00     0.274 C 
BRANCH  23  24
ATOM     24  C   UNL A   1      33.591  33.085  28.144  1.00  0.00     0.275 C 
BRANCH  24  25
ATOM     25  O   UNL A   1      34.790  32.288  28.173  1.00  0.00    -0.458 OA
BRANCH  25  26
ATOM     26  C   UNL A   1      34.589  30.969  27.959  1.00  0.00     0.338 C 
ATOM     27  O   UNL A   1      33.603  30.428  27.485  1.00  0.00    -0.246 OA
BRANCH  26  28
ATOM     28  C   UNL A   1      35.837  30.232  28.167  1.00  0.00     0.060 A 
ATOM     29  C   UNL A   1      35.972  29.582  29.386  1.00  0.00     0.016 A 
ATOM     30  C   UNL A   1      36.933  30.378  27.328  1.00  0.00     0.016 A 
ATOM     31  C   UNL A   1      37.225  29.237  29.862  1.00  0.00     0.010 A 
ATOM     32  C   UNL A   1      38.175  29.876  27.744  1.00  0.00     0.010 A 
ATOM     33  C   UNL A   1      38.346  29.344  29.037  1.00  0.00    -0.014 A 
BRANCH  33  34
ATOM     34  C   UNL A   1      39.681  28.932  29.554  1.00  0.00     0.031 A 
ATOM     35  C   UNL A   1      40.405  27.767  28.932  1.00  0.00     0.074 A 
ATOM     36  C   UNL A   1      40.266  29.619  30.557  1.00  0.00     0.049 A 
ATOM     37  N   UNL A   1      41.454  27.115  29.367  1.00  0.00    -0.248 NA
ATOM     38  C   UNL A   1      39.872  27.256  27.659  1.00  0.00     0.031 C 
ATOM     39  C   UNL A   1      39.725  30.819  31.204  1.00  0.00     0.029 A 
ATOM     40  N   UNL A   1      41.456  29.409  31.213  1.00  0.00    -0.354 N 
ATOM     41  C   UNL A   1      41.672  26.090  28.454  1.00  0.00     0.074 A 
ATOM     42  C   UNL A   1      40.637  26.195  27.448  1.00  0.00     0.031 C 
ATOM     43  C   UNL A   1      40.588  31.254  32.131  1.00  0.00     0.029 A 
ATOM     44  C   UNL A   1      41.683  30.301  32.234  1.00  0.00     0.049 A 
ATOM     45  H   UNL A   1      42.084  28.688  30.975  1.00  0.00     0.167 HD
ATOM     46  C   UNL A   1      42.649  25.151  28.456  1.00  0.00     0.037 A 
ATOM     47  C   UNL A   1      42.625  30.320  33.194  1.00  0.00     0.037 A 
ATOM     48  C   UNL A   1      43.698  25.083  29.441  1.00  0.00     0.049 A 
ATOM     49  C   UNL A   1      43.642  29.217  33.228  1.00  0.00     0.074 A 
ATOM     50  C   UNL A   1      44.726  24.162  29.546  1.00  0.00     0.029 A 
ATOM     51  N   UNL A   1      43.863  25.986  30.482  1.00  0.00    -0.354 N 
ATOM     52  N   UNL A   1      43.796  28.208  32.405  1.00  0.00    -0.248 NA
ATOM     53  C   UNL A   1      44.607  29.244  34.334  1.00  0.00     0.031 C 
ATOM     54  C   UNL A   1      45.487  24.482  30.676  1.00  0.00     0.029 A 
ATOM     55  C   UNL A   1      44.968  25.636  31.241  1.00  0.00     0.049 A 
ATOM     56  H   UNL A   1      43.281  26.762  30.655  1.00  0.00     0.167 HD
ATOM     57  C   UNL A   1      44.890  27.498  32.878  1.00  0.00     0.074 A 
ATOM     58  C   UNL A   1      45.372  28.202  34.048  1.00  0.00     0.031 C 
ATOM     59  C   UNL A   1      45.444  26.361  32.392  1.00  0.00     0.037 A 
BRANCH  46  60
ATOM     60  C   UNL A   1      42.614  24.103  27.380  1.00  0.00     0.057 A 
ATOM     61  C   UNL A   1      43.184  24.309  26.117  1.00  0.00     0.134 A 
ATOM     62  C   UNL A   1      42.030  22.853  27.625  1.00  0.00     0.134 A 
ATOM     63  F   UNL A   1      43.747  25.488  25.809  1.00  0.00    -0.206 F 
ATOM     64  C   UNL A   1      43.155  23.320  25.131  1.00  0.00     0.040 A 
ATOM     65  C   UNL A   1      42.021  21.846  26.658  1.00  0.00     0.040 A 
ATOM     66  F   UNL A   1      41.471  22.584  28.815  1.00  0.00    -0.206 F 
ATOM     67  C   UNL A   1      42.579  22.081  25.404  1.00  0.00     0.006 A 
ENDBRANCH  46  60
BRANCH  47  68
ATOM     68  C   UNL A   1      42.606  31.372  34.244  1.00  0.00     0.057 A 
ATOM     69  C   UNL A   1      41.895  31.196  35.437  1.00  0.00     0.134 A 
ATOM     70  C   UNL A   1      43.275  32.592  34.070  1.00  0.00     0.134 A 
ATOM     71  F   UNL A   1      41.216  30.061  35.657  1.00  0.00    -0.206 F 
ATOM     72  C   UNL A   1      41.829  32.201  36.403  1.00  0.00     0.040 A 
ATOM     73  C   UNL A   1      43.248  33.590  35.043  1.00  0.00     0.040 A 
ATOM     74  F   UNL A   1      43.980  32.825  32.952  1.00  0.00    -0.206 F 
ATOM     75  C   UNL A   1      42.512  33.400  36.210  1.00  0.00     0.006 A 
ENDBRANCH  47  68
BRANCH  59  76
ATOM     76  C   UNL A   1      46.667  25.846  33.091  1.00  0.00     0.057 A 
ATOM     77  C   UNL A   1      46.590  24.923  34.141  1.00  0.00     0.134 A 
ATOM     78  C   UNL A   1      47.942  26.268  32.691  1.00  0.00     0.134 A 
ATOM     79  F   UNL A   1      45.399  24.493  34.583  1.00  0.00    -0.206 F 
ATOM     80  C   UNL A   1      47.736  24.458  34.786  1.00  0.00     0.040 A 
ATOM     81  C   UNL A   1      49.096  25.786  33.307  1.00  0.00     0.040 A 
ATOM     82  F   UNL A   1      48.085  27.145  31.687  1.00  0.00    -0.206 F 
ATOM     83  C   UNL A   1      48.994  24.885  34.365  1.00  0.00     0.006 A 
ENDBRANCH  59  76
ENDBRANCH  33  34
ENDBRANCH  26  28
ENDBRANCH  25  26
ENDBRANCH  24  25
ENDBRANCH  23  24
ENDBRANCH   1  23
TORSDOF 18
ENDMDL
