MODEL 1
REMARK VINA RESULT:     -11.7      0.000      0.000
REMARK SMILES CC[C@H](C(=O)OCCOC(=O)c1ccc(-c2c3nc(c(-c4c(F)cccc4F)c4ccc([nH]4)c(-c4c(F)cccc4F)c4nc(c(-c5c(F)cccc5F)c5ccc2[nH]5)C=C4)C=C3)cc1)N1C(=O)c2ccc([N+](=O)[O-])cc2C1=O
REMARK SMILES IDX 7 1 6 2 4 3 5 4 3 5 2 6 1 7 66 8 67 9 78 10 68 11 69 12
REMARK SMILES IDX 77 13 79 14 70 15 76 16 71 17 72 18 73 19 74 20 75 21 8 22
REMARK SMILES IDX 9 23 10 24 11 25 12 26 13 27 65 28 14 29 64 30 15 31 16 32
REMARK SMILES IDX 17 33 58 34 18 35 63 36 57 37 59 38 19 39 62 40 56 41 55 42
REMARK SMILES IDX 20 44 46 45 29 46 45 47 30 48 33 49 44 50 60 51 31 52 32 53
REMARK SMILES IDX 43 55 61 56 34 57 21 58 22 59 27 60 23 61 24 62 26 63 28 64
REMARK SMILES IDX 25 65 47 66 48 67 53 68 49 69 50 70 52 71 54 72 51 73 35 74
REMARK SMILES IDX 36 75 41 76 37 77 38 78 40 79 42 80 39 81
REMARK H PARENT 59 43 33 54
REMARK Flexibility Score: inf
ROOT
ATOM      1  C   UNL A   1      31.537  28.732  26.825  1.00  0.00     0.274 C 
ENDROOT
BRANCH   1   2
ATOM      2  O   UNL A   1      32.341  27.649  26.308  1.00  0.00    -0.461 OA
BRANCH   2   3
ATOM      3  C   UNL A   1      31.634  26.595  25.809  1.00  0.00     0.329 C 
ATOM      4  O   UNL A   1      30.897  25.891  26.493  1.00  0.00    -0.250 OA
BRANCH   3   5
ATOM      5  C   UNL A   1      31.819  26.432  24.284  1.00  0.00     0.203 C 
BRANCH   5   6
ATOM      6  C   UNL A   1      31.782  25.002  23.730  1.00  0.00     0.034 C 
ATOM      7  C   UNL A   1      32.370  24.805  22.341  1.00  0.00     0.007 C 
ENDBRANCH   5   6
BRANCH   5   8
ATOM      8  N   UNL A   1      30.868  27.324  23.596  1.00  0.00    -0.260 N 
ATOM      9  C   UNL A   1      29.506  27.158  23.601  1.00  0.00     0.262 C 
ATOM     10  C   UNL A   1      31.224  28.444  22.895  1.00  0.00     0.262 C 
ATOM     11  O   UNL A   1      28.839  26.217  23.963  1.00  0.00    -0.269 OA
ATOM     12  C   UNL A   1      28.941  28.387  23.045  1.00  0.00     0.053 A 
ATOM     13  C   UNL A   1      29.986  29.144  22.546  1.00  0.00     0.060 A 
ATOM     14  O   UNL A   1      32.335  28.868  22.636  1.00  0.00    -0.269 OA
ATOM     15  C   UNL A   1      27.638  28.844  23.047  1.00  0.00     0.022 A 
ATOM     16  C   UNL A   1      29.783  30.381  21.956  1.00  0.00     0.100 A 
ATOM     17  C   UNL A   1      27.397  30.103  22.487  1.00  0.00     0.086 A 
ATOM     18  C   UNL A   1      28.460  30.856  21.929  1.00  0.00     0.270 A 
BRANCH  18  19
ATOM     19  N   UNL A   1      28.168  32.157  21.307  1.00  0.00     0.062 N 
ATOM     20  O   UNL A   1      28.182  33.157  22.038  1.00  0.00    -0.258 OA
ATOM     21  O   UNL A   1      27.881  32.160  20.103  1.00  0.00    -0.258 OA
ENDBRANCH  18  19
ENDBRANCH   5   8
ENDBRANCH   3   5
ENDBRANCH   2   3
ENDBRANCH   1   2
BRANCH   1  22
ATOM     22  C   UNL A   1      31.699  30.048  26.052  1.00  0.00     0.275 C 
BRANCH  22  23
ATOM     23  O   UNL A   1      33.053  30.537  26.061  1.00  0.00    -0.458 OA
BRANCH  23  24
ATOM     24  C   UNL A   1      33.294  31.527  26.952  1.00  0.00     0.338 C 
ATOM     25  O   UNL A   1      32.523  32.403  27.308  1.00  0.00    -0.246 OA
BRANCH  24  26
ATOM     26  C   UNL A   1      34.579  31.284  27.626  1.00  0.00     0.060 A 
ATOM     27  C   UNL A   1      34.836  29.970  28.007  1.00  0.00     0.016 A 
ATOM     28  C   UNL A   1      35.476  32.299  27.958  1.00  0.00     0.016 A 
ATOM     29  C   UNL A   1      36.000  29.646  28.686  1.00  0.00     0.010 A 
ATOM     30  C   UNL A   1      36.647  31.976  28.661  1.00  0.00     0.010 A 
ATOM     31  C   UNL A   1      36.917  30.643  29.021  1.00  0.00    -0.014 A 
BRANCH  31  32
ATOM     32  C   UNL A   1      38.091  30.258  29.839  1.00  0.00     0.031 A 
ATOM     33  C   UNL A   1      39.174  29.427  29.220  1.00  0.00     0.074 A 
ATOM     34  C   UNL A   1      38.247  30.756  31.079  1.00  0.00     0.049 A 
ATOM     35  N   UNL A   1      40.236  28.905  29.775  1.00  0.00    -0.248 NA
ATOM     36  C   UNL A   1      39.049  29.157  27.780  1.00  0.00     0.031 C 
ATOM     37  C   UNL A   1      37.323  31.680  31.739  1.00  0.00     0.029 A 
ATOM     38  N   UNL A   1      39.248  30.572  31.997  1.00  0.00    -0.354 N 
ATOM     39  C   UNL A   1      40.886  28.210  28.764  1.00  0.00     0.074 A 
ATOM     40  C   UNL A   1      40.104  28.388  27.559  1.00  0.00     0.031 C 
ATOM     41  C   UNL A   1      37.810  31.991  32.952  1.00  0.00     0.029 A 
ATOM     42  C   UNL A   1      39.040  31.238  33.182  1.00  0.00     0.049 A 
ATOM     43  H   UNL A   1      40.041  30.014  31.826  1.00  0.00     0.167 HD
ATOM     44  C   UNL A   1      42.021  27.475  28.843  1.00  0.00     0.037 A 
ATOM     45  C   UNL A   1      39.743  31.207  34.331  1.00  0.00     0.037 A 
ATOM     46  C   UNL A   1      42.794  27.317  30.047  1.00  0.00     0.049 A 
ATOM     47  C   UNL A   1      40.947  30.304  34.424  1.00  0.00     0.074 A 
ATOM     48  C   UNL A   1      43.929  26.552  30.252  1.00  0.00     0.029 A 
ATOM     49  N   UNL A   1      42.513  27.946  31.251  1.00  0.00    -0.354 N 
ATOM     50  N   UNL A   1      41.498  29.562  33.493  1.00  0.00    -0.248 NA
ATOM     51  C   UNL A   1      41.601  30.205  35.736  1.00  0.00     0.031 C 
ATOM     52  C   UNL A   1      44.306  26.680  31.594  1.00  0.00     0.029 A 
ATOM     53  C   UNL A   1      43.437  27.568  32.211  1.00  0.00     0.049 A 
ATOM     54  H   UNL A   1      41.767  28.570  31.403  1.00  0.00     0.167 HD
ATOM     55  C   UNL A   1      42.573  28.924  34.101  1.00  0.00     0.074 A 
ATOM     56  C   UNL A   1      42.605  29.380  35.475  1.00  0.00     0.031 C 
ATOM     57  C   UNL A   1      43.450  28.034  33.574  1.00  0.00     0.037 A 
BRANCH  44  58
ATOM     58  C   UNL A   1      42.440  26.728  27.613  1.00  0.00     0.057 A 
ATOM     59  C   UNL A   1      43.280  27.288  26.642  1.00  0.00     0.134 A 
ATOM     60  C   UNL A   1      41.986  25.419  27.397  1.00  0.00     0.134 A 
ATOM     61  F   UNL A   1      43.732  28.543  26.778  1.00  0.00    -0.206 F 
ATOM     62  C   UNL A   1      43.631  26.583  25.488  1.00  0.00     0.040 A 
ATOM     63  C   UNL A   1      42.352  24.696  26.261  1.00  0.00     0.040 A 
ATOM     64  F   UNL A   1      41.179  24.823  28.287  1.00  0.00    -0.206 F 
ATOM     65  C   UNL A   1      43.169  25.282  25.297  1.00  0.00     0.006 A 
ENDBRANCH  44  58
BRANCH  45  66
ATOM     66  C   UNL A   1      39.304  32.005  35.506  1.00  0.00     0.057 A 
ATOM     67  C   UNL A   1      38.450  31.463  36.473  1.00  0.00     0.134 A 
ATOM     68  C   UNL A   1      39.700  33.338  35.678  1.00  0.00     0.134 A 
ATOM     69  F   UNL A   1      38.002  30.205  36.351  1.00  0.00    -0.206 F 
ATOM     70  C   UNL A   1      38.001  32.215  37.562  1.00  0.00     0.040 A 
ATOM     71  C   UNL A   1      39.283  34.093  36.776  1.00  0.00     0.040 A 
ATOM     72  F   UNL A   1      40.509  33.926  34.784  1.00  0.00    -0.206 F 
ATOM     73  C   UNL A   1      38.425  33.533  37.719  1.00  0.00     0.006 A 
ENDBRANCH  45  66
BRANCH  57  74
ATOM     74  C   UNL A   1      44.527  27.512  34.479  1.00  0.00     0.057 A 
ATOM     75  C   UNL A   1      44.371  26.322  35.202  1.00  0.00     0.134 A 
ATOM     76  C   UNL A   1      45.752  28.182  34.591  1.00  0.00     0.134 A 
ATOM     77  F   UNL A   1      43.218  25.640  35.148  1.00  0.00    -0.206 F 
ATOM     78  C   UNL A   1      45.390  25.826  36.018  1.00  0.00     0.040 A 
ATOM     79  C   UNL A   1      46.787  27.683  35.384  1.00  0.00     0.040 A 
ATOM     80  F   UNL A   1      45.970  29.322  33.918  1.00  0.00    -0.206 F 
ATOM     81  C   UNL A   1      46.606  26.504  36.103  1.00  0.00     0.006 A 
ENDBRANCH  57  74
ENDBRANCH  31  32
ENDBRANCH  24  26
ENDBRANCH  23  24
ENDBRANCH  22  23
ENDBRANCH   1  22
TORSDOF 14
ENDMDL
MODEL 2
REMARK VINA RESULT:     -11.4      5.154      9.953
REMARK SMILES CC[C@H](C(=O)OCCOC(=O)c1ccc(-c2c3nc(c(-c4c(F)cccc4F)c4ccc([nH]4)c(-c4c(F)cccc4F)c4nc(c(-c5c(F)cccc5F)c5ccc2[nH]5)C=C4)C=C3)cc1)N1C(=O)c2ccc([N+](=O)[O-])cc2C1=O
REMARK SMILES IDX 7 1 6 2 4 3 5 4 3 5 2 6 1 7 66 8 67 9 78 10 68 11 69 12
REMARK SMILES IDX 77 13 79 14 70 15 76 16 71 17 72 18 73 19 74 20 75 21 8 22
REMARK SMILES IDX 9 23 10 24 11 25 12 26 13 27 65 28 14 29 64 30 15 31 16 32
REMARK SMILES IDX 17 33 58 34 18 35 63 36 57 37 59 38 19 39 62 40 56 41 55 42
REMARK SMILES IDX 20 44 46 45 29 46 45 47 30 48 33 49 44 50 60 51 31 52 32 53
REMARK SMILES IDX 43 55 61 56 34 57 21 58 22 59 27 60 23 61 24 62 26 63 28 64
REMARK SMILES IDX 25 65 47 66 48 67 53 68 49 69 50 70 52 71 54 72 51 73 35 74
REMARK SMILES IDX 36 75 41 76 37 77 38 78 40 79 42 80 39 81
REMARK H PARENT 59 43 33 54
REMARK Flexibility Score: inf
ROOT
ATOM      1  C   UNL A   1      36.127  22.581  23.606  1.00  0.00     0.274 C 
ENDROOT
BRANCH   1   2
ATOM      2  O   UNL A   1      34.744  22.834  23.272  1.00  0.00    -0.461 OA
BRANCH   2   3
ATOM      3  C   UNL A   1      33.982  23.304  24.301  1.00  0.00     0.329 C 
ATOM      4  O   UNL A   1      34.400  24.084  25.151  1.00  0.00    -0.250 OA
BRANCH   3   5
ATOM      5  C   UNL A   1      32.526  22.791  24.237  1.00  0.00     0.203 C 
BRANCH   5   6
ATOM      6  C   UNL A   1      31.628  23.384  23.144  1.00  0.00     0.034 C 
ATOM      7  C   UNL A   1      30.632  24.441  23.594  1.00  0.00     0.007 C 
ENDBRANCH   5   6
BRANCH   5   8
ATOM      8  N   UNL A   1      32.547  21.317  24.205  1.00  0.00    -0.260 N 
ATOM      9  C   UNL A   1      32.264  20.561  23.095  1.00  0.00     0.262 C 
ATOM     10  C   UNL A   1      32.883  20.523  25.268  1.00  0.00     0.262 C 
ATOM     11  O   UNL A   1      31.777  20.886  22.038  1.00  0.00    -0.269 OA
ATOM     12  C   UNL A   1      32.663  19.192  23.420  1.00  0.00     0.053 A 
ATOM     13  C   UNL A   1      32.971  19.150  24.768  1.00  0.00     0.060 A 
ATOM     14  O   UNL A   1      33.137  20.841  26.415  1.00  0.00    -0.269 OA
ATOM     15  C   UNL A   1      32.820  18.095  22.595  1.00  0.00     0.022 A 
ATOM     16  C   UNL A   1      33.397  17.988  25.390  1.00  0.00     0.100 A 
ATOM     17  C   UNL A   1      33.277  16.910  23.182  1.00  0.00     0.086 A 
ATOM     18  C   UNL A   1      33.544  16.853  24.572  1.00  0.00     0.270 A 
BRANCH  18  19
ATOM     19  N   UNL A   1      33.980  15.580  25.167  1.00  0.00     0.062 N 
ATOM     20  O   UNL A   1      35.192  15.432  25.377  1.00  0.00    -0.258 OA
ATOM     21  O   UNL A   1      33.112  14.723  25.375  1.00  0.00    -0.258 OA
ENDBRANCH  18  19
ENDBRANCH   5   8
ENDBRANCH   3   5
ENDBRANCH   2   3
ENDBRANCH   1   2
BRANCH   1  22
ATOM     22  C   UNL A   1      36.334  21.342  24.488  1.00  0.00     0.275 C 
BRANCH  22  23
ATOM     23  O   UNL A   1      36.956  21.653  25.749  1.00  0.00    -0.458 OA
BRANCH  23  24
ATOM     24  C   UNL A   1      38.259  21.299  25.842  1.00  0.00     0.338 C 
ATOM     25  O   UNL A   1      38.783  20.288  25.404  1.00  0.00    -0.246 OA
BRANCH  24  26
ATOM     26  C   UNL A   1      39.040  22.427  26.373  1.00  0.00     0.060 A 
ATOM     27  C   UNL A   1      38.583  23.702  26.047  1.00  0.00     0.016 A 
ATOM     28  C   UNL A   1      40.225  22.270  27.092  1.00  0.00     0.016 A 
ATOM     29  C   UNL A   1      39.274  24.828  26.463  1.00  0.00     0.010 A 
ATOM     30  C   UNL A   1      40.936  23.410  27.499  1.00  0.00     0.010 A 
ATOM     31  C   UNL A   1      40.457  24.696  27.191  1.00  0.00    -0.014 A 
BRANCH  31  32
ATOM     32  C   UNL A   1      41.210  25.929  27.519  1.00  0.00     0.031 A 
ATOM     33  C   UNL A   1      40.577  26.962  28.401  1.00  0.00     0.074 A 
ATOM     34  C   UNL A   1      42.494  26.061  27.137  1.00  0.00     0.049 A 
ATOM     35  N   UNL A   1      41.018  28.146  28.738  1.00  0.00    -0.248 NA
ATOM     36  C   UNL A   1      39.277  26.609  28.993  1.00  0.00     0.031 C 
ATOM     37  C   UNL A   1      43.257  25.064  26.387  1.00  0.00     0.029 A 
ATOM     38  N   UNL A   1      43.388  27.079  27.345  1.00  0.00    -0.354 N 
ATOM     39  C   UNL A   1      40.034  28.698  29.547  1.00  0.00     0.074 A 
ATOM     40  C   UNL A   1      38.979  27.714  29.660  1.00  0.00     0.031 C 
ATOM     41  C   UNL A   1      44.510  25.516  26.210  1.00  0.00     0.029 A 
ATOM     42  C   UNL A   1      44.619  26.859  26.773  1.00  0.00     0.049 A 
ATOM     43  H   UNL A   1      43.170  27.892  27.857  1.00  0.00     0.167 HD
ATOM     44  C   UNL A   1      40.008  29.923  30.124  1.00  0.00     0.037 A 
ATOM     45  C   UNL A   1      45.691  27.670  26.679  1.00  0.00     0.037 A 
ATOM     46  C   UNL A   1      41.072  30.887  30.011  1.00  0.00     0.049 A 
ATOM     47  C   UNL A   1      45.600  29.065  27.244  1.00  0.00     0.074 A 
ATOM     48  C   UNL A   1      41.126  32.176  30.511  1.00  0.00     0.029 A 
ATOM     49  N   UNL A   1      42.274  30.660  29.358  1.00  0.00    -0.354 N 
ATOM     50  N   UNL A   1      44.623  29.622  27.918  1.00  0.00    -0.248 NA
ATOM     51  C   UNL A   1      46.746  29.953  27.003  1.00  0.00     0.031 C 
ATOM     52  C   UNL A   1      42.342  32.746  30.117  1.00  0.00     0.029 A 
ATOM     53  C   UNL A   1      43.068  31.793  29.419  1.00  0.00     0.049 A 
ATOM     54  H   UNL A   1      42.528  29.817  28.917  1.00  0.00     0.167 HD
ATOM     55  C   UNL A   1      45.043  30.919  28.196  1.00  0.00     0.074 A 
ATOM     56  C   UNL A   1      46.369  31.057  27.632  1.00  0.00     0.031 C 
ATOM     57  C   UNL A   1      44.387  31.909  28.851  1.00  0.00     0.037 A 
BRANCH  44  58
ATOM     58  C   UNL A   1      38.758  30.309  30.857  1.00  0.00     0.057 A 
ATOM     59  C   UNL A   1      38.580  30.059  32.223  1.00  0.00     0.134 A 
ATOM     60  C   UNL A   1      37.710  30.942  30.173  1.00  0.00     0.134 A 
ATOM     61  F   UNL A   1      39.535  29.438  32.930  1.00  0.00    -0.206 F 
ATOM     62  C   UNL A   1      37.393  30.399  32.876  1.00  0.00     0.040 A 
ATOM     63  C   UNL A   1      36.531  31.310  30.822  1.00  0.00     0.040 A 
ATOM     64  F   UNL A   1      37.816  31.211  28.864  1.00  0.00    -0.206 F 
ATOM     65  C   UNL A   1      36.367  31.029  32.176  1.00  0.00     0.006 A 
ENDBRANCH  44  58
BRANCH  45  66
ATOM     66  C   UNL A   1      46.921  27.216  25.978  1.00  0.00     0.057 A 
ATOM     67  C   UNL A   1      47.076  27.390  24.598  1.00  0.00     0.134 A 
ATOM     68  C   UNL A   1      47.960  26.570  26.663  1.00  0.00     0.134 A 
ATOM     69  F   UNL A   1      46.105  27.966  23.876  1.00  0.00    -0.206 F 
ATOM     70  C   UNL A   1      48.212  26.934  23.923  1.00  0.00     0.040 A 
ATOM     71  C   UNL A   1      49.113  26.135  26.007  1.00  0.00     0.040 A 
ATOM     72  F   UNL A   1      47.874  26.360  27.984  1.00  0.00    -0.206 F 
ATOM     73  C   UNL A   1      49.238  26.311  24.630  1.00  0.00     0.006 A 
ENDBRANCH  45  66
BRANCH  57  74
ATOM     74  C   UNL A   1      45.102  33.218  29.009  1.00  0.00     0.057 A 
ATOM     75  C   UNL A   1      45.960  33.466  30.089  1.00  0.00     0.134 A 
ATOM     76  C   UNL A   1      44.969  34.224  28.043  1.00  0.00     0.134 A 
ATOM     77  F   UNL A   1      46.121  32.548  31.053  1.00  0.00    -0.206 F 
ATOM     78  C   UNL A   1      46.646  34.676  30.212  1.00  0.00     0.040 A 
ATOM     79  C   UNL A   1      45.670  35.428  28.143  1.00  0.00     0.040 A 
ATOM     80  F   UNL A   1      44.172  34.048  26.980  1.00  0.00    -0.206 F 
ATOM     81  C   UNL A   1      46.508  35.657  29.232  1.00  0.00     0.006 A 
ENDBRANCH  57  74
ENDBRANCH  31  32
ENDBRANCH  24  26
ENDBRANCH  23  24
ENDBRANCH  22  23
ENDBRANCH   1  22
TORSDOF 14
ENDMDL
MODEL 3
REMARK VINA RESULT:     -11.3      5.283      9.836
REMARK SMILES CC[C@H](C(=O)OCCOC(=O)c1ccc(-c2c3nc(c(-c4c(F)cccc4F)c4ccc([nH]4)c(-c4c(F)cccc4F)c4nc(c(-c5c(F)cccc5F)c5ccc2[nH]5)C=C4)C=C3)cc1)N1C(=O)c2ccc([N+](=O)[O-])cc2C1=O
REMARK SMILES IDX 7 1 6 2 4 3 5 4 3 5 2 6 1 7 66 8 67 9 78 10 68 11 69 12
REMARK SMILES IDX 77 13 79 14 70 15 76 16 71 17 72 18 73 19 74 20 75 21 8 22
REMARK SMILES IDX 9 23 10 24 11 25 12 26 13 27 65 28 14 29 64 30 15 31 16 32
REMARK SMILES IDX 17 33 58 34 18 35 63 36 57 37 59 38 19 39 62 40 56 41 55 42
REMARK SMILES IDX 20 44 46 45 29 46 45 47 30 48 33 49 44 50 60 51 31 52 32 53
REMARK SMILES IDX 43 55 61 56 34 57 21 58 22 59 27 60 23 61 24 62 26 63 28 64
REMARK SMILES IDX 25 65 47 66 48 67 53 68 49 69 50 70 52 71 54 72 51 73 35 74
REMARK SMILES IDX 36 75 41 76 37 77 38 78 40 79 42 80 39 81
REMARK H PARENT 59 43 33 54
REMARK Flexibility Score: inf
ROOT
ATOM      1  C   UNL A   1      33.673  33.389  27.983  1.00  0.00     0.274 C 
ENDROOT
BRANCH   1   2
ATOM      2  O   UNL A   1      33.280  33.640  29.350  1.00  0.00    -0.461 OA
BRANCH   2   3
ATOM      3  C   UNL A   1      33.294  34.953  29.721  1.00  0.00     0.329 C 
ATOM      4  O   UNL A   1      32.561  35.803  29.224  1.00  0.00    -0.250 OA
BRANCH   3   5
ATOM      5  C   UNL A   1      34.289  35.230  30.869  1.00  0.00     0.203 C 
BRANCH   5   6
ATOM      6  C   UNL A   1      33.695  35.698  32.204  1.00  0.00     0.034 C 
ATOM      7  C   UNL A   1      33.563  37.201  32.389  1.00  0.00     0.007 C 
ENDBRANCH   5   6
BRANCH   5   8
ATOM      8  N   UNL A   1      35.165  34.054  31.027  1.00  0.00    -0.260 N 
ATOM      9  C   UNL A   1      36.376  33.901  30.401  1.00  0.00     0.262 C 
ATOM     10  C   UNL A   1      34.893  32.988  31.841  1.00  0.00     0.262 C 
ATOM     11  O   UNL A   1      36.871  34.537  29.500  1.00  0.00    -0.269 OA
ATOM     12  C   UNL A   1      37.022  32.752  31.034  1.00  0.00     0.053 A 
ATOM     13  C   UNL A   1      36.091  32.147  31.861  1.00  0.00     0.060 A 
ATOM     14  O   UNL A   1      33.896  32.758  32.499  1.00  0.00    -0.269 OA
ATOM     15  C   UNL A   1      38.331  32.317  30.959  1.00  0.00     0.022 A 
ATOM     16  C   UNL A   1      36.397  31.027  32.617  1.00  0.00     0.100 A 
ATOM     17  C   UNL A   1      38.685  31.206  31.732  1.00  0.00     0.086 A 
ATOM     18  C   UNL A   1      37.719  30.555  32.539  1.00  0.00     0.270 A 
BRANCH  18  19
ATOM     19  N   UNL A   1      38.111  29.362  33.305  1.00  0.00     0.062 N 
ATOM     20  O   UNL A   1      39.147  29.432  33.981  1.00  0.00    -0.258 OA
ATOM     21  O   UNL A   1      37.404  28.353  33.187  1.00  0.00    -0.258 OA
ENDBRANCH  18  19
ENDBRANCH   5   8
ENDBRANCH   3   5
ENDBRANCH   2   3
ENDBRANCH   1   2
BRANCH   1  22
ATOM     22  C   UNL A   1      33.879  31.903  27.661  1.00  0.00     0.275 C 
BRANCH  22  23
ATOM     23  O   UNL A   1      34.991  31.327  28.371  1.00  0.00    -0.458 OA
BRANCH  23  24
ATOM     24  C   UNL A   1      35.128  29.989  28.221  1.00  0.00     0.338 C 
ATOM     25  O   UNL A   1      34.278  29.196  27.850  1.00  0.00    -0.246 OA
BRANCH  24  26
ATOM     26  C   UNL A   1      36.546  29.619  28.361  1.00  0.00     0.060 A 
ATOM     27  C   UNL A   1      37.366  29.895  27.270  1.00  0.00     0.016 A 
ATOM     28  C   UNL A   1      37.058  28.952  29.473  1.00  0.00     0.016 A 
ATOM     29  C   UNL A   1      38.707  29.545  27.289  1.00  0.00     0.010 A 
ATOM     30  C   UNL A   1      38.413  28.581  29.486  1.00  0.00     0.010 A 
ATOM     31  C   UNL A   1      39.245  28.885  28.394  1.00  0.00    -0.014 A 
BRANCH  31  32
ATOM     32  C   UNL A   1      40.656  28.441  28.316  1.00  0.00     0.031 A 
ATOM     33  C   UNL A   1      41.748  29.402  28.678  1.00  0.00     0.074 A 
ATOM     34  C   UNL A   1      40.949  27.155  28.052  1.00  0.00     0.049 A 
ATOM     35  N   UNL A   1      43.044  29.253  28.594  1.00  0.00    -0.248 NA
ATOM     36  C   UNL A   1      41.321  30.703  29.216  1.00  0.00     0.031 C 
ATOM     37  C   UNL A   1      39.966  26.098  27.812  1.00  0.00     0.029 A 
ATOM     38  N   UNL A   1      42.157  26.513  27.959  1.00  0.00    -0.354 N 
ATOM     39  C   UNL A   1      43.589  30.454  29.029  1.00  0.00     0.074 A 
ATOM     40  C   UNL A   1      42.483  31.315  29.389  1.00  0.00     0.031 C 
ATOM     41  C   UNL A   1      40.612  24.937  27.614  1.00  0.00     0.029 A 
ATOM     42  C   UNL A   1      42.052  25.180  27.644  1.00  0.00     0.049 A 
ATOM     43  H   UNL A   1      43.020  26.966  28.105  1.00  0.00     0.167 HD
ATOM     44  C   UNL A   1      44.895  30.806  29.102  1.00  0.00     0.037 A 
ATOM     45  C   UNL A   1      43.011  24.273  27.369  1.00  0.00     0.037 A 
ATOM     46  C   UNL A   1      45.985  29.933  28.753  1.00  0.00     0.049 A 
ATOM     47  C   UNL A   1      44.451  24.718  27.361  1.00  0.00     0.074 A 
ATOM     48  C   UNL A   1      47.341  30.207  28.739  1.00  0.00     0.029 A 
ATOM     49  N   UNL A   1      45.839  28.610  28.363  1.00  0.00    -0.354 N 
ATOM     50  N   UNL A   1      44.958  25.887  27.671  1.00  0.00    -0.248 NA
ATOM     51  C   UNL A   1      45.448  23.728  26.930  1.00  0.00     0.031 C 
ATOM     52  C   UNL A   1      48.013  29.063  28.292  1.00  0.00     0.029 A 
ATOM     53  C   UNL A   1      47.078  28.060  28.082  1.00  0.00     0.049 A 
ATOM     54  H   UNL A   1      44.982  28.131  28.297  1.00  0.00     0.167 HD
ATOM     55  C   UNL A   1      46.331  25.768  27.489  1.00  0.00     0.074 A 
ATOM     56  C   UNL A   1      46.578  24.408  27.059  1.00  0.00     0.031 C 
ATOM     57  C   UNL A   1      47.301  26.701  27.654  1.00  0.00     0.037 A 
BRANCH  44  58
ATOM     58  C   UNL A   1      45.201  32.219  29.502  1.00  0.00     0.057 A 
ATOM     59  C   UNL A   1      45.267  33.265  28.573  1.00  0.00     0.134 A 
ATOM     60  C   UNL A   1      45.440  32.533  30.847  1.00  0.00     0.134 A 
ATOM     61  F   UNL A   1      45.070  33.029  27.268  1.00  0.00    -0.206 F 
ATOM     62  C   UNL A   1      45.587  34.567  28.965  1.00  0.00     0.040 A 
ATOM     63  C   UNL A   1      45.734  33.834  31.253  1.00  0.00     0.040 A 
ATOM     64  F   UNL A   1      45.392  31.578  31.788  1.00  0.00    -0.206 F 
ATOM     65  C   UNL A   1      45.818  34.855  30.309  1.00  0.00     0.006 A 
ENDBRANCH  44  58
BRANCH  45  66
ATOM     66  C   UNL A   1      42.649  22.873  27.023  1.00  0.00     0.057 A 
ATOM     67  C   UNL A   1      42.291  21.952  28.014  1.00  0.00     0.134 A 
ATOM     68  C   UNL A   1      42.682  22.412  25.701  1.00  0.00     0.134 A 
ATOM     69  F   UNL A   1      42.276  22.316  29.304  1.00  0.00    -0.206 F 
ATOM     70  C   UNL A   1      41.985  20.623  27.704  1.00  0.00     0.040 A 
ATOM     71  C   UNL A   1      42.351  21.095  25.373  1.00  0.00     0.040 A 
ATOM     72  F   UNL A   1      43.028  23.238  24.702  1.00  0.00    -0.206 F 
ATOM     73  C   UNL A   1      42.007  20.195  26.379  1.00  0.00     0.006 A 
ENDBRANCH  45  66
BRANCH  57  74
ATOM     74  C   UNL A   1      48.715  26.277  27.388  1.00  0.00     0.057 A 
ATOM     75  C   UNL A   1      49.516  25.706  28.387  1.00  0.00     0.134 A 
ATOM     76  C   UNL A   1      49.266  26.396  26.106  1.00  0.00     0.134 A 
ATOM     77  F   UNL A   1      49.051  25.576  29.638  1.00  0.00    -0.206 F 
ATOM     78  C   UNL A   1      50.820  25.285  28.123  1.00  0.00     0.040 A 
ATOM     79  C   UNL A   1      50.561  25.955  25.824  1.00  0.00     0.040 A 
ATOM     80  F   UNL A   1      48.551  26.925  25.102  1.00  0.00    -0.206 F 
ATOM     81  C   UNL A   1      51.343  25.402  26.836  1.00  0.00     0.006 A 
ENDBRANCH  57  74
ENDBRANCH  31  32
ENDBRANCH  24  26
ENDBRANCH  23  24
ENDBRANCH  22  23
ENDBRANCH   1  22
TORSDOF 14
ENDMDL
