MODEL 1
REMARK VINA RESULT:     -10.3      0.000      0.000
REMARK SMILES O=C(CNC(=O)c1cccs1)N[C@@H]1C=C[C@H](C(=O)OCCOC(=O)c2ccc(-c3c4nc(c(-c5c(F)cccc5F)c5ccc([nH]5)c(-c5c(F)cccc5F)c5nc(c(-c6c(F)cccc6F)c6ccc3[nH]6)C=C5)C=C4)cc2)C1
REMARK SMILES IDX 20 1 19 2 17 3 18 4 16 5 13 6 14 7 79 8 15 9 12 10 1 11 2 12
REMARK SMILES IDX 3 14 4 15 5 16 6 18 7 19 8 20 11 21 9 22 10 23 21 24 22 25
REMARK SMILES IDX 23 26 24 27 25 28 26 29 78 30 27 31 77 32 28 33 29 34 30 35
REMARK SMILES IDX 71 36 31 37 76 38 70 39 72 40 32 41 75 42 69 43 68 44 33 46
REMARK SMILES IDX 59 47 42 48 58 49 43 50 46 51 57 52 73 53 44 54 45 55 56 57
REMARK SMILES IDX 74 58 47 59 34 60 35 61 40 62 36 63 37 64 39 65 41 66 38 67
REMARK SMILES IDX 60 68 61 69 66 70 62 71 63 72 65 73 67 74 64 75 48 76 49 77
REMARK SMILES IDX 54 78 50 79 51 80 53 81 55 82 52 83
REMARK H PARENT 12 13 4 17 72 45 46 56
REMARK Flexibility Score: inf
ROOT
ATOM      1  C   UNL A   1      42.763  18.288  26.580  1.00  0.00     0.274 C 
ENDROOT
BRANCH   1   2
ATOM      2  O   UNL A   1      41.603  18.518  25.759  1.00  0.00    -0.462 OA
BRANCH   2   3
ATOM      3  C   UNL A   1      40.806  19.571  26.103  1.00  0.00     0.312 C 
ATOM      4  O   UNL A   1      39.603  19.640  25.888  1.00  0.00    -0.252 OA
BRANCH   3   5
ATOM      5  C   UNL A   1      41.616  20.617  26.864  1.00  0.00     0.124 C 
ATOM      6  C   UNL A   1      40.421  22.716  27.322  1.00  0.00     0.106 C 
ATOM      7  C   UNL A   1      41.425  22.873  26.230  1.00  0.00    -0.006 C 
ATOM      8  C   UNL A   1      40.787  21.355  27.932  1.00  0.00     0.048 C 
ATOM      9  C   UNL A   1      42.076  21.732  25.975  1.00  0.00    -0.014 C 
BRANCH   6  10
ATOM     10  N   UNL A   1      39.112  22.721  26.723  1.00  0.00    -0.348 N 
ATOM     11  O   UNL A   1      38.824  24.988  26.896  1.00  0.00    -0.273 OA
ATOM     12  C   UNL A   1      38.406  23.889  26.538  1.00  0.00     0.239 C 
ATOM     13  H   UNL A   1      38.711  21.869  26.437  1.00  0.00     0.164 HD
BRANCH  12  14
ATOM     14  C   UNL A   1      36.981  23.702  26.012  1.00  0.00     0.216 C 
BRANCH  14  15
ATOM     15  N   UNL A   1      36.922  23.690  24.556  1.00  0.00    -0.342 N 
ATOM     16  C   UNL A   1      36.161  22.917  23.713  1.00  0.00     0.261 C 
ATOM     17  H   UNL A   1      37.516  24.333  24.108  1.00  0.00     0.164 HD
ATOM     18  O   UNL A   1      36.455  22.952  22.517  1.00  0.00    -0.268 OA
BRANCH  16  19
ATOM     19  C   UNL A   1      35.087  22.112  24.258  1.00  0.00     0.092 A 
ATOM     20  C   UNL A   1      35.110  20.830  24.777  1.00  0.00     0.025 A 
ATOM     21  S   UNL A   1      33.517  22.794  24.357  1.00  0.00    -0.139 S 
ATOM     22  C   UNL A   1      33.820  20.385  25.189  1.00  0.00     0.012 A 
ATOM     23  C   UNL A   1      32.861  21.356  25.010  1.00  0.00     0.065 A 
ENDBRANCH  16  19
ENDBRANCH  14  15
ENDBRANCH  12  14
ENDBRANCH   6  10
ENDBRANCH   3   5
ENDBRANCH   2   3
ENDBRANCH   1   2
BRANCH   1  24
ATOM     24  C   UNL A   1      44.022  18.174  25.712  1.00  0.00     0.275 C 
BRANCH  24  25
ATOM     25  O   UNL A   1      43.985  19.083  24.595  1.00  0.00    -0.458 OA
BRANCH  25  26
ATOM     26  C   UNL A   1      45.175  19.637  24.261  1.00  0.00     0.338 C 
ATOM     27  O   UNL A   1      46.043  19.153  23.554  1.00  0.00    -0.246 OA
BRANCH  26  28
ATOM     28  C   UNL A   1      45.236  21.023  24.758  1.00  0.00     0.060 A 
ATOM     29  C   UNL A   1      44.993  22.053  23.844  1.00  0.00     0.016 A 
ATOM     30  C   UNL A   1      45.574  21.316  26.081  1.00  0.00     0.016 A 
ATOM     31  C   UNL A   1      45.072  23.382  24.249  1.00  0.00     0.010 A 
ATOM     32  C   UNL A   1      45.667  22.651  26.484  1.00  0.00     0.010 A 
ATOM     33  C   UNL A   1      45.418  23.690  25.570  1.00  0.00    -0.014 A 
BRANCH  33  34
ATOM     34  C   UNL A   1      45.563  25.105  25.977  1.00  0.00     0.031 A 
ATOM     35  C   UNL A   1      46.902  25.773  25.891  1.00  0.00     0.074 A 
ATOM     36  C   UNL A   1      44.486  25.791  26.401  1.00  0.00     0.049 A 
ATOM     37  N   UNL A   1      47.249  26.980  26.258  1.00  0.00    -0.248 NA
ATOM     38  C   UNL A   1      47.996  24.979  25.310  1.00  0.00     0.031 C 
ATOM     39  C   UNL A   1      43.125  25.263  26.473  1.00  0.00     0.029 A 
ATOM     40  N   UNL A   1      44.373  27.082  26.853  1.00  0.00    -0.354 N 
ATOM     41  C   UNL A   1      48.601  27.091  25.959  1.00  0.00     0.074 A 
ATOM     42  C   UNL A   1      49.016  25.822  25.398  1.00  0.00     0.031 C 
ATOM     43  C   UNL A   1      42.312  26.220  26.950  1.00  0.00     0.029 A 
ATOM     44  C   UNL A   1      43.102  27.410  27.255  1.00  0.00     0.049 A 
ATOM     45  H   UNL A   1      45.129  27.711  26.885  1.00  0.00     0.167 HD
ATOM     46  C   UNL A   1      49.418  28.156  26.135  1.00  0.00     0.037 A 
ATOM     47  C   UNL A   1      42.638  28.534  27.833  1.00  0.00     0.037 A 
ATOM     48  C   UNL A   1      49.000  29.415  26.694  1.00  0.00     0.049 A 
ATOM     49  C   UNL A   1      43.587  29.669  28.103  1.00  0.00     0.074 A 
ATOM     50  C   UNL A   1      49.752  30.558  26.904  1.00  0.00     0.029 A 
ATOM     51  N   UNL A   1      47.716  29.693  27.139  1.00  0.00    -0.354 N 
ATOM     52  N   UNL A   1      44.862  29.766  27.815  1.00  0.00    -0.248 NA
ATOM     53  C   UNL A   1      43.033  30.847  28.786  1.00  0.00     0.031 C 
ATOM     54  C   UNL A   1      48.934  31.513  27.517  1.00  0.00     0.029 A 
ATOM     55  C   UNL A   1      47.662  30.979  27.651  1.00  0.00     0.049 A 
ATOM     56  H   UNL A   1      46.956  29.068  27.099  1.00  0.00     0.167 HD
ATOM     57  C   UNL A   1      45.259  31.019  28.264  1.00  0.00     0.074 A 
ATOM     58  C   UNL A   1      44.086  31.651  28.832  1.00  0.00     0.031 C 
ATOM     59  C   UNL A   1      46.486  31.594  28.211  1.00  0.00     0.037 A 
BRANCH  46  60
ATOM     60  C   UNL A   1      50.856  27.992  25.746  1.00  0.00     0.057 A 
ATOM     61  C   UNL A   1      51.284  28.129  24.420  1.00  0.00     0.134 A 
ATOM     62  C   UNL A   1      51.830  27.726  26.717  1.00  0.00     0.134 A 
ATOM     63  F   UNL A   1      50.398  28.370  23.441  1.00  0.00    -0.206 F 
ATOM     64  C   UNL A   1      52.628  27.986  24.070  1.00  0.00     0.040 A 
ATOM     65  C   UNL A   1      53.179  27.604  26.383  1.00  0.00     0.040 A 
ATOM     66  F   UNL A   1      51.485  27.588  28.006  1.00  0.00    -0.206 F 
ATOM     67  C   UNL A   1      53.581  27.729  25.054  1.00  0.00     0.006 A 
ENDBRANCH  46  60
BRANCH  47  68
ATOM     68  C   UNL A   1      41.210  28.629  28.228  1.00  0.00     0.057 A 
ATOM     69  C   UNL A   1      40.796  28.324  29.528  1.00  0.00     0.134 A 
ATOM     70  C   UNL A   1      40.226  29.015  27.310  1.00  0.00     0.134 A 
ATOM     71  F   UNL A   1      41.688  27.924  30.446  1.00  0.00    -0.206 F 
ATOM     72  C   UNL A   1      39.451  28.387  29.899  1.00  0.00     0.040 A 
ATOM     73  C   UNL A   1      38.883  29.106  27.671  1.00  0.00     0.040 A 
ATOM     74  F   UNL A   1      40.560  29.320  26.047  1.00  0.00    -0.206 F 
ATOM     75  C   UNL A   1      38.490  28.784  28.970  1.00  0.00     0.006 A 
ENDBRANCH  47  68
BRANCH  59  76
ATOM     76  C   UNL A   1      46.617  32.981  28.762  1.00  0.00     0.057 A 
ATOM     77  C   UNL A   1      46.987  33.213  30.092  1.00  0.00     0.134 A 
ATOM     78  C   UNL A   1      46.417  34.098  27.940  1.00  0.00     0.134 A 
ATOM     79  F   UNL A   1      47.178  32.186  30.933  1.00  0.00    -0.206 F 
ATOM     80  C   UNL A   1      47.140  34.508  30.591  1.00  0.00     0.040 A 
ATOM     81  C   UNL A   1      46.588  35.397  28.421  1.00  0.00     0.040 A 
ATOM     82  F   UNL A   1      46.069  33.944  26.654  1.00  0.00    -0.206 F 
ATOM     83  C   UNL A   1      46.947  35.604  29.751  1.00  0.00     0.006 A 
ENDBRANCH  59  76
ENDBRANCH  33  34
ENDBRANCH  26  28
ENDBRANCH  25  26
ENDBRANCH  24  25
ENDBRANCH   1  24
TORSDOF 15
ENDMDL
MODEL 2
REMARK VINA RESULT:     -10.2      6.213     10.654
REMARK SMILES O=C(CNC(=O)c1cccs1)N[C@@H]1C=C[C@H](C(=O)OCCOC(=O)c2ccc(-c3c4nc(c(-c5c(F)cccc5F)c5ccc([nH]5)c(-c5c(F)cccc5F)c5nc(c(-c6c(F)cccc6F)c6ccc3[nH]6)C=C5)C=C4)cc2)C1
REMARK SMILES IDX 20 1 19 2 17 3 18 4 16 5 13 6 14 7 79 8 15 9 12 10 1 11 2 12
REMARK SMILES IDX 3 14 4 15 5 16 6 18 7 19 8 20 11 21 9 22 10 23 21 24 22 25
REMARK SMILES IDX 23 26 24 27 25 28 26 29 78 30 27 31 77 32 28 33 29 34 30 35
REMARK SMILES IDX 71 36 31 37 76 38 70 39 72 40 32 41 75 42 69 43 68 44 33 46
REMARK SMILES IDX 59 47 42 48 58 49 43 50 46 51 57 52 73 53 44 54 45 55 56 57
REMARK SMILES IDX 74 58 47 59 34 60 35 61 40 62 36 63 37 64 39 65 41 66 38 67
REMARK SMILES IDX 60 68 61 69 66 70 62 71 63 72 65 73 67 74 64 75 48 76 49 77
REMARK SMILES IDX 54 78 50 79 51 80 53 81 55 82 52 83
REMARK H PARENT 12 13 4 17 72 45 46 56
REMARK Flexibility Score: inf
ROOT
ATOM      1  C   UNL A   1      31.813  30.942  26.294  1.00  0.00     0.274 C 
ENDROOT
BRANCH   1   2
ATOM      2  O   UNL A   1      31.832  29.883  27.270  1.00  0.00    -0.462 OA
BRANCH   2   3
ATOM      3  C   UNL A   1      31.774  28.606  26.793  1.00  0.00     0.312 C 
ATOM      4  O   UNL A   1      31.448  27.626  27.449  1.00  0.00    -0.252 OA
BRANCH   3   5
ATOM      5  C   UNL A   1      32.100  28.587  25.302  1.00  0.00     0.124 C 
ATOM      6  C   UNL A   1      32.015  26.365  24.254  1.00  0.00     0.106 C 
ATOM      7  C   UNL A   1      33.417  26.832  24.457  1.00  0.00    -0.006 C 
ATOM      8  C   UNL A   1      31.190  27.636  24.502  1.00  0.00     0.048 C 
ATOM      9  C   UNL A   1      33.468  28.040  25.029  1.00  0.00    -0.014 C 
BRANCH   6  10
ATOM     10  N   UNL A   1      31.748  25.333  25.223  1.00  0.00    -0.348 N 
ATOM     11  O   UNL A   1      30.652  23.960  23.752  1.00  0.00    -0.273 OA
ATOM     12  C   UNL A   1      31.085  24.176  24.882  1.00  0.00     0.239 C 
ATOM     13  H   UNL A   1      32.048  25.458  26.152  1.00  0.00     0.164 HD
BRANCH  12  14
ATOM     14  C   UNL A   1      30.768  23.248  26.056  1.00  0.00     0.216 C 
BRANCH  14  15
ATOM     15  N   UNL A   1      31.043  21.849  25.751  1.00  0.00    -0.342 N 
ATOM     16  C   UNL A   1      32.229  21.233  25.437  1.00  0.00     0.261 C 
ATOM     17  H   UNL A   1      30.258  21.255  25.774  1.00  0.00     0.164 HD
ATOM     18  O   UNL A   1      32.156  20.079  25.011  1.00  0.00    -0.268 OA
BRANCH  16  19
ATOM     19  C   UNL A   1      33.474  21.954  25.607  1.00  0.00     0.092 A 
ATOM     20  C   UNL A   1      34.157  22.291  26.762  1.00  0.00     0.025 A 
ATOM     21  S   UNL A   1      34.326  22.467  24.210  1.00  0.00    -0.139 S 
ATOM     22  C   UNL A   1      35.345  23.034  26.496  1.00  0.00     0.012 A 
ATOM     23  C   UNL A   1      35.551  23.204  25.147  1.00  0.00     0.065 A 
ENDBRANCH  16  19
ENDBRANCH  14  15
ENDBRANCH  12  14
ENDBRANCH   6  10
ENDBRANCH   3   5
ENDBRANCH   2   3
ENDBRANCH   1   2
BRANCH   1  24
ATOM     24  C   UNL A   1      31.606  32.299  26.977  1.00  0.00     0.275 C 
BRANCH  24  25
ATOM     25  O   UNL A   1      32.735  33.172  26.781  1.00  0.00    -0.458 OA
BRANCH  25  26
ATOM     26  C   UNL A   1      33.120  33.871  27.875  1.00  0.00     0.338 C 
ATOM     27  O   UNL A   1      32.528  34.793  28.410  1.00  0.00    -0.246 OA
BRANCH  26  28
ATOM     28  C   UNL A   1      34.328  33.259  28.458  1.00  0.00     0.060 A 
ATOM     29  C   UNL A   1      34.152  32.192  29.346  1.00  0.00     0.016 A 
ATOM     30  C   UNL A   1      35.607  33.748  28.184  1.00  0.00     0.016 A 
ATOM     31  C   UNL A   1      35.255  31.599  29.954  1.00  0.00     0.010 A 
ATOM     32  C   UNL A   1      36.713  33.161  28.805  1.00  0.00     0.010 A 
ATOM     33  C   UNL A   1      36.541  32.085  29.693  1.00  0.00    -0.014 A 
BRANCH  33  34
ATOM     34  C   UNL A   1      37.703  31.491  30.393  1.00  0.00     0.031 A 
ATOM     35  C   UNL A   1      38.568  30.492  29.685  1.00  0.00     0.074 A 
ATOM     36  C   UNL A   1      37.989  31.868  31.652  1.00  0.00     0.049 A 
ATOM     37  N   UNL A   1      39.588  29.811  30.142  1.00  0.00    -0.248 NA
ATOM     38  C   UNL A   1      38.246  30.227  28.275  1.00  0.00     0.031 C 
ATOM     39  C   UNL A   1      37.252  32.872  32.419  1.00  0.00     0.029 A 
ATOM     40  N   UNL A   1      38.975  31.446  32.506  1.00  0.00    -0.354 N 
ATOM     41  C   UNL A   1      40.027  29.032  29.079  1.00  0.00     0.074 A 
ATOM     42  C   UNL A   1      39.151  29.310  27.961  1.00  0.00     0.031 C 
ATOM     43  C   UNL A   1      37.809  32.983  33.636  1.00  0.00     0.029 A 
ATOM     44  C   UNL A   1      38.910  32.030  33.746  1.00  0.00     0.049 A 
ATOM     45  H   UNL A   1      39.663  30.789  32.254  1.00  0.00     0.167 HD
ATOM     46  C   UNL A   1      41.068  28.168  29.043  1.00  0.00     0.037 A 
ATOM     47  C   UNL A   1      39.639  31.798  34.855  1.00  0.00     0.037 A 
ATOM     48  C   UNL A   1      41.935  27.895  30.159  1.00  0.00     0.049 A 
ATOM     49  C   UNL A   1      40.731  30.764  34.814  1.00  0.00     0.074 A 
ATOM     50  C   UNL A   1      43.024  27.042  30.218  1.00  0.00     0.029 A 
ATOM     51  N   UNL A   1      41.806  28.466  31.416  1.00  0.00    -0.354 N 
ATOM     52  N   UNL A   1      41.141  30.034  33.806  1.00  0.00    -0.248 NA
ATOM     53  C   UNL A   1      41.455  30.516  36.070  1.00  0.00     0.031 C 
ATOM     54  C   UNL A   1      43.527  27.064  31.523  1.00  0.00     0.029 A 
ATOM     55  C   UNL A   1      42.777  27.963  32.267  1.00  0.00     0.049 A 
ATOM     56  H   UNL A   1      41.125  29.132  31.668  1.00  0.00     0.167 HD
ATOM     57  C   UNL A   1      42.180  29.255  34.297  1.00  0.00     0.074 A 
ATOM     58  C   UNL A   1      42.347  29.611  35.691  1.00  0.00     0.031 C 
ATOM     59  C   UNL A   1      42.930  28.328  33.652  1.00  0.00     0.037 A 
BRANCH  46  60
ATOM     60  C   UNL A   1      41.306  27.429  27.760  1.00  0.00     0.057 A 
ATOM     61  C   UNL A   1      42.084  27.970  26.729  1.00  0.00     0.134 A 
ATOM     62  C   UNL A   1      40.775  26.148  27.568  1.00  0.00     0.134 A 
ATOM     63  F   UNL A   1      42.609  29.199  26.847  1.00  0.00    -0.206 F 
ATOM     64  C   UNL A   1      42.309  27.269  25.543  1.00  0.00     0.040 A 
ATOM     65  C   UNL A   1      41.011  25.429  26.396  1.00  0.00     0.040 A 
ATOM     66  F   UNL A   1      40.023  25.573  28.519  1.00  0.00    -0.206 F 
ATOM     67  C   UNL A   1      41.777  25.991  25.377  1.00  0.00     0.006 A 
ENDBRANCH  46  60
BRANCH  47  68
ATOM     68  C   UNL A   1      39.339  32.534  36.108  1.00  0.00     0.057 A 
ATOM     69  C   UNL A   1      39.973  33.743  36.408  1.00  0.00     0.134 A 
ATOM     70  C   UNL A   1      38.420  32.037  37.041  1.00  0.00     0.134 A 
ATOM     71  F   UNL A   1      40.881  34.258  35.566  1.00  0.00    -0.206 F 
ATOM     72  C   UNL A   1      39.714  34.428  37.598  1.00  0.00     0.040 A 
ATOM     73  C   UNL A   1      38.134  32.720  38.222  1.00  0.00     0.040 A 
ATOM     74  F   UNL A   1      37.780  30.881  36.811  1.00  0.00    -0.206 F 
ATOM     75  C   UNL A   1      38.787  33.918  38.507  1.00  0.00     0.006 A 
ENDBRANCH  47  68
BRANCH  59  76
ATOM     76  C   UNL A   1      44.009  27.649  34.439  1.00  0.00     0.057 A 
ATOM     77  C   UNL A   1      43.794  26.420  35.074  1.00  0.00     0.134 A 
ATOM     78  C   UNL A   1      45.290  28.208  34.524  1.00  0.00     0.134 A 
ATOM     79  F   UNL A   1      42.585  25.840  35.041  1.00  0.00    -0.206 F 
ATOM     80  C   UNL A   1      44.813  25.776  35.778  1.00  0.00     0.040 A 
ATOM     81  C   UNL A   1      46.322  27.563  35.207  1.00  0.00     0.040 A 
ATOM     82  F   UNL A   1      45.563  29.380  33.932  1.00  0.00    -0.206 F 
ATOM     83  C   UNL A   1      46.084  26.346  35.839  1.00  0.00     0.006 A 
ENDBRANCH  59  76
ENDBRANCH  33  34
ENDBRANCH  26  28
ENDBRANCH  25  26
ENDBRANCH  24  25
ENDBRANCH   1  24
TORSDOF 15
ENDMDL
MODEL 3
REMARK VINA RESULT:     -10.1      2.623      7.442
REMARK SMILES O=C(CNC(=O)c1cccs1)N[C@@H]1C=C[C@H](C(=O)OCCOC(=O)c2ccc(-c3c4nc(c(-c5c(F)cccc5F)c5ccc([nH]5)c(-c5c(F)cccc5F)c5nc(c(-c6c(F)cccc6F)c6ccc3[nH]6)C=C5)C=C4)cc2)C1
REMARK SMILES IDX 20 1 19 2 17 3 18 4 16 5 13 6 14 7 79 8 15 9 12 10 1 11 2 12
REMARK SMILES IDX 3 14 4 15 5 16 6 18 7 19 8 20 11 21 9 22 10 23 21 24 22 25
REMARK SMILES IDX 23 26 24 27 25 28 26 29 78 30 27 31 77 32 28 33 29 34 30 35
REMARK SMILES IDX 71 36 31 37 76 38 70 39 72 40 32 41 75 42 69 43 68 44 33 46
REMARK SMILES IDX 59 47 42 48 58 49 43 50 46 51 57 52 73 53 44 54 45 55 56 57
REMARK SMILES IDX 74 58 47 59 34 60 35 61 40 62 36 63 37 64 39 65 41 66 38 67
REMARK SMILES IDX 60 68 61 69 66 70 62 71 63 72 65 73 67 74 64 75 48 76 49 77
REMARK SMILES IDX 54 78 50 79 51 80 53 81 55 82 52 83
REMARK H PARENT 12 13 4 17 72 45 46 56
REMARK Flexibility Score: inf
ROOT
ATOM      1  C   UNL A   1      38.337  21.118  25.295  1.00  0.00     0.274 C 
ENDROOT
BRANCH   1   2
ATOM      2  O   UNL A   1      37.856  22.408  25.716  1.00  0.00    -0.462 OA
BRANCH   2   3
ATOM      3  C   UNL A   1      36.522  22.647  25.562  1.00  0.00     0.312 C 
ATOM      4  O   UNL A   1      35.849  23.366  26.289  1.00  0.00    -0.252 OA
BRANCH   3   5
ATOM      5  C   UNL A   1      36.005  21.951  24.306  1.00  0.00     0.124 C 
ATOM      6  C   UNL A   1      34.208  23.145  23.128  1.00  0.00     0.106 C 
ATOM      7  C   UNL A   1      33.693  21.963  23.879  1.00  0.00    -0.006 C 
ATOM      8  C   UNL A   1      35.727  22.930  23.149  1.00  0.00     0.048 C 
ATOM      9  C   UNL A   1      34.667  21.312  24.524  1.00  0.00    -0.014 C 
BRANCH   6  10
ATOM     10  N   UNL A   1      33.805  24.331  23.839  1.00  0.00    -0.348 N 
ATOM     11  O   UNL A   1      33.861  25.694  21.999  1.00  0.00    -0.273 OA
ATOM     12  C   UNL A   1      33.645  25.538  23.198  1.00  0.00     0.239 C 
ATOM     13  H   UNL A   1      33.640  24.276  24.808  1.00  0.00     0.164 HD
BRANCH  12  14
ATOM     14  C   UNL A   1      33.344  26.720  24.122  1.00  0.00     0.216 C 
BRANCH  14  15
ATOM     15  N   UNL A   1      32.231  26.454  25.025  1.00  0.00    -0.342 N 
ATOM     16  C   UNL A   1      31.868  27.092  26.185  1.00  0.00     0.261 C 
ATOM     17  H   UNL A   1      31.651  25.703  24.763  1.00  0.00     0.164 HD
ATOM     18  O   UNL A   1      31.012  26.536  26.876  1.00  0.00    -0.268 OA
BRANCH  16  19
ATOM     19  C   UNL A   1      32.499  28.347  26.537  1.00  0.00     0.092 A 
ATOM     20  C   UNL A   1      33.659  28.592  27.251  1.00  0.00     0.025 A 
ATOM     21  S   UNL A   1      31.792  29.808  25.981  1.00  0.00    -0.139 S 
ATOM     22  C   UNL A   1      33.924  29.985  27.400  1.00  0.00     0.012 A 
ATOM     23  C   UNL A   1      32.981  30.757  26.761  1.00  0.00     0.065 A 
ENDBRANCH  16  19
ENDBRANCH  14  15
ENDBRANCH  12  14
ENDBRANCH   6  10
ENDBRANCH   3   5
ENDBRANCH   2   3
ENDBRANCH   1   2
BRANCH   1  24
ATOM     24  C   UNL A   1      39.415  20.605  26.256  1.00  0.00     0.275 C 
BRANCH  24  25
ATOM     25  O   UNL A   1      40.083  19.439  25.736  1.00  0.00    -0.458 OA
BRANCH  25  26
ATOM     26  C   UNL A   1      41.379  19.304  26.105  1.00  0.00     0.338 C 
ATOM     27  O   UNL A   1      42.047  18.284  26.099  1.00  0.00    -0.246 OA
BRANCH  26  28
ATOM     28  C   UNL A   1      41.957  20.629  26.391  1.00  0.00     0.060 A 
ATOM     29  C   UNL A   1      42.175  20.969  27.730  1.00  0.00     0.016 A 
ATOM     30  C   UNL A   1      42.235  21.546  25.374  1.00  0.00     0.016 A 
ATOM     31  C   UNL A   1      42.685  22.222  28.060  1.00  0.00     0.010 A 
ATOM     32  C   UNL A   1      42.735  22.808  25.707  1.00  0.00     0.010 A 
ATOM     33  C   UNL A   1      42.960  23.152  27.051  1.00  0.00    -0.014 A 
BRANCH  33  34
ATOM     34  C   UNL A   1      43.442  24.504  27.414  1.00  0.00     0.031 A 
ATOM     35  C   UNL A   1      42.465  25.547  27.867  1.00  0.00     0.074 A 
ATOM     36  C   UNL A   1      44.757  24.781  27.358  1.00  0.00     0.049 A 
ATOM     37  N   UNL A   1      42.677  26.803  28.166  1.00  0.00    -0.248 NA
ATOM     38  C   UNL A   1      41.065  25.119  28.005  1.00  0.00     0.031 C 
ATOM     39  C   UNL A   1      45.804  23.830  26.987  1.00  0.00     0.029 A 
ATOM     40  N   UNL A   1      45.433  25.947  27.611  1.00  0.00    -0.354 N 
ATOM     41  C   UNL A   1      41.438  27.319  28.523  1.00  0.00     0.074 A 
ATOM     42  C   UNL A   1      40.476  26.246  28.384  1.00  0.00     0.031 C 
ATOM     43  C   UNL A   1      46.993  24.454  27.029  1.00  0.00     0.029 A 
ATOM     44  C   UNL A   1      46.784  25.854  27.388  1.00  0.00     0.049 A 
ATOM     45  H   UNL A   1      44.993  26.770  27.924  1.00  0.00     0.167 HD
ATOM     46  C   UNL A   1      41.135  28.574  28.932  1.00  0.00     0.037 A 
ATOM     47  C   UNL A   1      47.740  26.802  27.437  1.00  0.00     0.037 A 
ATOM     48  C   UNL A   1      42.095  29.637  29.067  1.00  0.00     0.049 A 
ATOM     49  C   UNL A   1      47.360  28.211  27.804  1.00  0.00     0.074 A 
ATOM     50  C   UNL A   1      41.886  30.941  29.483  1.00  0.00     0.029 A 
ATOM     51  N   UNL A   1      43.447  29.520  28.780  1.00  0.00    -0.354 N 
ATOM     52  N   UNL A   1      46.188  28.690  28.142  1.00  0.00    -0.248 NA
ATOM     53  C   UNL A   1      48.436  29.212  27.787  1.00  0.00     0.031 C 
ATOM     54  C   UNL A   1      43.104  31.625  29.407  1.00  0.00     0.029 A 
ATOM     55  C   UNL A   1      44.080  30.736  28.983  1.00  0.00     0.049 A 
ATOM     56  H   UNL A   1      43.892  28.695  28.478  1.00  0.00     0.167 HD
ATOM     57  C   UNL A   1      46.386  30.040  28.396  1.00  0.00     0.074 A 
ATOM     58  C   UNL A   1      47.795  30.303  28.185  1.00  0.00     0.031 C 
ATOM     59  C   UNL A   1      45.484  30.980  28.769  1.00  0.00     0.037 A 
BRANCH  46  60
ATOM     60  C   UNL A   1      39.696  28.871  29.232  1.00  0.00     0.057 A 
ATOM     61  C   UNL A   1      38.807  29.300  28.239  1.00  0.00     0.134 A 
ATOM     62  C   UNL A   1      39.189  28.696  30.525  1.00  0.00     0.134 A 
ATOM     63  F   UNL A   1      39.236  29.502  26.983  1.00  0.00    -0.206 F 
ATOM     64  C   UNL A   1      37.466  29.564  28.527  1.00  0.00     0.040 A 
ATOM     65  C   UNL A   1      37.846  28.934  30.820  1.00  0.00     0.040 A 
ATOM     66  F   UNL A   1      39.988  28.283  31.521  1.00  0.00    -0.206 F 
ATOM     67  C   UNL A   1      36.981  29.374  29.820  1.00  0.00     0.006 A 
ENDBRANCH  46  60
BRANCH  47  68
ATOM     68  C   UNL A   1      49.143  26.459  27.098  1.00  0.00     0.057 A 
ATOM     69  C   UNL A   1      50.048  26.053  28.082  1.00  0.00     0.134 A 
ATOM     70  C   UNL A   1      49.614  26.545  25.782  1.00  0.00     0.134 A 
ATOM     71  F   UNL A   1      49.663  25.976  29.365  1.00  0.00    -0.206 F 
ATOM     72  C   UNL A   1      51.377  25.754  27.774  1.00  0.00     0.040 A 
ATOM     73  C   UNL A   1      50.932  26.226  25.455  1.00  0.00     0.040 A 
ATOM     74  F   UNL A   1      48.795  26.930  24.792  1.00  0.00    -0.206 F 
ATOM     75  C   UNL A   1      51.821  25.835  26.455  1.00  0.00     0.006 A 
ENDBRANCH  47  68
BRANCH  59  76
ATOM     76  C   UNL A   1      45.993  32.371  28.993  1.00  0.00     0.057 A 
ATOM     77  C   UNL A   1      46.506  32.776  30.232  1.00  0.00     0.134 A 
ATOM     78  C   UNL A   1      46.015  33.301  27.947  1.00  0.00     0.134 A 
ATOM     79  F   UNL A   1      46.500  31.936  31.277  1.00  0.00    -0.206 F 
ATOM     80  C   UNL A   1      47.010  34.063  30.425  1.00  0.00     0.040 A 
ATOM     81  C   UNL A   1      46.536  34.584  28.122  1.00  0.00     0.040 A 
ATOM     82  F   UNL A   1      45.545  32.974  26.733  1.00  0.00    -0.206 F 
ATOM     83  C   UNL A   1      47.032  34.969  29.365  1.00  0.00     0.006 A 
ENDBRANCH  59  76
ENDBRANCH  33  34
ENDBRANCH  26  28
ENDBRANCH  25  26
ENDBRANCH  24  25
ENDBRANCH   1  24
TORSDOF 15
ENDMDL
