MODEL 1
REMARK VINA RESULT:     -10.4      0.000      0.000
REMARK SMILES CC[C@@]1(C(=O)OCCOC(=O)c2ccc(-c3c4nc(c(-c5c(F)cccc5F)c5ccc([nH]5)c(-c5c(F)cccc5F)c5nc(c(-c6c(F)cccc6F)c6ccc3[nH]6)C=C5)C=C4)cc2)CCN(C(=O)N(C)CCc2cccs2)C1
REMARK SMILES IDX 6 1 4 2 5 3 3 4 66 5 80 6 67 7 68 8 2 9 1 10 69 11 70 12
REMARK SMILES IDX 71 13 72 14 73 15 74 16 75 17 76 18 79 19 77 20 78 21 7 22
REMARK SMILES IDX 8 23 9 24 10 25 11 26 12 27 13 28 65 29 14 30 64 31 15 32
REMARK SMILES IDX 16 33 17 34 58 35 18 36 63 37 57 38 59 39 19 40 62 41 56 42
REMARK SMILES IDX 55 43 20 45 46 46 29 47 45 48 30 49 33 50 44 51 60 52 31 53
REMARK SMILES IDX 32 54 43 56 61 57 34 58 21 59 22 60 27 61 23 62 24 63 26 64
REMARK SMILES IDX 28 65 25 66 47 67 48 68 53 69 49 70 50 71 52 72 54 73 51 74
REMARK SMILES IDX 35 75 36 76 41 77 37 78 38 79 40 80 42 81 39 82
REMARK H PARENT 59 44 33 55
REMARK Flexibility Score: inf
ROOT
ATOM      1  O   UNL A   1      34.712  21.977  24.332  1.00  0.00    -0.462 OA
ENDROOT
BRANCH   1   2
ATOM      2  C   UNL A   1      33.356  22.103  24.394  1.00  0.00     0.314 C 
ATOM      3  O   UNL A   1      32.560  21.201  24.160  1.00  0.00    -0.252 OA
BRANCH   2   4
ATOM      4  C   UNL A   1      32.948  23.516  24.813  1.00  0.00     0.087 C 
ATOM      5  C   UNL A   1      31.427  23.713  24.611  1.00  0.00     0.042 C 
ATOM      6  C   UNL A   1      33.540  24.491  23.793  1.00  0.00     0.140 C 
ATOM      7  C   UNL A   1      31.277  24.050  23.138  1.00  0.00     0.122 C 
ATOM      8  N   UNL A   1      32.515  24.715  22.779  1.00  0.00    -0.323 N 
BRANCH   4   9
ATOM      9  C   UNL A   1      33.308  23.766  26.303  1.00  0.00     0.017 C 
ATOM     10  C   UNL A   1      32.575  22.922  27.335  1.00  0.00     0.005 C 
ENDBRANCH   4   9
BRANCH   8  11
ATOM     11  C   UNL A   1      32.782  25.645  21.803  1.00  0.00     0.319 C 
ATOM     12  O   UNL A   1      33.155  25.270  20.688  1.00  0.00    -0.248 OA
BRANCH  11  13
ATOM     13  N   UNL A   1      32.752  26.985  22.122  1.00  0.00    -0.327 N 
ATOM     14  C   UNL A   1      33.884  27.894  22.123  1.00  0.00     0.148 C 
BRANCH  13  15
ATOM     15  C   UNL A   1      31.464  27.535  22.562  1.00  0.00     0.126 C 
BRANCH  15  16
ATOM     16  C   UNL A   1      31.618  28.799  23.430  1.00  0.00     0.068 C 
BRANCH  16  17
ATOM     17  C   UNL A   1      31.656  28.521  24.908  1.00  0.00     0.006 A 
ATOM     18  C   UNL A   1      31.476  27.317  25.563  1.00  0.00     0.015 A 
ATOM     19  S   UNL A   1      31.958  29.794  26.017  1.00  0.00    -0.149 S 
ATOM     20  C   UNL A   1      31.645  27.434  26.974  1.00  0.00     0.012 A 
ATOM     21  C   UNL A   1      31.920  28.728  27.352  1.00  0.00     0.065 A 
ENDBRANCH  16  17
ENDBRANCH  15  16
ENDBRANCH  13  15
ENDBRANCH  11  13
ENDBRANCH   8  11
ENDBRANCH   2   4
ENDBRANCH   1   2
BRANCH   1  22
ATOM     22  C   UNL A   1      35.265  20.802  24.958  1.00  0.00     0.274 C 
BRANCH  22  23
ATOM     23  C   UNL A   1      36.782  20.769  24.789  1.00  0.00     0.275 C 
BRANCH  23  24
ATOM     24  O   UNL A   1      37.389  21.628  25.770  1.00  0.00    -0.458 OA
BRANCH  24  25
ATOM     25  C   UNL A   1      38.707  21.433  25.986  1.00  0.00     0.338 C 
ATOM     26  O   UNL A   1      39.370  20.447  25.723  1.00  0.00    -0.246 OA
BRANCH  25  27
ATOM     27  C   UNL A   1      39.284  22.648  26.582  1.00  0.00     0.060 A 
ATOM     28  C   UNL A   1      38.821  23.899  26.172  1.00  0.00     0.016 A 
ATOM     29  C   UNL A   1      40.379  22.549  27.438  1.00  0.00     0.016 A 
ATOM     30  C   UNL A   1      39.489  25.056  26.554  1.00  0.00     0.010 A 
ATOM     31  C   UNL A   1      41.020  23.714  27.868  1.00  0.00     0.010 A 
ATOM     32  C   UNL A   1      40.605  24.971  27.395  1.00  0.00    -0.014 A 
BRANCH  32  33
ATOM     33  C   UNL A   1      41.398  26.190  27.682  1.00  0.00     0.031 A 
ATOM     34  C   UNL A   1      40.800  27.277  28.530  1.00  0.00     0.074 A 
ATOM     35  C   UNL A   1      42.663  26.301  27.237  1.00  0.00     0.049 A 
ATOM     36  N   UNL A   1      41.284  28.455  28.829  1.00  0.00    -0.248 NA
ATOM     37  C   UNL A   1      39.481  27.000  29.121  1.00  0.00     0.031 C 
ATOM     38  C   UNL A   1      43.379  25.289  26.459  1.00  0.00     0.029 A 
ATOM     39  N   UNL A   1      43.572  27.318  27.383  1.00  0.00    -0.354 N 
ATOM     40  C   UNL A   1      40.316  29.071  29.613  1.00  0.00     0.074 A 
ATOM     41  C   UNL A   1      39.216  28.141  29.740  1.00  0.00     0.031 C 
ATOM     42  C   UNL A   1      44.622  25.731  26.209  1.00  0.00     0.029 A 
ATOM     43  C   UNL A   1      44.771  27.074  26.764  1.00  0.00     0.049 A 
ATOM     44  H   UNL A   1      43.381  28.144  27.885  1.00  0.00     0.167 HD
ATOM     45  C   UNL A   1      40.344  30.302  30.175  1.00  0.00     0.037 A 
ATOM     46  C   UNL A   1      45.859  27.857  26.637  1.00  0.00     0.037 A 
ATOM     47  C   UNL A   1      41.449  31.216  30.074  1.00  0.00     0.049 A 
ATOM     48  C   UNL A   1      45.850  29.235  27.236  1.00  0.00     0.074 A 
ATOM     49  C   UNL A   1      41.566  32.493  30.598  1.00  0.00     0.029 A 
ATOM     50  N   UNL A   1      42.636  30.944  29.412  1.00  0.00    -0.354 N 
ATOM     51  N   UNL A   1      44.911  29.826  27.934  1.00  0.00    -0.248 NA
ATOM     52  C   UNL A   1      47.047  30.058  27.019  1.00  0.00     0.031 C 
ATOM     53  C   UNL A   1      42.819  33.001  30.233  1.00  0.00     0.029 A 
ATOM     54  C   UNL A   1      43.489  32.030  29.507  1.00  0.00     0.049 A 
ATOM     55  H   UNL A   1      42.841  30.103  28.943  1.00  0.00     0.167 HD
ATOM     56  C   UNL A   1      45.405  31.084  28.246  1.00  0.00     0.074 A 
ATOM     57  C   UNL A   1      46.735  31.166  27.678  1.00  0.00     0.031 C 
ATOM     58  C   UNL A   1      44.809  32.087  28.937  1.00  0.00     0.037 A 
BRANCH  45  59
ATOM     59  C   UNL A   1      39.121  30.738  30.922  1.00  0.00     0.057 A 
ATOM     60  C   UNL A   1      38.960  30.485  32.289  1.00  0.00     0.134 A 
ATOM     61  C   UNL A   1      38.095  31.425  30.262  1.00  0.00     0.134 A 
ATOM     62  F   UNL A   1      39.899  29.812  32.971  1.00  0.00    -0.206 F 
ATOM     63  C   UNL A   1      37.810  30.887  32.972  1.00  0.00     0.040 A 
ATOM     64  C   UNL A   1      36.949  31.847  30.938  1.00  0.00     0.040 A 
ATOM     65  F   UNL A   1      38.190  31.695  28.952  1.00  0.00    -0.206 F 
ATOM     66  C   UNL A   1      36.802  31.573  32.296  1.00  0.00     0.006 A 
ENDBRANCH  45  59
BRANCH  46  67
ATOM     67  C   UNL A   1      47.039  27.366  25.885  1.00  0.00     0.057 A 
ATOM     68  C   UNL A   1      47.138  27.545  24.500  1.00  0.00     0.134 A 
ATOM     69  C   UNL A   1      48.090  26.705  26.530  1.00  0.00     0.134 A 
ATOM     70  F   UNL A   1      46.151  28.151  23.825  1.00  0.00    -0.206 F 
ATOM     71  C   UNL A   1      48.238  27.073  23.782  1.00  0.00     0.040 A 
ATOM     72  C   UNL A   1      49.205  26.247  25.828  1.00  0.00     0.040 A 
ATOM     73  F   UNL A   1      48.051  26.505  27.856  1.00  0.00    -0.206 F 
ATOM     74  C   UNL A   1      49.278  26.426  24.448  1.00  0.00     0.006 A 
ENDBRANCH  46  67
BRANCH  58  75
ATOM     75  C   UNL A   1      45.601  33.344  29.129  1.00  0.00     0.057 A 
ATOM     76  C   UNL A   1      46.463  33.506  30.220  1.00  0.00     0.134 A 
ATOM     77  C   UNL A   1      45.521  34.388  28.201  1.00  0.00     0.134 A 
ATOM     78  F   UNL A   1      46.572  32.544  31.150  1.00  0.00    -0.206 F 
ATOM     79  C   UNL A   1      47.210  34.673  30.389  1.00  0.00     0.040 A 
ATOM     80  C   UNL A   1      46.275  35.552  28.350  1.00  0.00     0.040 A 
ATOM     81  F   UNL A   1      44.714  34.290  27.133  1.00  0.00    -0.206 F 
ATOM     82  C   UNL A   1      47.119  35.698  29.449  1.00  0.00     0.006 A 
ENDBRANCH  58  75
ENDBRANCH  32  33
ENDBRANCH  25  27
ENDBRANCH  24  25
ENDBRANCH  23  24
ENDBRANCH  22  23
ENDBRANCH   1  22
TORSDOF 17
ENDMDL
MODEL 2
REMARK VINA RESULT:     -10.4      4.366      7.553
REMARK SMILES CC[C@@]1(C(=O)OCCOC(=O)c2ccc(-c3c4nc(c(-c5c(F)cccc5F)c5ccc([nH]5)c(-c5c(F)cccc5F)c5nc(c(-c6c(F)cccc6F)c6ccc3[nH]6)C=C5)C=C4)cc2)CCN(C(=O)N(C)CCc2cccs2)C1
REMARK SMILES IDX 6 1 4 2 5 3 3 4 66 5 80 6 67 7 68 8 2 9 1 10 69 11 70 12
REMARK SMILES IDX 71 13 72 14 73 15 74 16 75 17 76 18 79 19 77 20 78 21 7 22
REMARK SMILES IDX 8 23 9 24 10 25 11 26 12 27 13 28 65 29 14 30 64 31 15 32
REMARK SMILES IDX 16 33 17 34 58 35 18 36 63 37 57 38 59 39 19 40 62 41 56 42
REMARK SMILES IDX 55 43 20 45 46 46 29 47 45 48 30 49 33 50 44 51 60 52 31 53
REMARK SMILES IDX 32 54 43 56 61 57 34 58 21 59 22 60 27 61 23 62 24 63 26 64
REMARK SMILES IDX 28 65 25 66 47 67 48 68 53 69 49 70 50 71 52 72 54 73 51 74
REMARK SMILES IDX 35 75 36 76 41 77 37 78 38 79 40 80 42 81 39 82
REMARK H PARENT 59 44 33 55
REMARK Flexibility Score: inf
ROOT
ATOM      1  O   UNL A   1      32.261  30.665  26.284  1.00  0.00    -0.462 OA
ENDROOT
BRANCH   1   2
ATOM      2  C   UNL A   1      31.979  29.407  26.724  1.00  0.00     0.314 C 
ATOM      3  O   UNL A   1      31.333  29.148  27.733  1.00  0.00    -0.252 OA
BRANCH   2   4
ATOM      4  C   UNL A   1      32.557  28.347  25.785  1.00  0.00     0.087 C 
ATOM      5  C   UNL A   1      31.854  28.416  24.409  1.00  0.00     0.042 C 
ATOM      6  C   UNL A   1      32.117  26.978  26.305  1.00  0.00     0.140 C 
ATOM      7  C   UNL A   1      30.570  27.627  24.593  1.00  0.00     0.122 C 
ATOM      8  N   UNL A   1      30.884  26.635  25.603  1.00  0.00    -0.323 N 
BRANCH   4   9
ATOM      9  C   UNL A   1      34.084  28.562  25.598  1.00  0.00     0.017 C 
ATOM     10  C   UNL A   1      34.917  28.683  26.865  1.00  0.00     0.005 C 
ENDBRANCH   4   9
BRANCH   8  11
ATOM     11  C   UNL A   1      30.350  25.389  25.832  1.00  0.00     0.319 C 
ATOM     12  O   UNL A   1      29.438  25.257  26.652  1.00  0.00    -0.248 OA
BRANCH  11  13
ATOM     13  N   UNL A   1      30.927  24.288  25.237  1.00  0.00    -0.327 N 
ATOM     14  C   UNL A   1      30.911  23.969  23.821  1.00  0.00     0.148 C 
BRANCH  13  15
ATOM     15  C   UNL A   1      31.571  23.313  26.126  1.00  0.00     0.126 C 
BRANCH  15  16
ATOM     16  C   UNL A   1      33.101  23.485  26.195  1.00  0.00     0.068 C 
BRANCH  16  17
ATOM     17  C   UNL A   1      33.870  22.277  25.733  1.00  0.00     0.006 A 
ATOM     18  C   UNL A   1      33.381  21.072  25.264  1.00  0.00     0.015 A 
ATOM     19  S   UNL A   1      35.586  22.291  25.748  1.00  0.00    -0.149 S 
ATOM     20  C   UNL A   1      34.422  20.184  24.861  1.00  0.00     0.012 A 
ATOM     21  C   UNL A   1      35.669  20.728  25.062  1.00  0.00     0.065 A 
ENDBRANCH  16  17
ENDBRANCH  15  16
ENDBRANCH  13  15
ENDBRANCH  11  13
ENDBRANCH   8  11
ENDBRANCH   2   4
ENDBRANCH   1   2
BRANCH   1  22
ATOM     22  C   UNL A   1      31.217  31.644  26.462  1.00  0.00     0.274 C 
BRANCH  22  23
ATOM     23  C   UNL A   1      31.812  33.045  26.583  1.00  0.00     0.275 C 
BRANCH  23  24
ATOM     24  O   UNL A   1      32.191  33.284  27.951  1.00  0.00    -0.458 OA
BRANCH  24  25
ATOM     25  C   UNL A   1      33.230  34.125  28.133  1.00  0.00     0.338 C 
ATOM     26  O   UNL A   1      33.225  35.341  28.088  1.00  0.00    -0.246 OA
BRANCH  25  27
ATOM     27  C   UNL A   1      34.436  33.343  28.448  1.00  0.00     0.060 A 
ATOM     28  C   UNL A   1      34.309  31.997  28.792  1.00  0.00     0.016 A 
ATOM     29  C   UNL A   1      35.672  33.980  28.542  1.00  0.00     0.016 A 
ATOM     30  C   UNL A   1      35.396  31.295  29.298  1.00  0.00     0.010 A 
ATOM     31  C   UNL A   1      36.780  33.261  28.999  1.00  0.00     0.010 A 
ATOM     32  C   UNL A   1      36.639  31.927  29.421  1.00  0.00    -0.014 A 
BRANCH  32  33
ATOM     33  C   UNL A   1      37.755  31.221  30.093  1.00  0.00     0.031 A 
ATOM     34  C   UNL A   1      38.008  31.465  31.555  1.00  0.00     0.074 A 
ATOM     35  C   UNL A   1      38.501  30.328  29.420  1.00  0.00     0.049 A 
ATOM     36  N   UNL A   1      38.978  31.021  32.313  1.00  0.00    -0.248 NA
ATOM     37  C   UNL A   1      37.039  32.322  32.257  1.00  0.00     0.031 C 
ATOM     38  C   UNL A   1      38.315  29.955  28.017  1.00  0.00     0.029 A 
ATOM     39  N   UNL A   1      39.564  29.564  29.832  1.00  0.00    -0.354 N 
ATOM     40  C   UNL A   1      38.755  31.571  33.569  1.00  0.00     0.074 A 
ATOM     41  C   UNL A   1      37.563  32.385  33.473  1.00  0.00     0.031 C 
ATOM     42  C   UNL A   1      39.224  29.022  27.690  1.00  0.00     0.029 A 
ATOM     43  C   UNL A   1      40.086  28.771  28.842  1.00  0.00     0.049 A 
ATOM     44  H   UNL A   1      39.917  29.584  30.751  1.00  0.00     0.167 HD
ATOM     45  C   UNL A   1      39.481  31.411  34.700  1.00  0.00     0.037 A 
ATOM     46  C   UNL A   1      41.155  27.954  28.856  1.00  0.00     0.037 A 
ATOM     47  C   UNL A   1      40.649  30.580  34.805  1.00  0.00     0.049 A 
ATOM     48  C   UNL A   1      41.968  27.825  30.113  1.00  0.00     0.074 A 
ATOM     49  C   UNL A   1      41.461  30.365  35.907  1.00  0.00     0.029 A 
ATOM     50  N   UNL A   1      41.165  29.817  33.770  1.00  0.00    -0.354 N 
ATOM     51  N   UNL A   1      41.777  28.388  31.282  1.00  0.00    -0.248 NA
ATOM     52  C   UNL A   1      43.152  26.957  30.049  1.00  0.00     0.031 C 
ATOM     53  C   UNL A   1      42.483  29.485  35.529  1.00  0.00     0.029 A 
ATOM     54  C   UNL A   1      42.289  29.133  34.203  1.00  0.00     0.049 A 
ATOM     55  H   UNL A   1      40.789  29.767  32.863  1.00  0.00     0.167 HD
ATOM     56  C   UNL A   1      42.809  27.936  32.093  1.00  0.00     0.074 A 
ATOM     57  C   UNL A   1      43.613  27.039  31.290  1.00  0.00     0.031 C 
ATOM     58  C   UNL A   1      43.071  28.242  33.387  1.00  0.00     0.037 A 
BRANCH  45  59
ATOM     59  C   UNL A   1      39.042  32.185  35.906  1.00  0.00     0.057 A 
ATOM     60  C   UNL A   1      39.427  33.515  36.111  1.00  0.00     0.134 A 
ATOM     61  C   UNL A   1      38.218  31.590  36.868  1.00  0.00     0.134 A 
ATOM     62  F   UNL A   1      40.233  34.133  35.234  1.00  0.00    -0.206 F 
ATOM     63  C   UNL A   1      39.020  34.223  37.244  1.00  0.00     0.040 A 
ATOM     64  C   UNL A   1      37.791  32.293  37.996  1.00  0.00     0.040 A 
ATOM     65  F   UNL A   1      37.817  30.318  36.728  1.00  0.00    -0.206 F 
ATOM     66  C   UNL A   1      38.197  33.612  38.189  1.00  0.00     0.006 A 
ENDBRANCH  45  59
BRANCH  46  67
ATOM     67  C   UNL A   1      41.537  27.216  27.629  1.00  0.00     0.057 A 
ATOM     68  C   UNL A   1      42.333  27.813  26.645  1.00  0.00     0.134 A 
ATOM     69  C   UNL A   1      41.113  25.900  27.409  1.00  0.00     0.134 A 
ATOM     70  F   UNL A   1      42.750  29.079  26.790  1.00  0.00    -0.206 F 
ATOM     71  C   UNL A   1      42.685  27.130  25.479  1.00  0.00     0.040 A 
ATOM     72  C   UNL A   1      41.475  25.199  26.259  1.00  0.00     0.040 A 
ATOM     73  F   UNL A   1      40.349  25.275  28.317  1.00  0.00    -0.206 F 
ATOM     74  C   UNL A   1      42.259  25.817  25.287  1.00  0.00     0.006 A 
ENDBRANCH  46  67
BRANCH  58  75
ATOM     75  C   UNL A   1      44.263  27.585  34.013  1.00  0.00     0.057 A 
ATOM     76  C   UNL A   1      45.517  28.206  34.028  1.00  0.00     0.134 A 
ATOM     77  C   UNL A   1      44.147  26.334  34.629  1.00  0.00     0.134 A 
ATOM     78  F   UNL A   1      45.693  29.400  33.441  1.00  0.00    -0.206 F 
ATOM     79  C   UNL A   1      46.623  27.596  34.624  1.00  0.00     0.040 A 
ATOM     80  C   UNL A   1      45.240  25.722  35.243  1.00  0.00     0.040 A 
ATOM     81  F   UNL A   1      42.969  25.691  34.650  1.00  0.00    -0.206 F 
ATOM     82  C   UNL A   1      46.484  26.352  35.238  1.00  0.00     0.006 A 
ENDBRANCH  58  75
ENDBRANCH  32  33
ENDBRANCH  25  27
ENDBRANCH  24  25
ENDBRANCH  23  24
ENDBRANCH  22  23
ENDBRANCH   1  22
TORSDOF 17
ENDMDL
MODEL 3
REMARK VINA RESULT:     -10.4      1.424      6.563
REMARK SMILES CC[C@@]1(C(=O)OCCOC(=O)c2ccc(-c3c4nc(c(-c5c(F)cccc5F)c5ccc([nH]5)c(-c5c(F)cccc5F)c5nc(c(-c6c(F)cccc6F)c6ccc3[nH]6)C=C5)C=C4)cc2)CCN(C(=O)N(C)CCc2cccs2)C1
REMARK SMILES IDX 6 1 4 2 5 3 3 4 66 5 80 6 67 7 68 8 2 9 1 10 69 11 70 12
REMARK SMILES IDX 71 13 72 14 73 15 74 16 75 17 76 18 79 19 77 20 78 21 7 22
REMARK SMILES IDX 8 23 9 24 10 25 11 26 12 27 13 28 65 29 14 30 64 31 15 32
REMARK SMILES IDX 16 33 17 34 58 35 18 36 63 37 57 38 59 39 19 40 62 41 56 42
REMARK SMILES IDX 55 43 20 45 46 46 29 47 45 48 30 49 33 50 44 51 60 52 31 53
REMARK SMILES IDX 32 54 43 56 61 57 34 58 21 59 22 60 27 61 23 62 24 63 26 64
REMARK SMILES IDX 28 65 25 66 47 67 48 68 53 69 49 70 50 71 52 72 54 73 51 74
REMARK SMILES IDX 35 75 36 76 41 77 37 78 38 79 40 80 42 81 39 82
REMARK H PARENT 59 44 33 55
REMARK Flexibility Score: inf
ROOT
ATOM      1  O   UNL A   1      35.416  20.877  24.633  1.00  0.00    -0.462 OA
ENDROOT
BRANCH   1   2
ATOM      2  C   UNL A   1      34.539  21.275  25.597  1.00  0.00     0.314 C 
ATOM      3  O   UNL A   1      34.848  21.556  26.749  1.00  0.00    -0.252 OA
BRANCH   2   4
ATOM      4  C   UNL A   1      33.111  21.345  25.055  1.00  0.00     0.087 C 
ATOM      5  C   UNL A   1      33.061  22.250  23.801  1.00  0.00     0.042 C 
ATOM      6  C   UNL A   1      32.272  22.138  26.060  1.00  0.00     0.140 C 
ATOM      7  C   UNL A   1      32.978  23.663  24.351  1.00  0.00     0.122 C 
ATOM      8  N   UNL A   1      32.290  23.529  25.621  1.00  0.00    -0.323 N 
BRANCH   4   9
ATOM      9  C   UNL A   1      32.598  19.925  24.689  1.00  0.00     0.017 C 
ATOM     10  C   UNL A   1      32.303  19.663  23.220  1.00  0.00     0.005 C 
ENDBRANCH   4   9
BRANCH   8  11
ATOM     11  C   UNL A   1      31.513  24.424  26.317  1.00  0.00     0.319 C 
ATOM     12  O   UNL A   1      30.775  24.019  27.219  1.00  0.00    -0.248 OA
BRANCH  11  13
ATOM     13  N   UNL A   1      31.474  25.741  25.913  1.00  0.00    -0.327 N 
ATOM     14  C   UNL A   1      30.428  26.368  25.126  1.00  0.00     0.148 C 
BRANCH  13  15
ATOM     15  C   UNL A   1      32.630  26.577  26.261  1.00  0.00     0.126 C 
BRANCH  15  16
ATOM     16  C   UNL A   1      32.362  28.081  26.058  1.00  0.00     0.068 C 
BRANCH  16  17
ATOM     17  C   UNL A   1      33.371  28.974  26.728  1.00  0.00     0.006 A 
ATOM     18  C   UNL A   1      34.645  28.660  27.163  1.00  0.00     0.015 A 
ATOM     19  S   UNL A   1      32.993  30.618  27.040  1.00  0.00    -0.149 S 
ATOM     20  C   UNL A   1      35.331  29.790  27.698  1.00  0.00     0.012 A 
ATOM     21  C   UNL A   1      34.548  30.921  27.682  1.00  0.00     0.065 A 
ENDBRANCH  16  17
ENDBRANCH  15  16
ENDBRANCH  13  15
ENDBRANCH  11  13
ENDBRANCH   8  11
ENDBRANCH   2   4
ENDBRANCH   1   2
BRANCH   1  22
ATOM     22  C   UNL A   1      36.316  19.812  25.000  1.00  0.00     0.274 C 
BRANCH  22  23
ATOM     23  C   UNL A   1      37.762  20.216  24.727  1.00  0.00     0.275 C 
BRANCH  23  24
ATOM     24  O   UNL A   1      38.148  21.252  25.649  1.00  0.00    -0.458 OA
BRANCH  24  25
ATOM     25  C   UNL A   1      39.398  21.156  26.149  1.00  0.00     0.338 C 
ATOM     26  O   UNL A   1      40.139  20.191  26.131  1.00  0.00    -0.246 OA
BRANCH  25  27
ATOM     27  C   UNL A   1      39.789  22.453  26.723  1.00  0.00     0.060 A 
ATOM     28  C   UNL A   1      39.210  23.623  26.230  1.00  0.00     0.016 A 
ATOM     29  C   UNL A   1      40.831  22.517  27.646  1.00  0.00     0.016 A 
ATOM     30  C   UNL A   1      39.713  24.865  26.599  1.00  0.00     0.010 A 
ATOM     31  C   UNL A   1      41.302  23.766  28.061  1.00  0.00     0.010 A 
ATOM     32  C   UNL A   1      40.775  24.946  27.508  1.00  0.00    -0.014 A 
BRANCH  32  33
ATOM     33  C   UNL A   1      41.399  26.261  27.786  1.00  0.00     0.031 A 
ATOM     34  C   UNL A   1      42.789  26.539  27.284  1.00  0.00     0.074 A 
ATOM     35  C   UNL A   1      40.711  27.220  28.432  1.00  0.00     0.049 A 
ATOM     36  N   UNL A   1      43.550  27.583  27.490  1.00  0.00    -0.248 NA
ATOM     37  C   UNL A   1      43.402  25.503  26.437  1.00  0.00     0.031 C 
ATOM     38  C   UNL A   1      39.334  27.096  28.912  1.00  0.00     0.029 A 
ATOM     39  N   UNL A   1      41.079  28.492  28.788  1.00  0.00    -0.354 N 
ATOM     40  C   UNL A   1      44.742  27.316  26.828  1.00  0.00     0.074 A 
ATOM     41  C   UNL A   1      44.607  26.011  26.218  1.00  0.00     0.031 C 
ATOM     42  C   UNL A   1      38.968  28.253  29.488  1.00  0.00     0.029 A 
ATOM     43  C   UNL A   1      40.099  29.177  29.462  1.00  0.00     0.049 A 
ATOM     44  H   UNL A   1      41.961  28.877  28.580  1.00  0.00     0.167 HD
ATOM     45  C   UNL A   1      45.848  28.090  26.738  1.00  0.00     0.037 A 
ATOM     46  C   UNL A   1      40.121  30.403  30.018  1.00  0.00     0.037 A 
ATOM     47  C   UNL A   1      45.974  29.399  27.318  1.00  0.00     0.049 A 
ATOM     48  C   UNL A   1      41.376  31.226  29.939  1.00  0.00     0.074 A 
ATOM     49  C   UNL A   1      47.061  30.256  27.292  1.00  0.00     0.029 A 
ATOM     50  N   UNL A   1      44.969  30.046  28.020  1.00  0.00    -0.354 N 
ATOM     51  N   UNL A   1      42.513  30.943  29.352  1.00  0.00    -0.248 NA
ATOM     52  C   UNL A   1      41.352  32.533  30.609  1.00  0.00     0.031 C 
ATOM     53  C   UNL A   1      46.720  31.415  28.000  1.00  0.00     0.029 A 
ATOM     54  C   UNL A   1      45.412  31.289  28.439  1.00  0.00     0.049 A 
ATOM     55  H   UNL A   1      44.074  29.677  28.194  1.00  0.00     0.167 HD
ATOM     56  C   UNL A   1      43.337  32.038  29.575  1.00  0.00     0.074 A 
ATOM     57  C   UNL A   1      42.563  32.999  30.334  1.00  0.00     0.031 C 
ATOM     58  C   UNL A   1      44.623  32.230  29.191  1.00  0.00     0.037 A 
BRANCH  45  59
ATOM     59  C   UNL A   1      47.024  27.515  26.008  1.00  0.00     0.057 A 
ATOM     60  C   UNL A   1      47.169  27.644  24.622  1.00  0.00     0.134 A 
ATOM     61  C   UNL A   1      48.024  26.829  26.707  1.00  0.00     0.134 A 
ATOM     62  F   UNL A   1      46.233  28.273  23.896  1.00  0.00    -0.206 F 
ATOM     63  C   UNL A   1      48.264  27.095  23.952  1.00  0.00     0.040 A 
ATOM     64  C   UNL A   1      49.132  26.290  26.050  1.00  0.00     0.040 A 
ATOM     65  F   UNL A   1      47.941  26.670  28.036  1.00  0.00    -0.206 F 
ATOM     66  C   UNL A   1      49.252  26.418  24.668  1.00  0.00     0.006 A 
ENDBRANCH  45  59
BRANCH  46  67
ATOM     67  C   UNL A   1      38.924  30.914  30.727  1.00  0.00     0.057 A 
ATOM     68  C   UNL A   1      37.914  31.596  30.040  1.00  0.00     0.134 A 
ATOM     69  C   UNL A   1      38.764  30.737  32.106  1.00  0.00     0.134 A 
ATOM     70  F   UNL A   1      38.023  31.815  28.721  1.00  0.00    -0.206 F 
ATOM     71  C   UNL A   1      36.790  32.094  30.702  1.00  0.00     0.040 A 
ATOM     72  C   UNL A   1      37.636  31.210  32.777  1.00  0.00     0.040 A 
ATOM     73  F   UNL A   1      39.699  30.090  32.818  1.00  0.00    -0.206 F 
ATOM     74  C   UNL A   1      36.647  31.896  32.075  1.00  0.00     0.006 A 
ENDBRANCH  46  67
BRANCH  58  75
ATOM     75  C   UNL A   1      45.259  33.531  29.569  1.00  0.00     0.057 A 
ATOM     76  C   UNL A   1      45.160  34.661  28.748  1.00  0.00     0.134 A 
ATOM     77  C   UNL A   1      45.952  33.664  30.778  1.00  0.00     0.134 A 
ATOM     78  F   UNL A   1      44.520  34.591  27.570  1.00  0.00    -0.206 F 
ATOM     79  C   UNL A   1      45.742  35.876  29.110  1.00  0.00     0.040 A 
ATOM     80  C   UNL A   1      46.523  34.877  31.160  1.00  0.00     0.040 A 
ATOM     81  F   UNL A   1      46.077  32.617  31.609  1.00  0.00    -0.206 F 
ATOM     82  C   UNL A   1      46.423  35.987  30.322  1.00  0.00     0.006 A 
ENDBRANCH  58  75
ENDBRANCH  32  33
ENDBRANCH  25  27
ENDBRANCH  24  25
ENDBRANCH  23  24
ENDBRANCH  22  23
ENDBRANCH   1  22
TORSDOF 17
ENDMDL
