MODEL 1
REMARK VINA RESULT:     -12.4      0.000      0.000
REMARK SMILES Cc1nnc(SCC2=C(C(=O)OCCOC(=O)c3ccc(-c4c5nc(c(-c6c(F)cccc6F)c6ccc([nH]6)c(-c6c(F)cccc6F)c6nc(c(-c7c(F)cccc7F)c7ccc4[nH]7)C=C6)C=C5)cc3)N3C(=O)[C@H](NC(=O)c4cn(C)nc4C)[C@@H]3SC2)s1
REMARK SMILES IDX 13 1 12 2 10 3 11 4 9 5 8 6 88 7 72 8 87 9 73 10 86 11 74 12
REMARK SMILES IDX 75 13 7 14 6 15 5 16 1 17 2 18 3 19 89 20 4 21 76 22 77 23
REMARK SMILES IDX 78 25 79 26 80 27 84 28 81 29 83 30 85 31 82 32 14 33 15 34
REMARK SMILES IDX 16 35 17 36 18 37 19 38 71 39 20 40 70 41 21 42 22 43 23 44
REMARK SMILES IDX 64 45 24 46 69 47 63 48 65 49 25 50 68 51 62 52 61 53 26 55
REMARK SMILES IDX 52 56 35 57 51 58 36 59 39 60 50 61 66 62 37 63 38 64 49 66
REMARK SMILES IDX 67 67 40 68 27 69 28 70 33 71 29 72 30 73 32 74 34 75 31 76
REMARK SMILES IDX 53 77 54 78 59 79 55 80 56 81 58 82 60 83 57 84 41 85 42 86
REMARK SMILES IDX 47 87 43 88 44 89 46 90 48 91 45 92
REMARK H PARENT 76 24 65 54 39 65
REMARK Flexibility Score: inf
ROOT
ATOM      1  C   UNL A   1      34.622  22.533  26.734  1.00  0.00     0.275 C 
ENDROOT
BRANCH   1   2
ATOM      2  O   UNL A   1      33.323  21.986  27.055  1.00  0.00    -0.457 OA
BRANCH   2   3
ATOM      3  C   UNL A   1      32.229  22.702  26.663  1.00  0.00     0.355 C 
ATOM      4  O   UNL A   1      31.265  22.950  27.363  1.00  0.00    -0.244 OA
BRANCH   3   5
ATOM      5  C   UNL A   1      32.456  23.239  25.266  1.00  0.00     0.132 C 
ATOM      6  C   UNL A   1      32.461  22.439  24.161  1.00  0.00    -0.019 C 
ATOM      7  C   UNL A   1      32.757  22.968  22.758  1.00  0.00     0.106 C 
ATOM      8  N   UNL A   1      32.682  24.580  25.139  1.00  0.00    -0.289 N 
ATOM      9  S   UNL A   1      32.485  24.757  22.537  1.00  0.00    -0.129 SA
ATOM     10  C   UNL A   1      32.539  25.718  25.851  1.00  0.00     0.253 C 
ATOM     11  C   UNL A   1      33.401  25.162  24.025  1.00  0.00     0.181 C 
ATOM     12  O   UNL A   1      32.105  25.979  26.945  1.00  0.00    -0.272 OA
ATOM     13  C   UNL A   1      33.197  26.541  24.697  1.00  0.00     0.206 C 
BRANCH   6  14
ATOM     14  C   UNL A   1      32.162  20.945  24.261  1.00  0.00     0.111 C 
BRANCH  14  15
ATOM     15  S   UNL A   1      32.153  20.002  22.711  1.00  0.00    -0.089 SA
BRANCH  15  16
ATOM     16  C   UNL A   1      32.667  18.420  23.245  1.00  0.00     0.174 A 
ATOM     17  C   UNL A   1      33.632  15.404  25.398  1.00  0.00     0.081 C 
ATOM     18  C   UNL A   1      33.328  16.462  24.404  1.00  0.00     0.115 A 
ATOM     19  N   UNL A   1      33.618  16.401  23.121  1.00  0.00    -0.143 NA
ATOM     20  S   UNL A   1      32.539  17.913  24.877  1.00  0.00    -0.091 S 
ATOM     21  N   UNL A   1      33.222  17.538  22.446  1.00  0.00    -0.132 NA
ENDBRANCH  15  16
ENDBRANCH  14  15
ENDBRANCH   6  14
BRANCH  13  22
ATOM     22  N   UNL A   1      32.328  27.551  24.055  1.00  0.00    -0.337 N 
ATOM     23  C   UNL A   1      31.974  28.786  24.553  1.00  0.00     0.255 C 
ATOM     24  H   UNL A   1      31.959  27.313  23.174  1.00  0.00     0.164 HD
ATOM     25  O   UNL A   1      30.998  29.362  24.080  1.00  0.00    -0.269 OA
BRANCH  23  26
ATOM     26  C   UNL A   1      32.773  29.367  25.619  1.00  0.00     0.080 A 
ATOM     27  C   UNL A   1      34.030  28.971  26.047  1.00  0.00     0.122 A 
ATOM     28  C   UNL A   1      32.493  30.525  26.399  1.00  0.00     0.072 A 
ATOM     29  N   UNL A   1      34.404  29.856  27.014  1.00  0.00    -0.275 N 
ATOM     30  N   UNL A   1      33.488  30.803  27.251  1.00  0.00    -0.178 NA
ATOM     31  C   UNL A   1      31.293  31.399  26.384  1.00  0.00     0.069 C 
ATOM     32  C   UNL A   1      35.646  29.883  27.749  1.00  0.00     0.173 C 
ENDBRANCH  23  26
ENDBRANCH  13  22
ENDBRANCH   3   5
ENDBRANCH   2   3
ENDBRANCH   1   2
BRANCH   1  33
ATOM     33  C   UNL A   1      35.522  21.453  26.125  1.00  0.00     0.275 C 
BRANCH  33  34
ATOM     34  O   UNL A   1      36.573  22.054  25.347  1.00  0.00    -0.458 OA
BRANCH  34  35
ATOM     35  C   UNL A   1      37.807  21.553  25.578  1.00  0.00     0.338 C 
ATOM     36  O   UNL A   1      38.275  20.501  25.174  1.00  0.00    -0.246 OA
BRANCH  35  37
ATOM     37  C   UNL A   1      38.633  22.590  26.210  1.00  0.00     0.060 A 
ATOM     38  C   UNL A   1      38.201  23.899  26.033  1.00  0.00     0.016 A 
ATOM     39  C   UNL A   1      39.824  22.325  26.880  1.00  0.00     0.016 A 
ATOM     40  C   UNL A   1      38.959  24.964  26.501  1.00  0.00     0.010 A 
ATOM     41  C   UNL A   1      40.588  23.400  27.363  1.00  0.00     0.010 A 
ATOM     42  C   UNL A   1      40.169  24.728  27.159  1.00  0.00    -0.014 A 
BRANCH  42  43
ATOM     43  C   UNL A   1      41.010  25.895  27.535  1.00  0.00     0.031 A 
ATOM     44  C   UNL A   1      40.436  26.970  28.414  1.00  0.00     0.074 A 
ATOM     45  C   UNL A   1      42.304  25.953  27.169  1.00  0.00     0.049 A 
ATOM     46  N   UNL A   1      40.965  28.104  28.797  1.00  0.00    -0.248 NA
ATOM     47  C   UNL A   1      39.080  26.734  28.935  1.00  0.00     0.031 C 
ATOM     48  C   UNL A   1      43.017  24.929  26.404  1.00  0.00     0.029 A 
ATOM     49  N   UNL A   1      43.256  26.915  27.406  1.00  0.00    -0.354 N 
ATOM     50  C   UNL A   1      40.002  28.730  29.575  1.00  0.00     0.074 A 
ATOM     51  C   UNL A   1      38.847  27.857  29.599  1.00  0.00     0.031 C 
ATOM     52  C   UNL A   1      44.290  25.318  26.234  1.00  0.00     0.029 A 
ATOM     53  C   UNL A   1      44.469  26.642  26.823  1.00  0.00     0.049 A 
ATOM     54  H   UNL A   1      43.085  27.723  27.942  1.00  0.00     0.167 HD
ATOM     55  C   UNL A   1      40.072  29.926  30.207  1.00  0.00     0.037 A 
ATOM     56  C   UNL A   1      45.586  27.389  26.740  1.00  0.00     0.037 A 
ATOM     57  C   UNL A   1      41.230  30.782  30.196  1.00  0.00     0.049 A 
ATOM     58  C   UNL A   1      45.611  28.752  27.375  1.00  0.00     0.074 A 
ATOM     59  C   UNL A   1      41.394  32.017  30.799  1.00  0.00     0.029 A 
ATOM     60  N   UNL A   1      42.424  30.492  29.551  1.00  0.00    -0.354 N 
ATOM     61  N   UNL A   1      44.680  29.360  28.071  1.00  0.00    -0.248 NA
ATOM     62  C   UNL A   1      46.840  29.541  27.204  1.00  0.00     0.031 C 
ATOM     63  C   UNL A   1      42.663  32.502  30.467  1.00  0.00     0.029 A 
ATOM     64  C   UNL A   1      43.314  31.542  29.709  1.00  0.00     0.049 A 
ATOM     65  H   UNL A   1      42.611  29.662  29.055  1.00  0.00     0.167 HD
ATOM     66  C   UNL A   1      45.218  30.584  28.444  1.00  0.00     0.074 A 
ATOM     67  C   UNL A   1      46.561  30.632  27.904  1.00  0.00     0.031 C 
ATOM     68  C   UNL A   1      44.650  31.579  29.170  1.00  0.00     0.037 A 
BRANCH  55  69
ATOM     69  C   UNL A   1      38.836  30.405  30.911  1.00  0.00     0.057 A 
ATOM     70  C   UNL A   1      37.916  31.273  30.306  1.00  0.00     0.134 A 
ATOM     71  C   UNL A   1      38.561  29.979  32.216  1.00  0.00     0.134 A 
ATOM     72  F   UNL A   1      38.130  31.737  29.066  1.00  0.00    -0.206 F 
ATOM     73  C   UNL A   1      36.782  31.719  30.988  1.00  0.00     0.040 A 
ATOM     74  C   UNL A   1      37.416  30.396  32.897  1.00  0.00     0.040 A 
ATOM     75  F   UNL A   1      39.399  29.148  32.853  1.00  0.00    -0.206 F 
ATOM     76  C   UNL A   1      36.526  31.276  32.285  1.00  0.00     0.006 A 
ENDBRANCH  55  69
BRANCH  56  77
ATOM     77  C   UNL A   1      46.759  26.886  25.980  1.00  0.00     0.057 A 
ATOM     78  C   UNL A   1      47.741  26.098  26.589  1.00  0.00     0.134 A 
ATOM     79  C   UNL A   1      46.932  27.197  24.625  1.00  0.00     0.134 A 
ATOM     80  F   UNL A   1      47.647  25.788  27.890  1.00  0.00    -0.206 F 
ATOM     81  C   UNL A   1      48.860  25.651  25.884  1.00  0.00     0.040 A 
ATOM     82  C   UNL A   1      48.030  26.732  23.900  1.00  0.00     0.040 A 
ATOM     83  F   UNL A   1      46.028  27.952  23.982  1.00  0.00    -0.206 F 
ATOM     84  C   UNL A   1      49.003  25.962  24.533  1.00  0.00     0.006 A 
ENDBRANCH  56  77
BRANCH  68  85
ATOM     85  C   UNL A   1      45.489  32.792  29.454  1.00  0.00     0.057 A 
ATOM     86  C   UNL A   1      45.466  33.922  28.624  1.00  0.00     0.134 A 
ATOM     87  C   UNL A   1      46.297  32.847  30.596  1.00  0.00     0.134 A 
ATOM     88  F   UNL A   1      44.723  33.931  27.508  1.00  0.00    -0.206 F 
ATOM     89  C   UNL A   1      46.235  35.052  28.910  1.00  0.00     0.040 A 
ATOM     90  C   UNL A   1      47.048  33.981  30.908  1.00  0.00     0.040 A 
ATOM     91  F   UNL A   1      46.357  31.805  31.440  1.00  0.00    -0.206 F 
ATOM     92  C   UNL A   1      47.023  35.086  30.059  1.00  0.00     0.006 A 
ENDBRANCH  68  85
ENDBRANCH  42  43
ENDBRANCH  35  37
ENDBRANCH  34  35
ENDBRANCH  33  34
ENDBRANCH   1  33
TORSDOF 16
ENDMDL
MODEL 2
REMARK VINA RESULT:     -12.2      2.803      7.565
REMARK SMILES Cc1nnc(SCC2=C(C(=O)OCCOC(=O)c3ccc(-c4c5nc(c(-c6c(F)cccc6F)c6ccc([nH]6)c(-c6c(F)cccc6F)c6nc(c(-c7c(F)cccc7F)c7ccc4[nH]7)C=C6)C=C5)cc3)N3C(=O)[C@H](NC(=O)c4cn(C)nc4C)[C@@H]3SC2)s1
REMARK SMILES IDX 13 1 12 2 10 3 11 4 9 5 8 6 88 7 72 8 87 9 73 10 86 11 74 12
REMARK SMILES IDX 75 13 7 14 6 15 5 16 1 17 2 18 3 19 89 20 4 21 76 22 77 23
REMARK SMILES IDX 78 25 79 26 80 27 84 28 81 29 83 30 85 31 82 32 14 33 15 34
REMARK SMILES IDX 16 35 17 36 18 37 19 38 71 39 20 40 70 41 21 42 22 43 23 44
REMARK SMILES IDX 64 45 24 46 69 47 63 48 65 49 25 50 68 51 62 52 61 53 26 55
REMARK SMILES IDX 52 56 35 57 51 58 36 59 39 60 50 61 66 62 37 63 38 64 49 66
REMARK SMILES IDX 67 67 40 68 27 69 28 70 33 71 29 72 30 73 32 74 34 75 31 76
REMARK SMILES IDX 53 77 54 78 59 79 55 80 56 81 58 82 60 83 57 84 41 85 42 86
REMARK SMILES IDX 47 87 43 88 44 89 46 90 48 91 45 92
REMARK H PARENT 76 24 65 54 39 65
REMARK Flexibility Score: inf
ROOT
ATOM      1  C   UNL A   1      31.427  27.867  27.378  1.00  0.00     0.275 C 
ENDROOT
BRANCH   1   2
ATOM      2  O   UNL A   1      31.655  26.493  26.995  1.00  0.00    -0.457 OA
BRANCH   2   3
ATOM      3  C   UNL A   1      30.630  25.837  26.379  1.00  0.00     0.355 C 
ATOM      4  O   UNL A   1      29.475  25.819  26.764  1.00  0.00    -0.244 OA
BRANCH   3   5
ATOM      5  C   UNL A   1      31.127  25.235  25.081  1.00  0.00     0.132 C 
ATOM      6  C   UNL A   1      30.969  25.853  23.875  1.00  0.00    -0.019 C 
ATOM      7  C   UNL A   1      31.408  25.218  22.557  1.00  0.00     0.106 C 
ATOM      8  N   UNL A   1      31.736  24.015  25.149  1.00  0.00    -0.289 N 
ATOM      9  S   UNL A   1      32.685  23.925  22.714  1.00  0.00    -0.129 SA
ATOM     10  C   UNL A   1      32.297  23.196  26.064  1.00  0.00     0.253 C 
ATOM     11  C   UNL A   1      31.797  23.095  24.033  1.00  0.00     0.181 C 
ATOM     12  O   UNL A   1      32.490  23.266  27.252  1.00  0.00    -0.272 OA
ATOM     13  C   UNL A   1      32.551  22.116  24.964  1.00  0.00     0.206 C 
BRANCH   6  14
ATOM     14  C   UNL A   1      30.337  27.239  23.770  1.00  0.00     0.111 C 
BRANCH  14  15
ATOM     15  S   UNL A   1      28.550  27.307  23.465  1.00  0.00    -0.089 SA
BRANCH  15  16
ATOM     16  C   UNL A   1      28.296  29.012  23.177  1.00  0.00     0.174 A 
ATOM     17  C   UNL A   1      28.821  32.725  22.402  1.00  0.00     0.081 C 
ATOM     18  C   UNL A   1      28.424  31.339  22.750  1.00  0.00     0.115 A 
ATOM     19  N   UNL A   1      27.247  30.986  23.224  1.00  0.00    -0.143 NA
ATOM     20  S   UNL A   1      29.521  30.033  22.550  1.00  0.00    -0.091 S 
ATOM     21  N   UNL A   1      27.171  29.628  23.461  1.00  0.00    -0.132 NA
ENDBRANCH  15  16
ENDBRANCH  14  15
ENDBRANCH   6  14
BRANCH  13  22
ATOM     22  N   UNL A   1      33.970  21.794  24.699  1.00  0.00    -0.337 N 
ATOM     23  C   UNL A   1      34.564  20.552  24.730  1.00  0.00     0.255 C 
ATOM     24  H   UNL A   1      34.556  22.553  24.477  1.00  0.00     0.164 HD
ATOM     25  O   UNL A   1      35.787  20.478  24.823  1.00  0.00    -0.269 OA
BRANCH  23  26
ATOM     26  C   UNL A   1      33.723  19.370  24.647  1.00  0.00     0.080 A 
ATOM     27  C   UNL A   1      33.644  18.322  25.551  1.00  0.00     0.122 A 
ATOM     28  C   UNL A   1      32.725  19.065  23.679  1.00  0.00     0.072 A 
ATOM     29  N   UNL A   1      32.669  17.488  25.089  1.00  0.00    -0.275 N 
ATOM     30  N   UNL A   1      32.102  17.912  23.954  1.00  0.00    -0.178 NA
ATOM     31  C   UNL A   1      32.329  19.826  22.467  1.00  0.00     0.069 C 
ATOM     32  C   UNL A   1      32.197  16.267  25.697  1.00  0.00     0.173 C 
ENDBRANCH  23  26
ENDBRANCH  13  22
ENDBRANCH   3   5
ENDBRANCH   2   3
ENDBRANCH   1   2
BRANCH   1  33
ATOM     33  C   UNL A   1      32.493  28.779  26.763  1.00  0.00     0.275 C 
BRANCH  33  34
ATOM     34  O   UNL A   1      33.667  28.814  27.597  1.00  0.00    -0.458 OA
BRANCH  34  35
ATOM     35  C   UNL A   1      34.231  30.035  27.729  1.00  0.00     0.338 C 
ATOM     36  O   UNL A   1      33.676  31.122  27.701  1.00  0.00    -0.246 OA
BRANCH  35  37
ATOM     37  C   UNL A   1      35.623  29.874  28.167  1.00  0.00     0.060 A 
ATOM     38  C   UNL A   1      36.594  30.119  27.202  1.00  0.00     0.016 A 
ATOM     39  C   UNL A   1      35.986  29.428  29.435  1.00  0.00     0.016 A 
ATOM     40  C   UNL A   1      37.936  29.900  27.478  1.00  0.00     0.010 A 
ATOM     41  C   UNL A   1      37.344  29.215  29.719  1.00  0.00     0.010 A 
ATOM     42  C   UNL A   1      38.327  29.431  28.735  1.00  0.00    -0.014 A 
BRANCH  42  43
ATOM     43  C   UNL A   1      39.758  29.093  28.951  1.00  0.00     0.031 A 
ATOM     44  C   UNL A   1      40.666  30.094  29.610  1.00  0.00     0.074 A 
ATOM     45  C   UNL A   1      40.228  27.869  28.643  1.00  0.00     0.049 A 
ATOM     46  N   UNL A   1      41.955  30.035  29.823  1.00  0.00    -0.248 NA
ATOM     47  C   UNL A   1      40.032  31.329  30.098  1.00  0.00     0.031 C 
ATOM     48  C   UNL A   1      39.434  26.770  28.093  1.00  0.00     0.029 A 
ATOM     49  N   UNL A   1      41.491  27.342  28.761  1.00  0.00    -0.354 N 
ATOM     50  C   UNL A   1      42.294  31.231  30.439  1.00  0.00     0.074 A 
ATOM     51  C   UNL A   1      41.076  32.006  30.554  1.00  0.00     0.031 C 
ATOM     52  C   UNL A   1      40.227  25.701  27.922  1.00  0.00     0.029 A 
ATOM     53  C   UNL A   1      41.595  26.056  28.290  1.00  0.00     0.049 A 
ATOM     54  H   UNL A   1      42.249  27.838  29.146  1.00  0.00     0.167 HD
ATOM     55  C   UNL A   1      43.510  31.648  30.866  1.00  0.00     0.037 A 
ATOM     56  C   UNL A   1      42.675  25.267  28.137  1.00  0.00     0.037 A 
ATOM     57  C   UNL A   1      44.716  30.866  30.768  1.00  0.00     0.049 A 
ATOM     58  C   UNL A   1      44.029  25.785  28.536  1.00  0.00     0.074 A 
ATOM     59  C   UNL A   1      45.997  31.205  31.164  1.00  0.00     0.029 A 
ATOM     60  N   UNL A   1      44.788  29.585  30.238  1.00  0.00    -0.354 N 
ATOM     61  N   UNL A   1      44.351  26.935  29.076  1.00  0.00    -0.248 NA
ATOM     62  C   UNL A   1      45.176  24.896  28.294  1.00  0.00     0.031 C 
ATOM     63  C   UNL A   1      46.856  30.157  30.816  1.00  0.00     0.029 A 
ATOM     64  C   UNL A   1      46.099  29.137  30.261  1.00  0.00     0.049 A 
ATOM     65  H   UNL A   1      44.021  29.070  29.897  1.00  0.00     0.167 HD
ATOM     66  C   UNL A   1      45.727  26.899  29.265  1.00  0.00     0.074 A 
ATOM     67  C   UNL A   1      46.179  25.609  28.789  1.00  0.00     0.031 C 
ATOM     68  C   UNL A   1      46.540  27.850  29.787  1.00  0.00     0.037 A 
BRANCH  55  69
ATOM     69  C   UNL A   1      43.605  33.039  31.420  1.00  0.00     0.057 A 
ATOM     70  C   UNL A   1      43.487  33.311  32.790  1.00  0.00     0.134 A 
ATOM     71  C   UNL A   1      43.830  34.123  30.563  1.00  0.00     0.134 A 
ATOM     72  F   UNL A   1      43.249  32.322  33.664  1.00  0.00    -0.206 F 
ATOM     73  C   UNL A   1      43.561  34.617  33.281  1.00  0.00     0.040 A 
ATOM     74  C   UNL A   1      43.935  35.429  31.045  1.00  0.00     0.040 A 
ATOM     75  F   UNL A   1      43.955  33.933  29.241  1.00  0.00    -0.206 F 
ATOM     76  C   UNL A   1      43.792  35.679  32.408  1.00  0.00     0.006 A 
ENDBRANCH  55  69
BRANCH  56  77
ATOM     77  C   UNL A   1      42.528  23.920  27.528  1.00  0.00     0.057 A 
ATOM     78  C   UNL A   1      42.360  22.776  28.315  1.00  0.00     0.134 A 
ATOM     79  C   UNL A   1      42.568  23.745  26.138  1.00  0.00     0.134 A 
ATOM     80  F   UNL A   1      42.340  22.875  29.652  1.00  0.00    -0.206 F 
ATOM     81  C   UNL A   1      42.253  21.506  27.746  1.00  0.00     0.040 A 
ATOM     82  C   UNL A   1      42.432  22.484  25.553  1.00  0.00     0.040 A 
ATOM     83  F   UNL A   1      42.730  24.800  25.326  1.00  0.00    -0.206 F 
ATOM     84  C   UNL A   1      42.282  21.359  26.360  1.00  0.00     0.006 A 
ENDBRANCH  56  77
BRANCH  68  85
ATOM     85  C   UNL A   1      48.001  27.520  29.904  1.00  0.00     0.057 A 
ATOM     86  C   UNL A   1      48.536  26.913  31.048  1.00  0.00     0.134 A 
ATOM     87  C   UNL A   1      48.876  27.775  28.841  1.00  0.00     0.134 A 
ATOM     88  F   UNL A   1      47.756  26.651  32.107  1.00  0.00    -0.206 F 
ATOM     89  C   UNL A   1      49.892  26.593  31.137  1.00  0.00     0.040 A 
ATOM     90  C   UNL A   1      50.227  27.434  28.907  1.00  0.00     0.040 A 
ATOM     91  F   UNL A   1      48.428  28.345  27.711  1.00  0.00    -0.206 F 
ATOM     92  C   UNL A   1      50.740  26.846  30.061  1.00  0.00     0.006 A 
ENDBRANCH  68  85
ENDBRANCH  42  43
ENDBRANCH  35  37
ENDBRANCH  34  35
ENDBRANCH  33  34
ENDBRANCH   1  33
TORSDOF 16
ENDMDL
MODEL 3
REMARK VINA RESULT:     -12.1      3.171      6.216
REMARK SMILES Cc1nnc(SCC2=C(C(=O)OCCOC(=O)c3ccc(-c4c5nc(c(-c6c(F)cccc6F)c6ccc([nH]6)c(-c6c(F)cccc6F)c6nc(c(-c7c(F)cccc7F)c7ccc4[nH]7)C=C6)C=C5)cc3)N3C(=O)[C@H](NC(=O)c4cn(C)nc4C)[C@@H]3SC2)s1
REMARK SMILES IDX 13 1 12 2 10 3 11 4 9 5 8 6 88 7 72 8 87 9 73 10 86 11 74 12
REMARK SMILES IDX 75 13 7 14 6 15 5 16 1 17 2 18 3 19 89 20 4 21 76 22 77 23
REMARK SMILES IDX 78 25 79 26 80 27 84 28 81 29 83 30 85 31 82 32 14 33 15 34
REMARK SMILES IDX 16 35 17 36 18 37 19 38 71 39 20 40 70 41 21 42 22 43 23 44
REMARK SMILES IDX 64 45 24 46 69 47 63 48 65 49 25 50 68 51 62 52 61 53 26 55
REMARK SMILES IDX 52 56 35 57 51 58 36 59 39 60 50 61 66 62 37 63 38 64 49 66
REMARK SMILES IDX 67 67 40 68 27 69 28 70 33 71 29 72 30 73 32 74 34 75 31 76
REMARK SMILES IDX 53 77 54 78 59 79 55 80 56 81 58 82 60 83 57 84 41 85 42 86
REMARK SMILES IDX 47 87 43 88 44 89 46 90 48 91 45 92
REMARK H PARENT 76 24 65 54 39 65
REMARK Flexibility Score: inf
ROOT
ATOM      1  C   UNL A   1      32.439  27.595  27.046  1.00  0.00     0.275 C 
ENDROOT
BRANCH   1   2
ATOM      2  O   UNL A   1      33.462  26.895  26.303  1.00  0.00    -0.457 OA
BRANCH   2   3
ATOM      3  C   UNL A   1      33.600  27.208  24.982  1.00  0.00     0.355 C 
ATOM      4  O   UNL A   1      34.485  27.901  24.513  1.00  0.00    -0.244 OA
BRANCH   3   5
ATOM      5  C   UNL A   1      32.555  26.464  24.178  1.00  0.00     0.132 C 
ATOM      6  C   UNL A   1      32.609  25.116  23.969  1.00  0.00    -0.019 C 
ATOM      7  C   UNL A   1      31.594  24.374  23.100  1.00  0.00     0.106 C 
ATOM      8  N   UNL A   1      31.542  27.200  23.634  1.00  0.00    -0.289 N 
ATOM      9  S   UNL A   1      29.998  25.228  22.882  1.00  0.00    -0.129 SA
ATOM     10  C   UNL A   1      30.975  28.418  23.761  1.00  0.00     0.253 C 
ATOM     11  C   UNL A   1      30.794  26.781  22.467  1.00  0.00     0.181 C 
ATOM     12  O   UNL A   1      31.170  29.369  24.475  1.00  0.00    -0.272 OA
ATOM     13  C   UNL A   1      29.998  28.103  22.583  1.00  0.00     0.206 C 
BRANCH   6  14
ATOM     14  C   UNL A   1      33.700  24.257  24.602  1.00  0.00     0.111 C 
BRANCH  14  15
ATOM     15  S   UNL A   1      34.347  22.884  23.608  1.00  0.00    -0.089 SA
BRANCH  15  16
ATOM     16  C   UNL A   1      35.776  22.429  24.505  1.00  0.00     0.174 A 
ATOM     17  C   UNL A   1      39.143  22.488  26.326  1.00  0.00     0.081 C 
ATOM     18  C   UNL A   1      37.847  22.260  25.643  1.00  0.00     0.115 A 
ATOM     19  N   UNL A   1      37.327  21.079  25.381  1.00  0.00    -0.143 NA
ATOM     20  S   UNL A   1      36.885  23.582  25.117  1.00  0.00    -0.091 S 
ATOM     21  N   UNL A   1      36.115  21.180  24.728  1.00  0.00    -0.132 NA
ENDBRANCH  15  16
ENDBRANCH  14  15
ENDBRANCH   6  14
BRANCH  13  22
ATOM     22  N   UNL A   1      28.561  28.068  22.935  1.00  0.00    -0.337 N 
ATOM     23  C   UNL A   1      27.680  29.127  22.953  1.00  0.00     0.255 C 
ATOM     24  H   UNL A   1      28.194  27.190  23.186  1.00  0.00     0.164 HD
ATOM     25  O   UNL A   1      26.629  29.017  23.578  1.00  0.00    -0.269 OA
BRANCH  23  26
ATOM     26  C   UNL A   1      28.024  30.338  22.227  1.00  0.00     0.080 A 
ATOM     27  C   UNL A   1      27.791  30.618  20.890  1.00  0.00     0.122 A 
ATOM     28  C   UNL A   1      28.587  31.542  22.738  1.00  0.00     0.072 A 
ATOM     29  N   UNL A   1      28.217  31.896  20.684  1.00  0.00    -0.275 N 
ATOM     30  N   UNL A   1      28.709  32.476  21.785  1.00  0.00    -0.178 NA
ATOM     31  C   UNL A   1      29.036  31.857  24.117  1.00  0.00     0.069 C 
ATOM     32  C   UNL A   1      28.163  32.655  19.457  1.00  0.00     0.173 C 
ENDBRANCH  23  26
ENDBRANCH  13  22
ENDBRANCH   3   5
ENDBRANCH   2   3
ENDBRANCH   1   2
BRANCH   1  33
ATOM     33  C   UNL A   1      32.936  28.982  27.464  1.00  0.00     0.275 C 
BRANCH  33  34
ATOM     34  O   UNL A   1      34.285  28.904  27.963  1.00  0.00    -0.458 OA
BRANCH  34  35
ATOM     35  C   UNL A   1      34.946  30.082  27.992  1.00  0.00     0.338 C 
ATOM     36  O   UNL A   1      34.476  31.206  27.918  1.00  0.00    -0.246 OA
BRANCH  35  37
ATOM     37  C   UNL A   1      36.341  29.838  28.380  1.00  0.00     0.060 A 
ATOM     38  C   UNL A   1      37.289  30.023  27.379  1.00  0.00     0.016 A 
ATOM     39  C   UNL A   1      36.723  29.370  29.634  1.00  0.00     0.016 A 
ATOM     40  C   UNL A   1      38.625  29.724  27.606  1.00  0.00     0.010 A 
ATOM     41  C   UNL A   1      38.076  29.076  29.869  1.00  0.00     0.010 A 
ATOM     42  C   UNL A   1      39.033  29.233  28.849  1.00  0.00    -0.014 A 
BRANCH  42  43
ATOM     43  C   UNL A   1      40.448  28.809  29.013  1.00  0.00     0.031 A 
ATOM     44  C   UNL A   1      41.432  29.743  29.659  1.00  0.00     0.074 A 
ATOM     45  C   UNL A   1      40.836  27.566  28.670  1.00  0.00     0.049 A 
ATOM     46  N   UNL A   1      42.722  29.607  29.830  1.00  0.00    -0.248 NA
ATOM     47  C   UNL A   1      40.887  31.004  30.187  1.00  0.00     0.031 C 
ATOM     48  C   UNL A   1      39.963  26.524  28.128  1.00  0.00     0.029 A 
ATOM     49  N   UNL A   1      42.069  26.964  28.739  1.00  0.00    -0.354 N 
ATOM     50  C   UNL A   1      43.149  30.770  30.454  1.00  0.00     0.074 A 
ATOM     51  C   UNL A   1      41.982  31.611  30.620  1.00  0.00     0.031 C 
ATOM     52  C   UNL A   1      40.687  25.414  27.914  1.00  0.00     0.029 A 
ATOM     53  C   UNL A   1      42.084  25.683  28.244  1.00  0.00     0.049 A 
ATOM     54  H   UNL A   1      42.866  27.410  29.107  1.00  0.00     0.167 HD
ATOM     55  C   UNL A   1      44.400  31.108  30.848  1.00  0.00     0.037 A 
ATOM     56  C   UNL A   1      43.111  24.836  28.043  1.00  0.00     0.037 A 
ATOM     57  C   UNL A   1      45.554  30.260  30.698  1.00  0.00     0.049 A 
ATOM     58  C   UNL A   1      44.505  25.268  28.407  1.00  0.00     0.074 A 
ATOM     59  C   UNL A   1      46.865  30.518  31.058  1.00  0.00     0.029 A 
ATOM     60  N   UNL A   1      45.536  28.987  30.145  1.00  0.00    -0.354 N 
ATOM     61  N   UNL A   1      44.910  26.388  28.955  1.00  0.00    -0.248 NA
ATOM     62  C   UNL A   1      45.590  24.320  28.114  1.00  0.00     0.031 C 
ATOM     63  C   UNL A   1      47.650  29.429  30.666  1.00  0.00     0.029 A 
ATOM     64  C   UNL A   1      46.819  28.465  30.119  1.00  0.00     0.049 A 
ATOM     65  H   UNL A   1      44.730  28.524  29.821  1.00  0.00     0.167 HD
ATOM     66  C   UNL A   1      46.286  26.270  29.099  1.00  0.00     0.074 A 
ATOM     67  C   UNL A   1      46.648  24.964  28.588  1.00  0.00     0.031 C 
ATOM     68  C   UNL A   1      47.169  27.163  29.610  1.00  0.00     0.037 A 
BRANCH  55  69
ATOM     69  C   UNL A   1      44.593  32.481  31.421  1.00  0.00     0.057 A 
ATOM     70  C   UNL A   1      44.515  32.739  32.797  1.00  0.00     0.134 A 
ATOM     71  C   UNL A   1      44.872  33.563  30.576  1.00  0.00     0.134 A 
ATOM     72  F   UNL A   1      44.229  31.752  33.660  1.00  0.00    -0.206 F 
ATOM     73  C   UNL A   1      44.681  34.029  33.306  1.00  0.00     0.040 A 
ATOM     74  C   UNL A   1      45.068  34.851  31.076  1.00  0.00     0.040 A 
ATOM     75  F   UNL A   1      44.962  33.387  29.250  1.00  0.00    -0.206 F 
ATOM     76  C   UNL A   1      44.964  35.088  32.445  1.00  0.00     0.006 A 
ENDBRANCH  55  69
BRANCH  56  77
ATOM     77  C   UNL A   1      42.867  23.511  27.417  1.00  0.00     0.057 A 
ATOM     78  C   UNL A   1      42.497  22.400  28.181  1.00  0.00     0.134 A 
ATOM     79  C   UNL A   1      43.015  23.324  26.036  1.00  0.00     0.134 A 
ATOM     80  F   UNL A   1      42.365  22.509  29.511  1.00  0.00    -0.206 F 
ATOM     81  C   UNL A   1      42.299  21.147  27.599  1.00  0.00     0.040 A 
ATOM     82  C   UNL A   1      42.789  22.084  25.437  1.00  0.00     0.040 A 
ATOM     83  F   UNL A   1      43.371  24.349  25.248  1.00  0.00    -0.206 F 
ATOM     84  C   UNL A   1      42.438  20.989  26.221  1.00  0.00     0.006 A 
ENDBRANCH  56  77
BRANCH  68  85
ATOM     85  C   UNL A   1      48.611  26.748  29.675  1.00  0.00     0.057 A 
ATOM     86  C   UNL A   1      49.530  27.096  28.675  1.00  0.00     0.134 A 
ATOM     87  C   UNL A   1      49.096  26.027  30.773  1.00  0.00     0.134 A 
ATOM     88  F   UNL A   1      49.131  27.776  27.591  1.00  0.00    -0.206 F 
ATOM     89  C   UNL A   1      50.873  26.722  28.757  1.00  0.00     0.040 A 
ATOM     90  C   UNL A   1      50.441  25.671  30.880  1.00  0.00     0.040 A 
ATOM     91  F   UNL A   1      48.273  25.670  31.772  1.00  0.00    -0.206 F 
ATOM     92  C   UNL A   1      51.333  26.014  29.866  1.00  0.00     0.006 A 
ENDBRANCH  68  85
ENDBRANCH  42  43
ENDBRANCH  35  37
ENDBRANCH  34  35
ENDBRANCH  33  34
ENDBRANCH   1  33
TORSDOF 16
ENDMDL
