MODEL 1
REMARK VINA RESULT:     -10.6      0.000      0.000
REMARK SMILES O=C(OCCOC(=O)[C@H]1COCCN1C(=O)c1ccc(Br)nc1)c1ccc(-c2c3nc(c(-c4c(F)cccc4F)c4ccc([nH]4)c(-c4c(F)cccc4F)c4nc(c(-c5c(F)cccc5F)c5ccc2[nH]5)C=C4)C=C3)cc1
REMARK SMILES IDX 4 1 3 2 2 3 1 4 24 5 25 6 77 7 26 8 76 9 27 10 28 11 29 12
REMARK SMILES IDX 70 13 30 14 75 15 69 16 71 17 31 18 74 19 68 20 67 21 32 23
REMARK SMILES IDX 58 24 41 25 57 26 42 27 45 28 56 29 72 30 43 31 44 32 55 34
REMARK SMILES IDX 73 35 46 36 33 37 34 38 39 39 35 40 36 41 38 42 40 43 37 44
REMARK SMILES IDX 59 45 60 46 65 47 61 48 62 49 64 50 66 51 63 52 47 53 48 54
REMARK SMILES IDX 53 55 49 56 50 57 52 58 54 59 51 60 5 61 6 62 7 63 8 64 9 65
REMARK SMILES IDX 10 66 14 67 11 68 13 69 12 70 15 71 16 72 17 73 18 74 23 75
REMARK SMILES IDX 19 76 22 77 20 78 21 79
REMARK H PARENT 71 22 45 33
REMARK Flexibility Score: inf
ROOT
ATOM      1  C   UNL A   1      34.426  32.902  28.513  1.00  0.00     0.275 C 
ENDROOT
BRANCH   1   2
ATOM      2  O   UNL A   1      33.892  31.653  28.069  1.00  0.00    -0.458 OA
BRANCH   2   3
ATOM      3  C   UNL A   1      34.517  30.469  27.915  1.00  0.00     0.338 C 
ATOM      4  O   UNL A   1      33.882  29.553  27.392  1.00  0.00    -0.246 OA
BRANCH   3   5
ATOM      5  C   UNL A   1      35.895  30.146  28.436  1.00  0.00     0.060 A 
ATOM      6  C   UNL A   1      36.281  29.693  29.709  1.00  0.00     0.016 A 
ATOM      7  C   UNL A   1      36.896  30.208  27.468  1.00  0.00     0.016 A 
ATOM      8  C   UNL A   1      37.561  29.163  29.962  1.00  0.00     0.010 A 
ATOM      9  C   UNL A   1      38.161  29.692  27.720  1.00  0.00     0.010 A 
ATOM     10  C   UNL A   1      38.505  29.120  28.949  1.00  0.00    -0.014 A 
BRANCH  10  11
ATOM     11  C   UNL A   1      39.907  28.668  29.144  1.00  0.00     0.031 A 
ATOM     12  C   UNL A   1      40.879  29.686  29.664  1.00  0.00     0.074 A 
ATOM     13  C   UNL A   1      40.348  27.459  28.744  1.00  0.00     0.049 A 
ATOM     14  N   UNL A   1      42.182  29.663  29.674  1.00  0.00    -0.248 NA
ATOM     15  C   UNL A   1      40.287  30.944  30.152  1.00  0.00     0.031 C 
ATOM     16  C   UNL A   1      39.523  26.386  28.198  1.00  0.00     0.029 A 
ATOM     17  N   UNL A   1      41.621  26.939  28.710  1.00  0.00    -0.354 N 
ATOM     18  C   UNL A   1      42.556  30.926  30.113  1.00  0.00     0.074 A 
ATOM     19  C   UNL A   1      41.353  31.718  30.221  1.00  0.00     0.031 C 
ATOM     20  C   UNL A   1      40.307  25.344  27.865  1.00  0.00     0.029 A 
ATOM     21  C   UNL A   1      41.696  25.675  28.172  1.00  0.00     0.049 A 
ATOM     22  H   UNL A   1      42.408  27.429  29.041  1.00  0.00     0.167 HD
ATOM     23  C   UNL A   1      43.782  31.374  30.464  1.00  0.00     0.037 A 
ATOM     24  C   UNL A   1      42.765  24.878  27.965  1.00  0.00     0.037 A 
ATOM     25  C   UNL A   1      44.954  30.550  30.438  1.00  0.00     0.049 A 
ATOM     26  C   UNL A   1      44.128  25.365  28.395  1.00  0.00     0.074 A 
ATOM     27  C   UNL A   1      46.235  30.857  30.852  1.00  0.00     0.029 A 
ATOM     28  N   UNL A   1      44.976  29.242  29.976  1.00  0.00    -0.354 N 
ATOM     29  N   UNL A   1      44.464  26.532  28.892  1.00  0.00    -0.248 NA
ATOM     30  C   UNL A   1      45.251  24.425  28.265  1.00  0.00     0.031 C 
ATOM     31  C   UNL A   1      47.042  29.741  30.609  1.00  0.00     0.029 A 
ATOM     32  C   UNL A   1      46.251  28.725  30.089  1.00  0.00     0.049 A 
ATOM     33  H   UNL A   1      44.198  28.754  29.621  1.00  0.00     0.167 HD
ATOM     34  C   UNL A   1      45.822  26.449  29.180  1.00  0.00     0.074 A 
ATOM     35  C   UNL A   1      46.250  25.121  28.791  1.00  0.00     0.031 C 
ATOM     36  C   UNL A   1      46.637  27.383  29.729  1.00  0.00     0.037 A 
BRANCH  23  37
ATOM     37  C   UNL A   1      43.867  32.803  30.910  1.00  0.00     0.057 A 
ATOM     38  C   UNL A   1      44.129  33.848  30.010  1.00  0.00     0.134 A 
ATOM     39  C   UNL A   1      43.792  33.125  32.269  1.00  0.00     0.134 A 
ATOM     40  F   UNL A   1      44.234  33.603  28.694  1.00  0.00    -0.206 F 
ATOM     41  C   UNL A   1      44.400  35.143  30.453  1.00  0.00     0.040 A 
ATOM     42  C   UNL A   1      44.016  34.427  32.720  1.00  0.00     0.040 A 
ATOM     43  F   UNL A   1      43.532  32.179  33.182  1.00  0.00    -0.206 F 
ATOM     44  C   UNL A   1      44.346  35.434  31.813  1.00  0.00     0.006 A 
ENDBRANCH  23  37
BRANCH  24  45
ATOM     45  C   UNL A   1      42.592  23.518  27.384  1.00  0.00     0.057 A 
ATOM     46  C   UNL A   1      42.710  23.301  26.005  1.00  0.00     0.134 A 
ATOM     47  C   UNL A   1      42.299  22.408  28.184  1.00  0.00     0.134 A 
ATOM     48  F   UNL A   1      42.973  24.327  25.182  1.00  0.00    -0.206 F 
ATOM     49  C   UNL A   1      42.527  22.036  25.441  1.00  0.00     0.040 A 
ATOM     50  C   UNL A   1      42.131  21.132  27.635  1.00  0.00     0.040 A 
ATOM     51  F   UNL A   1      42.180  22.543  29.513  1.00  0.00    -0.206 F 
ATOM     52  C   UNL A   1      42.241  20.945  26.258  1.00  0.00     0.006 A 
ENDBRANCH  24  45
BRANCH  36  53
ATOM     53  C   UNL A   1      48.059  27.000  30.015  1.00  0.00     0.057 A 
ATOM     54  C   UNL A   1      48.422  26.311  31.175  1.00  0.00     0.134 A 
ATOM     55  C   UNL A   1      49.046  27.204  29.040  1.00  0.00     0.134 A 
ATOM     56  F   UNL A   1      47.523  26.093  32.147  1.00  0.00    -0.206 F 
ATOM     57  C   UNL A   1      49.720  25.830  31.356  1.00  0.00     0.040 A 
ATOM     58  C   UNL A   1      50.339  26.707  29.198  1.00  0.00     0.040 A 
ATOM     59  F   UNL A   1      48.755  27.849  27.900  1.00  0.00    -0.206 F 
ATOM     60  C   UNL A   1      50.678  26.014  30.359  1.00  0.00     0.006 A 
ENDBRANCH  36  53
ENDBRANCH  10  11
ENDBRANCH   3   5
ENDBRANCH   2   3
ENDBRANCH   1   2
BRANCH   1  61
ATOM     61  C   UNL A   1      33.513  34.099  28.209  1.00  0.00     0.274 C 
BRANCH  61  62
ATOM     62  O   UNL A   1      32.806  34.619  29.361  1.00  0.00    -0.460 OA
BRANCH  62  63
ATOM     63  C   UNL A   1      33.104  35.904  29.746  1.00  0.00     0.331 C 
ATOM     64  O   UNL A   1      32.748  36.887  29.119  1.00  0.00    -0.250 OA
BRANCH  63  65
ATOM     65  C   UNL A   1      33.914  35.921  31.084  1.00  0.00     0.221 C 
ATOM     66  C   UNL A   1      33.771  37.317  31.712  1.00  0.00     0.197 C 
ATOM     67  N   UNL A   1      33.464  34.911  32.082  1.00  0.00    -0.320 N 
ATOM     68  O   UNL A   1      32.432  37.563  32.174  1.00  0.00    -0.377 OA
ATOM     69  C   UNL A   1      32.111  35.164  32.591  1.00  0.00     0.149 C 
ATOM     70  C   UNL A   1      32.028  36.586  33.149  1.00  0.00     0.181 C 
BRANCH  67  71
ATOM     71  C   UNL A   1      34.134  33.803  32.589  1.00  0.00     0.256 C 
ATOM     72  O   UNL A   1      33.538  32.849  33.092  1.00  0.00    -0.269 OA
BRANCH  71  73
ATOM     73  C   UNL A   1      35.599  33.703  32.671  1.00  0.00     0.058 A 
ATOM     74  C   UNL A   1      36.360  33.073  31.681  1.00  0.00     0.018 A 
ATOM     75  C   UNL A   1      36.263  34.545  33.557  1.00  0.00     0.126 A 
ATOM     76  C   UNL A   1      37.745  33.294  31.639  1.00  0.00     0.037 A 
ATOM     77  N   UNL A   1      37.610  34.733  33.570  1.00  0.00    -0.249 NA
ATOM     78  C   UNL A   1      38.322  34.126  32.594  1.00  0.00     0.106 A 
ATOM     79  Br  UNL A   1      40.206  34.343  32.619  1.00  0.00    -0.029 Br
ENDBRANCH  71  73
ENDBRANCH  67  71
ENDBRANCH  63  65
ENDBRANCH  62  63
ENDBRANCH  61  62
ENDBRANCH   1  61
TORSDOF 13
ENDMDL
MODEL 2
REMARK VINA RESULT:     -10.3      4.414      8.397
REMARK SMILES O=C(OCCOC(=O)[C@H]1COCCN1C(=O)c1ccc(Br)nc1)c1ccc(-c2c3nc(c(-c4c(F)cccc4F)c4ccc([nH]4)c(-c4c(F)cccc4F)c4nc(c(-c5c(F)cccc5F)c5ccc2[nH]5)C=C4)C=C3)cc1
REMARK SMILES IDX 4 1 3 2 2 3 1 4 24 5 25 6 77 7 26 8 76 9 27 10 28 11 29 12
REMARK SMILES IDX 70 13 30 14 75 15 69 16 71 17 31 18 74 19 68 20 67 21 32 23
REMARK SMILES IDX 58 24 41 25 57 26 42 27 45 28 56 29 72 30 43 31 44 32 55 34
REMARK SMILES IDX 73 35 46 36 33 37 34 38 39 39 35 40 36 41 38 42 40 43 37 44
REMARK SMILES IDX 59 45 60 46 65 47 61 48 62 49 64 50 66 51 63 52 47 53 48 54
REMARK SMILES IDX 53 55 49 56 50 57 52 58 54 59 51 60 5 61 6 62 7 63 8 64 9 65
REMARK SMILES IDX 10 66 14 67 11 68 13 69 12 70 15 71 16 72 17 73 18 74 23 75
REMARK SMILES IDX 19 76 22 77 20 78 21 79
REMARK H PARENT 71 22 45 33
REMARK Flexibility Score: inf
ROOT
ATOM      1  C   UNL A   1      35.619  20.380  25.023  1.00  0.00     0.275 C 
ENDROOT
BRANCH   1   2
ATOM      2  O   UNL A   1      36.618  21.364  25.304  1.00  0.00    -0.458 OA
BRANCH   2   3
ATOM      3  C   UNL A   1      37.942  21.199  25.490  1.00  0.00     0.338 C 
ATOM      4  O   UNL A   1      38.442  20.134  25.126  1.00  0.00    -0.246 OA
BRANCH   3   5
ATOM      5  C   UNL A   1      38.841  22.172  26.211  1.00  0.00     0.060 A 
ATOM      6  C   UNL A   1      40.000  21.923  26.966  1.00  0.00     0.016 A 
ATOM      7  C   UNL A   1      38.518  23.511  25.992  1.00  0.00     0.016 A 
ATOM      8  C   UNL A   1      40.890  22.948  27.338  1.00  0.00     0.010 A 
ATOM      9  C   UNL A   1      39.393  24.523  26.367  1.00  0.00     0.010 A 
ATOM     10  C   UNL A   1      40.611  24.263  27.002  1.00  0.00    -0.014 A 
BRANCH  10  11
ATOM     11  C   UNL A   1      41.439  25.419  27.432  1.00  0.00     0.031 A 
ATOM     12  C   UNL A   1      40.758  26.464  28.266  1.00  0.00     0.074 A 
ATOM     13  C   UNL A   1      42.696  25.624  26.988  1.00  0.00     0.049 A 
ATOM     14  N   UNL A   1      41.137  27.680  28.548  1.00  0.00    -0.248 NA
ATOM     15  C   UNL A   1      39.420  26.110  28.768  1.00  0.00     0.031 C 
ATOM     16  C   UNL A   1      43.467  24.709  26.152  1.00  0.00     0.029 A 
ATOM     17  N   UNL A   1      43.539  26.696  27.160  1.00  0.00    -0.354 N 
ATOM     18  C   UNL A   1      40.053  28.244  29.207  1.00  0.00     0.074 A 
ATOM     19  C   UNL A   1      38.972  27.289  29.156  1.00  0.00     0.031 C 
ATOM     20  C   UNL A   1      44.660  25.262  25.867  1.00  0.00     0.029 A 
ATOM     21  C   UNL A   1      44.740  26.576  26.499  1.00  0.00     0.049 A 
ATOM     22  H   UNL A   1      43.304  27.480  27.707  1.00  0.00     0.167 HD
ATOM     23  C   UNL A   1      39.980  29.425  29.862  1.00  0.00     0.037 A 
ATOM     24  C   UNL A   1      45.783  27.429  26.426  1.00  0.00     0.037 A 
ATOM     25  C   UNL A   1      41.088  30.324  29.982  1.00  0.00     0.049 A 
ATOM     26  C   UNL A   1      45.714  28.728  27.190  1.00  0.00     0.074 A 
ATOM     27  C   UNL A   1      41.170  31.506  30.693  1.00  0.00     0.029 A 
ATOM     28  N   UNL A   1      42.322  30.125  29.379  1.00  0.00    -0.354 N 
ATOM     29  N   UNL A   1      44.717  29.220  27.886  1.00  0.00    -0.248 NA
ATOM     30  C   UNL A   1      46.915  29.577  27.185  1.00  0.00     0.031 C 
ATOM     31  C   UNL A   1      42.446  32.040  30.490  1.00  0.00     0.029 A 
ATOM     32  C   UNL A   1      43.173  31.165  29.694  1.00  0.00     0.049 A 
ATOM     33  H   UNL A   1      42.556  29.356  28.810  1.00  0.00     0.167 HD
ATOM     34  C   UNL A   1      45.184  30.406  28.442  1.00  0.00     0.074 A 
ATOM     35  C   UNL A   1      46.552  30.565  27.992  1.00  0.00     0.031 C 
ATOM     36  C   UNL A   1      44.544  31.276  29.262  1.00  0.00     0.037 A 
BRANCH  23  37
ATOM     37  C   UNL A   1      38.659  29.758  30.488  1.00  0.00     0.057 A 
ATOM     38  C   UNL A   1      37.705  30.554  29.833  1.00  0.00     0.134 A 
ATOM     39  C   UNL A   1      38.380  29.368  31.802  1.00  0.00     0.134 A 
ATOM     40  F   UNL A   1      37.920  30.979  28.577  1.00  0.00    -0.206 F 
ATOM     41  C   UNL A   1      36.568  31.022  30.491  1.00  0.00     0.040 A 
ATOM     42  C   UNL A   1      37.222  29.793  32.456  1.00  0.00     0.040 A 
ATOM     43  F   UNL A   1      39.241  28.597  32.483  1.00  0.00    -0.206 F 
ATOM     44  C   UNL A   1      36.326  30.643  31.808  1.00  0.00     0.006 A 
ENDBRANCH  23  37
BRANCH  24  45
ATOM     45  C   UNL A   1      47.006  27.061  25.659  1.00  0.00     0.057 A 
ATOM     46  C   UNL A   1      48.023  26.295  26.242  1.00  0.00     0.134 A 
ATOM     47  C   UNL A   1      47.192  27.468  24.333  1.00  0.00     0.134 A 
ATOM     48  F   UNL A   1      47.913  25.888  27.516  1.00  0.00    -0.206 F 
ATOM     49  C   UNL A   1      49.187  25.962  25.544  1.00  0.00     0.040 A 
ATOM     50  C   UNL A   1      48.344  27.126  23.615  1.00  0.00     0.040 A 
ATOM     51  F   UNL A   1      46.254  28.196  23.710  1.00  0.00    -0.206 F 
ATOM     52  C   UNL A   1      49.347  26.375  24.224  1.00  0.00     0.006 A 
ENDBRANCH  24  45
BRANCH  36  53
ATOM     53  C   UNL A   1      45.317  32.447  29.791  1.00  0.00     0.057 A 
ATOM     54  C   UNL A   1      46.101  32.356  30.945  1.00  0.00     0.134 A 
ATOM     55  C   UNL A   1      45.382  33.634  29.049  1.00  0.00     0.134 A 
ATOM     56  F   UNL A   1      46.075  31.248  31.701  1.00  0.00    -0.206 F 
ATOM     57  C   UNL A   1      46.932  33.406  31.341  1.00  0.00     0.040 A 
ATOM     58  C   UNL A   1      46.226  34.680  29.420  1.00  0.00     0.040 A 
ATOM     59  F   UNL A   1      44.661  33.776  27.927  1.00  0.00    -0.206 F 
ATOM     60  C   UNL A   1      47.007  34.565  30.568  1.00  0.00     0.006 A 
ENDBRANCH  36  53
ENDBRANCH  10  11
ENDBRANCH   3   5
ENDBRANCH   2   3
ENDBRANCH   1   2
BRANCH   1  61
ATOM     61  C   UNL A   1      34.184  20.916  25.146  1.00  0.00     0.274 C 
BRANCH  61  62
ATOM     62  O   UNL A   1      33.808  21.858  24.114  1.00  0.00    -0.460 OA
BRANCH  62  63
ATOM     63  C   UNL A   1      32.807  22.750  24.420  1.00  0.00     0.331 C 
ATOM     64  O   UNL A   1      31.622  22.479  24.323  1.00  0.00    -0.250 OA
BRANCH  63  65
ATOM     65  C   UNL A   1      33.394  24.108  24.926  1.00  0.00     0.221 C 
ATOM     66  C   UNL A   1      34.615  24.455  24.058  1.00  0.00     0.197 C 
ATOM     67  N   UNL A   1      32.437  25.247  24.862  1.00  0.00    -0.320 N 
ATOM     68  O   UNL A   1      34.240  24.779  22.709  1.00  0.00    -0.377 OA
ATOM     69  C   UNL A   1      32.067  25.616  23.491  1.00  0.00     0.149 C 
ATOM     70  C   UNL A   1      33.330  25.893  22.674  1.00  0.00     0.181 C 
BRANCH  67  71
ATOM     71  C   UNL A   1      31.872  25.992  25.892  1.00  0.00     0.256 C 
ATOM     72  O   UNL A   1      30.740  25.764  26.323  1.00  0.00    -0.269 OA
BRANCH  71  73
ATOM     73  C   UNL A   1      32.513  27.174  26.490  1.00  0.00     0.058 A 
ATOM     74  C   UNL A   1      33.841  27.519  26.218  1.00  0.00     0.018 A 
ATOM     75  C   UNL A   1      31.695  28.149  27.050  1.00  0.00     0.126 A 
ATOM     76  C   UNL A   1      34.292  28.809  26.538  1.00  0.00     0.037 A 
ATOM     77  N   UNL A   1      32.122  29.387  27.419  1.00  0.00    -0.249 NA
ATOM     78  C   UNL A   1      33.404  29.702  27.131  1.00  0.00     0.106 A 
ATOM     79  Br  UNL A   1      34.030  31.409  27.674  1.00  0.00    -0.029 Br
ENDBRANCH  71  73
ENDBRANCH  67  71
ENDBRANCH  63  65
ENDBRANCH  62  63
ENDBRANCH  61  62
ENDBRANCH   1  61
TORSDOF 13
ENDMDL
MODEL 3
REMARK VINA RESULT:     -10.3      4.898      7.633
REMARK SMILES O=C(OCCOC(=O)[C@H]1COCCN1C(=O)c1ccc(Br)nc1)c1ccc(-c2c3nc(c(-c4c(F)cccc4F)c4ccc([nH]4)c(-c4c(F)cccc4F)c4nc(c(-c5c(F)cccc5F)c5ccc2[nH]5)C=C4)C=C3)cc1
REMARK SMILES IDX 4 1 3 2 2 3 1 4 24 5 25 6 77 7 26 8 76 9 27 10 28 11 29 12
REMARK SMILES IDX 70 13 30 14 75 15 69 16 71 17 31 18 74 19 68 20 67 21 32 23
REMARK SMILES IDX 58 24 41 25 57 26 42 27 45 28 56 29 72 30 43 31 44 32 55 34
REMARK SMILES IDX 73 35 46 36 33 37 34 38 39 39 35 40 36 41 38 42 40 43 37 44
REMARK SMILES IDX 59 45 60 46 65 47 61 48 62 49 64 50 66 51 63 52 47 53 48 54
REMARK SMILES IDX 53 55 49 56 50 57 52 58 54 59 51 60 5 61 6 62 7 63 8 64 9 65
REMARK SMILES IDX 10 66 14 67 11 68 13 69 12 70 15 71 16 72 17 73 18 74 23 75
REMARK SMILES IDX 19 76 22 77 20 78 21 79
REMARK H PARENT 71 22 45 33
REMARK Flexibility Score: inf
ROOT
ATOM      1  C   UNL A   1      31.309  31.591  26.708  1.00  0.00     0.275 C 
ENDROOT
BRANCH   1   2
ATOM      2  O   UNL A   1      32.143  32.751  26.639  1.00  0.00    -0.458 OA
BRANCH   2   3
ATOM      3  C   UNL A   1      32.909  33.304  27.599  1.00  0.00     0.338 C 
ATOM      4  O   UNL A   1      32.530  34.370  28.087  1.00  0.00    -0.246 OA
BRANCH   3   5
ATOM      5  C   UNL A   1      34.251  32.778  28.043  1.00  0.00     0.060 A 
ATOM      6  C   UNL A   1      35.433  33.483  28.330  1.00  0.00     0.016 A 
ATOM      7  C   UNL A   1      34.265  31.409  28.304  1.00  0.00     0.016 A 
ATOM      8  C   UNL A   1      36.516  32.890  29.005  1.00  0.00     0.010 A 
ATOM      9  C   UNL A   1      35.338  30.822  28.964  1.00  0.00     0.010 A 
ATOM     10  C   UNL A   1      36.459  31.554  29.367  1.00  0.00    -0.014 A 
BRANCH  10  11
ATOM     11  C   UNL A   1      37.587  30.819  29.995  1.00  0.00     0.031 A 
ATOM     12  C   UNL A   1      37.868  31.117  31.439  1.00  0.00     0.074 A 
ATOM     13  C   UNL A   1      38.428  30.032  29.295  1.00  0.00     0.049 A 
ATOM     14  N   UNL A   1      38.923  30.845  32.155  1.00  0.00    -0.248 NA
ATOM     15  C   UNL A   1      36.847  31.917  32.137  1.00  0.00     0.031 C 
ATOM     16  C   UNL A   1      38.293  29.680  27.884  1.00  0.00     0.029 A 
ATOM     17  N   UNL A   1      39.592  29.407  29.676  1.00  0.00    -0.354 N 
ATOM     18  C   UNL A   1      38.709  31.496  33.362  1.00  0.00     0.074 A 
ATOM     19  C   UNL A   1      37.502  32.276  33.224  1.00  0.00     0.031 C 
ATOM     20  C   UNL A   1      39.338  28.919  27.512  1.00  0.00     0.029 A 
ATOM     21  C   UNL A   1      40.223  28.729  28.658  1.00  0.00     0.049 A 
ATOM     22  H   UNL A   1      39.942  29.441  30.595  1.00  0.00     0.167 HD
ATOM     23  C   UNL A   1      39.412  31.401  34.513  1.00  0.00     0.037 A 
ATOM     24  C   UNL A   1      41.377  28.029  28.662  1.00  0.00     0.037 A 
ATOM     25  C   UNL A   1      40.557  30.553  34.664  1.00  0.00     0.049 A 
ATOM     26  C   UNL A   1      42.139  27.892  29.957  1.00  0.00     0.074 A 
ATOM     27  C   UNL A   1      41.301  30.300  35.800  1.00  0.00     0.029 A 
ATOM     28  N   UNL A   1      41.113  29.806  33.636  1.00  0.00    -0.354 N 
ATOM     29  N   UNL A   1      41.885  28.441  31.122  1.00  0.00    -0.248 NA
ATOM     30  C   UNL A   1      43.327  27.025  29.951  1.00  0.00     0.031 C 
ATOM     31  C   UNL A   1      42.333  29.424  35.449  1.00  0.00     0.029 A 
ATOM     32  C   UNL A   1      42.198  29.093  34.107  1.00  0.00     0.049 A 
ATOM     33  H   UNL A   1      40.783  29.786  32.709  1.00  0.00     0.167 HD
ATOM     34  C   UNL A   1      42.846  27.946  31.997  1.00  0.00     0.074 A 
ATOM     35  C   UNL A   1      43.696  27.063  31.225  1.00  0.00     0.031 C 
ATOM     36  C   UNL A   1      43.002  28.190  33.321  1.00  0.00     0.037 A 
BRANCH  23  37
ATOM     37  C   UNL A   1      38.924  32.232  35.662  1.00  0.00     0.057 A 
ATOM     38  C   UNL A   1      39.306  33.573  35.826  1.00  0.00     0.134 A 
ATOM     39  C   UNL A   1      38.149  31.654  36.673  1.00  0.00     0.134 A 
ATOM     40  F   UNL A   1      40.067  34.181  34.902  1.00  0.00    -0.206 F 
ATOM     41  C   UNL A   1      39.011  34.279  36.992  1.00  0.00     0.040 A 
ATOM     42  C   UNL A   1      37.809  32.367  37.824  1.00  0.00     0.040 A 
ATOM     43  F   UNL A   1      37.738  30.382  36.576  1.00  0.00    -0.206 F 
ATOM     44  C   UNL A   1      38.262  33.675  37.996  1.00  0.00     0.006 A 
ENDBRANCH  23  37
BRANCH  24  45
ATOM     45  C   UNL A   1      41.852  27.350  27.424  1.00  0.00     0.057 A 
ATOM     46  C   UNL A   1      42.605  28.040  26.465  1.00  0.00     0.134 A 
ATOM     47  C   UNL A   1      41.562  26.006  27.165  1.00  0.00     0.134 A 
ATOM     48  F   UNL A   1      42.902  29.335  26.646  1.00  0.00    -0.206 F 
ATOM     49  C   UNL A   1      43.038  27.424  25.288  1.00  0.00     0.040 A 
ATOM     50  C   UNL A   1      42.005  25.371  26.000  1.00  0.00     0.040 A 
ATOM     51  F   UNL A   1      40.853  25.285  28.045  1.00  0.00    -0.206 F 
ATOM     52  C   UNL A   1      42.742  26.084  25.054  1.00  0.00     0.006 A 
ENDBRANCH  24  45
BRANCH  36  53
ATOM     53  C   UNL A   1      44.082  27.451  34.054  1.00  0.00     0.057 A 
ATOM     54  C   UNL A   1      43.868  26.189  34.613  1.00  0.00     0.134 A 
ATOM     55  C   UNL A   1      45.389  27.959  34.068  1.00  0.00     0.134 A 
ATOM     56  F   UNL A   1      42.638  25.654  34.636  1.00  0.00    -0.206 F 
ATOM     57  C   UNL A   1      44.919  25.449  35.159  1.00  0.00     0.040 A 
ATOM     58  C   UNL A   1      46.451  27.220  34.587  1.00  0.00     0.040 A 
ATOM     59  F   UNL A   1      45.659  29.161  33.536  1.00  0.00    -0.206 F 
ATOM     60  C   UNL A   1      46.218  25.959  35.131  1.00  0.00     0.006 A 
ENDBRANCH  36  53
ENDBRANCH  10  11
ENDBRANCH   3   5
ENDBRANCH   2   3
ENDBRANCH   1   2
BRANCH   1  61
ATOM     61  C   UNL A   1      31.750  30.465  25.761  1.00  0.00     0.274 C 
BRANCH  61  62
ATOM     62  O   UNL A   1      32.476  29.391  26.407  1.00  0.00    -0.460 OA
BRANCH  62  63
ATOM     63  C   UNL A   1      31.862  28.163  26.449  1.00  0.00     0.331 C 
ATOM     64  O   UNL A   1      31.128  27.815  27.359  1.00  0.00    -0.250 OA
BRANCH  63  65
ATOM     65  C   UNL A   1      32.205  27.314  25.181  1.00  0.00     0.221 C 
ATOM     66  C   UNL A   1      33.599  26.696  25.382  1.00  0.00     0.197 C 
ATOM     67  N   UNL A   1      31.242  26.212  24.905  1.00  0.00    -0.320 N 
ATOM     68  O   UNL A   1      33.599  25.698  26.416  1.00  0.00    -0.377 OA
ATOM     69  C   UNL A   1      31.251  25.165  25.932  1.00  0.00     0.149 C 
ATOM     70  C   UNL A   1      32.675  24.637  26.117  1.00  0.00     0.181 C 
BRANCH  67  71
ATOM     71  C   UNL A   1      30.370  26.041  23.835  1.00  0.00     0.256 C 
ATOM     72  O   UNL A   1      30.167  24.939  23.323  1.00  0.00    -0.269 OA
BRANCH  71  73
ATOM     73  C   UNL A   1      29.693  27.153  23.150  1.00  0.00     0.058 A 
ATOM     74  C   UNL A   1      28.409  27.578  23.507  1.00  0.00     0.018 A 
ATOM     75  C   UNL A   1      30.467  28.015  22.380  1.00  0.00     0.126 A 
ATOM     76  C   UNL A   1      27.954  28.828  23.061  1.00  0.00     0.037 A 
ATOM     77  N   UNL A   1      30.029  29.206  21.891  1.00  0.00    -0.249 NA
ATOM     78  C   UNL A   1      28.791  29.602  22.263  1.00  0.00     0.106 A 
ATOM     79  Br  UNL A   1      28.146  31.241  21.558  1.00  0.00    -0.029 Br
ENDBRANCH  71  73
ENDBRANCH  67  71
ENDBRANCH  63  65
ENDBRANCH  62  63
ENDBRANCH  61  62
ENDBRANCH   1  61
TORSDOF 13
ENDMDL
