MODEL 1
REMARK VINA RESULT:     -10.2      0.000      0.000
REMARK SMILES O=C(OCCOC(=O)[C@@H]1C=C[C@H](NC(=O)[C@@H]2CCSC2)C1)c1ccc(-c2c3nc(c(-c4c(F)cccc4F)c4ccc([nH]4)c(-c4c(F)cccc4F)c4nc(c(-c5c(F)cccc5F)c5ccc2[nH]5)C=C4)C=C3)cc1
REMARK SMILES IDX 4 1 3 2 2 3 1 4 22 5 23 6 75 7 24 8 74 9 25 10 26 11 27 12
REMARK SMILES IDX 68 13 28 14 73 15 67 16 69 17 29 18 72 19 66 20 65 21 30 23
REMARK SMILES IDX 56 24 39 25 55 26 40 27 43 28 54 29 70 30 41 31 42 32 53 34
REMARK SMILES IDX 71 35 44 36 31 37 32 38 37 39 33 40 34 41 36 42 38 43 35 44
REMARK SMILES IDX 57 45 58 46 63 47 59 48 60 49 62 50 64 51 61 52 45 53 46 54
REMARK SMILES IDX 51 55 47 56 48 57 50 58 52 59 49 60 5 61 6 62 7 63 8 64 9 65
REMARK SMILES IDX 10 66 21 67 11 68 12 69 13 70 14 71 15 73 16 74 17 75 20 76
REMARK SMILES IDX 18 77 19 78
REMARK H PARENT 69 22 43 33 13 72
REMARK Flexibility Score: inf
ROOT
ATOM      1  C   UNL A   1      33.294  37.201  30.043  1.00  0.00     0.275 C 
ENDROOT
BRANCH   1   2
ATOM      2  O   UNL A   1      32.493  36.237  30.754  1.00  0.00    -0.458 OA
BRANCH   2   3
ATOM      3  C   UNL A   1      32.560  35.831  32.045  1.00  0.00     0.338 C 
ATOM      4  O   UNL A   1      31.745  36.263  32.858  1.00  0.00    -0.246 OA
BRANCH   3   5
ATOM      5  C   UNL A   1      33.704  35.032  32.576  1.00  0.00     0.060 A 
ATOM      6  C   UNL A   1      33.604  33.787  33.197  1.00  0.00     0.016 A 
ATOM      7  C   UNL A   1      34.987  35.584  32.401  1.00  0.00     0.016 A 
ATOM      8  C   UNL A   1      34.748  33.051  33.512  1.00  0.00     0.010 A 
ATOM      9  C   UNL A   1      36.140  34.850  32.704  1.00  0.00     0.010 A 
ATOM     10  C   UNL A   1      36.021  33.569  33.254  1.00  0.00    -0.014 A 
BRANCH  10  11
ATOM     11  C   UNL A   1      37.197  32.833  33.765  1.00  0.00     0.031 A 
ATOM     12  C   UNL A   1      37.812  31.809  32.858  1.00  0.00     0.074 A 
ATOM     13  C   UNL A   1      37.763  33.150  34.945  1.00  0.00     0.049 A 
ATOM     14  N   UNL A   1      38.921  31.135  33.000  1.00  0.00    -0.248 NA
ATOM     15  C   UNL A   1      37.084  31.517  31.609  1.00  0.00     0.031 C 
ATOM     16  C   UNL A   1      37.261  34.149  35.889  1.00  0.00     0.029 A 
ATOM     17  N   UNL A   1      38.904  32.677  35.543  1.00  0.00    -0.354 N 
ATOM     18  C   UNL A   1      39.037  30.371  31.847  1.00  0.00     0.074 A 
ATOM     19  C   UNL A   1      37.855  30.601  31.052  1.00  0.00     0.031 C 
ATOM     20  C   UNL A   1      38.095  34.220  36.944  1.00  0.00     0.029 A 
ATOM     21  C   UNL A   1      39.189  33.273  36.750  1.00  0.00     0.049 A 
ATOM     22  H   UNL A   1      39.469  31.976  35.144  1.00  0.00     0.167 HD
ATOM     23  C   UNL A   1      40.060  29.575  31.464  1.00  0.00     0.037 A 
ATOM     24  C   UNL A   1      40.225  33.077  37.589  1.00  0.00     0.037 A 
ATOM     25  C   UNL A   1      41.221  29.332  32.269  1.00  0.00     0.049 A 
ATOM     26  C   UNL A   1      41.307  32.108  37.178  1.00  0.00     0.074 A 
ATOM     27  C   UNL A   1      42.298  28.508  32.006  1.00  0.00     0.029 A 
ATOM     28  N   UNL A   1      41.447  29.913  33.508  1.00  0.00    -0.354 N 
ATOM     29  N   UNL A   1      41.426  31.422  36.066  1.00  0.00    -0.248 NA
ATOM     30  C   UNL A   1      42.408  31.898  38.129  1.00  0.00     0.031 C 
ATOM     31  C   UNL A   1      43.159  28.561  33.107  1.00  0.00     0.029 A 
ATOM     32  C   UNL A   1      42.640  29.455  34.032  1.00  0.00     0.049 A 
ATOM     33  H   UNL A   1      40.845  30.556  33.948  1.00  0.00     0.167 HD
ATOM     34  C   UNL A   1      42.624  30.726  36.170  1.00  0.00     0.074 A 
ATOM     35  C   UNL A   1      43.206  31.093  37.445  1.00  0.00     0.031 C 
ATOM     36  C   UNL A   1      43.194  29.856  35.300  1.00  0.00     0.037 A 
BRANCH  23  37
ATOM     37  C   UNL A   1      39.934  28.918  30.125  1.00  0.00     0.057 A 
ATOM     38  C   UNL A   1      39.252  27.702  29.967  1.00  0.00     0.134 A 
ATOM     39  C   UNL A   1      40.533  29.477  28.992  1.00  0.00     0.134 A 
ATOM     40  F   UNL A   1      38.687  27.097  31.023  1.00  0.00    -0.206 F 
ATOM     41  C   UNL A   1      39.196  27.053  28.734  1.00  0.00     0.040 A 
ATOM     42  C   UNL A   1      40.462  28.849  27.747  1.00  0.00     0.040 A 
ATOM     43  F   UNL A   1      41.210  30.632  29.079  1.00  0.00    -0.206 F 
ATOM     44  C   UNL A   1      39.799  27.629  27.618  1.00  0.00     0.006 A 
ENDBRANCH  23  37
BRANCH  24  45
ATOM     45  C   UNL A   1      40.314  33.796  38.891  1.00  0.00     0.057 A 
ATOM     46  C   UNL A   1      39.607  33.363  40.020  1.00  0.00     0.134 A 
ATOM     47  C   UNL A   1      41.048  34.982  39.016  1.00  0.00     0.134 A 
ATOM     48  F   UNL A   1      38.869  32.243  39.965  1.00  0.00    -0.206 F 
ATOM     49  C   UNL A   1      39.591  34.101  41.207  1.00  0.00     0.040 A 
ATOM     50  C   UNL A   1      41.063  35.717  40.205  1.00  0.00     0.040 A 
ATOM     51  F   UNL A   1      41.755  35.455  37.979  1.00  0.00    -0.206 F 
ATOM     52  C   UNL A   1      40.319  35.283  41.301  1.00  0.00     0.006 A 
ENDBRANCH  24  45
BRANCH  36  53
ATOM     53  C   UNL A   1      44.520  29.273  35.687  1.00  0.00     0.057 A 
ATOM     54  C   UNL A   1      44.618  28.082  36.416  1.00  0.00     0.134 A 
ATOM     55  C   UNL A   1      45.712  29.886  35.281  1.00  0.00     0.134 A 
ATOM     56  F   UNL A   1      43.512  27.453  36.844  1.00  0.00    -0.206 F 
ATOM     57  C   UNL A   1      45.856  27.534  36.750  1.00  0.00     0.040 A 
ATOM     58  C   UNL A   1      46.955  29.331  35.582  1.00  0.00     0.040 A 
ATOM     59  F   UNL A   1      45.686  31.023  34.569  1.00  0.00    -0.206 F 
ATOM     60  C   UNL A   1      47.030  28.155  36.326  1.00  0.00     0.006 A 
ENDBRANCH  36  53
ENDBRANCH  10  11
ENDBRANCH   3   5
ENDBRANCH   2   3
ENDBRANCH   1   2
BRANCH   1  61
ATOM     61  C   UNL A   1      33.456  36.939  28.541  1.00  0.00     0.274 C 
BRANCH  61  62
ATOM     62  O   UNL A   1      34.405  35.905  28.232  1.00  0.00    -0.462 OA
BRANCH  62  63
ATOM     63  C   UNL A   1      33.958  34.629  28.438  1.00  0.00     0.312 C 
ATOM     64  O   UNL A   1      32.828  34.248  28.153  1.00  0.00    -0.252 OA
BRANCH  63  65
ATOM     65  C   UNL A   1      35.051  33.776  29.075  1.00  0.00     0.124 C 
ATOM     66  C   UNL A   1      36.001  33.191  28.068  1.00  0.00    -0.014 C 
ATOM     67  C   UNL A   1      34.533  32.507  29.740  1.00  0.00     0.048 C 
ATOM     68  C   UNL A   1      35.758  31.889  27.869  1.00  0.00    -0.006 C 
ATOM     69  C   UNL A   1      34.549  31.440  28.640  1.00  0.00     0.106 C 
BRANCH  69  70
ATOM     70  N   UNL A   1      33.477  31.416  27.658  1.00  0.00    -0.350 N 
ATOM     71  C   UNL A   1      32.789  30.443  27.007  1.00  0.00     0.224 C 
ATOM     72  H   UNL A   1      33.180  32.320  27.405  1.00  0.00     0.164 HD
ATOM     73  O   UNL A   1      32.018  30.795  26.114  1.00  0.00    -0.275 OA
BRANCH  71  74
ATOM     74  C   UNL A   1      32.963  28.985  27.394  1.00  0.00     0.089 C 
ATOM     75  C   UNL A   1      34.033  28.299  26.549  1.00  0.00     0.025 C 
ATOM     76  C   UNL A   1      31.680  28.167  27.269  1.00  0.00     0.083 C 
ATOM     77  C   UNL A   1      33.386  27.936  25.226  1.00  0.00     0.070 C 
ATOM     78  S   UNL A   1      31.772  27.276  25.689  1.00  0.00    -0.161 SA
ENDBRANCH  71  74
ENDBRANCH  69  70
ENDBRANCH  63  65
ENDBRANCH  62  63
ENDBRANCH  61  62
ENDBRANCH   1  61
TORSDOF 13
ENDMDL
MODEL 2
REMARK VINA RESULT:     -10.1      2.687      7.858
REMARK SMILES O=C(OCCOC(=O)[C@@H]1C=C[C@H](NC(=O)[C@@H]2CCSC2)C1)c1ccc(-c2c3nc(c(-c4c(F)cccc4F)c4ccc([nH]4)c(-c4c(F)cccc4F)c4nc(c(-c5c(F)cccc5F)c5ccc2[nH]5)C=C4)C=C3)cc1
REMARK SMILES IDX 4 1 3 2 2 3 1 4 22 5 23 6 75 7 24 8 74 9 25 10 26 11 27 12
REMARK SMILES IDX 68 13 28 14 73 15 67 16 69 17 29 18 72 19 66 20 65 21 30 23
REMARK SMILES IDX 56 24 39 25 55 26 40 27 43 28 54 29 70 30 41 31 42 32 53 34
REMARK SMILES IDX 71 35 44 36 31 37 32 38 37 39 33 40 34 41 36 42 38 43 35 44
REMARK SMILES IDX 57 45 58 46 63 47 59 48 60 49 62 50 64 51 61 52 45 53 46 54
REMARK SMILES IDX 51 55 47 56 48 57 50 58 52 59 49 60 5 61 6 62 7 63 8 64 9 65
REMARK SMILES IDX 10 66 21 67 11 68 12 69 13 70 14 71 15 73 16 74 17 75 20 76
REMARK SMILES IDX 18 77 19 78
REMARK H PARENT 69 22 43 33 13 72
REMARK Flexibility Score: inf
ROOT
ATOM      1  C   UNL A   1      31.333  32.273  26.861  1.00  0.00     0.275 C 
ENDROOT
BRANCH   1   2
ATOM      2  O   UNL A   1      32.339  33.304  26.902  1.00  0.00    -0.458 OA
BRANCH   2   3
ATOM      3  C   UNL A   1      32.999  33.835  27.959  1.00  0.00     0.338 C 
ATOM      4  O   UNL A   1      32.622  34.905  28.433  1.00  0.00    -0.246 OA
BRANCH   3   5
ATOM      5  C   UNL A   1      34.292  33.279  28.459  1.00  0.00     0.060 A 
ATOM      6  C   UNL A   1      35.532  33.912  28.377  1.00  0.00     0.016 A 
ATOM      7  C   UNL A   1      34.230  32.022  29.089  1.00  0.00     0.016 A 
ATOM      8  C   UNL A   1      36.651  33.378  29.018  1.00  0.00     0.010 A 
ATOM      9  C   UNL A   1      35.344  31.483  29.743  1.00  0.00     0.010 A 
ATOM     10  C   UNL A   1      36.563  32.171  29.718  1.00  0.00    -0.014 A 
BRANCH  10  11
ATOM     11  C   UNL A   1      37.808  31.559  30.229  1.00  0.00     0.031 A 
ATOM     12  C   UNL A   1      38.194  31.868  31.645  1.00  0.00     0.074 A 
ATOM     13  C   UNL A   1      38.504  30.671  29.493  1.00  0.00     0.049 A 
ATOM     14  N   UNL A   1      39.146  31.355  32.375  1.00  0.00    -0.248 NA
ATOM     15  C   UNL A   1      37.381  32.885  32.339  1.00  0.00     0.031 C 
ATOM     16  C   UNL A   1      38.198  30.279  28.117  1.00  0.00     0.029 A 
ATOM     17  N   UNL A   1      39.604  29.915  29.813  1.00  0.00    -0.354 N 
ATOM     18  C   UNL A   1      39.023  31.960  33.618  1.00  0.00     0.074 A 
ATOM     19  C   UNL A   1      37.960  32.932  33.526  1.00  0.00     0.031 C 
ATOM     20  C   UNL A   1      39.084  29.350  27.714  1.00  0.00     0.029 A 
ATOM     21  C   UNL A   1      40.020  29.080  28.802  1.00  0.00     0.049 A 
ATOM     22  H   UNL A   1      40.054  29.965  30.687  1.00  0.00     0.167 HD
ATOM     23  C   UNL A   1      39.710  31.701  34.753  1.00  0.00     0.037 A 
ATOM     24  C   UNL A   1      41.035  28.194  28.773  1.00  0.00     0.037 A 
ATOM     25  C   UNL A   1      40.781  30.752  34.833  1.00  0.00     0.049 A 
ATOM     26  C   UNL A   1      41.848  27.995  30.029  1.00  0.00     0.074 A 
ATOM     27  C   UNL A   1      41.581  30.440  35.915  1.00  0.00     0.029 A 
ATOM     28  N   UNL A   1      41.206  29.964  33.772  1.00  0.00    -0.354 N 
ATOM     29  N   UNL A   1      41.695  28.544  31.211  1.00  0.00    -0.248 NA
ATOM     30  C   UNL A   1      42.964  27.041  29.953  1.00  0.00     0.031 C 
ATOM     31  C   UNL A   1      42.518  29.489  35.497  1.00  0.00     0.029 A 
ATOM     32  C   UNL A   1      42.269  29.176  34.169  1.00  0.00     0.049 A 
ATOM     33  H   UNL A   1      40.809  29.968  32.871  1.00  0.00     0.167 HD
ATOM     34  C   UNL A   1      42.671  27.982  32.024  1.00  0.00     0.074 A 
ATOM     35  C   UNL A   1      43.395  27.030  31.206  1.00  0.00     0.031 C 
ATOM     36  C   UNL A   1      42.955  28.229  33.327  1.00  0.00     0.037 A 
BRANCH  23  37
ATOM     37  C   UNL A   1      39.312  32.476  35.970  1.00  0.00     0.057 A 
ATOM     38  C   UNL A   1      39.888  33.720  36.268  1.00  0.00     0.134 A 
ATOM     39  C   UNL A   1      38.381  31.960  36.876  1.00  0.00     0.134 A 
ATOM     40  F   UNL A   1      40.815  34.251  35.455  1.00  0.00    -0.206 F 
ATOM     41  C   UNL A   1      39.571  34.409  37.438  1.00  0.00     0.040 A 
ATOM     42  C   UNL A   1      38.037  32.651  38.038  1.00  0.00     0.040 A 
ATOM     43  F   UNL A   1      37.803  30.769  36.656  1.00  0.00    -0.206 F 
ATOM     44  C   UNL A   1      38.639  33.876  38.326  1.00  0.00     0.006 A 
ENDBRANCH  23  37
BRANCH  24  45
ATOM     45  C   UNL A   1      41.353  27.422  27.540  1.00  0.00     0.057 A 
ATOM     46  C   UNL A   1      40.894  26.111  27.353  1.00  0.00     0.134 A 
ATOM     47  C   UNL A   1      42.194  27.949  26.551  1.00  0.00     0.134 A 
ATOM     48  F   UNL A   1      40.100  25.538  28.270  1.00  0.00    -0.206 F 
ATOM     49  C   UNL A   1      41.291  25.342  26.256  1.00  0.00     0.040 A 
ATOM     50  C   UNL A   1      42.577  27.200  25.434  1.00  0.00     0.040 A 
ATOM     51  F   UNL A   1      42.667  29.199  26.659  1.00  0.00    -0.206 F 
ATOM     52  C   UNL A   1      42.136  25.885  25.293  1.00  0.00     0.006 A 
ENDBRANCH  24  45
BRANCH  36  53
ATOM     53  C   UNL A   1      44.069  27.438  33.946  1.00  0.00     0.057 A 
ATOM     54  C   UNL A   1      45.388  27.904  33.953  1.00  0.00     0.134 A 
ATOM     55  C   UNL A   1      43.806  26.220  34.585  1.00  0.00     0.134 A 
ATOM     56  F   UNL A   1      45.705  29.059  33.348  1.00  0.00    -0.206 F 
ATOM     57  C   UNL A   1      46.414  27.174  34.553  1.00  0.00     0.040 A 
ATOM     58  C   UNL A   1      44.818  25.496  35.215  1.00  0.00     0.040 A 
ATOM     59  F   UNL A   1      42.559  25.725  34.623  1.00  0.00    -0.206 F 
ATOM     60  C   UNL A   1      46.128  25.969  35.193  1.00  0.00     0.006 A 
ENDBRANCH  36  53
ENDBRANCH  10  11
ENDBRANCH   3   5
ENDBRANCH   2   3
ENDBRANCH   1   2
BRANCH   1  61
ATOM     61  C   UNL A   1      31.824  30.894  26.405  1.00  0.00     0.274 C 
BRANCH  61  62
ATOM     62  O   UNL A   1      31.228  30.444  25.177  1.00  0.00    -0.462 OA
BRANCH  62  63
ATOM     63  C   UNL A   1      31.585  29.182  24.789  1.00  0.00     0.312 C 
ATOM     64  O   UNL A   1      32.203  28.399  25.500  1.00  0.00    -0.252 OA
BRANCH  63  65
ATOM     65  C   UNL A   1      31.118  28.910  23.361  1.00  0.00     0.124 C 
ATOM     66  C   UNL A   1      29.642  29.121  23.176  1.00  0.00    -0.014 C 
ATOM     67  C   UNL A   1      31.248  27.452  22.939  1.00  0.00     0.048 C 
ATOM     68  C   UNL A   1      28.989  27.953  23.109  1.00  0.00    -0.006 C 
ATOM     69  C   UNL A   1      29.920  26.798  23.338  1.00  0.00     0.106 C 
BRANCH  69  70
ATOM     70  N   UNL A   1      29.704  26.422  24.726  1.00  0.00    -0.350 N 
ATOM     71  C   UNL A   1      30.249  25.511  25.573  1.00  0.00     0.224 C 
ATOM     72  H   UNL A   1      28.993  26.953  25.152  1.00  0.00     0.164 HD
ATOM     73  O   UNL A   1      29.712  25.367  26.672  1.00  0.00    -0.275 OA
BRANCH  71  74
ATOM     74  C   UNL A   1      31.484  24.726  25.170  1.00  0.00     0.089 C 
ATOM     75  C   UNL A   1      31.126  23.337  24.646  1.00  0.00     0.025 C 
ATOM     76  C   UNL A   1      32.487  24.547  26.307  1.00  0.00     0.083 C 
ATOM     77  C   UNL A   1      30.883  22.457  25.857  1.00  0.00     0.070 C 
ATOM     78  S   UNL A   1      32.222  22.884  26.990  1.00  0.00    -0.161 SA
ENDBRANCH  71  74
ENDBRANCH  69  70
ENDBRANCH  63  65
ENDBRANCH  62  63
ENDBRANCH  61  62
ENDBRANCH   1  61
TORSDOF 13
ENDMDL
MODEL 3
REMARK VINA RESULT:     -10.1      3.707      8.938
REMARK SMILES O=C(OCCOC(=O)[C@@H]1C=C[C@H](NC(=O)[C@@H]2CCSC2)C1)c1ccc(-c2c3nc(c(-c4c(F)cccc4F)c4ccc([nH]4)c(-c4c(F)cccc4F)c4nc(c(-c5c(F)cccc5F)c5ccc2[nH]5)C=C4)C=C3)cc1
REMARK SMILES IDX 4 1 3 2 2 3 1 4 22 5 23 6 75 7 24 8 74 9 25 10 26 11 27 12
REMARK SMILES IDX 68 13 28 14 73 15 67 16 69 17 29 18 72 19 66 20 65 21 30 23
REMARK SMILES IDX 56 24 39 25 55 26 40 27 43 28 54 29 70 30 41 31 42 32 53 34
REMARK SMILES IDX 71 35 44 36 31 37 32 38 37 39 33 40 34 41 36 42 38 43 35 44
REMARK SMILES IDX 57 45 58 46 63 47 59 48 60 49 62 50 64 51 61 52 45 53 46 54
REMARK SMILES IDX 51 55 47 56 48 57 50 58 52 59 49 60 5 61 6 62 7 63 8 64 9 65
REMARK SMILES IDX 10 66 21 67 11 68 12 69 13 70 14 71 15 73 16 74 17 75 20 76
REMARK SMILES IDX 18 77 19 78
REMARK H PARENT 69 22 43 33 13 72
REMARK Flexibility Score: inf
ROOT
ATOM      1  C   UNL A   1      34.430  32.686  29.286  1.00  0.00     0.275 C 
ENDROOT
BRANCH   1   2
ATOM      2  O   UNL A   1      34.010  31.821  28.212  1.00  0.00    -0.458 OA
BRANCH   2   3
ATOM      3  C   UNL A   1      34.607  30.720  27.697  1.00  0.00     0.338 C 
ATOM      4  O   UNL A   1      33.995  30.019  26.894  1.00  0.00    -0.246 OA
BRANCH   3   5
ATOM      5  C   UNL A   1      35.910  30.200  28.209  1.00  0.00     0.060 A 
ATOM      6  C   UNL A   1      36.104  29.566  29.437  1.00  0.00     0.016 A 
ATOM      7  C   UNL A   1      37.020  30.346  27.356  1.00  0.00     0.016 A 
ATOM      8  C   UNL A   1      37.329  28.975  29.750  1.00  0.00     0.010 A 
ATOM      9  C   UNL A   1      38.249  29.748  27.657  1.00  0.00     0.010 A 
ATOM     10  C   UNL A   1      38.404  29.047  28.858  1.00  0.00    -0.014 A 
BRANCH  10  11
ATOM     11  C   UNL A   1      39.726  28.562  29.307  1.00  0.00     0.031 A 
ATOM     12  C   UNL A   1      40.346  29.251  30.486  1.00  0.00     0.074 A 
ATOM     13  C   UNL A   1      40.296  27.473  28.755  1.00  0.00     0.049 A 
ATOM     14  N   UNL A   1      41.416  28.935  31.163  1.00  0.00    -0.248 NA
ATOM     15  C   UNL A   1      39.652  30.455  30.981  1.00  0.00     0.031 C 
ATOM     16  C   UNL A   1      39.763  26.712  27.625  1.00  0.00     0.029 A 
ATOM     17  N   UNL A   1      41.444  26.801  29.091  1.00  0.00    -0.354 N 
ATOM     18  C   UNL A   1      41.501  29.877  32.178  1.00  0.00     0.074 A 
ATOM     19  C   UNL A   1      40.425  30.821  31.987  1.00  0.00     0.031 C 
ATOM     20  C   UNL A   1      40.579  25.673  27.366  1.00  0.00     0.029 A 
ATOM     21  C   UNL A   1      41.691  25.694  28.312  1.00  0.00     0.049 A 
ATOM     22  H   UNL A   1      42.038  27.083  29.824  1.00  0.00     0.167 HD
ATOM     23  C   UNL A   1      42.377  29.931  33.206  1.00  0.00     0.037 A 
ATOM     24  C   UNL A   1      42.697  24.800  28.371  1.00  0.00     0.037 A 
ATOM     25  C   UNL A   1      43.458  29.005  33.377  1.00  0.00     0.049 A 
ATOM     26  C   UNL A   1      43.717  24.941  29.475  1.00  0.00     0.074 A 
ATOM     27  C   UNL A   1      44.435  28.989  34.352  1.00  0.00     0.029 A 
ATOM     28  N   UNL A   1      43.704  27.930  32.536  1.00  0.00    -0.354 N 
ATOM     29  N   UNL A   1      43.763  25.813  30.454  1.00  0.00    -0.248 NA
ATOM     30  C   UNL A   1      44.816  23.964  29.493  1.00  0.00     0.031 C 
ATOM     31  C   UNL A   1      45.299  27.923  34.078  1.00  0.00     0.029 A 
ATOM     32  C   UNL A   1      44.829  27.249  32.960  1.00  0.00     0.049 A 
ATOM     33  H   UNL A   1      43.158  27.688  31.753  1.00  0.00     0.167 HD
ATOM     34  C   UNL A   1      44.872  25.473  31.219  1.00  0.00     0.074 A 
ATOM     35  C   UNL A   1      45.456  24.299  30.603  1.00  0.00     0.031 C 
ATOM     36  C   UNL A   1      45.372  26.075  32.327  1.00  0.00     0.037 A 
BRANCH  23  37
ATOM     37  C   UNL A   1      42.184  31.039  34.195  1.00  0.00     0.057 A 
ATOM     38  C   UNL A   1      41.398  30.866  35.344  1.00  0.00     0.134 A 
ATOM     39  C   UNL A   1      42.747  32.300  33.978  1.00  0.00     0.134 A 
ATOM     40  F   UNL A   1      40.801  29.689  35.589  1.00  0.00    -0.206 F 
ATOM     41  C   UNL A   1      41.158  31.918  36.228  1.00  0.00     0.040 A 
ATOM     42  C   UNL A   1      42.535  33.354  34.868  1.00  0.00     0.040 A 
ATOM     43  F   UNL A   1      43.498  32.533  32.891  1.00  0.00    -0.206 F 
ATOM     44  C   UNL A   1      41.731  33.166  35.992  1.00  0.00     0.006 A 
ENDBRANCH  23  37
BRANCH  24  45
ATOM     45  C   UNL A   1      42.809  23.693  27.381  1.00  0.00     0.057 A 
ATOM     46  C   UNL A   1      42.247  22.432  27.620  1.00  0.00     0.134 A 
ATOM     47  C   UNL A   1      43.551  23.846  26.202  1.00  0.00     0.134 A 
ATOM     48  F   UNL A   1      41.538  22.210  28.738  1.00  0.00    -0.206 F 
ATOM     49  C   UNL A   1      42.453  21.357  26.751  1.00  0.00     0.040 A 
ATOM     50  C   UNL A   1      43.742  22.787  25.310  1.00  0.00     0.040 A 
ATOM     51  F   UNL A   1      44.113  25.026  25.904  1.00  0.00    -0.206 F 
ATOM     52  C   UNL A   1      43.204  21.533  25.592  1.00  0.00     0.006 A 
ENDBRANCH  24  45
BRANCH  36  53
ATOM     53  C   UNL A   1      46.586  25.455  32.952  1.00  0.00     0.057 A 
ATOM     54  C   UNL A   1      47.881  25.852  32.601  1.00  0.00     0.134 A 
ATOM     55  C   UNL A   1      46.453  24.485  33.953  1.00  0.00     0.134 A 
ATOM     56  F   UNL A   1      48.074  26.770  31.641  1.00  0.00    -0.206 F 
ATOM     57  C   UNL A   1      49.004  25.288  33.206  1.00  0.00     0.040 A 
ATOM     58  C   UNL A   1      47.567  23.935  34.586  1.00  0.00     0.040 A 
ATOM     59  F   UNL A   1      45.238  24.069  34.343  1.00  0.00    -0.206 F 
ATOM     60  C   UNL A   1      48.848  24.331  34.207  1.00  0.00     0.006 A 
ENDBRANCH  36  53
ENDBRANCH  10  11
ENDBRANCH   3   5
ENDBRANCH   2   3
ENDBRANCH   1   2
BRANCH   1  61
ATOM     61  C   UNL A   1      34.066  34.166  29.116  1.00  0.00     0.274 C 
BRANCH  61  62
ATOM     62  O   UNL A   1      33.262  34.691  30.186  1.00  0.00    -0.462 OA
BRANCH  62  63
ATOM     63  C   UNL A   1      32.933  36.013  30.067  1.00  0.00     0.312 C 
ATOM     64  O   UNL A   1      33.011  36.644  29.019  1.00  0.00    -0.252 OA
BRANCH  63  65
ATOM     65  C   UNL A   1      32.475  36.572  31.411  1.00  0.00     0.124 C 
ATOM     66  C   UNL A   1      33.262  37.775  31.846  1.00  0.00    -0.014 C 
ATOM     67  C   UNL A   1      32.726  35.635  32.585  1.00  0.00     0.048 C 
ATOM     68  C   UNL A   1      34.139  37.462  32.809  1.00  0.00    -0.006 C 
ATOM     69  C   UNL A   1      34.131  35.986  33.087  1.00  0.00     0.106 C 
BRANCH  69  70
ATOM     70  N   UNL A   1      35.289  35.472  32.373  1.00  0.00    -0.350 N 
ATOM     71  C   UNL A   1      36.080  34.374  32.484  1.00  0.00     0.224 C 
ATOM     72  H   UNL A   1      35.564  36.061  31.633  1.00  0.00     0.164 HD
ATOM     73  O   UNL A   1      37.086  34.326  31.776  1.00  0.00    -0.275 OA
BRANCH  71  74
ATOM     74  C   UNL A   1      35.710  33.251  33.437  1.00  0.00     0.089 C 
ATOM     75  C   UNL A   1      35.972  33.634  34.891  1.00  0.00     0.025 C 
ATOM     76  C   UNL A   1      36.458  31.949  33.160  1.00  0.00     0.083 C 
ATOM     77  C   UNL A   1      37.455  33.441  35.140  1.00  0.00     0.070 C 
ATOM     78  S   UNL A   1      37.838  31.869  34.340  1.00  0.00    -0.161 SA
ENDBRANCH  71  74
ENDBRANCH  69  70
ENDBRANCH  63  65
ENDBRANCH  62  63
ENDBRANCH  61  62
ENDBRANCH   1  61
TORSDOF 13
ENDMDL
