MODEL 1
REMARK VINA RESULT:      -9.6      0.000      0.000
REMARK SMILES C[C@@H](NS(=O)(=O)c1ccccc1)C(=O)OCCOC(=O)c1ccc(-c2c3nc(c(-c4c(F)cccc4F)c4ccc([nH]4)c(-c4c(F)cccc4F)c4nc(c(-c5c(F)cccc5F)c5ccc2[nH]5)C=C4)C=C3)cc1
REMARK SMILES IDX 16 1 15 2 13 3 14 4 2 5 1 6 3 7 4 9 5 10 6 11 7 12 8 13
REMARK SMILES IDX 12 14 9 15 11 16 10 17 17 18 18 19 19 20 20 21 21 22 22 23
REMARK SMILES IDX 74 24 23 25 73 26 24 27 25 28 26 29 67 30 27 31 72 32 66 33
REMARK SMILES IDX 68 34 28 35 71 36 65 37 64 38 29 40 55 41 38 42 54 43 39 44
REMARK SMILES IDX 42 45 53 46 69 47 40 48 41 49 52 51 70 52 43 53 30 54 31 55
REMARK SMILES IDX 36 56 32 57 33 58 35 59 37 60 34 61 56 62 57 63 62 64 58 65
REMARK SMILES IDX 59 66 61 67 63 68 60 69 44 70 45 71 50 72 46 73 47 74 49 75
REMARK SMILES IDX 51 76 48 77
REMARK H PARENT 3 8 68 39 42 50
REMARK Flexibility Score: inf
ROOT
ATOM      1  C   UNL A   1      33.439  35.151  28.764  1.00  0.00     0.274 C 
ENDROOT
BRANCH   1   2
ATOM      2  O   UNL A   1      32.691  35.223  29.995  1.00  0.00    -0.461 OA
BRANCH   2   3
ATOM      3  C   UNL A   1      33.129  36.180  30.853  1.00  0.00     0.324 C 
ATOM      4  O   UNL A   1      32.903  37.373  30.700  1.00  0.00    -0.250 OA
BRANCH   3   5
ATOM      5  C   UNL A   1      33.995  35.680  31.993  1.00  0.00     0.176 C 
ATOM      6  C   UNL A   1      34.028  36.624  33.185  1.00  0.00     0.038 C 
BRANCH   5   7
ATOM      7  N   UNL A   1      33.582  34.313  32.399  1.00  0.00    -0.197 NA
ATOM      8  H   UNL A   1      33.072  33.905  31.616  1.00  0.00     0.142 HD
BRANCH   7   9
ATOM      9  S   UNL A   1      34.799  33.212  32.839  1.00  0.00     0.241 S 
ATOM     10  O   UNL A   1      34.997  33.325  34.265  1.00  0.00    -0.207 OA
ATOM     11  O   UNL A   1      34.405  31.954  32.235  1.00  0.00    -0.207 OA
BRANCH   9  12
ATOM     12  C   UNL A   1      36.255  33.762  31.985  1.00  0.00     0.082 A 
ATOM     13  C   UNL A   1      36.339  33.631  30.593  1.00  0.00     0.022 A 
ATOM     14  C   UNL A   1      37.327  34.284  32.711  1.00  0.00     0.022 A 
ATOM     15  C   UNL A   1      37.543  33.905  29.943  1.00  0.00     0.001 A 
ATOM     16  C   UNL A   1      38.514  34.601  32.045  1.00  0.00     0.001 A 
ATOM     17  C   UNL A   1      38.631  34.384  30.670  1.00  0.00     0.000 A 
ENDBRANCH   9  12
ENDBRANCH   7   9
ENDBRANCH   5   7
ENDBRANCH   3   5
ENDBRANCH   2   3
ENDBRANCH   1   2
BRANCH   1  18
ATOM     18  C   UNL A   1      33.278  33.825  27.999  1.00  0.00     0.275 C 
BRANCH  18  19
ATOM     19  O   UNL A   1      34.479  33.027  27.936  1.00  0.00    -0.458 OA
BRANCH  19  20
ATOM     20  C   UNL A   1      34.287  31.692  27.787  1.00  0.00     0.338 C 
ATOM     21  O   UNL A   1      33.332  31.148  27.255  1.00  0.00    -0.246 OA
BRANCH  20  22
ATOM     22  C   UNL A   1      35.495  30.945  28.197  1.00  0.00     0.060 A 
ATOM     23  C   UNL A   1      35.378  30.012  29.237  1.00  0.00     0.016 A 
ATOM     24  C   UNL A   1      36.739  31.205  27.626  1.00  0.00     0.016 A 
ATOM     25  C   UNL A   1      36.493  29.328  29.711  1.00  0.00     0.010 A 
ATOM     26  C   UNL A   1      37.866  30.537  28.121  1.00  0.00     0.010 A 
ATOM     27  C   UNL A   1      37.749  29.609  29.173  1.00  0.00    -0.014 A 
BRANCH  27  28
ATOM     28  C   UNL A   1      38.965  29.027  29.783  1.00  0.00     0.031 A 
ATOM     29  C   UNL A   1      39.554  29.688  30.992  1.00  0.00     0.074 A 
ATOM     30  C   UNL A   1      39.550  27.942  29.250  1.00  0.00     0.049 A 
ATOM     31  N   UNL A   1      40.712  29.495  31.565  1.00  0.00    -0.248 NA
ATOM     32  C   UNL A   1      38.721  30.717  31.635  1.00  0.00     0.031 C 
ATOM     33  C   UNL A   1      39.029  27.167  28.126  1.00  0.00     0.029 A 
ATOM     34  N   UNL A   1      40.735  27.326  29.568  1.00  0.00    -0.354 N 
ATOM     35  C   UNL A   1      40.768  30.406  32.611  1.00  0.00     0.074 A 
ATOM     36  C   UNL A   1      39.529  31.154  32.590  1.00  0.00     0.031 C 
ATOM     37  C   UNL A   1      39.913  26.205  27.816  1.00  0.00     0.029 A 
ATOM     38  C   UNL A   1      41.082  26.334  28.684  1.00  0.00     0.049 A 
ATOM     39  H   UNL A   1      41.280  27.571  30.350  1.00  0.00     0.167 HD
ATOM     40  C   UNL A   1      41.769  30.603  33.500  1.00  0.00     0.037 A 
ATOM     41  C   UNL A   1      42.236  25.652  28.555  1.00  0.00     0.037 A 
ATOM     42  C   UNL A   1      42.992  29.843  33.511  1.00  0.00     0.049 A 
ATOM     43  C   UNL A   1      43.369  25.932  29.503  1.00  0.00     0.074 A 
ATOM     44  C   UNL A   1      44.062  29.942  34.383  1.00  0.00     0.029 A 
ATOM     45  N   UNL A   1      43.309  28.846  32.598  1.00  0.00    -0.354 N 
ATOM     46  N   UNL A   1      43.426  26.798  30.487  1.00  0.00    -0.248 NA
ATOM     47  C   UNL A   1      44.598  25.146  29.324  1.00  0.00     0.031 C 
ATOM     48  C   UNL A   1      45.051  29.049  33.960  1.00  0.00     0.029 A 
ATOM     49  C   UNL A   1      44.572  28.346  32.865  1.00  0.00     0.049 A 
ATOM     50  H   UNL A   1      42.724  28.542  31.869  1.00  0.00     0.167 HD
ATOM     51  C   UNL A   1      44.682  26.642  31.061  1.00  0.00     0.074 A 
ATOM     52  C   UNL A   1      45.354  25.598  30.315  1.00  0.00     0.031 C 
ATOM     53  C   UNL A   1      45.224  27.300  32.116  1.00  0.00     0.037 A 
BRANCH  40  54
ATOM     54  C   UNL A   1      41.605  31.726  34.483  1.00  0.00     0.057 A 
ATOM     55  C   UNL A   1      41.074  31.531  35.764  1.00  0.00     0.134 A 
ATOM     56  C   UNL A   1      41.982  33.030  34.132  1.00  0.00     0.134 A 
ATOM     57  F   UNL A   1      40.679  30.311  36.160  1.00  0.00    -0.206 F 
ATOM     58  C   UNL A   1      40.886  32.599  36.646  1.00  0.00     0.040 A 
ATOM     59  C   UNL A   1      41.829  34.098  35.017  1.00  0.00     0.040 A 
ATOM     60  F   UNL A   1      42.503  33.287  32.924  1.00  0.00    -0.206 F 
ATOM     61  C   UNL A   1      41.267  33.886  36.274  1.00  0.00     0.006 A 
ENDBRANCH  40  54
BRANCH  41  62
ATOM     62  C   UNL A   1      42.382  24.674  27.448  1.00  0.00     0.057 A 
ATOM     63  C   UNL A   1      42.901  25.051  26.205  1.00  0.00     0.134 A 
ATOM     64  C   UNL A   1      42.031  23.327  27.619  1.00  0.00     0.134 A 
ATOM     65  F   UNL A   1      43.232  26.330  25.973  1.00  0.00    -0.206 F 
ATOM     66  C   UNL A   1      43.067  24.127  25.172  1.00  0.00     0.040 A 
ATOM     67  C   UNL A   1      42.215  22.388  26.603  1.00  0.00     0.040 A 
ATOM     68  F   UNL A   1      41.529  22.901  28.788  1.00  0.00    -0.206 F 
ATOM     69  C   UNL A   1      42.732  22.788  25.373  1.00  0.00     0.006 A 
ENDBRANCH  41  62
BRANCH  53  70
ATOM     70  C   UNL A   1      46.597  26.886  32.562  1.00  0.00     0.057 A 
ATOM     71  C   UNL A   1      46.801  25.816  33.442  1.00  0.00     0.134 A 
ATOM     72  C   UNL A   1      47.733  27.521  32.040  1.00  0.00     0.134 A 
ATOM     73  F   UNL A   1      45.757  25.174  33.986  1.00  0.00    -0.206 F 
ATOM     74  C   UNL A   1      48.086  25.397  33.793  1.00  0.00     0.040 A 
ATOM     75  C   UNL A   1      49.021  27.094  32.363  1.00  0.00     0.040 A 
ATOM     76  F   UNL A   1      47.606  28.546  31.185  1.00  0.00    -0.206 F 
ATOM     77  C   UNL A   1      49.200  26.030  33.243  1.00  0.00     0.006 A 
ENDBRANCH  53  70
ENDBRANCH  27  28
ENDBRANCH  20  22
ENDBRANCH  19  20
ENDBRANCH  18  19
ENDBRANCH   1  18
TORSDOF 14
ENDMDL
MODEL 2
REMARK VINA RESULT:      -9.6      1.991      2.447
REMARK SMILES C[C@@H](NS(=O)(=O)c1ccccc1)C(=O)OCCOC(=O)c1ccc(-c2c3nc(c(-c4c(F)cccc4F)c4ccc([nH]4)c(-c4c(F)cccc4F)c4nc(c(-c5c(F)cccc5F)c5ccc2[nH]5)C=C4)C=C3)cc1
REMARK SMILES IDX 16 1 15 2 13 3 14 4 2 5 1 6 3 7 4 9 5 10 6 11 7 12 8 13
REMARK SMILES IDX 12 14 9 15 11 16 10 17 17 18 18 19 19 20 20 21 21 22 22 23
REMARK SMILES IDX 74 24 23 25 73 26 24 27 25 28 26 29 67 30 27 31 72 32 66 33
REMARK SMILES IDX 68 34 28 35 71 36 65 37 64 38 29 40 55 41 38 42 54 43 39 44
REMARK SMILES IDX 42 45 53 46 69 47 40 48 41 49 52 51 70 52 43 53 30 54 31 55
REMARK SMILES IDX 36 56 32 57 33 58 35 59 37 60 34 61 56 62 57 63 62 64 58 65
REMARK SMILES IDX 59 66 61 67 63 68 60 69 44 70 45 71 50 72 46 73 47 74 49 75
REMARK SMILES IDX 51 76 48 77
REMARK H PARENT 3 8 68 39 42 50
REMARK Flexibility Score: inf
ROOT
ATOM      1  C   UNL A   1      33.580  34.469  28.590  1.00  0.00     0.274 C 
ENDROOT
BRANCH   1   2
ATOM      2  O   UNL A   1      32.656  34.721  29.669  1.00  0.00    -0.461 OA
BRANCH   2   3
ATOM      3  C   UNL A   1      32.908  35.864  30.357  1.00  0.00     0.324 C 
ATOM      4  O   UNL A   1      33.160  36.932  29.815  1.00  0.00    -0.250 OA
BRANCH   3   5
ATOM      5  C   UNL A   1      32.936  35.718  31.866  1.00  0.00     0.176 C 
ATOM      6  C   UNL A   1      31.580  35.943  32.519  1.00  0.00     0.038 C 
BRANCH   5   7
ATOM      7  N   UNL A   1      33.506  34.403  32.250  1.00  0.00    -0.197 NA
ATOM      8  H   UNL A   1      33.747  33.912  31.388  1.00  0.00     0.142 HD
BRANCH   7   9
ATOM      9  S   UNL A   1      34.887  34.392  33.240  1.00  0.00     0.241 S 
ATOM     10  O   UNL A   1      34.963  35.676  33.898  1.00  0.00    -0.207 OA
ATOM     11  O   UNL A   1      34.795  33.163  34.004  1.00  0.00    -0.207 OA
BRANCH   9  12
ATOM     12  C   UNL A   1      36.257  34.207  32.125  1.00  0.00     0.082 A 
ATOM     13  C   UNL A   1      37.533  34.633  32.512  1.00  0.00     0.022 A 
ATOM     14  C   UNL A   1      36.046  33.676  30.852  1.00  0.00     0.022 A 
ATOM     15  C   UNL A   1      38.572  34.644  31.580  1.00  0.00     0.001 A 
ATOM     16  C   UNL A   1      37.103  33.646  29.939  1.00  0.00     0.001 A 
ATOM     17  C   UNL A   1      38.354  34.156  30.293  1.00  0.00     0.000 A 
ENDBRANCH   9  12
ENDBRANCH   7   9
ENDBRANCH   5   7
ENDBRANCH   3   5
ENDBRANCH   2   3
ENDBRANCH   1   2
BRANCH   1  18
ATOM     18  C   UNL A   1      33.473  33.060  27.978  1.00  0.00     0.275 C 
BRANCH  18  19
ATOM     19  O   UNL A   1      34.709  32.315  27.985  1.00  0.00    -0.458 OA
BRANCH  19  20
ATOM     20  C   UNL A   1      34.580  30.967  28.063  1.00  0.00     0.338 C 
ATOM     21  O   UNL A   1      33.571  30.318  27.837  1.00  0.00    -0.246 OA
BRANCH  20  22
ATOM     22  C   UNL A   1      35.895  30.331  28.287  1.00  0.00     0.060 A 
ATOM     23  C   UNL A   1      36.203  29.878  29.578  1.00  0.00     0.016 A 
ATOM     24  C   UNL A   1      36.845  30.247  27.271  1.00  0.00     0.016 A 
ATOM     25  C   UNL A   1      37.450  29.332  29.865  1.00  0.00     0.010 A 
ATOM     26  C   UNL A   1      38.109  29.724  27.565  1.00  0.00     0.010 A 
ATOM     27  C   UNL A   1      38.421  29.279  28.865  1.00  0.00    -0.014 A 
BRANCH  27  28
ATOM     28  C   UNL A   1      39.804  28.870  29.193  1.00  0.00     0.031 A 
ATOM     29  C   UNL A   1      40.725  29.875  29.816  1.00  0.00     0.074 A 
ATOM     30  C   UNL A   1      40.240  27.630  28.916  1.00  0.00     0.049 A 
ATOM     31  N   UNL A   1      42.018  29.821  29.995  1.00  0.00    -0.248 NA
ATOM     32  C   UNL A   1      40.097  31.118  30.292  1.00  0.00     0.031 C 
ATOM     33  C   UNL A   1      39.419  26.545  28.385  1.00  0.00     0.029 A 
ATOM     34  N   UNL A   1      41.498  27.090  29.013  1.00  0.00    -0.354 N 
ATOM     35  C   UNL A   1      42.368  31.036  30.566  1.00  0.00     0.074 A 
ATOM     36  C   UNL A   1      41.152  31.810  30.699  1.00  0.00     0.031 C 
ATOM     37  C   UNL A   1      40.203  25.479  28.158  1.00  0.00     0.029 A 
ATOM     38  C   UNL A   1      41.586  25.829  28.476  1.00  0.00     0.049 A 
ATOM     39  H   UNL A   1      42.259  27.559  29.425  1.00  0.00     0.167 HD
ATOM     40  C   UNL A   1      43.597  31.468  30.934  1.00  0.00     0.037 A 
ATOM     41  C   UNL A   1      42.667  25.069  28.217  1.00  0.00     0.037 A 
ATOM     42  C   UNL A   1      44.795  30.682  30.803  1.00  0.00     0.049 A 
ATOM     43  C   UNL A   1      44.035  25.591  28.564  1.00  0.00     0.074 A 
ATOM     44  C   UNL A   1      46.089  31.011  31.168  1.00  0.00     0.029 A 
ATOM     45  N   UNL A   1      44.846  29.408  30.252  1.00  0.00    -0.354 N 
ATOM     46  N   UNL A   1      44.369  26.742  29.097  1.00  0.00    -0.248 NA
ATOM     47  C   UNL A   1      45.177  24.712  28.273  1.00  0.00     0.031 C 
ATOM     48  C   UNL A   1      46.930  29.962  30.783  1.00  0.00     0.029 A 
ATOM     49  C   UNL A   1      46.153  28.951  30.237  1.00  0.00     0.049 A 
ATOM     50  H   UNL A   1      44.069  28.905  29.921  1.00  0.00     0.167 HD
ATOM     51  C   UNL A   1      45.751  26.716  29.231  1.00  0.00     0.074 A 
ATOM     52  C   UNL A   1      46.194  25.434  28.724  1.00  0.00     0.031 C 
ATOM     53  C   UNL A   1      46.576  27.667  29.735  1.00  0.00     0.037 A 
BRANCH  40  54
ATOM     54  C   UNL A   1      43.707  32.874  31.449  1.00  0.00     0.057 A 
ATOM     55  C   UNL A   1      43.620  33.183  32.812  1.00  0.00     0.134 A 
ATOM     56  C   UNL A   1      43.895  33.938  30.557  1.00  0.00     0.134 A 
ATOM     57  F   UNL A   1      43.426  32.215  33.720  1.00  0.00    -0.206 F 
ATOM     58  C   UNL A   1      43.677  34.504  33.266  1.00  0.00     0.040 A 
ATOM     59  C   UNL A   1      43.985  35.258  31.001  1.00  0.00     0.040 A 
ATOM     60  F   UNL A   1      43.992  33.714  29.239  1.00  0.00    -0.206 F 
ATOM     61  C   UNL A   1      43.864  35.545  32.359  1.00  0.00     0.006 A 
ENDBRANCH  40  54
BRANCH  41  62
ATOM     62  C   UNL A   1      42.491  23.756  27.550  1.00  0.00     0.057 A 
ATOM     63  C   UNL A   1      42.503  23.639  26.156  1.00  0.00     0.134 A 
ATOM     64  C   UNL A   1      42.334  22.578  28.294  1.00  0.00     0.134 A 
ATOM     65  F   UNL A   1      42.626  24.733  25.389  1.00  0.00    -0.206 F 
ATOM     66  C   UNL A   1      42.367  22.401  25.525  1.00  0.00     0.040 A 
ATOM     67  C   UNL A   1      42.221  21.331  27.678  1.00  0.00     0.040 A 
ATOM     68  F   UNL A   1      42.315  22.623  29.635  1.00  0.00    -0.206 F 
ATOM     69  C   UNL A   1      42.234  21.241  26.288  1.00  0.00     0.006 A 
ENDBRANCH  41  62
BRANCH  53  70
ATOM     70  C   UNL A   1      48.042  27.347  29.809  1.00  0.00     0.057 A 
ATOM     71  C   UNL A   1      48.593  26.630  30.878  1.00  0.00     0.134 A 
ATOM     72  C   UNL A   1      48.897  27.696  28.754  1.00  0.00     0.134 A 
ATOM     73  F   UNL A   1      47.831  26.276  31.924  1.00  0.00    -0.206 F 
ATOM     74  C   UNL A   1      49.944  26.278  30.900  1.00  0.00     0.040 A 
ATOM     75  C   UNL A   1      50.242  27.327  28.753  1.00  0.00     0.040 A 
ATOM     76  F   UNL A   1      48.429  28.375  27.696  1.00  0.00    -0.206 F 
ATOM     77  C   UNL A   1      50.770  26.618  29.829  1.00  0.00     0.006 A 
ENDBRANCH  53  70
ENDBRANCH  27  28
ENDBRANCH  20  22
ENDBRANCH  19  20
ENDBRANCH  18  19
ENDBRANCH   1  18
TORSDOF 14
ENDMDL
MODEL 3
REMARK VINA RESULT:      -9.6      3.983      8.735
REMARK SMILES C[C@@H](NS(=O)(=O)c1ccccc1)C(=O)OCCOC(=O)c1ccc(-c2c3nc(c(-c4c(F)cccc4F)c4ccc([nH]4)c(-c4c(F)cccc4F)c4nc(c(-c5c(F)cccc5F)c5ccc2[nH]5)C=C4)C=C3)cc1
REMARK SMILES IDX 16 1 15 2 13 3 14 4 2 5 1 6 3 7 4 9 5 10 6 11 7 12 8 13
REMARK SMILES IDX 12 14 9 15 11 16 10 17 17 18 18 19 19 20 20 21 21 22 22 23
REMARK SMILES IDX 74 24 23 25 73 26 24 27 25 28 26 29 67 30 27 31 72 32 66 33
REMARK SMILES IDX 68 34 28 35 71 36 65 37 64 38 29 40 55 41 38 42 54 43 39 44
REMARK SMILES IDX 42 45 53 46 69 47 40 48 41 49 52 51 70 52 43 53 30 54 31 55
REMARK SMILES IDX 36 56 32 57 33 58 35 59 37 60 34 61 56 62 57 63 62 64 58 65
REMARK SMILES IDX 59 66 61 67 63 68 60 69 44 70 45 71 50 72 46 73 47 74 49 75
REMARK SMILES IDX 51 76 48 77
REMARK H PARENT 3 8 68 39 42 50
REMARK Flexibility Score: inf
ROOT
ATOM      1  C   UNL A   1      31.355  29.641  24.738  1.00  0.00     0.274 C 
ENDROOT
BRANCH   1   2
ATOM      2  O   UNL A   1      30.242  29.835  23.841  1.00  0.00    -0.461 OA
BRANCH   2   3
ATOM      3  C   UNL A   1      30.269  29.036  22.744  1.00  0.00     0.324 C 
ATOM      4  O   UNL A   1      29.876  29.394  21.642  1.00  0.00    -0.250 OA
BRANCH   3   5
ATOM      5  C   UNL A   1      30.752  27.619  22.988  1.00  0.00     0.176 C 
ATOM      6  C   UNL A   1      29.674  26.702  23.547  1.00  0.00     0.038 C 
BRANCH   5   7
ATOM      7  N   UNL A   1      31.350  27.054  21.753  1.00  0.00    -0.197 NA
ATOM      8  H   UNL A   1      31.274  27.766  21.025  1.00  0.00     0.142 HD
BRANCH   7   9
ATOM      9  S   UNL A   1      32.976  26.562  21.809  1.00  0.00     0.241 S 
ATOM     10  O   UNL A   1      33.169  25.571  20.776  1.00  0.00    -0.207 OA
ATOM     11  O   UNL A   1      33.743  27.793  21.820  1.00  0.00    -0.207 OA
BRANCH   9  12
ATOM     12  C   UNL A   1      33.179  25.812  23.405  1.00  0.00     0.082 A 
ATOM     13  C   UNL A   1      33.804  26.525  24.436  1.00  0.00     0.022 A 
ATOM     14  C   UNL A   1      32.753  24.499  23.613  1.00  0.00     0.022 A 
ATOM     15  C   UNL A   1      34.115  25.880  25.634  1.00  0.00     0.001 A 
ATOM     16  C   UNL A   1      33.025  23.875  24.833  1.00  0.00     0.001 A 
ATOM     17  C   UNL A   1      33.731  24.555  25.829  1.00  0.00     0.000 A 
ENDBRANCH   9  12
ENDBRANCH   7   9
ENDBRANCH   5   7
ENDBRANCH   3   5
ENDBRANCH   2   3
ENDBRANCH   1   2
BRANCH   1  18
ATOM     18  C   UNL A   1      31.460  30.693  25.857  1.00  0.00     0.275 C 
BRANCH  18  19
ATOM     19  O   UNL A   1      32.590  30.512  26.736  1.00  0.00    -0.458 OA
BRANCH  19  20
ATOM     20  C   UNL A   1      33.157  31.654  27.202  1.00  0.00     0.338 C 
ATOM     21  O   UNL A   1      32.612  32.739  27.331  1.00  0.00    -0.246 OA
BRANCH  20  22
ATOM     22  C   UNL A   1      34.513  31.383  27.727  1.00  0.00     0.060 A 
ATOM     23  C   UNL A   1      34.836  30.067  28.085  1.00  0.00     0.016 A 
ATOM     24  C   UNL A   1      35.430  32.410  27.937  1.00  0.00     0.016 A 
ATOM     25  C   UNL A   1      36.071  29.762  28.647  1.00  0.00     0.010 A 
ATOM     26  C   UNL A   1      36.663  32.110  28.527  1.00  0.00     0.010 A 
ATOM     27  C   UNL A   1      36.981  30.788  28.897  1.00  0.00    -0.014 A 
BRANCH  27  28
ATOM     28  C   UNL A   1      38.223  30.513  29.654  1.00  0.00     0.031 A 
ATOM     29  C   UNL A   1      39.238  29.584  29.062  1.00  0.00     0.074 A 
ATOM     30  C   UNL A   1      38.428  31.063  30.862  1.00  0.00     0.049 A 
ATOM     31  N   UNL A   1      40.284  29.031  29.617  1.00  0.00    -0.248 NA
ATOM     32  C   UNL A   1      39.036  29.222  27.650  1.00  0.00     0.031 C 
ATOM     33  C   UNL A   1      37.553  32.040  31.506  1.00  0.00     0.029 A 
ATOM     34  N   UNL A   1      39.427  30.845  31.778  1.00  0.00    -0.354 N 
ATOM     35  C   UNL A   1      40.844  28.223  28.637  1.00  0.00     0.074 A 
ATOM     36  C   UNL A   1      40.017  28.354  27.455  1.00  0.00     0.031 C 
ATOM     37  C   UNL A   1      38.028  32.305  32.734  1.00  0.00     0.029 A 
ATOM     38  C   UNL A   1      39.206  31.474  32.978  1.00  0.00     0.049 A 
ATOM     39  H   UNL A   1      40.222  30.294  31.592  1.00  0.00     0.167 HD
ATOM     40  C   UNL A   1      41.941  27.435  28.724  1.00  0.00     0.037 A 
ATOM     41  C   UNL A   1      39.847  31.347  34.156  1.00  0.00     0.037 A 
ATOM     42  C   UNL A   1      42.756  27.324  29.905  1.00  0.00     0.049 A 
ATOM     43  C   UNL A   1      41.021  30.413  34.260  1.00  0.00     0.074 A 
ATOM     44  C   UNL A   1      43.905  26.577  30.095  1.00  0.00     0.029 A 
ATOM     45  N   UNL A   1      42.500  27.976  31.104  1.00  0.00    -0.354 N 
ATOM     46  N   UNL A   1      41.547  29.642  33.337  1.00  0.00    -0.248 NA
ATOM     47  C   UNL A   1      41.691  30.326  35.565  1.00  0.00     0.031 C 
ATOM     48  C   UNL A   1      44.308  26.728  31.425  1.00  0.00     0.029 A 
ATOM     49  C   UNL A   1      43.449  27.621  32.048  1.00  0.00     0.049 A 
ATOM     50  H   UNL A   1      41.753  28.597  31.261  1.00  0.00     0.167 HD
ATOM     51  C   UNL A   1      42.622  29.002  33.940  1.00  0.00     0.074 A 
ATOM     52  C   UNL A   1      42.675  29.476  35.308  1.00  0.00     0.031 C 
ATOM     53  C   UNL A   1      43.491  28.109  33.405  1.00  0.00     0.037 A 
BRANCH  40  54
ATOM     54  C   UNL A   1      42.276  26.589  27.531  1.00  0.00     0.057 A 
ATOM     55  C   UNL A   1      41.816  25.274  27.390  1.00  0.00     0.134 A 
ATOM     56  C   UNL A   1      43.085  27.102  26.507  1.00  0.00     0.134 A 
ATOM     57  F   UNL A   1      41.050  24.714  28.339  1.00  0.00    -0.206 F 
ATOM     58  C   UNL A   1      42.179  24.486  26.294  1.00  0.00     0.040 A 
ATOM     59  C   UNL A   1      43.428  26.336  25.392  1.00  0.00     0.040 A 
ATOM     60  F   UNL A   1      43.556  28.355  26.574  1.00  0.00    -0.206 F 
ATOM     61  C   UNL A   1      42.984  25.019  25.290  1.00  0.00     0.006 A 
ENDBRANCH  40  54
BRANCH  41  62
ATOM     62  C   UNL A   1      39.350  32.093  35.338  1.00  0.00     0.057 A 
ATOM     63  C   UNL A   1      39.755  33.407  35.595  1.00  0.00     0.134 A 
ATOM     64  C   UNL A   1      38.431  31.517  36.226  1.00  0.00     0.134 A 
ATOM     65  F   UNL A   1      40.651  34.004  34.795  1.00  0.00    -0.206 F 
ATOM     66  C   UNL A   1      39.266  34.122  36.690  1.00  0.00     0.040 A 
ATOM     67  C   UNL A   1      37.915  32.227  37.311  1.00  0.00     0.040 A 
ATOM     68  F   UNL A   1      38.001  30.260  36.035  1.00  0.00    -0.206 F 
ATOM     69  C   UNL A   1      38.336  33.534  37.547  1.00  0.00     0.006 A 
ENDBRANCH  41  62
BRANCH  53  70
ATOM     70  C   UNL A   1      44.605  27.612  34.281  1.00  0.00     0.057 A 
ATOM     71  C   UNL A   1      45.811  28.311  34.416  1.00  0.00     0.134 A 
ATOM     72  C   UNL A   1      44.434  26.459  35.058  1.00  0.00     0.134 A 
ATOM     73  F   UNL A   1      46.043  29.416  33.692  1.00  0.00    -0.206 F 
ATOM     74  C   UNL A   1      46.811  27.875  35.289  1.00  0.00     0.040 A 
ATOM     75  C   UNL A   1      45.414  26.029  35.952  1.00  0.00     0.040 A 
ATOM     76  F   UNL A   1      43.298  25.750  34.982  1.00  0.00    -0.206 F 
ATOM     77  C   UNL A   1      46.608  26.737  36.068  1.00  0.00     0.006 A 
ENDBRANCH  53  70
ENDBRANCH  27  28
ENDBRANCH  20  22
ENDBRANCH  19  20
ENDBRANCH  18  19
ENDBRANCH   1  18
TORSDOF 14
ENDMDL
