MODEL 1
REMARK VINA RESULT:     -12.9      0.000      0.000
REMARK SMILES Cc1ccc(C(c2ccccc2)(c2ccccc2)n2cnc(C[C@H]([NH3+])C(=O)OCCOC(=O)c3ccc(-c4c5nc(c(-c6c(F)cccc6F)c6ccc([nH]6)c(-c6c(F)cccc6F)c6nc(c(-c7c(F)cccc7F)c7ccc4[nH]7)C=C6)C=C5)cc3)c2)cc1
REMARK SMILES IDX 29 1 28 2 26 3 27 4 24 5 23 6 22 7 19 8 20 9 88 10 21 11
REMARK SMILES IDX 6 12 5 13 1 14 2 15 3 16 90 17 4 18 89 19 7 20 8 21 12 22
REMARK SMILES IDX 9 23 11 24 10 25 13 26 14 27 18 28 15 29 17 30 16 31 25 32
REMARK SMILES IDX 30 36 31 37 32 38 33 39 34 40 35 41 87 42 36 43 86 44 37 45
REMARK SMILES IDX 38 46 39 47 80 48 40 49 85 50 79 51 81 52 41 53 84 54 78 55
REMARK SMILES IDX 77 56 42 58 68 59 51 60 67 61 52 62 55 63 66 64 82 65 53 66
REMARK SMILES IDX 54 67 65 69 83 70 56 71 43 72 44 73 49 74 45 75 46 76 48 77
REMARK SMILES IDX 50 78 47 79 69 80 70 81 75 82 71 83 72 84 74 85 76 86 73 87
REMARK SMILES IDX 57 88 58 89 63 90 59 91 60 92 62 93 64 94 61 95
REMARK H PARENT 25 33 25 34 25 35 81 57 55 68
REMARK Flexibility Score: inf
ROOT
ATOM      1  C   UNL A   1      39.280  21.501  26.153  1.00  0.00     0.274 C 
ENDROOT
BRANCH   1   2
ATOM      2  O   UNL A   1      38.375  21.557  25.053  1.00  0.00    -0.458 OA
BRANCH   2   3
ATOM      3  C   UNL A   1      37.198  22.139  25.381  1.00  0.00     0.365 C 
ATOM      4  O   UNL A   1      37.187  23.104  26.151  1.00  0.00    -0.245 OA
BRANCH   3   5
ATOM      5  C   UNL A   1      35.831  21.665  24.623  1.00  0.00     0.297 C 
BRANCH   5   6
ATOM      6  C   UNL A   1      35.582  23.071  23.415  1.00  0.00     0.135 C 
BRANCH   6   7
ATOM      7  C   UNL A   1      34.642  24.310  23.487  1.00  0.00     0.065 A 
ATOM      8  N   UNL A   1      33.106  25.849  24.126  1.00  0.00    -0.319 N 
ATOM      9  C   UNL A   1      32.914  25.449  22.835  1.00  0.00     0.201 A 
ATOM     10  C   UNL A   1      34.290  25.194  24.517  1.00  0.00     0.112 A 
ATOM     11  N   UNL A   1      33.735  24.493  22.497  1.00  0.00    -0.241 NA
BRANCH   8  12
ATOM     12  C   UNL A   1      31.988  26.522  24.925  1.00  0.00     0.121 C 
BRANCH  12  13
ATOM     13  C   UNL A   1      31.028  27.361  23.951  1.00  0.00    -0.013 A 
ATOM     14  C   UNL A   1      27.725  30.854  21.955  1.00  0.00     0.044 C 
ATOM     15  C   UNL A   1      29.106  29.263  22.405  1.00  0.00    -0.051 A 
ATOM     16  C   UNL A   1      28.830  27.890  22.990  1.00  0.00     0.004 A 
ATOM     17  C   UNL A   1      30.600  29.217  22.339  1.00  0.00     0.004 A 
ATOM     18  C   UNL A   1      29.689  27.066  23.777  1.00  0.00     0.007 A 
ATOM     19  C   UNL A   1      31.482  28.317  23.038  1.00  0.00     0.007 A 
ENDBRANCH  12  13
BRANCH  12  20
ATOM     20  C   UNL A   1      31.179  25.280  25.576  1.00  0.00    -0.013 A 
ATOM     21  C   UNL A   1      29.912  25.454  26.173  1.00  0.00     0.007 A 
ATOM     22  C   UNL A   1      31.755  24.004  25.806  1.00  0.00     0.007 A 
ATOM     23  C   UNL A   1      29.237  24.421  26.847  1.00  0.00     0.000 A 
ATOM     24  C   UNL A   1      31.088  22.963  26.475  1.00  0.00     0.000 A 
ATOM     25  C   UNL A   1      29.822  23.171  26.991  1.00  0.00     0.000 A 
ENDBRANCH  12  20
BRANCH  12  26
ATOM     26  C   UNL A   1      32.643  27.544  25.943  1.00  0.00    -0.013 A 
ATOM     27  C   UNL A   1      31.853  28.505  26.625  1.00  0.00     0.007 A 
ATOM     28  C   UNL A   1      34.032  27.676  26.122  1.00  0.00     0.007 A 
ATOM     29  C   UNL A   1      32.408  29.560  27.355  1.00  0.00     0.000 A 
ATOM     30  C   UNL A   1      34.594  28.746  26.834  1.00  0.00     0.000 A 
ATOM     31  C   UNL A   1      33.783  29.697  27.435  1.00  0.00     0.000 A 
ENDBRANCH  12  26
ENDBRANCH   8  12
ENDBRANCH   6   7
ENDBRANCH   5   6
BRANCH   5  32
ATOM     32  N   UNL A   1      34.622  20.019  25.027  1.00  0.00    -0.346 N 
ATOM     33  H   UNL A   1      34.147  20.157  25.919  1.00  0.00     0.345 HD
ATOM     34  H   UNL A   1      35.198  19.177  25.076  1.00  0.00     0.345 HD
ATOM     35  H   UNL A   1      33.930  19.914  24.285  1.00  0.00     0.345 HD
ENDBRANCH   5  32
ENDBRANCH   3   5
ENDBRANCH   2   3
ENDBRANCH   1   2
BRANCH   1  36
ATOM     36  C   UNL A   1      40.240  20.268  26.150  1.00  0.00     0.275 C 
BRANCH  36  37
ATOM     37  O   UNL A   1      41.716  20.441  26.013  1.00  0.00    -0.458 OA
BRANCH  37  38
ATOM     38  C   UNL A   1      42.623  21.454  25.763  1.00  0.00     0.338 C 
ATOM     39  O   UNL A   1      43.575  21.269  25.013  1.00  0.00    -0.246 OA
BRANCH  38  40
ATOM     40  C   UNL A   1      42.624  22.715  26.580  1.00  0.00     0.060 A 
ATOM     41  C   UNL A   1      42.913  24.398  25.822  1.00  0.00     0.016 A 
ATOM     42  C   UNL A   1      43.156  22.382  28.254  1.00  0.00     0.016 A 
ATOM     43  C   UNL A   1      43.915  25.641  26.784  1.00  0.00     0.010 A 
ATOM     44  C   UNL A   1      44.197  23.531  29.129  1.00  0.00     0.010 A 
ATOM     45  C   UNL A   1      44.680  25.109  28.392  1.00  0.00    -0.014 A 
BRANCH  45  46
ATOM     46  C   UNL A   1      45.898  25.472  29.118  1.00  0.00     0.031 A 
ATOM     47  C   UNL A   1      47.231  25.278  28.555  1.00  0.00     0.074 A 
ATOM     48  C   UNL A   1      45.792  26.301  30.212  1.00  0.00     0.049 A 
ATOM     49  N   UNL A   1      48.308  25.419  29.259  1.00  0.00    -0.248 NA
ATOM     50  C   UNL A   1      47.489  24.892  27.172  1.00  0.00     0.031 C 
ATOM     51  C   UNL A   1      46.757  27.310  30.611  1.00  0.00     0.029 A 
ATOM     52  N   UNL A   1      44.807  26.417  31.238  1.00  0.00    -0.354 N 
ATOM     53  C   UNL A   1      49.295  25.660  28.346  1.00  0.00     0.074 A 
ATOM     54  C   UNL A   1      48.826  25.004  27.148  1.00  0.00     0.031 C 
ATOM     55  C   UNL A   1      46.514  27.684  31.873  1.00  0.00     0.029 A 
ATOM     56  C   UNL A   1      45.450  26.860  32.415  1.00  0.00     0.049 A 
ATOM     57  H   UNL A   1      43.847  26.222  31.142  1.00  0.00     0.167 HD
ATOM     58  C   UNL A   1      50.242  26.603  28.624  1.00  0.00     0.037 A 
ATOM     59  C   UNL A   1      45.376  26.333  33.680  1.00  0.00     0.037 A 
ATOM     60  C   UNL A   1      50.156  27.162  29.997  1.00  0.00     0.049 A 
ATOM     61  C   UNL A   1      46.759  26.156  34.290  1.00  0.00     0.074 A 
ATOM     62  C   UNL A   1      50.131  28.433  30.557  1.00  0.00     0.029 A 
ATOM     63  N   UNL A   1      49.930  26.317  31.075  1.00  0.00    -0.354 N 
ATOM     64  N   UNL A   1      47.830  26.790  33.886  1.00  0.00    -0.248 NA
ATOM     65  C   UNL A   1      47.097  25.120  35.269  1.00  0.00     0.031 C 
ATOM     66  C   UNL A   1      50.057  28.305  31.984  1.00  0.00     0.029 A 
ATOM     67  C   UNL A   1      50.058  26.960  32.293  1.00  0.00     0.049 A 
ATOM     68  H   UNL A   1      49.704  25.363  30.983  1.00  0.00     0.167 HD
ATOM     69  C   UNL A   1      48.933  26.036  34.202  1.00  0.00     0.074 A 
ATOM     70  C   UNL A   1      48.435  25.075  35.166  1.00  0.00     0.031 C 
ATOM     71  C   UNL A   1      50.098  26.129  33.491  1.00  0.00     0.037 A 
BRANCH  58  72
ATOM     72  C   UNL A   1      51.219  27.151  27.597  1.00  0.00     0.057 A 
ATOM     73  C   UNL A   1      52.597  26.895  27.734  1.00  0.00     0.134 A 
ATOM     74  C   UNL A   1      50.896  27.962  26.488  1.00  0.00     0.134 A 
ATOM     75  F   UNL A   1      53.076  26.150  28.740  1.00  0.00    -0.206 F 
ATOM     76  C   UNL A   1      53.561  27.390  26.845  1.00  0.00     0.040 A 
ATOM     77  C   UNL A   1      51.842  28.397  25.549  1.00  0.00     0.040 A 
ATOM     78  F   UNL A   1      49.666  28.439  26.273  1.00  0.00    -0.206 F 
ATOM     79  C   UNL A   1      53.185  28.123  25.732  1.00  0.00     0.006 A 
ENDBRANCH  58  72
BRANCH  59  80
ATOM     80  C   UNL A   1      44.147  25.562  34.059  1.00  0.00     0.057 A 
ATOM     81  C   UNL A   1      44.102  24.189  33.783  1.00  0.00     0.134 A 
ATOM     82  C   UNL A   1      43.085  26.048  34.832  1.00  0.00     0.134 A 
ATOM     83  F   UNL A   1      45.004  23.639  32.954  1.00  0.00    -0.206 F 
ATOM     84  C   UNL A   1      43.158  23.333  34.370  1.00  0.00     0.040 A 
ATOM     85  C   UNL A   1      42.179  25.201  35.487  1.00  0.00     0.040 A 
ATOM     86  F   UNL A   1      42.896  27.360  34.993  1.00  0.00    -0.206 F 
ATOM     87  C   UNL A   1      42.239  23.829  35.287  1.00  0.00     0.006 A 
ENDBRANCH  59  80
BRANCH  71  88
ATOM     88  C   UNL A   1      51.301  25.227  33.661  1.00  0.00     0.057 A 
ATOM     89  C   UNL A   1      51.280  23.436  33.310  1.00  0.00     0.134 A 
ATOM     90  C   UNL A   1      52.914  25.996  34.099  1.00  0.00     0.134 A 
ATOM     91  F   UNL A   1      50.126  22.757  33.276  1.00  0.00    -0.206 F 
ATOM     92  C   UNL A   1      52.806  22.445  33.329  1.00  0.00     0.040 A 
ATOM     93  C   UNL A   1      54.481  25.048  33.957  1.00  0.00     0.040 A 
ATOM     94  F   UNL A   1      53.023  27.251  34.545  1.00  0.00    -0.206 F 
ATOM     95  C   UNL A   1      54.421  23.277  33.575  1.00  0.00     0.006 A 
ENDBRANCH  71  88
ENDBRANCH  45  46
ENDBRANCH  38  40
ENDBRANCH  37  38
ENDBRANCH  36  37
ENDBRANCH   1  36
TORSDOF 18
ENDMDL
MODEL 2
REMARK VINA RESULT:     -12.8      5.910     10.685
REMARK SMILES Cc1ccc(C(c2ccccc2)(c2ccccc2)n2cnc(C[C@H]([NH3+])C(=O)OCCOC(=O)c3ccc(-c4c5nc(c(-c6c(F)cccc6F)c6ccc([nH]6)c(-c6c(F)cccc6F)c6nc(c(-c7c(F)cccc7F)c7ccc4[nH]7)C=C6)C=C5)cc3)c2)cc1
REMARK SMILES IDX 29 1 28 2 26 3 27 4 24 5 23 6 22 7 19 8 20 9 88 10 21 11
REMARK SMILES IDX 6 12 5 13 1 14 2 15 3 16 90 17 4 18 89 19 7 20 8 21 12 22
REMARK SMILES IDX 9 23 11 24 10 25 13 26 14 27 18 28 15 29 17 30 16 31 25 32
REMARK SMILES IDX 30 36 31 37 32 38 33 39 34 40 35 41 87 42 36 43 86 44 37 45
REMARK SMILES IDX 38 46 39 47 80 48 40 49 85 50 79 51 81 52 41 53 84 54 78 55
REMARK SMILES IDX 77 56 42 58 68 59 51 60 67 61 52 62 55 63 66 64 82 65 53 66
REMARK SMILES IDX 54 67 65 69 83 70 56 71 43 72 44 73 49 74 45 75 46 76 48 77
REMARK SMILES IDX 50 78 47 79 69 80 70 81 75 82 71 83 72 84 74 85 76 86 73 87
REMARK SMILES IDX 57 88 58 89 63 90 59 91 60 92 62 93 64 94 61 95
REMARK H PARENT 25 33 25 34 25 35 81 57 55 68
REMARK Flexibility Score: inf
ROOT
ATOM      1  C   UNL A   1      36.129  34.205  29.048  1.00  0.00     0.274 C 
ENDROOT
BRANCH   1   2
ATOM      2  O   UNL A   1      35.623  34.364  30.371  1.00  0.00    -0.458 OA
BRANCH   2   3
ATOM      3  C   UNL A   1      34.856  33.318  30.759  1.00  0.00     0.365 C 
ATOM      4  O   UNL A   1      34.205  32.692  29.919  1.00  0.00    -0.245 OA
BRANCH   3   5
ATOM      5  C   UNL A   1      34.940  32.795  32.305  1.00  0.00     0.297 C 
BRANCH   5   6
ATOM      6  C   UNL A   1      36.228  31.446  32.160  1.00  0.00     0.135 C 
BRANCH   6   7
ATOM      7  C   UNL A   1      37.531  31.202  32.978  1.00  0.00     0.065 A 
ATOM      8  N   UNL A   1      39.679  31.159  33.697  1.00  0.00    -0.319 N 
ATOM      9  C   UNL A   1      39.108  29.921  33.738  1.00  0.00     0.201 A 
ATOM     10  C   UNL A   1      38.627  32.011  33.307  1.00  0.00     0.112 A 
ATOM     11  N   UNL A   1      37.905  29.925  33.233  1.00  0.00    -0.241 NA
BRANCH   8  12
ATOM     12  C   UNL A   1      41.199  31.335  33.704  1.00  0.00     0.121 C 
BRANCH  12  13
ATOM     13  C   UNL A   1      41.681  32.115  32.387  1.00  0.00    -0.013 A 
ATOM     14  C   UNL A   1      42.905  35.770  28.890  1.00  0.00     0.044 C 
ATOM     15  C   UNL A   1      42.540  34.000  30.060  1.00  0.00    -0.051 A 
ATOM     16  C   UNL A   1      41.255  33.210  30.229  1.00  0.00     0.004 A 
ATOM     17  C   UNL A   1      43.422  33.259  31.014  1.00  0.00     0.004 A 
ATOM     18  C   UNL A   1      40.831  32.422  31.341  1.00  0.00     0.007 A 
ATOM     19  C   UNL A   1      43.019  32.368  32.073  1.00  0.00     0.007 A 
ENDBRANCH  12  13
BRANCH  12  20
ATOM     20  C   UNL A   1      41.477  32.235  35.021  1.00  0.00    -0.013 A 
ATOM     21  C   UNL A   1      41.281  31.723  36.322  1.00  0.00     0.007 A 
ATOM     22  C   UNL A   1      41.703  33.635  34.979  1.00  0.00     0.007 A 
ATOM     23  C   UNL A   1      41.402  32.513  37.479  1.00  0.00     0.000 A 
ATOM     24  C   UNL A   1      41.830  34.432  36.129  1.00  0.00     0.000 A 
ATOM     25  C   UNL A   1      41.686  33.867  37.383  1.00  0.00     0.000 A 
ENDBRANCH  12  20
BRANCH  12  26
ATOM     26  C   UNL A   1      41.871  29.900  33.680  1.00  0.00    -0.013 A 
ATOM     27  C   UNL A   1      42.639  29.434  34.778  1.00  0.00     0.007 A 
ATOM     28  C   UNL A   1      41.889  29.073  32.543  1.00  0.00     0.007 A 
ATOM     29  C   UNL A   1      43.427  28.280  34.715  1.00  0.00     0.000 A 
ATOM     30  C   UNL A   1      42.696  27.928  32.467  1.00  0.00     0.000 A 
ATOM     31  C   UNL A   1      43.477  27.542  33.545  1.00  0.00     0.000 A 
ENDBRANCH  12  26
ENDBRANCH   8  12
ENDBRANCH   6   7
ENDBRANCH   5   6
BRANCH   5  32
ATOM     32  N   UNL A   1      33.790  33.377  33.940  1.00  0.00    -0.346 N 
ATOM     33  H   UNL A   1      32.801  33.313  33.699  1.00  0.00     0.345 HD
ATOM     34  H   UNL A   1      34.018  34.340  34.190  1.00  0.00     0.345 HD
ATOM     35  H   UNL A   1      33.988  32.764  34.731  1.00  0.00     0.345 HD
ENDBRANCH   5  32
ENDBRANCH   3   5
ENDBRANCH   2   3
ENDBRANCH   1   2
BRANCH   1  36
ATOM     36  C   UNL A   1      37.507  33.474  28.957  1.00  0.00     0.275 C 
BRANCH  36  37
ATOM     37  O   UNL A   1      37.589  31.983  28.941  1.00  0.00    -0.458 OA
BRANCH  37  38
ATOM     38  C   UNL A   1      37.017  30.921  28.267  1.00  0.00     0.338 C 
ATOM     39  O   UNL A   1      35.939  31.049  27.699  1.00  0.00    -0.246 OA
BRANCH  38  40
ATOM     40  C   UNL A   1      37.557  29.527  28.415  1.00  0.00     0.060 A 
ATOM     41  C   UNL A   1      37.819  28.728  30.084  1.00  0.00     0.016 A 
ATOM     42  C   UNL A   1      38.630  29.114  27.047  1.00  0.00     0.016 A 
ATOM     43  C   UNL A   1      39.317  27.645  30.321  1.00  0.00     0.010 A 
ATOM     44  C   UNL A   1      40.113  28.162  27.299  1.00  0.00     0.010 A 
ATOM     45  C   UNL A   1      40.539  27.506  28.929  1.00  0.00    -0.014 A 
BRANCH  45  46
ATOM     46  C   UNL A   1      41.988  27.303  28.851  1.00  0.00     0.031 A 
ATOM     47  C   UNL A   1      42.930  28.415  28.772  1.00  0.00     0.074 A 
ATOM     48  C   UNL A   1      42.499  26.068  29.178  1.00  0.00     0.049 A 
ATOM     49  N   UNL A   1      44.186  28.242  28.515  1.00  0.00    -0.248 NA
ATOM     50  C   UNL A   1      42.563  29.816  28.950  1.00  0.00     0.031 C 
ATOM     51  C   UNL A   1      43.765  25.820  29.844  1.00  0.00     0.029 A 
ATOM     52  N   UNL A   1      42.016  24.741  28.966  1.00  0.00    -0.354 N 
ATOM     53  C   UNL A   1      44.803  29.358  29.005  1.00  0.00     0.074 A 
ATOM     54  C   UNL A   1      43.782  30.377  28.934  1.00  0.00     0.031 C 
ATOM     55  C   UNL A   1      44.099  24.532  29.702  1.00  0.00     0.029 A 
ATOM     56  C   UNL A   1      43.132  23.884  28.836  1.00  0.00     0.049 A 
ATOM     57  H   UNL A   1      41.071  24.471  28.919  1.00  0.00     0.167 HD
ATOM     58  C   UNL A   1      45.992  29.226  29.663  1.00  0.00     0.037 A 
ATOM     59  C   UNL A   1      43.389  22.960  27.855  1.00  0.00     0.037 A 
ATOM     60  C   UNL A   1      46.554  27.853  29.629  1.00  0.00     0.049 A 
ATOM     61  C   UNL A   1      44.806  23.101  27.317  1.00  0.00     0.074 A 
ATOM     62  C   UNL A   1      47.056  26.957  30.564  1.00  0.00     0.029 A 
ATOM     63  N   UNL A   1      46.526  27.122  28.448  1.00  0.00    -0.354 N 
ATOM     64  N   UNL A   1      45.781  23.697  27.953  1.00  0.00    -0.248 NA
ATOM     65  C   UNL A   1      45.199  22.759  25.948  1.00  0.00     0.031 C 
ATOM     66  C   UNL A   1      47.474  25.766  29.883  1.00  0.00     0.029 A 
ATOM     67  C   UNL A   1      47.245  25.943  28.533  1.00  0.00     0.049 A 
ATOM     68  H   UNL A   1      46.048  27.412  27.638  1.00  0.00     0.167 HD
ATOM     69  C   UNL A   1      46.693  24.152  27.034  1.00  0.00     0.074 A 
ATOM     70  C   UNL A   1      46.352  23.438  25.819  1.00  0.00     0.031 C 
ATOM     71  C   UNL A   1      47.504  25.223  27.292  1.00  0.00     0.037 A 
BRANCH  58  72
ATOM     72  C   UNL A   1      46.635  30.333  30.480  1.00  0.00     0.057 A 
ATOM     73  C   UNL A   1      47.684  31.094  29.927  1.00  0.00     0.134 A 
ATOM     74  C   UNL A   1      46.318  30.682  31.810  1.00  0.00     0.134 A 
ATOM     75  F   UNL A   1      48.118  30.887  28.676  1.00  0.00    -0.206 F 
ATOM     76  C   UNL A   1      48.346  32.112  30.628  1.00  0.00     0.040 A 
ATOM     77  C   UNL A   1      46.919  31.748  32.493  1.00  0.00     0.040 A 
ATOM     78  F   UNL A   1      45.459  29.981  32.557  1.00  0.00    -0.206 F 
ATOM     79  C   UNL A   1      47.948  32.461  31.907  1.00  0.00     0.006 A 
ENDBRANCH  58  72
BRANCH  59  80
ATOM     80  C   UNL A   1      42.228  22.360  27.119  1.00  0.00     0.057 A 
ATOM     81  C   UNL A   1      41.908  21.015  27.349  1.00  0.00     0.134 A 
ATOM     82  C   UNL A   1      41.304  23.066  26.340  1.00  0.00     0.134 A 
ATOM     83  F   UNL A   1      42.780  20.215  27.984  1.00  0.00    -0.206 F 
ATOM     84  C   UNL A   1      40.679  20.457  26.968  1.00  0.00     0.040 A 
ATOM     85  C   UNL A   1      40.040  22.551  26.015  1.00  0.00     0.040 A 
ATOM     86  F   UNL A   1      41.585  24.286  25.876  1.00  0.00    -0.206 F 
ATOM     87  C   UNL A   1      39.709  21.250  26.365  1.00  0.00     0.006 A 
ENDBRANCH  59  80
BRANCH  71  88
ATOM     88  C   UNL A   1      48.415  25.892  26.286  1.00  0.00     0.057 A 
ATOM     89  C   UNL A   1      50.235  25.762  26.325  1.00  0.00     0.134 A 
ATOM     90  C   UNL A   1      47.649  26.759  24.856  1.00  0.00     0.134 A 
ATOM     91  F   UNL A   1      50.874  25.417  27.451  1.00  0.00    -0.206 F 
ATOM     92  C   UNL A   1      51.265  26.409  24.972  1.00  0.00     0.040 A 
ATOM     93  C   UNL A   1      48.659  27.265  23.407  1.00  0.00     0.040 A 
ATOM     94  F   UNL A   1      46.350  27.069  24.806  1.00  0.00    -0.206 F 
ATOM     95  C   UNL A   1      50.461  27.090  23.471  1.00  0.00     0.006 A 
ENDBRANCH  71  88
ENDBRANCH  45  46
ENDBRANCH  38  40
ENDBRANCH  37  38
ENDBRANCH  36  37
ENDBRANCH   1  36
TORSDOF 18
ENDMDL
MODEL 3
REMARK VINA RESULT:     -12.7      4.094      8.089
REMARK SMILES Cc1ccc(C(c2ccccc2)(c2ccccc2)n2cnc(C[C@H]([NH3+])C(=O)OCCOC(=O)c3ccc(-c4c5nc(c(-c6c(F)cccc6F)c6ccc([nH]6)c(-c6c(F)cccc6F)c6nc(c(-c7c(F)cccc7F)c7ccc4[nH]7)C=C6)C=C5)cc3)c2)cc1
REMARK SMILES IDX 29 1 28 2 26 3 27 4 24 5 23 6 22 7 19 8 20 9 88 10 21 11
REMARK SMILES IDX 6 12 5 13 1 14 2 15 3 16 90 17 4 18 89 19 7 20 8 21 12 22
REMARK SMILES IDX 9 23 11 24 10 25 13 26 14 27 18 28 15 29 17 30 16 31 25 32
REMARK SMILES IDX 30 36 31 37 32 38 33 39 34 40 35 41 87 42 36 43 86 44 37 45
REMARK SMILES IDX 38 46 39 47 80 48 40 49 85 50 79 51 81 52 41 53 84 54 78 55
REMARK SMILES IDX 77 56 42 58 68 59 51 60 67 61 52 62 55 63 66 64 82 65 53 66
REMARK SMILES IDX 54 67 65 69 83 70 56 71 43 72 44 73 49 74 45 75 46 76 48 77
REMARK SMILES IDX 50 78 47 79 69 80 70 81 75 82 71 83 72 84 74 85 76 86 73 87
REMARK SMILES IDX 57 88 58 89 63 90 59 91 60 92 62 93 64 94 61 95
REMARK H PARENT 25 33 25 34 25 35 81 57 55 68
REMARK Flexibility Score: inf
ROOT
ATOM      1  C   UNL A   1      38.829  20.408  26.017  1.00  0.00     0.274 C 
ENDROOT
BRANCH   1   2
ATOM      2  O   UNL A   1      38.244  21.000  24.860  1.00  0.00    -0.458 OA
BRANCH   2   3
ATOM      3  C   UNL A   1      37.203  21.810  25.165  1.00  0.00     0.365 C 
ATOM      4  O   UNL A   1      37.405  22.854  25.791  1.00  0.00    -0.245 OA
BRANCH   3   5
ATOM      5  C   UNL A   1      35.726  21.481  24.551  1.00  0.00     0.297 C 
BRANCH   5   6
ATOM      6  C   UNL A   1      35.504  22.904  23.358  1.00  0.00     0.135 C 
BRANCH   6   7
ATOM      7  C   UNL A   1      34.593  24.163  23.446  1.00  0.00     0.065 A 
ATOM      8  N   UNL A   1      33.092  25.728  24.105  1.00  0.00    -0.319 N 
ATOM      9  C   UNL A   1      32.891  25.350  22.809  1.00  0.00     0.201 A 
ATOM     10  C   UNL A   1      34.260  25.041  24.487  1.00  0.00     0.112 A 
ATOM     11  N   UNL A   1      33.690  24.379  22.459  1.00  0.00    -0.241 NA
BRANCH   8  12
ATOM     12  C   UNL A   1      31.989  26.416  24.912  1.00  0.00     0.121 C 
BRANCH  12  13
ATOM     13  C   UNL A   1      31.039  27.276  23.947  1.00  0.00    -0.013 A 
ATOM     14  C   UNL A   1      27.777  30.827  21.987  1.00  0.00     0.044 C 
ATOM     15  C   UNL A   1      29.138  29.216  22.420  1.00  0.00    -0.051 A 
ATOM     16  C   UNL A   1      28.846  27.841  22.993  1.00  0.00     0.004 A 
ATOM     17  C   UNL A   1      30.632  29.152  22.354  1.00  0.00     0.004 A 
ATOM     18  C   UNL A   1      29.696  26.998  23.771  1.00  0.00     0.007 A 
ATOM     19  C   UNL A   1      31.504  28.235  23.044  1.00  0.00     0.007 A 
ENDBRANCH  12  13
BRANCH  12  20
ATOM     20  C   UNL A   1      31.162  25.185  25.562  1.00  0.00    -0.013 A 
ATOM     21  C   UNL A   1      29.945  25.390  26.246  1.00  0.00     0.007 A 
ATOM     22  C   UNL A   1      31.688  23.874  25.700  1.00  0.00     0.007 A 
ATOM     23  C   UNL A   1      29.263  24.360  26.918  1.00  0.00     0.000 A 
ATOM     24  C   UNL A   1      31.014  22.837  26.366  1.00  0.00     0.000 A 
ATOM     25  C   UNL A   1      29.794  23.080  26.971  1.00  0.00     0.000 A 
ENDBRANCH  12  20
BRANCH  12  26
ATOM     26  C   UNL A   1      32.666  27.422  25.932  1.00  0.00    -0.013 A 
ATOM     27  C   UNL A   1      31.880  28.239  26.784  1.00  0.00     0.007 A 
ATOM     28  C   UNL A   1      34.047  27.687  25.957  1.00  0.00     0.007 A 
ATOM     29  C   UNL A   1      32.419  29.289  27.534  1.00  0.00     0.000 A 
ATOM     30  C   UNL A   1      34.589  28.754  26.689  1.00  0.00     0.000 A 
ATOM     31  C   UNL A   1      33.773  29.565  27.463  1.00  0.00     0.000 A 
ENDBRANCH  12  26
ENDBRANCH   8  12
ENDBRANCH   6   7
ENDBRANCH   5   6
BRANCH   5  32
ATOM     32  N   UNL A   1      34.399  19.970  25.092  1.00  0.00    -0.346 N 
ATOM     33  H   UNL A   1      34.558  19.710  26.066  1.00  0.00     0.345 HD
ATOM     34  H   UNL A   1      34.549  19.156  24.495  1.00  0.00     0.345 HD
ATOM     35  H   UNL A   1      33.441  20.302  24.981  1.00  0.00     0.345 HD
ENDBRANCH   5  32
ENDBRANCH   3   5
ENDBRANCH   2   3
ENDBRANCH   1   2
BRANCH   1  36
ATOM     36  C   UNL A   1      40.077  19.510  25.734  1.00  0.00     0.275 C 
BRANCH  36  37
ATOM     37  O   UNL A   1      41.433  19.902  26.218  1.00  0.00    -0.458 OA
BRANCH  37  38
ATOM     38  C   UNL A   1      42.089  21.035  26.662  1.00  0.00     0.338 C 
ATOM     39  O   UNL A   1      42.688  21.031  27.731  1.00  0.00    -0.246 OA
BRANCH  38  40
ATOM     40  C   UNL A   1      41.884  22.363  25.991  1.00  0.00     0.060 A 
ATOM     41  C   UNL A   1      43.201  23.165  24.937  1.00  0.00     0.016 A 
ATOM     42  C   UNL A   1      40.747  23.375  26.928  1.00  0.00     0.016 A 
ATOM     43  C   UNL A   1      43.405  25.016  25.031  1.00  0.00     0.010 A 
ATOM     44  C   UNL A   1      41.005  25.129  27.095  1.00  0.00     0.010 A 
ATOM     45  C   UNL A   1      42.373  25.959  26.255  1.00  0.00    -0.014 A 
BRANCH  45  46
ATOM     46  C   UNL A   1      42.572  27.179  27.040  1.00  0.00     0.031 A 
ATOM     47  C   UNL A   1      41.486  28.113  27.323  1.00  0.00     0.074 A 
ATOM     48  C   UNL A   1      43.715  27.297  27.798  1.00  0.00     0.049 A 
ATOM     49  N   UNL A   1      41.692  29.276  27.851  1.00  0.00    -0.248 NA
ATOM     50  C   UNL A   1      40.081  27.851  27.029  1.00  0.00     0.031 C 
ATOM     51  C   UNL A   1      43.816  27.949  29.091  1.00  0.00     0.029 A 
ATOM     52  N   UNL A   1      45.063  26.882  27.575  1.00  0.00    -0.354 N 
ATOM     53  C   UNL A   1      40.496  29.626  28.410  1.00  0.00     0.074 A 
ATOM     54  C   UNL A   1      39.521  28.923  27.609  1.00  0.00     0.031 C 
ATOM     55  C   UNL A   1      45.103  28.175  29.377  1.00  0.00     0.029 A 
ATOM     56  C   UNL A   1      45.916  27.791  28.239  1.00  0.00     0.049 A 
ATOM     57  H   UNL A   1      45.347  26.100  27.049  1.00  0.00     0.167 HD
ATOM     58  C   UNL A   1      40.485  30.232  29.634  1.00  0.00     0.037 A 
ATOM     59  C   UNL A   1      47.010  28.454  27.742  1.00  0.00     0.037 A 
ATOM     60  C   UNL A   1      41.833  30.577  30.150  1.00  0.00     0.049 A 
ATOM     61  C   UNL A   1      46.961  29.937  28.081  1.00  0.00     0.074 A 
ATOM     62  C   UNL A   1      42.526  30.384  31.338  1.00  0.00     0.029 A 
ATOM     63  N   UNL A   1      42.778  31.135  29.299  1.00  0.00    -0.354 N 
ATOM     64  N   UNL A   1      46.243  30.450  29.046  1.00  0.00    -0.248 NA
ATOM     65  C   UNL A   1      47.556  30.987  27.251  1.00  0.00     0.031 C 
ATOM     66  C   UNL A   1      43.821  30.988  31.219  1.00  0.00     0.029 A 
ATOM     67  C   UNL A   1      43.911  31.564  29.968  1.00  0.00     0.049 A 
ATOM     68  H   UNL A   1      42.656  31.218  28.326  1.00  0.00     0.167 HD
ATOM     69  C   UNL A   1      45.964  31.759  28.740  1.00  0.00     0.074 A 
ATOM     70  C   UNL A   1      46.903  32.079  27.682  1.00  0.00     0.031 C 
ATOM     71  C   UNL A   1      44.855  32.394  29.228  1.00  0.00     0.037 A 
BRANCH  58  72
ATOM     72  C   UNL A   1      39.234  30.421  30.474  1.00  0.00     0.057 A 
ATOM     73  C   UNL A   1      38.827  29.406  31.362  1.00  0.00     0.134 A 
ATOM     74  C   UNL A   1      38.365  31.532  30.440  1.00  0.00     0.134 A 
ATOM     75  F   UNL A   1      39.533  28.277  31.510  1.00  0.00    -0.206 F 
ATOM     76  C   UNL A   1      37.670  29.495  32.149  1.00  0.00     0.040 A 
ATOM     77  C   UNL A   1      37.249  31.666  31.278  1.00  0.00     0.040 A 
ATOM     78  F   UNL A   1      38.496  32.527  29.557  1.00  0.00    -0.206 F 
ATOM     79  C   UNL A   1      36.889  30.638  32.129  1.00  0.00     0.006 A 
ENDBRANCH  58  72
BRANCH  59  80
ATOM     80  C   UNL A   1      47.753  27.842  26.592  1.00  0.00     0.057 A 
ATOM     81  C   UNL A   1      48.960  27.177  26.848  1.00  0.00     0.134 A 
ATOM     82  C   UNL A   1      47.269  27.713  25.285  1.00  0.00     0.134 A 
ATOM     83  F   UNL A   1      49.574  27.330  28.033  1.00  0.00    -0.206 F 
ATOM     84  C   UNL A   1      49.557  26.315  25.918  1.00  0.00     0.040 A 
ATOM     85  C   UNL A   1      47.808  26.800  24.367  1.00  0.00     0.040 A 
ATOM     86  F   UNL A   1      46.249  28.458  24.853  1.00  0.00    -0.206 F 
ATOM     87  C   UNL A   1      48.938  26.065  24.699  1.00  0.00     0.006 A 
ENDBRANCH  59  80
BRANCH  71  88
ATOM     88  C   UNL A   1      44.383  33.771  28.816  1.00  0.00     0.057 A 
ATOM     89  C   UNL A   1      43.679  34.151  27.175  1.00  0.00     0.134 A 
ATOM     90  C   UNL A   1      44.373  35.106  30.082  1.00  0.00     0.134 A 
ATOM     91  F   UNL A   1      43.912  33.350  26.127  1.00  0.00    -0.206 F 
ATOM     92  C   UNL A   1      42.935  35.771  26.810  1.00  0.00     0.040 A 
ATOM     93  C   UNL A   1      43.477  36.683  29.785  1.00  0.00     0.040 A 
ATOM     94  F   UNL A   1      45.014  35.003  31.250  1.00  0.00    -0.206 F 
ATOM     95  C   UNL A   1      42.764  37.009  28.151  1.00  0.00     0.006 A 
ENDBRANCH  71  88
ENDBRANCH  45  46
ENDBRANCH  38  40
ENDBRANCH  37  38
ENDBRANCH  36  37
ENDBRANCH   1  36
TORSDOF 18
ENDMDL
