MODEL 1
REMARK VINA RESULT:     -10.9      0.000      0.000
REMARK SMILES CC[C@H]1SC[C@H](C(=O)OCCOC(=O)c2ccc(-c3c4nc(c(-c5c(F)cccc5F)c5ccc([nH]5)c(-c5c(F)cccc5F)c5nc(c(-c6c(F)cccc6F)c6ccc3[nH]6)C=C5)C=C4)cc2)N1C(=O)N1C[C@@H](C)[C@@H](C)C1
REMARK SMILES IDX 10 1 9 2 7 3 8 4 6 5 3 6 4 7 69 8 5 9 2 10 1 11 70 12 71 13
REMARK SMILES IDX 72 14 73 15 78 16 74 17 76 18 75 19 77 20 11 21 12 22 13 23
REMARK SMILES IDX 14 24 15 25 16 26 68 27 17 28 67 29 18 30 19 31 20 32 61 33
REMARK SMILES IDX 21 34 66 35 60 36 62 37 22 38 65 39 59 40 58 41 23 43 49 44
REMARK SMILES IDX 32 45 48 46 33 47 36 48 47 49 63 50 34 51 35 52 46 54 64 55
REMARK SMILES IDX 37 56 24 57 25 58 30 59 26 60 27 61 29 62 31 63 28 64 50 65
REMARK SMILES IDX 51 66 56 67 52 68 53 69 55 70 57 71 54 72 38 73 39 74 44 75
REMARK SMILES IDX 40 76 41 77 43 78 45 79 42 80
REMARK H PARENT 62 42 36 53
REMARK Flexibility Score: inf
ROOT
ATOM      1  C   UNL A   1      36.665  22.608  23.696  1.00  0.00     0.274 C 
ENDROOT
BRANCH   1   2
ATOM      2  O   UNL A   1      35.653  23.527  24.157  1.00  0.00    -0.461 OA
BRANCH   2   3
ATOM      3  C   UNL A   1      34.534  23.592  23.385  1.00  0.00     0.329 C 
ATOM      4  O   UNL A   1      34.512  23.345  22.182  1.00  0.00    -0.250 OA
BRANCH   3   5
ATOM      5  C   UNL A   1      33.244  23.822  24.182  1.00  0.00     0.208 C 
ATOM      6  C   UNL A   1      31.081  22.952  24.847  1.00  0.00     0.145 C 
ATOM      7  S   UNL A   1      30.639  24.055  23.477  1.00  0.00    -0.134 SA
ATOM      8  N   UNL A   1      32.481  22.642  24.598  1.00  0.00    -0.298 N 
ATOM      9  C   UNL A   1      32.320  24.720  23.348  1.00  0.00     0.109 C 
BRANCH   6  10
ATOM     10  C   UNL A   1      30.833  23.734  26.160  1.00  0.00     0.033 C 
ATOM     11  C   UNL A   1      29.845  23.068  27.107  1.00  0.00     0.007 C 
ENDBRANCH   6  10
BRANCH   8  12
ATOM     12  C   UNL A   1      33.142  21.676  25.320  1.00  0.00     0.321 C 
ATOM     13  O   UNL A   1      33.606  21.930  26.432  1.00  0.00    -0.248 OA
BRANCH  12  14
ATOM     14  N   UNL A   1      33.247  20.431  24.752  1.00  0.00    -0.324 N 
ATOM     15  C   UNL A   1      32.845  20.223  23.372  1.00  0.00     0.125 C 
ATOM     16  C   UNL A   1      33.203  19.179  25.505  1.00  0.00     0.125 C 
ATOM     17  C   UNL A   1      32.226  18.828  23.349  1.00  0.00     0.010 C 
ATOM     18  C   UNL A   1      32.995  18.080  24.455  1.00  0.00     0.010 C 
ATOM     19  C   UNL A   1      32.254  18.204  21.965  1.00  0.00     0.010 C 
ATOM     20  C   UNL A   1      34.326  17.472  24.015  1.00  0.00     0.010 C 
ENDBRANCH  12  14
ENDBRANCH   8  12
ENDBRANCH   3   5
ENDBRANCH   2   3
ENDBRANCH   1   2
BRANCH   1  21
ATOM     21  C   UNL A   1      36.813  21.369  24.591  1.00  0.00     0.275 C 
BRANCH  21  22
ATOM     22  O   UNL A   1      37.349  21.702  25.887  1.00  0.00    -0.458 OA
BRANCH  22  23
ATOM     23  C   UNL A   1      38.670  21.469  26.048  1.00  0.00     0.338 C 
ATOM     24  O   UNL A   1      39.297  20.484  25.698  1.00  0.00    -0.246 OA
BRANCH  23  25
ATOM     25  C   UNL A   1      39.330  22.649  26.631  1.00  0.00     0.060 A 
ATOM     26  C   UNL A   1      38.917  23.913  26.204  1.00  0.00     0.016 A 
ATOM     27  C   UNL A   1      40.437  22.518  27.467  1.00  0.00     0.016 A 
ATOM     28  C   UNL A   1      39.620  25.052  26.574  1.00  0.00     0.010 A 
ATOM     29  C   UNL A   1      41.133  23.667  27.863  1.00  0.00     0.010 A 
ATOM     30  C   UNL A   1      40.740  24.937  27.401  1.00  0.00    -0.014 A 
BRANCH  30  31
ATOM     31  C   UNL A   1      41.536  26.145  27.718  1.00  0.00     0.031 A 
ATOM     32  C   UNL A   1      40.931  27.231  28.560  1.00  0.00     0.074 A 
ATOM     33  C   UNL A   1      42.810  26.245  27.295  1.00  0.00     0.049 A 
ATOM     34  N   UNL A   1      41.396  28.421  28.835  1.00  0.00    -0.248 NA
ATOM     35  C   UNL A   1      39.631  26.932  29.182  1.00  0.00     0.031 C 
ATOM     36  C   UNL A   1      43.537  25.220  26.547  1.00  0.00     0.029 A 
ATOM     37  N   UNL A   1      43.717  27.264  27.437  1.00  0.00    -0.354 N 
ATOM     38  C   UNL A   1      40.439  29.023  29.639  1.00  0.00     0.074 A 
ATOM     39  C   UNL A   1      39.362  28.071  29.805  1.00  0.00     0.031 C 
ATOM     40  C   UNL A   1      44.779  25.663  26.291  1.00  0.00     0.029 A 
ATOM     41  C   UNL A   1      44.913  27.022  26.806  1.00  0.00     0.049 A 
ATOM     42  H   UNL A   1      43.530  28.088  27.942  1.00  0.00     0.167 HD
ATOM     43  C   UNL A   1      40.460  30.261  30.188  1.00  0.00     0.037 A 
ATOM     44  C   UNL A   1      45.978  27.825  26.628  1.00  0.00     0.037 A 
ATOM     45  C   UNL A   1      41.539  31.199  30.029  1.00  0.00     0.049 A 
ATOM     46  C   UNL A   1      45.942  29.223  27.180  1.00  0.00     0.074 A 
ATOM     47  C   UNL A   1      41.634  32.498  30.498  1.00  0.00     0.029 A 
ATOM     48  N   UNL A   1      42.721  30.928  29.358  1.00  0.00    -0.354 N 
ATOM     49  N   UNL A   1      45.001  29.813  27.875  1.00  0.00    -0.248 NA
ATOM     50  C   UNL A   1      47.111  30.072  26.909  1.00  0.00     0.031 C 
ATOM     51  C   UNL A   1      42.868  33.019  30.095  1.00  0.00     0.029 A 
ATOM     52  C   UNL A   1      43.552  32.034  29.401  1.00  0.00     0.049 A 
ATOM     53  H   UNL A   1      42.938  30.075  28.915  1.00  0.00     0.167 HD
ATOM     54  C   UNL A   1      45.471  31.092  28.142  1.00  0.00     0.074 A 
ATOM     55  C   UNL A   1      46.787  31.189  27.546  1.00  0.00     0.031 C 
ATOM     56  C   UNL A   1      44.866  32.099  28.818  1.00  0.00     0.037 A 
BRANCH  43  57
ATOM     57  C   UNL A   1      39.266  30.680  30.991  1.00  0.00     0.057 A 
ATOM     58  C   UNL A   1      38.172  31.322  30.402  1.00  0.00     0.134 A 
ATOM     59  C   UNL A   1      39.196  30.403  32.362  1.00  0.00     0.134 A 
ATOM     60  F   UNL A   1      38.186  31.630  29.096  1.00  0.00    -0.206 F 
ATOM     61  C   UNL A   1      37.052  31.687  31.151  1.00  0.00     0.040 A 
ATOM     62  C   UNL A   1      38.075  30.746  33.118  1.00  0.00     0.040 A 
ATOM     63  F   UNL A   1      40.213  29.788  32.985  1.00  0.00    -0.206 F 
ATOM     64  C   UNL A   1      36.998  31.392  32.512  1.00  0.00     0.006 A 
ENDBRANCH  43  57
BRANCH  44  65
ATOM     65  C   UNL A   1      47.151  27.349  25.855  1.00  0.00     0.057 A 
ATOM     66  C   UNL A   1      48.220  26.700  26.483  1.00  0.00     0.134 A 
ATOM     67  C   UNL A   1      47.243  27.558  24.473  1.00  0.00     0.134 A 
ATOM     68  F   UNL A   1      48.200  26.495  27.808  1.00  0.00    -0.206 F 
ATOM     69  C   UNL A   1      49.347  26.293  25.768  1.00  0.00     0.040 A 
ATOM     70  C   UNL A   1      48.353  27.134  23.742  1.00  0.00     0.040 A 
ATOM     71  F   UNL A   1      46.251  28.176  23.814  1.00  0.00    -0.206 F 
ATOM     72  C   UNL A   1      49.413  26.506  24.391  1.00  0.00     0.006 A 
ENDBRANCH  44  65
BRANCH  56  73
ATOM     73  C   UNL A   1      45.641  33.369  28.984  1.00  0.00     0.057 A 
ATOM     74  C   UNL A   1      46.511  33.564  30.062  1.00  0.00     0.134 A 
ATOM     75  C   UNL A   1      45.540  34.391  28.033  1.00  0.00     0.134 A 
ATOM     76  F   UNL A   1      46.639  32.625  31.012  1.00  0.00    -0.206 F 
ATOM     77  C   UNL A   1      47.245  34.744  30.198  1.00  0.00     0.040 A 
ATOM     78  C   UNL A   1      46.283  35.567  28.148  1.00  0.00     0.040 A 
ATOM     79  F   UNL A   1      44.727  34.260  26.974  1.00  0.00    -0.206 F 
ATOM     80  C   UNL A   1      47.135  35.746  29.236  1.00  0.00     0.006 A 
ENDBRANCH  56  73
ENDBRANCH  30  31
ENDBRANCH  23  25
ENDBRANCH  22  23
ENDBRANCH  21  22
ENDBRANCH   1  21
TORSDOF 14
ENDMDL
MODEL 2
REMARK VINA RESULT:     -10.7      2.282      6.451
REMARK SMILES CC[C@H]1SC[C@H](C(=O)OCCOC(=O)c2ccc(-c3c4nc(c(-c5c(F)cccc5F)c5ccc([nH]5)c(-c5c(F)cccc5F)c5nc(c(-c6c(F)cccc6F)c6ccc3[nH]6)C=C5)C=C4)cc2)N1C(=O)N1C[C@@H](C)[C@@H](C)C1
REMARK SMILES IDX 10 1 9 2 7 3 8 4 6 5 3 6 4 7 69 8 5 9 2 10 1 11 70 12 71 13
REMARK SMILES IDX 72 14 73 15 78 16 74 17 76 18 75 19 77 20 11 21 12 22 13 23
REMARK SMILES IDX 14 24 15 25 16 26 68 27 17 28 67 29 18 30 19 31 20 32 61 33
REMARK SMILES IDX 21 34 66 35 60 36 62 37 22 38 65 39 59 40 58 41 23 43 49 44
REMARK SMILES IDX 32 45 48 46 33 47 36 48 47 49 63 50 34 51 35 52 46 54 64 55
REMARK SMILES IDX 37 56 24 57 25 58 30 59 26 60 27 61 29 62 31 63 28 64 50 65
REMARK SMILES IDX 51 66 56 67 52 68 53 69 55 70 57 71 54 72 38 73 39 74 44 75
REMARK SMILES IDX 40 76 41 77 43 78 45 79 42 80
REMARK H PARENT 62 42 36 53
REMARK Flexibility Score: inf
ROOT
ATOM      1  C   UNL A   1      38.144  21.529  25.408  1.00  0.00     0.274 C 
ENDROOT
BRANCH   1   2
ATOM      2  O   UNL A   1      36.746  21.603  25.057  1.00  0.00    -0.461 OA
BRANCH   2   3
ATOM      3  C   UNL A   1      36.055  22.619  25.641  1.00  0.00     0.329 C 
ATOM      4  O   UNL A   1      36.542  23.411  26.443  1.00  0.00    -0.250 OA
BRANCH   3   5
ATOM      5  C   UNL A   1      34.645  22.816  25.070  1.00  0.00     0.208 C 
ATOM      6  C   UNL A   1      32.880  21.937  23.658  1.00  0.00     0.145 C 
ATOM      7  S   UNL A   1      33.685  23.130  22.556  1.00  0.00    -0.134 SA
ATOM      8  N   UNL A   1      33.913  21.623  24.634  1.00  0.00    -0.298 N 
ATOM      9  C   UNL A   1      34.743  23.779  23.877  1.00  0.00     0.109 C 
BRANCH   6  10
ATOM     10  C   UNL A   1      31.638  22.637  24.260  1.00  0.00     0.033 C 
ATOM     11  C   UNL A   1      30.994  23.666  23.340  1.00  0.00     0.007 C 
ENDBRANCH   6  10
BRANCH   8  12
ATOM     12  C   UNL A   1      33.756  20.604  25.544  1.00  0.00     0.321 C 
ATOM     13  O   UNL A   1      33.610  20.848  26.742  1.00  0.00    -0.248 OA
BRANCH  12  14
ATOM     14  N   UNL A   1      33.758  19.321  25.055  1.00  0.00    -0.324 N 
ATOM     15  C   UNL A   1      32.748  18.374  25.493  1.00  0.00     0.125 C 
ATOM     16  C   UNL A   1      34.949  18.630  24.568  1.00  0.00     0.125 C 
ATOM     17  C   UNL A   1      33.473  17.033  25.566  1.00  0.00     0.010 C 
ATOM     18  C   UNL A   1      34.551  17.152  24.471  1.00  0.00     0.010 C 
ATOM     19  C   UNL A   1      32.524  15.853  25.456  1.00  0.00     0.010 C 
ATOM     20  C   UNL A   1      34.078  16.794  23.062  1.00  0.00     0.010 C 
ENDBRANCH  12  14
ENDBRANCH   8  12
ENDBRANCH   3   5
ENDBRANCH   2   3
ENDBRANCH   1   2
BRANCH   1  21
ATOM     21  C   UNL A   1      38.773  20.160  25.115  1.00  0.00     0.275 C 
BRANCH  21  22
ATOM     22  O   UNL A   1      39.519  19.657  26.241  1.00  0.00    -0.458 OA
BRANCH  22  23
ATOM     23  C   UNL A   1      40.861  19.639  26.089  1.00  0.00     0.338 C 
ATOM     24  O   UNL A   1      41.535  18.773  25.558  1.00  0.00    -0.246 OA
BRANCH  23  25
ATOM     25  C   UNL A   1      41.448  20.902  26.566  1.00  0.00     0.060 A 
ATOM     26  C   UNL A   1      41.212  21.279  27.890  1.00  0.00     0.016 A 
ATOM     27  C   UNL A   1      42.089  21.776  25.691  1.00  0.00     0.016 A 
ATOM     28  C   UNL A   1      41.578  22.538  28.345  1.00  0.00     0.010 A 
ATOM     29  C   UNL A   1      42.483  23.038  26.154  1.00  0.00     0.010 A 
ATOM     30  C   UNL A   1      42.210  23.433  27.478  1.00  0.00    -0.014 A 
BRANCH  30  31
ATOM     31  C   UNL A   1      42.517  24.804  27.945  1.00  0.00     0.031 A 
ATOM     32  C   UNL A   1      43.938  25.185  28.241  1.00  0.00     0.074 A 
ATOM     33  C   UNL A   1      41.534  25.717  28.054  1.00  0.00     0.049 A 
ATOM     34  N   UNL A   1      44.405  26.276  28.790  1.00  0.00    -0.248 NA
ATOM     35  C   UNL A   1      44.973  24.209  27.861  1.00  0.00     0.031 C 
ATOM     36  C   UNL A   1      40.129  25.494  27.710  1.00  0.00     0.029 A 
ATOM     37  N   UNL A   1      41.571  27.018  28.487  1.00  0.00    -0.354 N 
ATOM     38  C   UNL A   1      45.782  26.110  28.846  1.00  0.00     0.074 A 
ATOM     39  C   UNL A   1      46.078  24.811  28.280  1.00  0.00     0.031 C 
ATOM     40  C   UNL A   1      39.436  26.619  27.949  1.00  0.00     0.029 A 
ATOM     41  C   UNL A   1      40.336  27.619  28.517  1.00  0.00     0.049 A 
ATOM     42  H   UNL A   1      42.401  27.475  28.751  1.00  0.00     0.167 HD
ATOM     43  C   UNL A   1      46.714  26.967  29.327  1.00  0.00     0.037 A 
ATOM     44  C   UNL A   1      39.969  28.824  28.988  1.00  0.00     0.037 A 
ATOM     45  C   UNL A   1      46.415  28.262  29.877  1.00  0.00     0.049 A 
ATOM     46  C   UNL A   1      41.012  29.724  29.590  1.00  0.00     0.074 A 
ATOM     47  C   UNL A   1      47.280  29.184  30.441  1.00  0.00     0.029 A 
ATOM     48  N   UNL A   1      45.149  28.824  29.917  1.00  0.00    -0.354 N 
ATOM     49  N   UNL A   1      42.302  29.529  29.710  1.00  0.00    -0.248 NA
ATOM     50  C   UNL A   1      40.544  31.006  30.138  1.00  0.00     0.031 C 
ATOM     51  C   UNL A   1      46.532  30.298  30.838  1.00  0.00     0.029 A 
ATOM     52  C   UNL A   1      45.208  30.080  30.494  1.00  0.00     0.049 A 
ATOM     53  H   UNL A   1      44.328  28.393  29.584  1.00  0.00     0.167 HD
ATOM     54  C   UNL A   1      42.804  30.669  30.324  1.00  0.00     0.074 A 
ATOM     55  C   UNL A   1      41.681  31.556  30.543  1.00  0.00     0.031 C 
ATOM     56  C   UNL A   1      44.080  30.954  30.681  1.00  0.00     0.037 A 
BRANCH  43  57
ATOM     57  C   UNL A   1      48.143  26.517  29.302  1.00  0.00     0.057 A 
ATOM     58  C   UNL A   1      48.702  25.785  30.355  1.00  0.00     0.134 A 
ATOM     59  C   UNL A   1      48.957  26.789  28.195  1.00  0.00     0.134 A 
ATOM     60  F   UNL A   1      47.978  25.508  31.450  1.00  0.00    -0.206 F 
ATOM     61  C   UNL A   1      50.027  25.347  30.314  1.00  0.00     0.040 A 
ATOM     62  C   UNL A   1      50.277  26.342  28.134  1.00  0.00     0.040 A 
ATOM     63  F   UNL A   1      48.478  27.486  27.153  1.00  0.00    -0.206 F 
ATOM     64  C   UNL A   1      50.816  25.619  29.197  1.00  0.00     0.006 A 
ENDBRANCH  43  57
BRANCH  44  65
ATOM     65  C   UNL A   1      38.544  29.236  28.957  1.00  0.00     0.057 A 
ATOM     66  C   UNL A   1      37.724  29.098  30.082  1.00  0.00     0.134 A 
ATOM     67  C   UNL A   1      37.962  29.750  27.791  1.00  0.00     0.134 A 
ATOM     68  F   UNL A   1      38.219  28.588  31.219  1.00  0.00    -0.206 F 
ATOM     69  C   UNL A   1      36.372  29.439  30.045  1.00  0.00     0.040 A 
ATOM     70  C   UNL A   1      36.617  30.119  27.747  1.00  0.00     0.040 A 
ATOM     71  F   UNL A   1      38.696  29.904  26.679  1.00  0.00    -0.206 F 
ATOM     72  C   UNL A   1      35.816  29.956  28.874  1.00  0.00     0.006 A 
ENDBRANCH  44  65
BRANCH  56  73
ATOM     73  C   UNL A   1      44.330  32.294  31.300  1.00  0.00     0.057 A 
ATOM     74  C   UNL A   1      44.314  32.479  32.686  1.00  0.00     0.134 A 
ATOM     75  C   UNL A   1      44.623  33.402  30.496  1.00  0.00     0.134 A 
ATOM     76  F   UNL A   1      44.025  31.457  33.506  1.00  0.00    -0.206 F 
ATOM     77  C   UNL A   1      44.566  33.729  33.255  1.00  0.00     0.040 A 
ATOM     78  C   UNL A   1      44.897  34.652  31.054  1.00  0.00     0.040 A 
ATOM     79  F   UNL A   1      44.659  33.286  29.160  1.00  0.00    -0.206 F 
ATOM     80  C   UNL A   1      44.864  34.817  32.437  1.00  0.00     0.006 A 
ENDBRANCH  56  73
ENDBRANCH  30  31
ENDBRANCH  23  25
ENDBRANCH  22  23
ENDBRANCH  21  22
ENDBRANCH   1  21
TORSDOF 14
ENDMDL
MODEL 3
REMARK VINA RESULT:     -10.6      4.387      9.120
REMARK SMILES CC[C@H]1SC[C@H](C(=O)OCCOC(=O)c2ccc(-c3c4nc(c(-c5c(F)cccc5F)c5ccc([nH]5)c(-c5c(F)cccc5F)c5nc(c(-c6c(F)cccc6F)c6ccc3[nH]6)C=C5)C=C4)cc2)N1C(=O)N1C[C@@H](C)[C@@H](C)C1
REMARK SMILES IDX 10 1 9 2 7 3 8 4 6 5 3 6 4 7 69 8 5 9 2 10 1 11 70 12 71 13
REMARK SMILES IDX 72 14 73 15 78 16 74 17 76 18 75 19 77 20 11 21 12 22 13 23
REMARK SMILES IDX 14 24 15 25 16 26 68 27 17 28 67 29 18 30 19 31 20 32 61 33
REMARK SMILES IDX 21 34 66 35 60 36 62 37 22 38 65 39 59 40 58 41 23 43 49 44
REMARK SMILES IDX 32 45 48 46 33 47 36 48 47 49 63 50 34 51 35 52 46 54 64 55
REMARK SMILES IDX 37 56 24 57 25 58 30 59 26 60 27 61 29 62 31 63 28 64 50 65
REMARK SMILES IDX 51 66 56 67 52 68 53 69 55 70 57 71 54 72 38 73 39 74 44 75
REMARK SMILES IDX 40 76 41 77 43 78 45 79 42 80
REMARK H PARENT 62 42 36 53
REMARK Flexibility Score: inf
ROOT
ATOM      1  C   UNL A   1      32.765  29.703  24.774  1.00  0.00     0.274 C 
ENDROOT
BRANCH   1   2
ATOM      2  O   UNL A   1      33.783  28.684  24.687  1.00  0.00    -0.461 OA
BRANCH   2   3
ATOM      3  C   UNL A   1      33.859  28.040  23.490  1.00  0.00     0.329 C 
ATOM      4  O   UNL A   1      34.374  28.518  22.483  1.00  0.00    -0.250 OA
BRANCH   3   5
ATOM      5  C   UNL A   1      33.409  26.575  23.546  1.00  0.00     0.208 C 
ATOM      6  C   UNL A   1      31.635  25.010  24.078  1.00  0.00     0.145 C 
ATOM      7  S   UNL A   1      32.663  24.937  25.570  1.00  0.00    -0.134 SA
ATOM      8  N   UNL A   1      31.970  26.301  23.496  1.00  0.00    -0.298 N 
ATOM      9  C   UNL A   1      33.970  25.952  24.833  1.00  0.00     0.109 C 
BRANCH   6  10
ATOM     10  C   UNL A   1      32.026  23.801  23.194  1.00  0.00     0.033 C 
ATOM     11  C   UNL A   1      31.771  22.446  23.840  1.00  0.00     0.007 C 
ENDBRANCH   6  10
BRANCH   8  12
ATOM     12  C   UNL A   1      31.259  26.819  22.439  1.00  0.00     0.321 C 
ATOM     13  O   UNL A   1      31.398  26.364  21.304  1.00  0.00    -0.248 OA
BRANCH  12  14
ATOM     14  N   UNL A   1      30.389  27.846  22.712  1.00  0.00    -0.324 N 
ATOM     15  C   UNL A   1      29.089  27.565  23.295  1.00  0.00     0.125 C 
ATOM     16  C   UNL A   1      30.381  29.124  22.004  1.00  0.00     0.125 C 
ATOM     17  C   UNL A   1      28.144  28.576  22.653  1.00  0.00     0.010 C 
ATOM     18  C   UNL A   1      29.052  29.791  22.385  1.00  0.00     0.010 C 
ATOM     19  C   UNL A   1      26.906  28.830  23.496  1.00  0.00     0.010 C 
ATOM     20  C   UNL A   1      29.225  30.740  23.571  1.00  0.00     0.010 C 
ENDBRANCH  12  14
ENDBRANCH   8  12
ENDBRANCH   3   5
ENDBRANCH   2   3
ENDBRANCH   1   2
BRANCH   1  21
ATOM     21  C   UNL A   1      31.758  29.461  25.906  1.00  0.00     0.275 C 
BRANCH  21  22
ATOM     22  O   UNL A   1      32.280  29.863  27.188  1.00  0.00    -0.458 OA
BRANCH  22  23
ATOM     23  C   UNL A   1      32.945  31.040  27.202  1.00  0.00     0.338 C 
ATOM     24  O   UNL A   1      32.505  32.142  26.925  1.00  0.00    -0.246 OA
BRANCH  23  25
ATOM     25  C   UNL A   1      34.309  30.850  27.720  1.00  0.00     0.060 A 
ATOM     26  C   UNL A   1      34.723  29.552  28.028  1.00  0.00     0.016 A 
ATOM     27  C   UNL A   1      35.117  31.939  28.042  1.00  0.00     0.016 A 
ATOM     28  C   UNL A   1      35.923  29.328  28.690  1.00  0.00     0.010 A 
ATOM     29  C   UNL A   1      36.340  31.714  28.686  1.00  0.00     0.010 A 
ATOM     30  C   UNL A   1      36.739  30.409  29.032  1.00  0.00    -0.014 A 
BRANCH  30  31
ATOM     31  C   UNL A   1      37.972  30.169  29.815  1.00  0.00     0.031 A 
ATOM     32  C   UNL A   1      39.071  29.332  29.228  1.00  0.00     0.074 A 
ATOM     33  C   UNL A   1      38.127  30.740  31.025  1.00  0.00     0.049 A 
ATOM     34  N   UNL A   1      40.162  28.885  29.793  1.00  0.00    -0.248 NA
ATOM     35  C   UNL A   1      38.925  28.955  27.813  1.00  0.00     0.031 C 
ATOM     36  C   UNL A   1      37.170  31.645  31.663  1.00  0.00     0.029 A 
ATOM     37  N   UNL A   1      39.151  30.640  31.932  1.00  0.00    -0.354 N 
ATOM     38  C   UNL A   1      40.821  28.154  28.814  1.00  0.00     0.074 A 
ATOM     39  C   UNL A   1      40.006  28.212  27.619  1.00  0.00     0.031 C 
ATOM     40  C   UNL A   1      37.650  32.014  32.861  1.00  0.00     0.029 A 
ATOM     41  C   UNL A   1      38.917  31.327  33.098  1.00  0.00     0.049 A 
ATOM     42  H   UNL A   1      39.973  30.126  31.764  1.00  0.00     0.167 HD
ATOM     43  C   UNL A   1      42.000  27.495  28.907  1.00  0.00     0.037 A 
ATOM     44  C   UNL A   1      39.625  31.364  34.241  1.00  0.00     0.037 A 
ATOM     45  C   UNL A   1      42.811  27.451  30.093  1.00  0.00     0.049 A 
ATOM     46  C   UNL A   1      40.890  30.558  34.344  1.00  0.00     0.074 A 
ATOM     47  C   UNL A   1      43.995  26.767  30.309  1.00  0.00     0.029 A 
ATOM     48  N   UNL A   1      42.526  28.136  31.264  1.00  0.00    -0.354 N 
ATOM     49  N   UNL A   1      41.468  29.807  33.439  1.00  0.00    -0.248 NA
ATOM     50  C   UNL A   1      41.594  30.593  35.635  1.00  0.00     0.031 C 
ATOM     51  C   UNL A   1      44.417  27.025  31.618  1.00  0.00     0.029 A 
ATOM     52  C   UNL A   1      43.511  27.893  32.205  1.00  0.00     0.049 A 
ATOM     53  H   UNL A   1      41.739  28.711  31.406  1.00  0.00     0.167 HD
ATOM     54  C   UNL A   1      42.611  29.298  34.041  1.00  0.00     0.074 A 
ATOM     55  C   UNL A   1      42.653  29.835  35.385  1.00  0.00     0.031 C 
ATOM     56  C   UNL A   1      43.542  28.456  33.529  1.00  0.00     0.037 A 
BRANCH  43  57
ATOM     57  C   UNL A   1      42.468  26.745  27.697  1.00  0.00     0.057 A 
ATOM     58  C   UNL A   1      42.121  25.408  27.480  1.00  0.00     0.134 A 
ATOM     59  C   UNL A   1      43.245  27.381  26.721  1.00  0.00     0.134 A 
ATOM     60  F   UNL A   1      41.392  24.738  28.387  1.00  0.00    -0.206 F 
ATOM     61  C   UNL A   1      42.539  24.722  26.338  1.00  0.00     0.040 A 
ATOM     62  C   UNL A   1      43.655  26.713  25.567  1.00  0.00     0.040 A 
ATOM     63  F   UNL A   1      43.611  28.663  26.871  1.00  0.00    -0.206 F 
ATOM     64  C   UNL A   1      43.303  25.378  25.374  1.00  0.00     0.006 A 
ENDBRANCH  43  57
BRANCH  44  65
ATOM     65  C   UNL A   1      39.135  32.151  35.399  1.00  0.00     0.057 A 
ATOM     66  C   UNL A   1      38.307  31.576  36.369  1.00  0.00     0.134 A 
ATOM     67  C   UNL A   1      39.459  33.505  35.546  1.00  0.00     0.134 A 
ATOM     68  F   UNL A   1      37.941  30.289  36.267  1.00  0.00    -0.206 F 
ATOM     69  C   UNL A   1      37.804  32.323  37.434  1.00  0.00     0.040 A 
ATOM     70  C   UNL A   1      38.984  34.258  36.620  1.00  0.00     0.040 A 
ATOM     71  F   UNL A   1      40.248  34.114  34.648  1.00  0.00    -0.206 F 
ATOM     72  C   UNL A   1      38.147  33.669  37.564  1.00  0.00     0.006 A 
ENDBRANCH  44  65
BRANCH  56  73
ATOM     73  C   UNL A   1      44.701  28.107  34.410  1.00  0.00     0.057 A 
ATOM     74  C   UNL A   1      45.859  28.891  34.448  1.00  0.00     0.134 A 
ATOM     75  C   UNL A   1      44.640  26.992  35.254  1.00  0.00     0.134 A 
ATOM     76  F   UNL A   1      45.980  29.964  33.652  1.00  0.00    -0.206 F 
ATOM     77  C   UNL A   1      46.927  28.569  35.287  1.00  0.00     0.040 A 
ATOM     78  C   UNL A   1      45.693  26.670  36.111  1.00  0.00     0.040 A 
ATOM     79  F   UNL A   1      43.553  26.204  35.267  1.00  0.00    -0.206 F 
ATOM     80  C   UNL A   1      46.842  27.459  36.125  1.00  0.00     0.006 A 
ENDBRANCH  56  73
ENDBRANCH  30  31
ENDBRANCH  23  25
ENDBRANCH  22  23
ENDBRANCH  21  22
ENDBRANCH   1  21
TORSDOF 14
ENDMDL
