MODEL 1
REMARK VINA RESULT:     -11.3      0.000      0.000
REMARK SMILES O=C(OCCOC(=O)c1cccc(NC(=S)N/N=C\c2c[nH]c3ccccc23)c1)c1ccc(-c2c3nc(c(-c4c(F)cccc4F)c4ccc([nH]4)c(-c4c(F)cccc4F)c4nc(c(-c5c(F)cccc5F)c5ccc2[nH]5)C=C4)C=C3)cc1
REMARK SMILES IDX 6 1 5 2 4 3 3 4 2 5 1 6 30 7 31 8 83 9 32 10 82 11 33 12
REMARK SMILES IDX 34 13 35 14 76 15 36 16 81 17 75 18 77 19 37 20 80 21 74 22
REMARK SMILES IDX 73 23 38 25 64 26 47 27 63 28 48 29 51 30 62 31 78 32 49 33
REMARK SMILES IDX 50 34 61 36 79 37 52 38 39 39 40 40 45 41 41 42 42 43 44 44
REMARK SMILES IDX 46 45 43 46 65 47 66 48 71 49 67 50 68 51 70 52 72 53 69 54
REMARK SMILES IDX 53 55 54 56 59 57 55 58 56 59 58 60 60 61 57 62 7 63 8 64
REMARK SMILES IDX 9 65 10 66 29 67 11 68 13 69 12 70 14 71 15 73 16 74 17 75
REMARK SMILES IDX 18 77 19 78 20 79 21 80 28 81 22 82 23 83 27 84 24 86 26 87
REMARK SMILES IDX 25 88
REMARK H PARENT 77 24 51 35 14 72 17 76 22 85
REMARK Flexibility Score: inf
ROOT
ATOM      1  O   UNL A   1      37.513  20.797  25.538  1.00  0.00    -0.458 OA
ENDROOT
BRANCH   1   2
ATOM      2  C   UNL A   1      38.592  20.021  24.998  1.00  0.00     0.275 C 
BRANCH   2   3
ATOM      3  C   UNL A   1      39.375  19.273  26.083  1.00  0.00     0.275 C 
BRANCH   3   4
ATOM      4  O   UNL A   1      40.712  18.882  25.711  1.00  0.00    -0.458 OA
BRANCH   4   5
ATOM      5  C   UNL A   1      41.899  19.312  26.205  1.00  0.00     0.338 C 
ATOM      6  O   UNL A   1      42.710  18.484  26.615  1.00  0.00    -0.246 OA
BRANCH   5   7
ATOM      7  C   UNL A   1      42.202  20.757  26.446  1.00  0.00     0.060 A 
ATOM      8  C   UNL A   1      42.393  21.721  25.456  1.00  0.00     0.016 A 
ATOM      9  C   UNL A   1      42.309  21.162  27.789  1.00  0.00     0.016 A 
ATOM     10  C   UNL A   1      42.576  23.067  25.789  1.00  0.00     0.010 A 
ATOM     11  C   UNL A   1      42.492  22.509  28.128  1.00  0.00     0.010 A 
ATOM     12  C   UNL A   1      42.605  23.476  27.125  1.00  0.00    -0.014 A 
BRANCH  12  13
ATOM     13  C   UNL A   1      42.890  24.896  27.444  1.00  0.00     0.031 A 
ATOM     14  C   UNL A   1      44.267  25.430  27.163  1.00  0.00     0.074 A 
ATOM     15  C   UNL A   1      41.912  25.722  27.870  1.00  0.00     0.049 A 
ATOM     16  N   UNL A   1      44.716  26.652  27.284  1.00  0.00    -0.248 NA
ATOM     17  C   UNL A   1      45.252  24.474  26.628  1.00  0.00     0.031 C 
ATOM     18  C   UNL A   1      40.510  25.355  28.077  1.00  0.00     0.029 A 
ATOM     19  N   UNL A   1      41.951  27.053  28.205  1.00  0.00    -0.354 N 
ATOM     20  C   UNL A   1      46.000  26.628  26.756  1.00  0.00     0.074 A 
ATOM     21  C   UNL A   1      46.301  25.255  26.418  1.00  0.00     0.031 C 
ATOM     22  C   UNL A   1      39.834  26.421  28.545  1.00  0.00     0.029 A 
ATOM     23  C   UNL A   1      40.753  27.549  28.666  1.00  0.00     0.049 A 
ATOM     24  H   UNL A   1      42.763  27.603  28.123  1.00  0.00     0.167 HD
ATOM     25  C   UNL A   1      46.828  27.669  26.512  1.00  0.00     0.037 A 
ATOM     26  C   UNL A   1      40.452  28.768  29.161  1.00  0.00     0.037 A 
ATOM     27  C   UNL A   1      46.550  29.024  26.899  1.00  0.00     0.049 A 
ATOM     28  C   UNL A   1      41.534  29.800  29.238  1.00  0.00     0.074 A 
ATOM     29  C   UNL A   1      47.317  30.158  26.702  1.00  0.00     0.029 A 
ATOM     30  N   UNL A   1      45.417  29.420  27.592  1.00  0.00    -0.354 N 
ATOM     31  N   UNL A   1      42.738  29.768  28.729  1.00  0.00    -0.248 NA
ATOM     32  C   UNL A   1      41.215  31.032  29.973  1.00  0.00     0.031 C 
ATOM     33  C   UNL A   1      46.668  31.235  27.318  1.00  0.00     0.029 A 
ATOM     34  C   UNL A   1      45.477  30.778  27.860  1.00  0.00     0.049 A 
ATOM     35  H   UNL A   1      44.679  28.825  27.855  1.00  0.00     0.167 HD
ATOM     36  C   UNL A   1      43.289  31.012  28.996  1.00  0.00     0.074 A 
ATOM     37  C   UNL A   1      42.307  31.750  29.764  1.00  0.00     0.031 C 
ATOM     38  C   UNL A   1      44.482  31.511  28.595  1.00  0.00     0.037 A 
BRANCH  25  39
ATOM     39  C   UNL A   1      48.088  27.370  25.760  1.00  0.00     0.057 A 
ATOM     40  C   UNL A   1      48.129  27.450  24.361  1.00  0.00     0.134 A 
ATOM     41  C   UNL A   1      49.264  27.006  26.424  1.00  0.00     0.134 A 
ATOM     42  F   UNL A   1      47.028  27.774  23.665  1.00  0.00    -0.206 F 
ATOM     43  C   UNL A   1      49.293  27.161  23.647  1.00  0.00     0.040 A 
ATOM     44  C   UNL A   1      50.439  26.734  25.721  1.00  0.00     0.040 A 
ATOM     45  F   UNL A   1      49.290  26.909  27.761  1.00  0.00    -0.206 F 
ATOM     46  C   UNL A   1      50.454  26.807  24.328  1.00  0.00     0.006 A 
ENDBRANCH  25  39
BRANCH  26  47
ATOM     47  C   UNL A   1      39.142  29.039  29.805  1.00  0.00     0.057 A 
ATOM     48  C   UNL A   1      38.774  28.626  31.081  1.00  0.00     0.134 A 
ATOM     49  C   UNL A   1      38.147  29.606  29.015  1.00  0.00     0.134 A 
ATOM     50  F   UNL A   1      39.642  27.954  31.850  1.00  0.00    -0.206 F 
ATOM     51  C   UNL A   1      37.470  28.818  31.556  1.00  0.00     0.040 A 
ATOM     52  C   UNL A   1      36.864  29.874  29.484  1.00  0.00     0.040 A 
ATOM     53  F   UNL A   1      38.427  29.800  27.725  1.00  0.00    -0.206 F 
ATOM     54  C   UNL A   1      36.519  29.469  30.766  1.00  0.00     0.006 A 
ENDBRANCH  26  47
BRANCH  38  55
ATOM     55  C   UNL A   1      44.711  32.967  28.849  1.00  0.00     0.057 A 
ATOM     56  C   UNL A   1      44.365  33.958  27.925  1.00  0.00     0.134 A 
ATOM     57  C   UNL A   1      45.324  33.372  30.042  1.00  0.00     0.134 A 
ATOM     58  F   UNL A   1      43.807  33.628  26.750  1.00  0.00    -0.206 F 
ATOM     59  C   UNL A   1      44.649  35.302  28.167  1.00  0.00     0.040 A 
ATOM     60  C   UNL A   1      45.586  34.714  30.308  1.00  0.00     0.040 A 
ATOM     61  F   UNL A   1      45.683  32.467  30.966  1.00  0.00    -0.206 F 
ATOM     62  C   UNL A   1      45.256  35.683  29.363  1.00  0.00     0.006 A 
ENDBRANCH  38  55
ENDBRANCH  12  13
ENDBRANCH   5   7
ENDBRANCH   4   5
ENDBRANCH   3   4
ENDBRANCH   2   3
ENDBRANCH   1   2
BRANCH   1  63
ATOM     63  C   UNL A   1      37.808  22.120  25.687  1.00  0.00     0.338 C 
ATOM     64  O   UNL A   1      38.830  22.591  26.121  1.00  0.00    -0.246 OA
BRANCH  63  65
ATOM     65  C   UNL A   1      36.754  22.929  25.035  1.00  0.00     0.062 A 
ATOM     66  C   UNL A   1      36.458  22.615  23.702  1.00  0.00     0.016 A 
ATOM     67  C   UNL A   1      36.038  23.924  25.705  1.00  0.00     0.041 A 
ATOM     68  C   UNL A   1      35.450  23.296  23.031  1.00  0.00     0.003 A 
ATOM     69  C   UNL A   1      35.045  24.624  25.013  1.00  0.00     0.041 A 
ATOM     70  C   UNL A   1      34.754  24.306  23.683  1.00  0.00     0.026 A 
BRANCH  69  71
ATOM     71  N   UNL A   1      34.240  25.543  25.694  1.00  0.00    -0.331 N 
ATOM     72  H   UNL A   1      34.645  26.420  25.885  1.00  0.00     0.169 HD
BRANCH  71  73
ATOM     73  C   UNL A   1      32.961  25.367  26.126  1.00  0.00     0.191 C 
ATOM     74  S   UNL A   1      31.892  26.655  26.020  1.00  0.00    -0.039 S 
BRANCH  73  75
ATOM     75  N   UNL A   1      32.500  24.126  26.490  1.00  0.00    -0.254 N 
ATOM     76  H   UNL A   1      33.169  23.511  26.867  1.00  0.00     0.193 HD
BRANCH  75  77
ATOM     77  N   UNL A   1      31.208  23.627  26.391  1.00  0.00    -0.181 NA
ATOM     78  C   UNL A   1      30.865  22.875  25.371  1.00  0.00     0.143 C 
BRANCH  78  79
ATOM     79  C   UNL A   1      31.813  22.362  24.406  1.00  0.00     0.020 A 
ATOM     80  C   UNL A   1      31.765  22.714  23.073  1.00  0.00     0.093 A 
ATOM     81  C   UNL A   1      32.664  21.221  24.405  1.00  0.00     0.008 A 
ATOM     82  N   UNL A   1      31.620  21.481  22.493  1.00  0.00    -0.361 N 
ATOM     83  C   UNL A   1      32.232  20.535  23.274  1.00  0.00     0.046 A 
ATOM     84  C   UNL A   1      33.652  20.614  25.194  1.00  0.00     0.011 A 
ATOM     85  H   UNL A   1      31.150  21.301  21.646  1.00  0.00     0.166 HD
ATOM     86  C   UNL A   1      32.474  19.186  23.034  1.00  0.00     0.027 A 
ATOM     87  C   UNL A   1      34.113  19.338  24.814  1.00  0.00     0.001 A 
ATOM     88  C   UNL A   1      33.472  18.607  23.810  1.00  0.00     0.002 A 
ENDBRANCH  78  79
ENDBRANCH  75  77
ENDBRANCH  73  75
ENDBRANCH  71  73
ENDBRANCH  69  71
ENDBRANCH  63  65
ENDBRANCH   1  63
TORSDOF 16
ENDMDL
MODEL 2
REMARK VINA RESULT:     -11.2      5.072      9.743
REMARK SMILES O=C(OCCOC(=O)c1cccc(NC(=S)N/N=C\c2c[nH]c3ccccc23)c1)c1ccc(-c2c3nc(c(-c4c(F)cccc4F)c4ccc([nH]4)c(-c4c(F)cccc4F)c4nc(c(-c5c(F)cccc5F)c5ccc2[nH]5)C=C4)C=C3)cc1
REMARK SMILES IDX 6 1 5 2 4 3 3 4 2 5 1 6 30 7 31 8 83 9 32 10 82 11 33 12
REMARK SMILES IDX 34 13 35 14 76 15 36 16 81 17 75 18 77 19 37 20 80 21 74 22
REMARK SMILES IDX 73 23 38 25 64 26 47 27 63 28 48 29 51 30 62 31 78 32 49 33
REMARK SMILES IDX 50 34 61 36 79 37 52 38 39 39 40 40 45 41 41 42 42 43 44 44
REMARK SMILES IDX 46 45 43 46 65 47 66 48 71 49 67 50 68 51 70 52 72 53 69 54
REMARK SMILES IDX 53 55 54 56 59 57 55 58 56 59 58 60 60 61 57 62 7 63 8 64
REMARK SMILES IDX 9 65 10 66 29 67 11 68 13 69 12 70 14 71 15 73 16 74 17 75
REMARK SMILES IDX 18 77 19 78 20 79 21 80 28 81 22 82 23 83 27 84 24 86 26 87
REMARK SMILES IDX 25 88
REMARK H PARENT 77 24 51 35 14 72 17 76 22 85
REMARK Flexibility Score: inf
ROOT
ATOM      1  O   UNL A   1      31.549  30.151  26.249  1.00  0.00    -0.458 OA
ENDROOT
BRANCH   1   2
ATOM      2  C   UNL A   1      32.395  31.194  26.753  1.00  0.00     0.275 C 
BRANCH   2   3
ATOM      3  C   UNL A   1      31.599  32.410  27.241  1.00  0.00     0.275 C 
BRANCH   3   4
ATOM      4  O   UNL A   1      32.322  33.657  27.229  1.00  0.00    -0.458 OA
BRANCH   4   5
ATOM      5  C   UNL A   1      33.102  34.204  28.194  1.00  0.00     0.338 C 
ATOM      6  O   UNL A   1      32.868  35.350  28.573  1.00  0.00    -0.246 OA
BRANCH   5   7
ATOM      7  C   UNL A   1      34.351  33.549  28.696  1.00  0.00     0.060 A 
ATOM      8  C   UNL A   1      35.642  33.810  28.240  1.00  0.00     0.016 A 
ATOM      9  C   UNL A   1      34.191  32.585  29.708  1.00  0.00     0.016 A 
ATOM     10  C   UNL A   1      36.753  33.213  28.845  1.00  0.00     0.010 A 
ATOM     11  C   UNL A   1      35.300  31.984  30.317  1.00  0.00     0.010 A 
ATOM     12  C   UNL A   1      36.594  32.312  29.901  1.00  0.00    -0.014 A 
BRANCH  12  13
ATOM     13  C   UNL A   1      37.786  31.629  30.460  1.00  0.00     0.031 A 
ATOM     14  C   UNL A   1      38.258  32.021  31.831  1.00  0.00     0.074 A 
ATOM     15  C   UNL A   1      38.367  30.602  29.806  1.00  0.00     0.049 A 
ATOM     16  N   UNL A   1      39.220  31.505  32.549  1.00  0.00    -0.248 NA
ATOM     17  C   UNL A   1      37.516  33.103  32.504  1.00  0.00     0.031 C 
ATOM     18  C   UNL A   1      37.937  30.051  28.519  1.00  0.00     0.029 A 
ATOM     19  N   UNL A   1      39.452  29.831  30.142  1.00  0.00    -0.354 N 
ATOM     20  C   UNL A   1      39.140  32.134  33.784  1.00  0.00     0.074 A 
ATOM     21  C   UNL A   1      38.112  33.146  33.685  1.00  0.00     0.031 C 
ATOM     22  C   UNL A   1      38.775  29.063  28.154  1.00  0.00     0.029 A 
ATOM     23  C   UNL A   1      39.799  28.906  29.183  1.00  0.00     0.049 A 
ATOM     24  H   UNL A   1      39.939  29.931  30.991  1.00  0.00     0.167 HD
ATOM     25  C   UNL A   1      39.817  31.847  34.919  1.00  0.00     0.037 A 
ATOM     26  C   UNL A   1      40.848  28.057  29.137  1.00  0.00     0.037 A 
ATOM     27  C   UNL A   1      40.875  30.880  35.001  1.00  0.00     0.049 A 
ATOM     28  C   UNL A   1      41.821  28.052  30.274  1.00  0.00     0.074 A 
ATOM     29  C   UNL A   1      41.628  30.508  36.100  1.00  0.00     0.029 A 
ATOM     30  N   UNL A   1      41.348  30.149  33.923  1.00  0.00    -0.354 N 
ATOM     31  N   UNL A   1      41.728  28.644  31.437  1.00  0.00    -0.248 NA
ATOM     32  C   UNL A   1      43.050  27.271  30.084  1.00  0.00     0.031 C 
ATOM     33  C   UNL A   1      42.590  29.583  35.674  1.00  0.00     0.029 A 
ATOM     34  C   UNL A   1      42.406  29.349  34.322  1.00  0.00     0.049 A 
ATOM     35  H   UNL A   1      40.986  30.192  33.009  1.00  0.00     0.167 HD
ATOM     36  C   UNL A   1      42.839  28.229  32.155  1.00  0.00     0.074 A 
ATOM     37  C   UNL A   1      43.619  27.385  31.273  1.00  0.00     0.031 C 
ATOM     38  C   UNL A   1      43.154  28.487  33.446  1.00  0.00     0.037 A 
BRANCH  25  39
ATOM     39  C   UNL A   1      39.392  32.570  36.161  1.00  0.00     0.057 A 
ATOM     40  C   UNL A   1      39.961  33.805  36.505  1.00  0.00     0.134 A 
ATOM     41  C   UNL A   1      38.416  32.046  37.013  1.00  0.00     0.134 A 
ATOM     42  F   UNL A   1      40.917  34.352  35.738  1.00  0.00    -0.206 F 
ATOM     43  C   UNL A   1      39.585  34.484  37.665  1.00  0.00     0.040 A 
ATOM     44  C   UNL A   1      38.018  32.725  38.166  1.00  0.00     0.040 A 
ATOM     45  F   UNL A   1      37.836  30.867  36.741  1.00  0.00    -0.206 F 
ATOM     46  C   UNL A   1      38.606  33.946  38.496  1.00  0.00     0.006 A 
ENDBRANCH  25  39
BRANCH  26  47
ATOM     47  C   UNL A   1      41.161  27.284  27.909  1.00  0.00     0.057 A 
ATOM     48  C   UNL A   1      41.800  27.790  26.781  1.00  0.00     0.134 A 
ATOM     49  C   UNL A   1      40.633  26.000  27.810  1.00  0.00     0.134 A 
ATOM     50  F   UNL A   1      42.218  29.063  26.757  1.00  0.00    -0.206 F 
ATOM     51  C   UNL A   1      41.940  27.018  25.621  1.00  0.00     0.040 A 
ATOM     52  C   UNL A   1      40.819  25.185  26.697  1.00  0.00     0.040 A 
ATOM     53  F   UNL A   1      39.832  25.591  28.795  1.00  0.00    -0.206 F 
ATOM     54  C   UNL A   1      41.472  25.702  25.587  1.00  0.00     0.006 A 
ENDBRANCH  26  47
BRANCH  38  55
ATOM     55  C   UNL A   1      44.306  27.720  34.014  1.00  0.00     0.057 A 
ATOM     56  C   UNL A   1      45.616  28.208  34.005  1.00  0.00     0.134 A 
ATOM     57  C   UNL A   1      44.088  26.445  34.553  1.00  0.00     0.134 A 
ATOM     58  F   UNL A   1      45.891  29.407  33.470  1.00  0.00    -0.206 F 
ATOM     59  C   UNL A   1      46.677  27.441  34.487  1.00  0.00     0.040 A 
ATOM     60  C   UNL A   1      45.134  25.681  35.065  1.00  0.00     0.040 A 
ATOM     61  F   UNL A   1      42.853  25.920  34.586  1.00  0.00    -0.206 F 
ATOM     62  C   UNL A   1      46.436  26.176  35.024  1.00  0.00     0.006 A 
ENDBRANCH  38  55
ENDBRANCH  12  13
ENDBRANCH   5   7
ENDBRANCH   4   5
ENDBRANCH   3   4
ENDBRANCH   2   3
ENDBRANCH   1   2
BRANCH   1  63
ATOM     63  C   UNL A   1      32.092  29.456  25.209  1.00  0.00     0.338 C 
ATOM     64  O   UNL A   1      33.261  29.373  24.925  1.00  0.00    -0.246 OA
BRANCH  63  65
ATOM     65  C   UNL A   1      31.041  28.626  24.579  1.00  0.00     0.062 A 
ATOM     66  C   UNL A   1      30.177  29.279  23.691  1.00  0.00     0.016 A 
ATOM     67  C   UNL A   1      30.928  27.251  24.798  1.00  0.00     0.041 A 
ATOM     68  C   UNL A   1      29.192  28.562  23.022  1.00  0.00     0.003 A 
ATOM     69  C   UNL A   1      29.915  26.544  24.142  1.00  0.00     0.041 A 
ATOM     70  C   UNL A   1      29.056  27.199  23.257  1.00  0.00     0.026 A 
BRANCH  69  71
ATOM     71  N   UNL A   1      29.854  25.150  24.257  1.00  0.00    -0.331 N 
ATOM     72  H   UNL A   1      29.004  24.729  23.995  1.00  0.00     0.169 HD
BRANCH  71  73
ATOM     73  C   UNL A   1      30.833  24.308  24.688  1.00  0.00     0.191 C 
ATOM     74  S   UNL A   1      31.035  24.088  26.338  1.00  0.00    -0.039 S 
BRANCH  73  75
ATOM     75  N   UNL A   1      31.538  23.529  23.804  1.00  0.00    -0.254 N 
ATOM     76  H   UNL A   1      31.021  22.833  23.338  1.00  0.00     0.193 HD
BRANCH  75  77
ATOM     77  N   UNL A   1      32.887  23.597  23.486  1.00  0.00    -0.181 NA
ATOM     78  C   UNL A   1      33.709  22.652  23.880  1.00  0.00     0.143 C 
BRANCH  78  79
ATOM     79  C   UNL A   1      33.266  21.413  24.484  1.00  0.00     0.020 A 
ATOM     80  C   UNL A   1      33.435  21.153  25.828  1.00  0.00     0.093 A 
ATOM     81  C   UNL A   1      32.971  20.130  23.944  1.00  0.00     0.008 A 
ATOM     82  N   UNL A   1      34.181  20.005  25.769  1.00  0.00    -0.361 N 
ATOM     83  C   UNL A   1      33.862  19.312  24.630  1.00  0.00     0.046 A 
ATOM     84  C   UNL A   1      32.177  19.536  22.951  1.00  0.00     0.011 A 
ATOM     85  H   UNL A   1      34.844  19.721  26.440  1.00  0.00     0.166 HD
ATOM     86  C   UNL A   1      34.243  18.040  24.212  1.00  0.00     0.027 A 
ATOM     87  C   UNL A   1      32.361  18.165  22.688  1.00  0.00     0.001 A 
ATOM     88  C   UNL A   1      33.431  17.458  23.244  1.00  0.00     0.002 A 
ENDBRANCH  78  79
ENDBRANCH  75  77
ENDBRANCH  73  75
ENDBRANCH  71  73
ENDBRANCH  69  71
ENDBRANCH  63  65
ENDBRANCH   1  63
TORSDOF 16
ENDMDL
MODEL 3
REMARK VINA RESULT:     -11.2      1.128      2.173
REMARK SMILES O=C(OCCOC(=O)c1cccc(NC(=S)N/N=C\c2c[nH]c3ccccc23)c1)c1ccc(-c2c3nc(c(-c4c(F)cccc4F)c4ccc([nH]4)c(-c4c(F)cccc4F)c4nc(c(-c5c(F)cccc5F)c5ccc2[nH]5)C=C4)C=C3)cc1
REMARK SMILES IDX 6 1 5 2 4 3 3 4 2 5 1 6 30 7 31 8 83 9 32 10 82 11 33 12
REMARK SMILES IDX 34 13 35 14 76 15 36 16 81 17 75 18 77 19 37 20 80 21 74 22
REMARK SMILES IDX 73 23 38 25 64 26 47 27 63 28 48 29 51 30 62 31 78 32 49 33
REMARK SMILES IDX 50 34 61 36 79 37 52 38 39 39 40 40 45 41 41 42 42 43 44 44
REMARK SMILES IDX 46 45 43 46 65 47 66 48 71 49 67 50 68 51 70 52 72 53 69 54
REMARK SMILES IDX 53 55 54 56 59 57 55 58 56 59 58 60 60 61 57 62 7 63 8 64
REMARK SMILES IDX 9 65 10 66 29 67 11 68 13 69 12 70 14 71 15 73 16 74 17 75
REMARK SMILES IDX 18 77 19 78 20 79 21 80 28 81 22 82 23 83 27 84 24 86 26 87
REMARK SMILES IDX 25 88
REMARK H PARENT 77 24 51 35 14 72 17 76 22 85
REMARK Flexibility Score: inf
ROOT
ATOM      1  O   UNL A   1      37.540  20.645  25.072  1.00  0.00    -0.458 OA
ENDROOT
BRANCH   1   2
ATOM      2  C   UNL A   1      38.942  20.658  25.378  1.00  0.00     0.275 C 
BRANCH   2   3
ATOM      3  C   UNL A   1      39.465  19.276  25.784  1.00  0.00     0.275 C 
BRANCH   3   4
ATOM      4  O   UNL A   1      40.872  19.064  25.553  1.00  0.00    -0.458 OA
BRANCH   4   5
ATOM      5  C   UNL A   1      41.931  19.434  26.316  1.00  0.00     0.338 C 
ATOM      6  O   UNL A   1      42.631  18.562  26.828  1.00  0.00    -0.246 OA
BRANCH   5   7
ATOM      7  C   UNL A   1      42.185  20.852  26.717  1.00  0.00     0.060 A 
ATOM      8  C   UNL A   1      42.258  21.324  28.027  1.00  0.00     0.016 A 
ATOM      9  C   UNL A   1      42.354  21.780  25.673  1.00  0.00     0.016 A 
ATOM     10  C   UNL A   1      42.598  22.654  28.295  1.00  0.00     0.010 A 
ATOM     11  C   UNL A   1      42.694  23.113  25.936  1.00  0.00     0.010 A 
ATOM     12  C   UNL A   1      42.840  23.554  27.255  1.00  0.00    -0.014 A 
BRANCH  12  13
ATOM     13  C   UNL A   1      43.109  24.977  27.572  1.00  0.00     0.031 A 
ATOM     14  C   UNL A   1      44.501  25.505  27.367  1.00  0.00     0.074 A 
ATOM     15  C   UNL A   1      42.110  25.810  27.928  1.00  0.00     0.049 A 
ATOM     16  N   UNL A   1      44.945  26.727  27.498  1.00  0.00    -0.248 NA
ATOM     17  C   UNL A   1      45.515  24.541  26.903  1.00  0.00     0.031 C 
ATOM     18  C   UNL A   1      40.696  25.448  28.056  1.00  0.00     0.029 A 
ATOM     19  N   UNL A   1      42.132  27.145  28.248  1.00  0.00    -0.354 N 
ATOM     20  C   UNL A   1      46.258  26.694  27.048  1.00  0.00     0.074 A 
ATOM     21  C   UNL A   1      46.576  25.316  26.746  1.00  0.00     0.031 C 
ATOM     22  C   UNL A   1      39.997  26.522  28.470  1.00  0.00     0.029 A 
ATOM     23  C   UNL A   1      40.910  27.650  28.630  1.00  0.00     0.049 A 
ATOM     24  H   UNL A   1      42.949  27.693  28.207  1.00  0.00     0.167 HD
ATOM     25  C   UNL A   1      47.102  27.731  26.841  1.00  0.00     0.037 A 
ATOM     26  C   UNL A   1      40.583  28.876  29.091  1.00  0.00     0.037 A 
ATOM     27  C   UNL A   1      46.805  29.091  27.192  1.00  0.00     0.049 A 
ATOM     28  C   UNL A   1      41.661  29.907  29.219  1.00  0.00     0.074 A 
ATOM     29  C   UNL A   1      47.586  30.221  27.027  1.00  0.00     0.029 A 
ATOM     30  N   UNL A   1      45.635  29.499  27.812  1.00  0.00    -0.354 N 
ATOM     31  N   UNL A   1      42.894  29.866  28.782  1.00  0.00    -0.248 NA
ATOM     32  C   UNL A   1      41.302  31.148  29.917  1.00  0.00     0.031 C 
ATOM     33  C   UNL A   1      46.904  31.307  27.590  1.00  0.00     0.029 A 
ATOM     34  C   UNL A   1      45.682  30.859  28.065  1.00  0.00     0.049 A 
ATOM     35  H   UNL A   1      44.880  28.908  28.038  1.00  0.00     0.167 HD
ATOM     36  C   UNL A   1      43.430  31.113  29.066  1.00  0.00     0.074 A 
ATOM     37  C   UNL A   1      42.407  31.862  29.765  1.00  0.00     0.031 C 
ATOM     38  C   UNL A   1      44.646  31.604  28.730  1.00  0.00     0.037 A 
BRANCH  25  39
ATOM     39  C   UNL A   1      48.405  27.419  26.169  1.00  0.00     0.057 A 
ATOM     40  C   UNL A   1      48.503  27.380  24.771  1.00  0.00     0.134 A 
ATOM     41  C   UNL A   1      49.563  27.163  26.908  1.00  0.00     0.134 A 
ATOM     42  F   UNL A   1      47.422  27.597  24.006  1.00  0.00    -0.206 F 
ATOM     43  C   UNL A   1      49.707  27.078  24.132  1.00  0.00     0.040 A 
ATOM     44  C   UNL A   1      50.777  26.880  26.280  1.00  0.00     0.040 A 
ATOM     45  F   UNL A   1      49.535  27.183  28.249  1.00  0.00    -0.206 F 
ATOM     46  C   UNL A   1      50.850  26.832  24.888  1.00  0.00     0.006 A 
ENDBRANCH  25  39
BRANCH  26  47
ATOM     47  C   UNL A   1      39.238  29.157  29.652  1.00  0.00     0.057 A 
ATOM     48  C   UNL A   1      38.818  28.826  30.936  1.00  0.00     0.134 A 
ATOM     49  C   UNL A   1      38.270  29.641  28.778  1.00  0.00     0.134 A 
ATOM     50  F   UNL A   1      39.663  28.234  31.791  1.00  0.00    -0.206 F 
ATOM     51  C   UNL A   1      37.489  29.018  31.335  1.00  0.00     0.040 A 
ATOM     52  C   UNL A   1      36.960  29.908  29.166  1.00  0.00     0.040 A 
ATOM     53  F   UNL A   1      38.606  29.750  27.492  1.00  0.00    -0.206 F 
ATOM     54  C   UNL A   1      36.563  29.586  30.457  1.00  0.00     0.006 A 
ENDBRANCH  26  47
BRANCH  38  55
ATOM     55  C   UNL A   1      44.864  33.062  28.979  1.00  0.00     0.057 A 
ATOM     56  C   UNL A   1      45.438  33.550  30.156  1.00  0.00     0.134 A 
ATOM     57  C   UNL A   1      44.452  33.996  28.017  1.00  0.00     0.134 A 
ATOM     58  F   UNL A   1      45.819  32.707  31.127  1.00  0.00    -0.206 F 
ATOM     59  C   UNL A   1      45.571  34.921  30.382  1.00  0.00     0.040 A 
ATOM     60  C   UNL A   1      44.606  35.365  28.219  1.00  0.00     0.040 A 
ATOM     61  F   UNL A   1      43.889  33.589  26.869  1.00  0.00    -0.206 F 
ATOM     62  C   UNL A   1      45.159  35.832  29.409  1.00  0.00     0.006 A 
ENDBRANCH  38  55
ENDBRANCH  12  13
ENDBRANCH   5   7
ENDBRANCH   4   5
ENDBRANCH   3   4
ENDBRANCH   2   3
ENDBRANCH   1   2
BRANCH   1  63
ATOM     63  C   UNL A   1      36.838  21.649  25.669  1.00  0.00     0.338 C 
ATOM     64  O   UNL A   1      37.256  22.732  25.995  1.00  0.00    -0.246 OA
BRANCH  63  65
ATOM     65  C   UNL A   1      35.400  21.296  25.680  1.00  0.00     0.062 A 
ATOM     66  C   UNL A   1      35.025  20.177  24.926  1.00  0.00     0.016 A 
ATOM     67  C   UNL A   1      34.454  21.992  26.436  1.00  0.00     0.041 A 
ATOM     68  C   UNL A   1      33.702  19.752  24.919  1.00  0.00     0.003 A 
ATOM     69  C   UNL A   1      33.120  21.575  26.400  1.00  0.00     0.041 A 
ATOM     70  C   UNL A   1      32.751  20.457  25.647  1.00  0.00     0.026 A 
BRANCH  69  71
ATOM     71  N   UNL A   1      32.178  22.184  27.236  1.00  0.00    -0.331 N 
ATOM     72  H   UNL A   1      32.135  21.848  28.160  1.00  0.00     0.169 HD
BRANCH  71  73
ATOM     73  C   UNL A   1      31.314  23.188  26.921  1.00  0.00     0.191 C 
ATOM     74  S   UNL A   1      29.668  22.866  26.936  1.00  0.00    -0.039 S 
BRANCH  73  75
ATOM     75  N   UNL A   1      31.756  24.477  26.754  1.00  0.00    -0.254 N 
ATOM     76  H   UNL A   1      32.714  24.582  26.556  1.00  0.00     0.193 HD
BRANCH  75  77
ATOM     77  N   UNL A   1      31.021  25.653  26.829  1.00  0.00    -0.181 NA
ATOM     78  C   UNL A   1      30.740  26.328  25.738  1.00  0.00     0.143 C 
BRANCH  78  79
ATOM     79  C   UNL A   1      30.991  25.826  24.404  1.00  0.00     0.020 A 
ATOM     80  C   UNL A   1      29.968  25.548  23.521  1.00  0.00     0.093 A 
ATOM     81  C   UNL A   1      32.107  25.167  23.818  1.00  0.00     0.008 A 
ATOM     82  N   UNL A   1      30.205  24.221  23.273  1.00  0.00    -0.361 N 
ATOM     83  C   UNL A   1      31.548  23.968  23.388  1.00  0.00     0.046 A 
ATOM     84  C   UNL A   1      33.491  25.334  23.650  1.00  0.00     0.011 A 
ATOM     85  H   UNL A   1      29.518  23.551  23.048  1.00  0.00     0.166 HD
ATOM     86  C   UNL A   1      32.278  22.822  23.091  1.00  0.00     0.027 A 
ATOM     87  C   UNL A   1      34.224  24.267  23.097  1.00  0.00     0.001 A 
ATOM     88  C   UNL A   1      33.643  23.010  22.907  1.00  0.00     0.002 A 
ENDBRANCH  78  79
ENDBRANCH  75  77
ENDBRANCH  73  75
ENDBRANCH  71  73
ENDBRANCH  69  71
ENDBRANCH  63  65
ENDBRANCH   1  63
TORSDOF 16
ENDMDL
