MODEL 1
REMARK VINA RESULT:     -11.2      0.000      0.000
REMARK SMILES O=C(CC[N@H+]1CCC[C@H](c2nccn2Cc2cscn2)C1)OCCOC(=O)c1ccc(-c2c3nc(c(-c4c(F)cccc4F)c4ccc([nH]4)c(-c4c(F)cccc4F)c4nc(c(-c5c(F)cccc5F)c5ccc2[nH]5)C=C4)C=C3)cc1
REMARK SMILES IDX 22 1 2 2 1 3 3 4 4 5 5 6 6 7 21 8 7 10 9 11 8 12 10 13 11 14
REMARK SMILES IDX 14 15 12 16 13 17 15 18 16 19 17 20 20 21 18 22 19 23 23 24
REMARK SMILES IDX 24 25 25 26 26 27 27 28 28 29 29 30 81 31 30 32 80 33 31 34
REMARK SMILES IDX 32 35 33 36 74 37 34 38 79 39 73 40 75 41 35 42 78 43 72 44
REMARK SMILES IDX 71 45 36 47 62 48 45 49 61 50 46 51 49 52 60 53 76 54 47 55
REMARK SMILES IDX 48 56 59 58 77 59 50 60 37 61 38 62 43 63 39 64 40 65 42 66
REMARK SMILES IDX 44 67 41 68 63 69 64 70 69 71 65 72 66 73 68 74 70 75 67 76
REMARK SMILES IDX 51 77 52 78 57 79 53 80 54 81 56 82 58 83 55 84
REMARK H PARENT 5 9 75 46 49 57
REMARK Flexibility Score: inf
ROOT
ATOM      1  O   UNL A   1      41.654  20.133  26.995  1.00  0.00    -0.462 OA
ENDROOT
BRANCH   1   2
ATOM      2  C   UNL A   1      40.800  21.165  27.186  1.00  0.00     0.311 C 
ATOM      3  O   UNL A   1      40.634  21.571  28.341  1.00  0.00    -0.252 OA
BRANCH   2   4
ATOM      4  C   UNL A   1      39.905  21.714  26.094  1.00  0.00     0.184 C 
BRANCH   4   5
ATOM      5  C   UNL A   1      38.588  21.071  25.671  1.00  0.00     0.274 C 
BRANCH   5   6
ATOM      6  N   UNL A   1      37.436  21.948  25.432  1.00  0.00    -0.334 N 
ATOM      7  C   UNL A   1      37.596  23.353  25.827  1.00  0.00     0.262 C 
ATOM      8  C   UNL A   1      37.009  21.939  24.019  1.00  0.00     0.273 C 
ATOM      9  H   UNL A   1      36.731  21.536  26.043  1.00  0.00     0.348 HD
ATOM     10  C   UNL A   1      36.211  24.000  25.859  1.00  0.00     0.062 C 
ATOM     11  C   UNL A   1      35.592  22.506  23.889  1.00  0.00     0.111 C 
ATOM     12  C   UNL A   1      35.570  23.946  24.478  1.00  0.00     0.023 C 
BRANCH  11  13
ATOM     13  C   UNL A   1      34.427  21.690  24.438  1.00  0.00     0.117 A 
ATOM     14  N   UNL A   1      34.577  21.063  25.600  1.00  0.00    -0.241 NA
ATOM     15  N   UNL A   1      33.116  21.526  23.995  1.00  0.00    -0.328 N 
ATOM     16  C   UNL A   1      33.372  20.547  25.949  1.00  0.00     0.131 A 
ATOM     17  C   UNL A   1      32.440  20.868  25.006  1.00  0.00     0.108 A 
BRANCH  15  18
ATOM     18  C   UNL A   1      32.399  22.043  22.835  1.00  0.00     0.180 C 
BRANCH  18  19
ATOM     19  C   UNL A   1      31.935  23.468  22.983  1.00  0.00     0.071 A 
ATOM     20  C   UNL A   1      32.538  24.605  22.471  1.00  0.00     0.092 A 
ATOM     21  N   UNL A   1      30.711  23.719  23.589  1.00  0.00    -0.248 NA
ATOM     22  S   UNL A   1      31.618  26.005  22.825  1.00  0.00    -0.130 S 
ATOM     23  C   UNL A   1      30.443  25.009  23.559  1.00  0.00     0.175 A 
ENDBRANCH  18  19
ENDBRANCH  15  18
ENDBRANCH  11  13
ENDBRANCH   5   6
ENDBRANCH   4   5
ENDBRANCH   2   4
ENDBRANCH   1   2
BRANCH   1  24
ATOM     24  C   UNL A   1      41.808  19.276  25.846  1.00  0.00     0.274 C 
BRANCH  24  25
ATOM     25  C   UNL A   1      43.192  18.636  25.728  1.00  0.00     0.275 C 
BRANCH  25  26
ATOM     26  O   UNL A   1      44.214  19.621  25.723  1.00  0.00    -0.458 OA
BRANCH  26  27
ATOM     27  C   UNL A   1      44.467  20.186  24.518  1.00  0.00     0.338 C 
ATOM     28  O   UNL A   1      44.511  19.641  23.441  1.00  0.00    -0.246 OA
BRANCH  27  29
ATOM     29  C   UNL A   1      44.720  21.616  24.754  1.00  0.00     0.060 A 
ATOM     30  C   UNL A   1      45.711  21.943  25.677  1.00  0.00     0.016 A 
ATOM     31  C   UNL A   1      43.879  22.593  24.188  1.00  0.00     0.016 A 
ATOM     32  C   UNL A   1      45.661  23.190  26.250  1.00  0.00     0.010 A 
ATOM     33  C   UNL A   1      43.844  23.841  24.742  1.00  0.00     0.010 A 
ATOM     34  C   UNL A   1      44.642  24.064  25.852  1.00  0.00    -0.014 A 
BRANCH  34  35
ATOM     35  C   UNL A   1      44.413  25.253  26.634  1.00  0.00     0.031 A 
ATOM     36  C   UNL A   1      45.501  26.233  26.487  1.00  0.00     0.074 A 
ATOM     37  C   UNL A   1      43.284  25.404  27.354  1.00  0.00     0.049 A 
ATOM     38  N   UNL A   1      46.403  26.522  27.360  1.00  0.00    -0.248 NA
ATOM     39  C   UNL A   1      45.755  26.788  25.147  1.00  0.00     0.031 C 
ATOM     40  C   UNL A   1      42.074  24.575  27.350  1.00  0.00     0.029 A 
ATOM     41  N   UNL A   1      42.957  26.409  28.210  1.00  0.00    -0.354 N 
ATOM     42  C   UNL A   1      47.194  27.492  26.760  1.00  0.00     0.074 A 
ATOM     43  C   UNL A   1      46.894  27.450  25.354  1.00  0.00     0.031 C 
ATOM     44  C   UNL A   1      41.074  25.232  27.984  1.00  0.00     0.029 A 
ATOM     45  C   UNL A   1      41.607  26.451  28.561  1.00  0.00     0.049 A 
ATOM     46  H   UNL A   1      43.618  27.053  28.555  1.00  0.00     0.167 HD
ATOM     47  C   UNL A   1      47.786  28.450  27.519  1.00  0.00     0.037 A 
ATOM     48  C   UNL A   1      41.002  27.472  29.220  1.00  0.00     0.037 A 
ATOM     49  C   UNL A   1      47.871  28.034  28.899  1.00  0.00     0.049 A 
ATOM     50  C   UNL A   1      42.074  28.241  29.910  1.00  0.00     0.074 A 
ATOM     51  C   UNL A   1      48.473  26.976  29.553  1.00  0.00     0.029 A 
ATOM     52  N   UNL A   1      46.927  28.526  29.768  1.00  0.00    -0.354 N 
ATOM     53  N   UNL A   1      42.770  27.762  30.903  1.00  0.00    -0.248 NA
ATOM     54  C   UNL A   1      42.710  29.315  29.160  1.00  0.00     0.031 C 
ATOM     55  C   UNL A   1      47.547  26.592  30.568  1.00  0.00     0.029 A 
ATOM     56  C   UNL A   1      46.474  27.483  30.536  1.00  0.00     0.049 A 
ATOM     57  H   UNL A   1      46.628  29.462  29.829  1.00  0.00     0.167 HD
ATOM     58  C   UNL A   1      44.077  28.150  30.638  1.00  0.00     0.074 A 
ATOM     59  C   UNL A   1      43.968  29.150  29.576  1.00  0.00     0.031 C 
ATOM     60  C   UNL A   1      45.137  27.411  31.080  1.00  0.00     0.037 A 
BRANCH  47  61
ATOM     61  C   UNL A   1      47.871  29.894  27.097  1.00  0.00     0.057 A 
ATOM     62  C   UNL A   1      49.100  30.561  27.213  1.00  0.00     0.134 A 
ATOM     63  C   UNL A   1      46.755  30.729  26.868  1.00  0.00     0.134 A 
ATOM     64  F   UNL A   1      50.233  29.880  27.449  1.00  0.00    -0.206 F 
ATOM     65  C   UNL A   1      49.201  31.957  27.181  1.00  0.00     0.040 A 
ATOM     66  C   UNL A   1      46.851  32.118  26.784  1.00  0.00     0.040 A 
ATOM     67  F   UNL A   1      45.500  30.269  26.820  1.00  0.00    -0.206 F 
ATOM     68  C   UNL A   1      48.072  32.741  26.973  1.00  0.00     0.006 A 
ENDBRANCH  47  61
BRANCH  48  69
ATOM     69  C   UNL A   1      39.651  28.042  28.995  1.00  0.00     0.057 A 
ATOM     70  C   UNL A   1      38.696  28.077  30.021  1.00  0.00     0.134 A 
ATOM     71  C   UNL A   1      39.370  28.831  27.866  1.00  0.00     0.134 A 
ATOM     72  F   UNL A   1      38.894  27.396  31.160  1.00  0.00    -0.206 F 
ATOM     73  C   UNL A   1      37.540  28.868  29.940  1.00  0.00     0.040 A 
ATOM     74  C   UNL A   1      38.218  29.622  27.770  1.00  0.00     0.040 A 
ATOM     75  F   UNL A   1      40.245  28.935  26.856  1.00  0.00    -0.206 F 
ATOM     76  C   UNL A   1      37.305  29.655  28.816  1.00  0.00     0.006 A 
ENDBRANCH  48  69
BRANCH  60  77
ATOM     77  C   UNL A   1      44.859  26.297  32.055  1.00  0.00     0.057 A 
ATOM     78  C   UNL A   1      44.577  24.971  31.686  1.00  0.00     0.134 A 
ATOM     79  C   UNL A   1      45.034  26.548  33.419  1.00  0.00     0.134 A 
ATOM     80  F   UNL A   1      44.485  24.614  30.398  1.00  0.00    -0.206 F 
ATOM     81  C   UNL A   1      44.438  23.954  32.637  1.00  0.00     0.040 A 
ATOM     82  C   UNL A   1      44.931  25.535  34.376  1.00  0.00     0.040 A 
ATOM     83  F   UNL A   1      45.360  27.778  33.842  1.00  0.00    -0.206 F 
ATOM     84  C   UNL A   1      44.622  24.235  33.987  1.00  0.00     0.006 A 
ENDBRANCH  60  77
ENDBRANCH  34  35
ENDBRANCH  27  29
ENDBRANCH  26  27
ENDBRANCH  25  26
ENDBRANCH  24  25
ENDBRANCH   1  24
TORSDOF 16
ENDMDL
MODEL 2
REMARK VINA RESULT:     -10.9      1.496      2.189
REMARK SMILES O=C(CC[N@H+]1CCC[C@H](c2nccn2Cc2cscn2)C1)OCCOC(=O)c1ccc(-c2c3nc(c(-c4c(F)cccc4F)c4ccc([nH]4)c(-c4c(F)cccc4F)c4nc(c(-c5c(F)cccc5F)c5ccc2[nH]5)C=C4)C=C3)cc1
REMARK SMILES IDX 22 1 2 2 1 3 3 4 4 5 5 6 6 7 21 8 7 10 9 11 8 12 10 13 11 14
REMARK SMILES IDX 14 15 12 16 13 17 15 18 16 19 17 20 20 21 18 22 19 23 23 24
REMARK SMILES IDX 24 25 25 26 26 27 27 28 28 29 29 30 81 31 30 32 80 33 31 34
REMARK SMILES IDX 32 35 33 36 74 37 34 38 79 39 73 40 75 41 35 42 78 43 72 44
REMARK SMILES IDX 71 45 36 47 62 48 45 49 61 50 46 51 49 52 60 53 76 54 47 55
REMARK SMILES IDX 48 56 59 58 77 59 50 60 37 61 38 62 43 63 39 64 40 65 42 66
REMARK SMILES IDX 44 67 41 68 63 69 64 70 69 71 65 72 66 73 68 74 70 75 67 76
REMARK SMILES IDX 51 77 52 78 57 79 53 80 54 81 56 82 58 83 55 84
REMARK H PARENT 5 9 75 46 49 57
REMARK Flexibility Score: inf
ROOT
ATOM      1  O   UNL A   1      41.142  20.382  26.326  1.00  0.00    -0.462 OA
ENDROOT
BRANCH   1   2
ATOM      2  C   UNL A   1      39.871  20.141  25.929  1.00  0.00     0.311 C 
ATOM      3  O   UNL A   1      39.614  19.030  25.453  1.00  0.00    -0.252 OA
BRANCH   2   4
ATOM      4  C   UNL A   1      38.805  21.216  25.865  1.00  0.00     0.184 C 
BRANCH   4   5
ATOM      5  C   UNL A   1      37.507  21.079  25.076  1.00  0.00     0.274 C 
BRANCH   5   6
ATOM      6  N   UNL A   1      36.554  22.194  25.112  1.00  0.00    -0.334 N 
ATOM      7  C   UNL A   1      37.108  23.510  25.455  1.00  0.00     0.262 C 
ATOM      8  C   UNL A   1      35.822  22.348  23.840  1.00  0.00     0.273 C 
ATOM      9  H   UNL A   1      35.936  21.915  25.874  1.00  0.00     0.348 HD
ATOM     10  C   UNL A   1      35.946  24.439  25.811  1.00  0.00     0.062 C 
ATOM     11  C   UNL A   1      34.575  23.213  24.046  1.00  0.00     0.111 C 
ATOM     12  C   UNL A   1      35.009  24.594  24.620  1.00  0.00     0.023 C 
BRANCH  11  13
ATOM     13  C   UNL A   1      33.417  22.642  24.856  1.00  0.00     0.117 A 
ATOM     14  N   UNL A   1      33.074  23.240  25.991  1.00  0.00    -0.241 NA
ATOM     15  N   UNL A   1      32.520  21.608  24.594  1.00  0.00    -0.328 N 
ATOM     16  C   UNL A   1      31.935  22.654  26.439  1.00  0.00     0.131 A 
ATOM     17  C   UNL A   1      31.540  21.684  25.566  1.00  0.00     0.108 A 
BRANCH  15  18
ATOM     18  C   UNL A   1      32.387  20.681  23.475  1.00  0.00     0.180 C 
BRANCH  18  19
ATOM     19  C   UNL A   1      32.924  19.302  23.750  1.00  0.00     0.071 A 
ATOM     20  C   UNL A   1      32.434  18.098  23.270  1.00  0.00     0.092 A 
ATOM     21  N   UNL A   1      34.109  19.169  24.462  1.00  0.00    -0.248 NA
ATOM     22  S   UNL A   1      33.407  16.786  23.783  1.00  0.00    -0.130 S 
ATOM     23  C   UNL A   1      34.457  17.900  24.537  1.00  0.00     0.175 A 
ENDBRANCH  18  19
ENDBRANCH  15  18
ENDBRANCH  11  13
ENDBRANCH   5   6
ENDBRANCH   4   5
ENDBRANCH   2   4
ENDBRANCH   1   2
BRANCH   1  24
ATOM     24  C   UNL A   1      42.056  19.522  27.035  1.00  0.00     0.274 C 
BRANCH  24  25
ATOM     25  C   UNL A   1      43.116  18.871  26.145  1.00  0.00     0.275 C 
BRANCH  25  26
ATOM     26  O   UNL A   1      43.214  19.536  24.895  1.00  0.00    -0.458 OA
BRANCH  26  27
ATOM     27  C   UNL A   1      44.477  19.772  24.464  1.00  0.00     0.338 C 
ATOM     28  O   UNL A   1      45.259  18.978  23.997  1.00  0.00    -0.246 OA
BRANCH  27  29
ATOM     29  C   UNL A   1      44.755  21.199  24.695  1.00  0.00     0.060 A 
ATOM     30  C   UNL A   1      45.771  21.510  25.595  1.00  0.00     0.016 A 
ATOM     31  C   UNL A   1      43.915  22.187  24.149  1.00  0.00     0.016 A 
ATOM     32  C   UNL A   1      45.751  22.758  26.170  1.00  0.00     0.010 A 
ATOM     33  C   UNL A   1      43.909  23.435  24.704  1.00  0.00     0.010 A 
ATOM     34  C   UNL A   1      44.736  23.646  25.796  1.00  0.00    -0.014 A 
BRANCH  34  35
ATOM     35  C   UNL A   1      44.541  24.837  26.583  1.00  0.00     0.031 A 
ATOM     36  C   UNL A   1      45.671  25.772  26.465  1.00  0.00     0.074 A 
ATOM     37  C   UNL A   1      43.406  25.030  27.284  1.00  0.00     0.049 A 
ATOM     38  N   UNL A   1      46.568  26.017  27.357  1.00  0.00    -0.248 NA
ATOM     39  C   UNL A   1      45.973  26.327  25.135  1.00  0.00     0.031 C 
ATOM     40  C   UNL A   1      42.163  24.251  27.250  1.00  0.00     0.029 A 
ATOM     41  N   UNL A   1      43.104  26.040  28.142  1.00  0.00    -0.354 N 
ATOM     42  C   UNL A   1      47.409  26.958  26.780  1.00  0.00     0.074 A 
ATOM     43  C   UNL A   1      47.134  26.940  25.368  1.00  0.00     0.031 C 
ATOM     44  C   UNL A   1      41.179  24.944  27.871  1.00  0.00     0.029 A 
ATOM     45  C   UNL A   1      41.751  26.135  28.468  1.00  0.00     0.049 A 
ATOM     46  H   UNL A   1      43.785  26.654  28.505  1.00  0.00     0.167 HD
ATOM     47  C   UNL A   1      48.025  27.885  27.559  1.00  0.00     0.037 A 
ATOM     48  C   UNL A   1      41.176  27.175  29.125  1.00  0.00     0.037 A 
ATOM     49  C   UNL A   1      48.067  27.455  28.936  1.00  0.00     0.049 A 
ATOM     50  C   UNL A   1      42.265  27.894  29.840  1.00  0.00     0.074 A 
ATOM     51  C   UNL A   1      48.613  26.369  29.592  1.00  0.00     0.029 A 
ATOM     52  N   UNL A   1      47.128  27.979  29.791  1.00  0.00    -0.354 N 
ATOM     53  N   UNL A   1      42.923  27.379  30.843  1.00  0.00    -0.248 NA
ATOM     54  C   UNL A   1      42.959  28.947  29.112  1.00  0.00     0.031 C 
ATOM     55  C   UNL A   1      47.653  26.015  30.586  1.00  0.00     0.029 A 
ATOM     56  C   UNL A   1      46.618  26.950  30.542  1.00  0.00     0.049 A 
ATOM     57  H   UNL A   1      46.867  28.926  29.855  1.00  0.00     0.167 HD
ATOM     58  C   UNL A   1      44.249  27.714  30.605  1.00  0.00     0.074 A 
ATOM     59  C   UNL A   1      44.202  28.727  29.550  1.00  0.00     0.031 C 
ATOM     60  C   UNL A   1      45.269  26.929  31.060  1.00  0.00     0.037 A 
BRANCH  47  61
ATOM     61  C   UNL A   1      48.178  29.327  27.150  1.00  0.00     0.057 A 
ATOM     62  C   UNL A   1      49.438  29.934  27.269  1.00  0.00     0.134 A 
ATOM     63  C   UNL A   1      47.103  30.217  26.934  1.00  0.00     0.134 A 
ATOM     64  F   UNL A   1      50.538  29.198  27.494  1.00  0.00    -0.206 F 
ATOM     65  C   UNL A   1      49.605  31.324  27.250  1.00  0.00     0.040 A 
ATOM     66  C   UNL A   1      47.264  31.601  26.863  1.00  0.00     0.040 A 
ATOM     67  F   UNL A   1      45.827  29.818  26.886  1.00  0.00    -0.206 F 
ATOM     68  C   UNL A   1      48.514  32.163  27.054  1.00  0.00     0.006 A 
ENDBRANCH  47  61
BRANCH  48  69
ATOM     69  C   UNL A   1      39.855  27.803  28.879  1.00  0.00     0.057 A 
ATOM     70  C   UNL A   1      38.893  27.895  29.896  1.00  0.00     0.134 A 
ATOM     71  C   UNL A   1      39.619  28.588  27.737  1.00  0.00     0.134 A 
ATOM     72  F   UNL A   1      39.050  27.221  31.045  1.00  0.00    -0.206 F 
ATOM     73  C   UNL A   1      37.774  28.736  29.794  1.00  0.00     0.040 A 
ATOM     74  C   UNL A   1      38.505  29.429  27.620  1.00  0.00     0.040 A 
ATOM     75  F   UNL A   1      40.507  28.638  26.735  1.00  0.00    -0.206 F 
ATOM     76  C   UNL A   1      37.585  29.516  28.657  1.00  0.00     0.006 A 
ENDBRANCH  48  69
BRANCH  60  77
ATOM     77  C   UNL A   1      44.928  25.820  32.020  1.00  0.00     0.057 A 
ATOM     78  C   UNL A   1      44.740  25.995  33.402  1.00  0.00     0.134 A 
ATOM     79  C   UNL A   1      44.631  24.557  31.500  1.00  0.00     0.134 A 
ATOM     80  F   UNL A   1      44.908  27.192  33.978  1.00  0.00    -0.206 F 
ATOM     81  C   UNL A   1      44.314  24.948  34.227  1.00  0.00     0.040 A 
ATOM     82  C   UNL A   1      44.173  23.513  32.307  1.00  0.00     0.040 A 
ATOM     83  F   UNL A   1      44.734  24.330  30.181  1.00  0.00    -0.206 F 
ATOM     84  C   UNL A   1      44.023  23.704  33.678  1.00  0.00     0.006 A 
ENDBRANCH  60  77
ENDBRANCH  34  35
ENDBRANCH  27  29
ENDBRANCH  26  27
ENDBRANCH  25  26
ENDBRANCH  24  25
ENDBRANCH   1  24
TORSDOF 16
ENDMDL
MODEL 3
REMARK VINA RESULT:     -10.7      6.298     10.829
REMARK SMILES O=C(CC[N@H+]1CCC[C@H](c2nccn2Cc2cscn2)C1)OCCOC(=O)c1ccc(-c2c3nc(c(-c4c(F)cccc4F)c4ccc([nH]4)c(-c4c(F)cccc4F)c4nc(c(-c5c(F)cccc5F)c5ccc2[nH]5)C=C4)C=C3)cc1
REMARK SMILES IDX 22 1 2 2 1 3 3 4 4 5 5 6 6 7 21 8 7 10 9 11 8 12 10 13 11 14
REMARK SMILES IDX 14 15 12 16 13 17 15 18 16 19 17 20 20 21 18 22 19 23 23 24
REMARK SMILES IDX 24 25 25 26 26 27 27 28 28 29 29 30 81 31 30 32 80 33 31 34
REMARK SMILES IDX 32 35 33 36 74 37 34 38 79 39 73 40 75 41 35 42 78 43 72 44
REMARK SMILES IDX 71 45 36 47 62 48 45 49 61 50 46 51 49 52 60 53 76 54 47 55
REMARK SMILES IDX 48 56 59 58 77 59 50 60 37 61 38 62 43 63 39 64 40 65 42 66
REMARK SMILES IDX 44 67 41 68 63 69 64 70 69 71 65 72 66 73 68 74 70 75 67 76
REMARK SMILES IDX 51 77 52 78 57 79 53 80 54 81 56 82 58 83 55 84
REMARK H PARENT 5 9 75 46 49 57
REMARK Flexibility Score: inf
ROOT
ATOM      1  O   UNL A   1      34.339  34.915  28.657  1.00  0.00    -0.462 OA
ENDROOT
BRANCH   1   2
ATOM      2  C   UNL A   1      33.769  33.689  28.623  1.00  0.00     0.311 C 
ATOM      3  O   UNL A   1      33.989  32.922  29.567  1.00  0.00    -0.252 OA
BRANCH   2   4
ATOM      4  C   UNL A   1      33.039  33.147  27.410  1.00  0.00     0.184 C 
BRANCH   4   5
ATOM      5  C   UNL A   1      32.209  31.867  27.419  1.00  0.00     0.274 C 
BRANCH   5   6
ATOM      6  N   UNL A   1      32.848  30.626  26.968  1.00  0.00    -0.334 N 
ATOM      7  C   UNL A   1      34.023  30.185  27.731  1.00  0.00     0.262 C 
ATOM      8  C   UNL A   1      31.905  29.492  26.926  1.00  0.00     0.273 C 
ATOM      9  H   UNL A   1      33.170  30.886  26.035  1.00  0.00     0.348 HD
ATOM     10  C   UNL A   1      34.758  29.126  26.907  1.00  0.00     0.062 C 
ATOM     11  C   UNL A   1      32.476  28.357  26.071  1.00  0.00     0.111 C 
ATOM     12  C   UNL A   1      33.852  27.927  26.658  1.00  0.00     0.023 C 
BRANCH  11  13
ATOM     13  C   UNL A   1      32.583  28.562  24.564  1.00  0.00     0.117 A 
ATOM     14  N   UNL A   1      33.789  28.626  24.011  1.00  0.00    -0.241 NA
ATOM     15  N   UNL A   1      31.617  28.608  23.561  1.00  0.00    -0.328 N 
ATOM     16  C   UNL A   1      33.625  28.650  22.665  1.00  0.00     0.131 A 
ATOM     17  C   UNL A   1      32.299  28.580  22.358  1.00  0.00     0.108 A 
BRANCH  15  18
ATOM     18  C   UNL A   1      30.161  28.512  23.593  1.00  0.00     0.180 C 
BRANCH  18  19
ATOM     19  C   UNL A   1      29.453  29.694  22.986  1.00  0.00     0.071 A 
ATOM     20  C   UNL A   1      29.192  30.916  23.584  1.00  0.00     0.092 A 
ATOM     21  N   UNL A   1      29.104  29.654  21.642  1.00  0.00    -0.248 NA
ATOM     22  S   UNL A   1      28.428  31.990  22.491  1.00  0.00    -0.130 S 
ATOM     23  C   UNL A   1      28.565  30.800  21.276  1.00  0.00     0.175 A 
ENDBRANCH  18  19
ENDBRANCH  15  18
ENDBRANCH  11  13
ENDBRANCH   5   6
ENDBRANCH   4   5
ENDBRANCH   2   4
ENDBRANCH   1   2
BRANCH   1  24
ATOM     24  C   UNL A   1      33.739  36.194  28.944  1.00  0.00     0.274 C 
BRANCH  24  25
ATOM     25  C   UNL A   1      32.810  36.188  30.158  1.00  0.00     0.275 C 
BRANCH  25  26
ATOM     26  O   UNL A   1      33.549  36.146  31.369  1.00  0.00    -0.458 OA
BRANCH  26  27
ATOM     27  C   UNL A   1      33.128  35.229  32.273  1.00  0.00     0.338 C 
ATOM     28  O   UNL A   1      31.997  35.022  32.643  1.00  0.00    -0.246 OA
BRANCH  27  29
ATOM     29  C   UNL A   1      34.323  34.524  32.766  1.00  0.00     0.060 A 
ATOM     30  C   UNL A   1      35.485  35.275  32.919  1.00  0.00     0.016 A 
ATOM     31  C   UNL A   1      34.316  33.125  32.914  1.00  0.00     0.016 A 
ATOM     32  C   UNL A   1      36.682  34.602  32.924  1.00  0.00     0.010 A 
ATOM     33  C   UNL A   1      35.506  32.454  32.942  1.00  0.00     0.010 A 
ATOM     34  C   UNL A   1      36.660  33.207  32.807  1.00  0.00    -0.014 A 
BRANCH  34  35
ATOM     35  C   UNL A   1      37.898  32.521  32.535  1.00  0.00     0.031 A 
ATOM     36  C   UNL A   1      38.772  32.461  33.717  1.00  0.00     0.074 A 
ATOM     37  C   UNL A   1      38.139  31.976  31.326  1.00  0.00     0.049 A 
ATOM     38  N   UNL A   1      39.852  33.136  33.915  1.00  0.00    -0.248 NA
ATOM     39  C   UNL A   1      38.278  31.746  34.906  1.00  0.00     0.031 C 
ATOM     40  C   UNL A   1      37.218  31.801  30.197  1.00  0.00     0.029 A 
ATOM     41  N   UNL A   1      39.279  31.385  30.878  1.00  0.00    -0.354 N 
ATOM     42  C   UNL A   1      40.309  32.734  35.162  1.00  0.00     0.074 A 
ATOM     43  C   UNL A   1      39.209  32.067  35.805  1.00  0.00     0.031 C 
ATOM     44  C   UNL A   1      37.767  30.954  29.294  1.00  0.00     0.029 A 
ATOM     45  C   UNL A   1      39.123  30.645  29.706  1.00  0.00     0.049 A 
ATOM     46  H   UNL A   1      40.144  31.472  31.343  1.00  0.00     0.167 HD
ATOM     47  C   UNL A   1      41.643  32.709  35.419  1.00  0.00     0.037 A 
ATOM     48  C   UNL A   1      40.049  29.799  29.186  1.00  0.00     0.037 A 
ATOM     49  C   UNL A   1      42.362  33.551  34.493  1.00  0.00     0.049 A 
ATOM     50  C   UNL A   1      41.363  30.179  29.771  1.00  0.00     0.074 A 
ATOM     51  C   UNL A   1      42.326  34.898  34.185  1.00  0.00     0.029 A 
ATOM     52  N   UNL A   1      42.984  32.939  33.432  1.00  0.00    -0.354 N 
ATOM     53  N   UNL A   1      41.967  31.304  29.503  1.00  0.00    -0.248 NA
ATOM     54  C   UNL A   1      41.735  29.554  31.033  1.00  0.00     0.031 C 
ATOM     55  C   UNL A   1      42.491  34.959  32.770  1.00  0.00     0.029 A 
ATOM     56  C   UNL A   1      42.703  33.662  32.301  1.00  0.00     0.049 A 
ATOM     57  H   UNL A   1      43.536  32.125  33.477  1.00  0.00     0.167 HD
ATOM     58  C   UNL A   1      42.446  31.748  30.729  1.00  0.00     0.074 A 
ATOM     59  C   UNL A   1      42.317  30.600  31.626  1.00  0.00     0.031 C 
ATOM     60  C   UNL A   1      42.612  33.080  30.981  1.00  0.00     0.037 A 
BRANCH  47  61
ATOM     61  C   UNL A   1      42.307  31.605  36.200  1.00  0.00     0.057 A 
ATOM     62  C   UNL A   1      43.196  31.945  37.231  1.00  0.00     0.134 A 
ATOM     63  C   UNL A   1      42.345  30.251  35.799  1.00  0.00     0.134 A 
ATOM     64  F   UNL A   1      43.269  33.205  37.689  1.00  0.00    -0.206 F 
ATOM     65  C   UNL A   1      44.107  31.027  37.768  1.00  0.00     0.040 A 
ATOM     66  C   UNL A   1      43.212  29.316  36.363  1.00  0.00     0.040 A 
ATOM     67  F   UNL A   1      41.628  29.776  34.773  1.00  0.00    -0.206 F 
ATOM     68  C   UNL A   1      44.122  29.709  37.329  1.00  0.00     0.006 A 
ENDBRANCH  47  61
BRANCH  48  69
ATOM     69  C   UNL A   1      39.832  28.483  28.537  1.00  0.00     0.057 A 
ATOM     70  C   UNL A   1      40.333  28.212  27.255  1.00  0.00     0.134 A 
ATOM     71  C   UNL A   1      39.392  27.368  29.273  1.00  0.00     0.134 A 
ATOM     72  F   UNL A   1      40.821  29.202  26.492  1.00  0.00    -0.206 F 
ATOM     73  C   UNL A   1      40.413  26.909  26.743  1.00  0.00     0.040 A 
ATOM     74  C   UNL A   1      39.463  26.063  28.772  1.00  0.00     0.040 A 
ATOM     75  F   UNL A   1      38.964  27.496  30.536  1.00  0.00    -0.206 F 
ATOM     76  C   UNL A   1      39.989  25.826  27.509  1.00  0.00     0.006 A 
ENDBRANCH  48  69
BRANCH  60  77
ATOM     77  C   UNL A   1      42.485  34.036  29.825  1.00  0.00     0.057 A 
ATOM     78  C   UNL A   1      41.290  34.674  29.450  1.00  0.00     0.134 A 
ATOM     79  C   UNL A   1      43.648  34.438  29.162  1.00  0.00     0.134 A 
ATOM     80  F   UNL A   1      40.140  34.425  30.091  1.00  0.00    -0.206 F 
ATOM     81  C   UNL A   1      41.255  35.639  28.437  1.00  0.00     0.040 A 
ATOM     82  C   UNL A   1      43.632  35.424  28.172  1.00  0.00     0.040 A 
ATOM     83  F   UNL A   1      44.834  33.912  29.504  1.00  0.00    -0.206 F 
ATOM     84  C   UNL A   1      42.431  36.020  27.799  1.00  0.00     0.006 A 
ENDBRANCH  60  77
ENDBRANCH  34  35
ENDBRANCH  27  29
ENDBRANCH  26  27
ENDBRANCH  25  26
ENDBRANCH  24  25
ENDBRANCH   1  24
TORSDOF 16
ENDMDL
