MODEL 1
REMARK VINA RESULT:     -11.6      0.000      0.000
REMARK SMILES O=C(OCCOC(=O)[C@@]1([NH2+]C2CC2)CCC[C@@H]([NH+]2CCS(=O)(=O)CC2)C1)c1ccc(-c2c3nc(c(-c4c(F)cccc4F)c4ccc([nH]4)c(-c4c(F)cccc4F)c4nc(c(-c5c(F)cccc5F)c5ccc2[nH]5)C=C4)C=C3)cc1
REMARK SMILES IDX 4 1 3 2 2 3 1 4 27 5 28 6 80 7 29 8 79 9 30 10 31 11 32 12
REMARK SMILES IDX 73 13 33 14 78 15 72 16 74 17 34 18 77 19 71 20 70 21 35 23
REMARK SMILES IDX 61 24 44 25 60 26 45 27 48 28 59 29 75 30 46 31 47 32 58 34
REMARK SMILES IDX 76 35 49 36 36 37 37 38 42 39 38 40 39 41 41 42 43 43 40 44
REMARK SMILES IDX 62 45 63 46 68 47 64 48 65 49 67 50 69 51 66 52 50 53 51 54
REMARK SMILES IDX 56 55 52 56 53 57 55 58 57 59 54 60 5 61 6 62 7 63 8 64 9 65
REMARK SMILES IDX 14 66 26 67 15 68 17 69 16 70 10 71 11 74 12 75 13 76 18 77
REMARK SMILES IDX 19 78 25 79 20 81 24 82 21 83 22 84 23 85
REMARK H PARENT 74 22 48 33 10 72 10 73 18 80
REMARK Flexibility Score: inf
ROOT
ATOM      1  C   UNL A   1      31.457  31.977  27.223  1.00  0.00     0.275 C 
ENDROOT
BRANCH   1   2
ATOM      2  O   UNL A   1      32.198  33.197  27.024  1.00  0.00    -0.458 OA
BRANCH   2   3
ATOM      3  C   UNL A   1      32.934  33.842  27.954  1.00  0.00     0.338 C 
ATOM      4  O   UNL A   1      32.526  34.887  28.453  1.00  0.00    -0.246 OA
BRANCH   3   5
ATOM      5  C   UNL A   1      34.246  33.293  28.398  1.00  0.00     0.060 A 
ATOM      6  C   UNL A   1      35.496  33.838  28.095  1.00  0.00     0.016 A 
ATOM      7  C   UNL A   1      34.200  32.127  29.165  1.00  0.00     0.016 A 
ATOM      8  C   UNL A   1      36.666  33.304  28.658  1.00  0.00     0.010 A 
ATOM      9  C   UNL A   1      35.354  31.626  29.764  1.00  0.00     0.010 A 
ATOM     10  C   UNL A   1      36.605  32.205  29.522  1.00  0.00    -0.014 A 
BRANCH  10  11
ATOM     11  C   UNL A   1      37.825  31.584  30.103  1.00  0.00     0.031 A 
ATOM     12  C   UNL A   1      38.326  32.070  31.439  1.00  0.00     0.074 A 
ATOM     13  C   UNL A   1      38.533  30.651  29.432  1.00  0.00     0.049 A 
ATOM     14  N   UNL A   1      39.337  31.638  32.150  1.00  0.00    -0.248 NA
ATOM     15  C   UNL A   1      37.627  33.219  32.040  1.00  0.00     0.031 C 
ATOM     16  C   UNL A   1      38.239  30.149  28.088  1.00  0.00     0.029 A 
ATOM     17  N   UNL A   1      39.676  29.974  29.786  1.00  0.00    -0.354 N 
ATOM     18  C   UNL A   1      39.349  32.435  33.285  1.00  0.00     0.074 A 
ATOM     19  C   UNL A   1      38.398  33.497  33.076  1.00  0.00     0.031 C 
ATOM     20  C   UNL A   1      39.191  29.271  27.724  1.00  0.00     0.029 A 
ATOM     21  C   UNL A   1      40.148  29.124  28.814  1.00  0.00     0.049 A 
ATOM     22  H   UNL A   1      40.117  30.088  30.659  1.00  0.00     0.167 HD
ATOM     23  C   UNL A   1      39.983  32.229  34.462  1.00  0.00     0.037 A 
ATOM     24  C   UNL A   1      41.212  28.298  28.819  1.00  0.00     0.037 A 
ATOM     25  C   UNL A   1      40.893  31.149  34.691  1.00  0.00     0.049 A 
ATOM     26  C   UNL A   1      41.981  28.118  30.101  1.00  0.00     0.074 A 
ATOM     27  C   UNL A   1      41.514  30.763  35.862  1.00  0.00     0.029 A 
ATOM     28  N   UNL A   1      41.315  30.277  33.698  1.00  0.00    -0.354 N 
ATOM     29  N   UNL A   1      41.828  28.734  31.248  1.00  0.00    -0.248 NA
ATOM     30  C   UNL A   1      43.016  27.075  30.114  1.00  0.00     0.031 C 
ATOM     31  C   UNL A   1      42.334  29.664  35.571  1.00  0.00     0.029 A 
ATOM     32  C   UNL A   1      42.199  29.356  34.225  1.00  0.00     0.049 A 
ATOM     33  H   UNL A   1      41.028  30.309  32.758  1.00  0.00     0.167 HD
ATOM     34  C   UNL A   1      42.675  28.090  32.142  1.00  0.00     0.074 A 
ATOM     35  C   UNL A   1      43.370  27.064  31.393  1.00  0.00     0.031 C 
ATOM     36  C   UNL A   1      42.836  28.308  33.471  1.00  0.00     0.037 A 
BRANCH  23  37
ATOM     37  C   UNL A   1      39.596  33.147  35.584  1.00  0.00     0.057 A 
ATOM     38  C   UNL A   1      40.301  34.343  35.806  1.00  0.00     0.134 A 
ATOM     39  C   UNL A   1      38.598  32.806  36.500  1.00  0.00     0.134 A 
ATOM     40  F   UNL A   1      41.286  34.715  34.974  1.00  0.00    -0.206 F 
ATOM     41  C   UNL A   1      40.076  35.127  36.936  1.00  0.00     0.040 A 
ATOM     42  C   UNL A   1      38.341  33.602  37.619  1.00  0.00     0.040 A 
ATOM     43  F   UNL A   1      37.886  31.680  36.346  1.00  0.00    -0.206 F 
ATOM     44  C   UNL A   1      39.094  34.754  37.850  1.00  0.00     0.006 A 
ENDBRANCH  23  37
BRANCH  24  45
ATOM     45  C   UNL A   1      41.555  27.493  27.617  1.00  0.00     0.057 A 
ATOM     46  C   UNL A   1      42.370  28.012  26.603  1.00  0.00     0.134 A 
ATOM     47  C   UNL A   1      41.043  26.204  27.431  1.00  0.00     0.134 A 
ATOM     48  F   UNL A   1      42.881  29.248  26.717  1.00  0.00    -0.206 F 
ATOM     49  C   UNL A   1      42.634  27.296  25.434  1.00  0.00     0.040 A 
ATOM     50  C   UNL A   1      41.311  25.469  26.273  1.00  0.00     0.040 A 
ATOM     51  F   UNL A   1      40.269  25.642  28.371  1.00  0.00    -0.206 F 
ATOM     52  C   UNL A   1      42.101  26.020  25.265  1.00  0.00     0.006 A 
ENDBRANCH  24  45
BRANCH  36  53
ATOM     53  C   UNL A   1      43.710  27.355  34.225  1.00  0.00     0.057 A 
ATOM     54  C   UNL A   1      43.212  26.188  34.812  1.00  0.00     0.134 A 
ATOM     55  C   UNL A   1      45.090  27.589  34.307  1.00  0.00     0.134 A 
ATOM     56  F   UNL A   1      41.899  25.918  34.779  1.00  0.00    -0.206 F 
ATOM     57  C   UNL A   1      44.056  25.288  35.465  1.00  0.00     0.040 A 
ATOM     58  C   UNL A   1      45.946  26.685  34.935  1.00  0.00     0.040 A 
ATOM     59  F   UNL A   1      45.628  28.689  33.759  1.00  0.00    -0.206 F 
ATOM     60  C   UNL A   1      45.428  25.533  35.518  1.00  0.00     0.006 A 
ENDBRANCH  36  53
ENDBRANCH  10  11
ENDBRANCH   3   5
ENDBRANCH   2   3
ENDBRANCH   1   2
BRANCH   1  61
ATOM     61  C   UNL A   1      31.785  30.841  26.255  1.00  0.00     0.274 C 
BRANCH  61  62
ATOM     62  O   UNL A   1      32.496  29.735  26.849  1.00  0.00    -0.457 OA
BRANCH  62  63
ATOM     63  C   UNL A   1      31.787  28.558  26.905  1.00  0.00     0.368 C 
ATOM     64  O   UNL A   1      31.139  28.213  27.889  1.00  0.00    -0.245 OA
BRANCH  63  65
ATOM     65  C   UNL A   1      32.105  27.614  25.692  1.00  0.00     0.200 C 
ATOM     66  C   UNL A   1      33.353  27.967  24.887  1.00  0.00     0.081 C 
ATOM     67  C   UNL A   1      32.361  26.249  26.378  1.00  0.00     0.146 C 
ATOM     68  C   UNL A   1      33.762  26.902  23.875  1.00  0.00     0.013 C 
ATOM     69  C   UNL A   1      32.961  25.111  25.528  1.00  0.00     0.191 C 
ATOM     70  C   UNL A   1      34.078  25.597  24.583  1.00  0.00     0.065 C 
BRANCH  65  71
ATOM     71  N   UNL A   1      30.930  27.485  24.800  1.00  0.00    -0.329 N 
ATOM     72  H   UNL A   1      30.118  27.359  25.404  1.00  0.00     0.347 HD
ATOM     73  H   UNL A   1      31.197  26.716  24.186  1.00  0.00     0.347 HD
BRANCH  71  74
ATOM     74  C   UNL A   1      30.582  28.551  23.850  1.00  0.00     0.183 C 
ATOM     75  C   UNL A   1      30.630  28.480  22.353  1.00  0.00     0.071 C 
ATOM     76  C   UNL A   1      29.307  28.416  23.051  1.00  0.00     0.071 C 
ENDBRANCH  71  74
ENDBRANCH  65  71
BRANCH  69  77
ATOM     77  N   UNL A   1      33.368  23.912  26.308  1.00  0.00    -0.331 N 
ATOM     78  C   UNL A   1      34.517  23.149  25.808  1.00  0.00     0.278 C 
ATOM     79  C   UNL A   1      32.341  23.023  26.859  1.00  0.00     0.278 C 
ATOM     80  H   UNL A   1      33.686  24.440  27.120  1.00  0.00     0.348 HD
ATOM     81  C   UNL A   1      34.251  22.133  24.704  1.00  0.00     0.198 C 
ATOM     82  C   UNL A   1      31.646  22.177  25.819  1.00  0.00     0.198 C 
ATOM     83  S   UNL A   1      32.817  21.127  24.998  1.00  0.00     0.161 S 
ATOM     84  O   UNL A   1      32.246  20.790  23.703  1.00  0.00    -0.228 OA
ATOM     85  O   UNL A   1      33.189  20.078  25.928  1.00  0.00    -0.228 OA
ENDBRANCH  69  77
ENDBRANCH  63  65
ENDBRANCH  62  63
ENDBRANCH  61  62
ENDBRANCH   1  61
TORSDOF 14
ENDMDL
MODEL 2
REMARK VINA RESULT:     -11.6      1.253      2.074
REMARK SMILES O=C(OCCOC(=O)[C@@]1([NH2+]C2CC2)CCC[C@@H]([NH+]2CCS(=O)(=O)CC2)C1)c1ccc(-c2c3nc(c(-c4c(F)cccc4F)c4ccc([nH]4)c(-c4c(F)cccc4F)c4nc(c(-c5c(F)cccc5F)c5ccc2[nH]5)C=C4)C=C3)cc1
REMARK SMILES IDX 4 1 3 2 2 3 1 4 27 5 28 6 80 7 29 8 79 9 30 10 31 11 32 12
REMARK SMILES IDX 73 13 33 14 78 15 72 16 74 17 34 18 77 19 71 20 70 21 35 23
REMARK SMILES IDX 61 24 44 25 60 26 45 27 48 28 59 29 75 30 46 31 47 32 58 34
REMARK SMILES IDX 76 35 49 36 36 37 37 38 42 39 38 40 39 41 41 42 43 43 40 44
REMARK SMILES IDX 62 45 63 46 68 47 64 48 65 49 67 50 69 51 66 52 50 53 51 54
REMARK SMILES IDX 56 55 52 56 53 57 55 58 57 59 54 60 5 61 6 62 7 63 8 64 9 65
REMARK SMILES IDX 14 66 26 67 15 68 17 69 16 70 10 71 11 74 12 75 13 76 18 77
REMARK SMILES IDX 19 78 25 79 20 81 24 82 21 83 22 84 23 85
REMARK H PARENT 74 22 48 33 10 72 10 73 18 80
REMARK Flexibility Score: inf
ROOT
ATOM      1  C   UNL A   1      31.402  32.305  26.876  1.00  0.00     0.275 C 
ENDROOT
BRANCH   1   2
ATOM      2  O   UNL A   1      32.432  33.313  26.900  1.00  0.00    -0.458 OA
BRANCH   2   3
ATOM      3  C   UNL A   1      33.048  33.796  28.001  1.00  0.00     0.338 C 
ATOM      4  O   UNL A   1      32.537  34.703  28.650  1.00  0.00    -0.246 OA
BRANCH   3   5
ATOM      5  C   UNL A   1      34.350  33.229  28.452  1.00  0.00     0.060 A 
ATOM      6  C   UNL A   1      35.589  33.868  28.354  1.00  0.00     0.016 A 
ATOM      7  C   UNL A   1      34.309  31.945  28.998  1.00  0.00     0.016 A 
ATOM      8  C   UNL A   1      36.740  33.289  28.912  1.00  0.00     0.010 A 
ATOM      9  C   UNL A   1      35.439  31.392  29.596  1.00  0.00     0.010 A 
ATOM     10  C   UNL A   1      36.672  32.053  29.564  1.00  0.00    -0.014 A 
BRANCH  10  11
ATOM     11  C   UNL A   1      37.876  31.387  30.130  1.00  0.00     0.031 A 
ATOM     12  C   UNL A   1      38.346  31.776  31.508  1.00  0.00     0.074 A 
ATOM     13  C   UNL A   1      38.598  30.501  29.411  1.00  0.00     0.049 A 
ATOM     14  N   UNL A   1      39.338  31.292  32.210  1.00  0.00    -0.248 NA
ATOM     15  C   UNL A   1      37.636  32.884  32.171  1.00  0.00     0.031 C 
ATOM     16  C   UNL A   1      38.335  30.096  28.029  1.00  0.00     0.029 A 
ATOM     17  N   UNL A   1      39.730  29.796  29.744  1.00  0.00    -0.354 N 
ATOM     18  C   UNL A   1      39.325  32.007  33.398  1.00  0.00     0.074 A 
ATOM     19  C   UNL A   1      38.382  33.086  33.242  1.00  0.00     0.031 C 
ATOM     20  C   UNL A   1      39.294  29.241  27.627  1.00  0.00     0.029 A 
ATOM     21  C   UNL A   1      40.223  29.015  28.727  1.00  0.00     0.049 A 
ATOM     22  H   UNL A   1      40.150  29.847  30.633  1.00  0.00     0.167 HD
ATOM     23  C   UNL A   1      39.930  31.717  34.573  1.00  0.00     0.037 A 
ATOM     24  C   UNL A   1      41.285  28.185  28.698  1.00  0.00     0.037 A 
ATOM     25  C   UNL A   1      40.832  30.619  34.747  1.00  0.00     0.049 A 
ATOM     26  C   UNL A   1      42.022  27.913  29.983  1.00  0.00     0.074 A 
ATOM     27  C   UNL A   1      41.423  30.150  35.903  1.00  0.00     0.029 A 
ATOM     28  N   UNL A   1      41.276  29.817  33.706  1.00  0.00    -0.354 N 
ATOM     29  N   UNL A   1      41.843  28.447  31.167  1.00  0.00    -0.248 NA
ATOM     30  C   UNL A   1      43.054  26.867  29.948  1.00  0.00     0.031 C 
ATOM     31  C   UNL A   1      42.247  29.070  35.555  1.00  0.00     0.029 A 
ATOM     32  C   UNL A   1      42.144  28.858  34.188  1.00  0.00     0.049 A 
ATOM     33  H   UNL A   1      41.011  29.916  32.764  1.00  0.00     0.167 HD
ATOM     34  C   UNL A   1      42.667  27.739  32.033  1.00  0.00     0.074 A 
ATOM     35  C   UNL A   1      43.377  26.765  31.230  1.00  0.00     0.031 C 
ATOM     36  C   UNL A   1      42.796  27.862  33.378  1.00  0.00     0.037 A 
BRANCH  23  37
ATOM     37  C   UNL A   1      39.519  32.556  35.747  1.00  0.00     0.057 A 
ATOM     38  C   UNL A   1      38.425  32.180  36.547  1.00  0.00     0.134 A 
ATOM     39  C   UNL A   1      40.134  33.778  36.026  1.00  0.00     0.134 A 
ATOM     40  F   UNL A   1      37.779  31.027  36.315  1.00  0.00    -0.206 F 
ATOM     41  C   UNL A   1      37.917  33.022  37.534  1.00  0.00     0.040 A 
ATOM     42  C   UNL A   1      39.652  34.616  37.035  1.00  0.00     0.040 A 
ATOM     43  F   UNL A   1      41.183  34.197  35.302  1.00  0.00    -0.206 F 
ATOM     44  C   UNL A   1      38.530  34.248  37.778  1.00  0.00     0.006 A 
ENDBRANCH  23  37
BRANCH  24  45
ATOM     45  C   UNL A   1      41.654  27.465  27.452  1.00  0.00     0.057 A 
ATOM     46  C   UNL A   1      41.180  26.173  27.192  1.00  0.00     0.134 A 
ATOM     47  C   UNL A   1      42.524  28.030  26.512  1.00  0.00     0.134 A 
ATOM     48  F   UNL A   1      40.353  25.572  28.061  1.00  0.00    -0.206 F 
ATOM     49  C   UNL A   1      41.583  25.456  26.063  1.00  0.00     0.040 A 
ATOM     50  C   UNL A   1      42.925  27.330  25.371  1.00  0.00     0.040 A 
ATOM     51  F   UNL A   1      43.002  29.270  26.694  1.00  0.00    -0.206 F 
ATOM     52  C   UNL A   1      42.462  26.035  25.150  1.00  0.00     0.006 A 
ENDBRANCH  24  45
BRANCH  36  53
ATOM     53  C   UNL A   1      43.649  26.855  34.084  1.00  0.00     0.057 A 
ATOM     54  C   UNL A   1      43.112  25.724  34.705  1.00  0.00     0.134 A 
ATOM     55  C   UNL A   1      45.044  26.998  34.082  1.00  0.00     0.134 A 
ATOM     56  F   UNL A   1      41.784  25.541  34.753  1.00  0.00    -0.206 F 
ATOM     57  C   UNL A   1      43.932  24.772  35.312  1.00  0.00     0.040 A 
ATOM     58  C   UNL A   1      45.875  26.041  34.662  1.00  0.00     0.040 A 
ATOM     59  F   UNL A   1      45.619  28.060  33.497  1.00  0.00    -0.206 F 
ATOM     60  C   UNL A   1      45.318  24.926  35.282  1.00  0.00     0.006 A 
ENDBRANCH  36  53
ENDBRANCH  10  11
ENDBRANCH   3   5
ENDBRANCH   2   3
ENDBRANCH   1   2
BRANCH   1  61
ATOM     61  C   UNL A   1      31.865  30.899  26.497  1.00  0.00     0.274 C 
BRANCH  61  62
ATOM     62  O   UNL A   1      31.206  30.343  25.341  1.00  0.00    -0.457 OA
BRANCH  62  63
ATOM     63  C   UNL A   1      31.406  28.994  25.157  1.00  0.00     0.368 C 
ATOM     64  O   UNL A   1      31.407  28.185  26.080  1.00  0.00    -0.245 OA
BRANCH  63  65
ATOM     65  C   UNL A   1      31.876  28.656  23.698  1.00  0.00     0.200 C 
ATOM     66  C   UNL A   1      33.378  28.763  23.444  1.00  0.00     0.081 C 
ATOM     67  C   UNL A   1      31.480  27.166  23.547  1.00  0.00     0.146 C 
ATOM     68  C   UNL A   1      33.822  28.202  22.098  1.00  0.00     0.013 C 
ATOM     69  C   UNL A   1      32.015  26.394  22.325  1.00  0.00     0.191 C 
ATOM     70  C   UNL A   1      33.488  26.723  22.008  1.00  0.00     0.065 C 
BRANCH  65  71
ATOM     71  N   UNL A   1      31.123  29.452  22.702  1.00  0.00    -0.329 N 
ATOM     72  H   UNL A   1      31.602  29.328  21.810  1.00  0.00     0.347 HD
ATOM     73  H   UNL A   1      31.113  30.383  23.118  1.00  0.00     0.347 HD
BRANCH  71  74
ATOM     74  C   UNL A   1      29.698  29.195  22.450  1.00  0.00     0.183 C 
ATOM     75  C   UNL A   1      28.528  29.919  23.047  1.00  0.00     0.071 C 
ATOM     76  C   UNL A   1      28.920  30.197  21.629  1.00  0.00     0.071 C 
ENDBRANCH  71  74
ENDBRANCH  65  71
BRANCH  69  77
ATOM     77  N   UNL A   1      31.765  24.928  22.368  1.00  0.00    -0.331 N 
ATOM     78  C   UNL A   1      30.674  24.463  23.232  1.00  0.00     0.278 C 
ATOM     79  C   UNL A   1      32.899  24.000  22.400  1.00  0.00     0.278 C 
ATOM     80  H   UNL A   1      31.435  24.868  21.405  1.00  0.00     0.348 HD
ATOM     81  C   UNL A   1      30.987  24.284  24.712  1.00  0.00     0.198 C 
ATOM     82  C   UNL A   1      33.624  23.970  23.724  1.00  0.00     0.198 C 
ATOM     83  S   UNL A   1      32.525  23.448  25.015  1.00  0.00     0.161 S 
ATOM     84  O   UNL A   1      33.065  23.965  26.263  1.00  0.00    -0.228 OA
ATOM     85  O   UNL A   1      32.301  22.024  24.849  1.00  0.00    -0.228 OA
ENDBRANCH  69  77
ENDBRANCH  63  65
ENDBRANCH  62  63
ENDBRANCH  61  62
ENDBRANCH   1  61
TORSDOF 14
ENDMDL
MODEL 3
REMARK VINA RESULT:     -11.3      4.414      9.730
REMARK SMILES O=C(OCCOC(=O)[C@@]1([NH2+]C2CC2)CCC[C@@H]([NH+]2CCS(=O)(=O)CC2)C1)c1ccc(-c2c3nc(c(-c4c(F)cccc4F)c4ccc([nH]4)c(-c4c(F)cccc4F)c4nc(c(-c5c(F)cccc5F)c5ccc2[nH]5)C=C4)C=C3)cc1
REMARK SMILES IDX 4 1 3 2 2 3 1 4 27 5 28 6 80 7 29 8 79 9 30 10 31 11 32 12
REMARK SMILES IDX 73 13 33 14 78 15 72 16 74 17 34 18 77 19 71 20 70 21 35 23
REMARK SMILES IDX 61 24 44 25 60 26 45 27 48 28 59 29 75 30 46 31 47 32 58 34
REMARK SMILES IDX 76 35 49 36 36 37 37 38 42 39 38 40 39 41 41 42 43 43 40 44
REMARK SMILES IDX 62 45 63 46 68 47 64 48 65 49 67 50 69 51 66 52 50 53 51 54
REMARK SMILES IDX 56 55 52 56 53 57 55 58 57 59 54 60 5 61 6 62 7 63 8 64 9 65
REMARK SMILES IDX 14 66 26 67 15 68 17 69 16 70 10 71 11 74 12 75 13 76 18 77
REMARK SMILES IDX 19 78 25 79 20 81 24 82 21 83 22 84 23 85
REMARK H PARENT 74 22 48 33 10 72 10 73 18 80
REMARK Flexibility Score: inf
ROOT
ATOM      1  C   UNL A   1      38.488  19.697  25.751  1.00  0.00     0.275 C 
ENDROOT
BRANCH   1   2
ATOM      2  O   UNL A   1      39.753  19.119  25.376  1.00  0.00    -0.458 OA
BRANCH   2   3
ATOM      3  C   UNL A   1      40.942  19.346  25.976  1.00  0.00     0.338 C 
ATOM      4  O   UNL A   1      41.787  18.459  26.035  1.00  0.00    -0.246 OA
BRANCH   3   5
ATOM      5  C   UNL A   1      41.250  20.679  26.567  1.00  0.00     0.060 A 
ATOM      6  C   UNL A   1      41.315  20.965  27.933  1.00  0.00     0.016 A 
ATOM      7  C   UNL A   1      41.472  21.719  25.662  1.00  0.00     0.016 A 
ATOM      8  C   UNL A   1      41.724  22.230  28.382  1.00  0.00     0.010 A 
ATOM      9  C   UNL A   1      41.925  22.960  26.105  1.00  0.00     0.010 A 
ATOM     10  C   UNL A   1      42.060  23.237  27.470  1.00  0.00    -0.014 A 
BRANCH  10  11
ATOM     11  C   UNL A   1      42.455  24.603  27.906  1.00  0.00     0.031 A 
ATOM     12  C   UNL A   1      43.920  24.946  27.991  1.00  0.00     0.074 A 
ATOM     13  C   UNL A   1      41.539  25.514  28.296  1.00  0.00     0.049 A 
ATOM     14  N   UNL A   1      44.485  26.086  28.300  1.00  0.00    -0.248 NA
ATOM     15  C   UNL A   1      44.881  23.858  27.738  1.00  0.00     0.031 C 
ATOM     16  C   UNL A   1      40.092  25.303  28.369  1.00  0.00     0.029 A 
ATOM     17  N   UNL A   1      41.700  26.806  28.736  1.00  0.00    -0.354 N 
ATOM     18  C   UNL A   1      45.850  25.846  28.226  1.00  0.00     0.074 A 
ATOM     19  C   UNL A   1      46.029  24.426  28.059  1.00  0.00     0.031 C 
ATOM     20  C   UNL A   1      39.506  26.413  28.854  1.00  0.00     0.029 A 
ATOM     21  C   UNL A   1      40.527  27.424  29.100  1.00  0.00     0.049 A 
ATOM     22  H   UNL A   1      42.577  27.250  28.787  1.00  0.00     0.167 HD
ATOM     23  C   UNL A   1      46.867  26.735  28.157  1.00  0.00     0.037 A 
ATOM     24  C   UNL A   1      40.301  28.675  29.549  1.00  0.00     0.037 A 
ATOM     25  C   UNL A   1      46.689  28.150  28.275  1.00  0.00     0.049 A 
ATOM     26  C   UNL A   1      41.443  29.656  29.555  1.00  0.00     0.074 A 
ATOM     27  C   UNL A   1      47.614  29.162  28.113  1.00  0.00     0.029 A 
ATOM     28  N   UNL A   1      45.480  28.748  28.598  1.00  0.00    -0.354 N 
ATOM     29  N   UNL A   1      42.705  29.456  29.262  1.00  0.00    -0.248 NA
ATOM     30  C   UNL A   1      41.117  31.053  29.876  1.00  0.00     0.031 C 
ATOM     31  C   UNL A   1      46.964  30.379  28.360  1.00  0.00     0.029 A 
ATOM     32  C   UNL A   1      45.633  30.119  28.650  1.00  0.00     0.049 A 
ATOM     33  H   UNL A   1      44.639  28.267  28.764  1.00  0.00     0.167 HD
ATOM     34  C   UNL A   1      43.302  30.711  29.269  1.00  0.00     0.074 A 
ATOM     35  C   UNL A   1      42.271  31.660  29.636  1.00  0.00     0.031 C 
ATOM     36  C   UNL A   1      44.579  31.049  28.963  1.00  0.00     0.037 A 
BRANCH  23  37
ATOM     37  C   UNL A   1      48.215  26.162  27.831  1.00  0.00     0.057 A 
ATOM     38  C   UNL A   1      49.089  25.759  28.857  1.00  0.00     0.134 A 
ATOM     39  C   UNL A   1      48.689  26.101  26.519  1.00  0.00     0.134 A 
ATOM     40  F   UNL A   1      48.700  25.816  30.141  1.00  0.00    -0.206 F 
ATOM     41  C   UNL A   1      50.405  25.386  28.594  1.00  0.00     0.040 A 
ATOM     42  C   UNL A   1      49.997  25.697  26.240  1.00  0.00     0.040 A 
ATOM     43  F   UNL A   1      47.907  26.469  25.493  1.00  0.00    -0.206 F 
ATOM     44  C   UNL A   1      50.864  25.357  27.280  1.00  0.00     0.006 A 
ENDBRANCH  23  37
BRANCH  24  45
ATOM     45  C   UNL A   1      38.931  29.112  29.924  1.00  0.00     0.057 A 
ATOM     46  C   UNL A   1      38.468  29.000  31.241  1.00  0.00     0.134 A 
ATOM     47  C   UNL A   1      38.037  29.612  28.971  1.00  0.00     0.134 A 
ATOM     48  F   UNL A   1      39.274  28.517  32.199  1.00  0.00    -0.206 F 
ATOM     49  C   UNL A   1      37.158  29.334  31.591  1.00  0.00     0.040 A 
ATOM     50  C   UNL A   1      36.727  29.963  29.308  1.00  0.00     0.040 A 
ATOM     51  F   UNL A   1      38.422  29.758  27.695  1.00  0.00    -0.206 F 
ATOM     52  C   UNL A   1      36.281  29.815  30.620  1.00  0.00     0.006 A 
ENDBRANCH  24  45
BRANCH  36  53
ATOM     53  C   UNL A   1      44.911  32.507  28.902  1.00  0.00     0.057 A 
ATOM     54  C   UNL A   1      45.483  33.189  29.981  1.00  0.00     0.134 A 
ATOM     55  C   UNL A   1      44.707  33.221  27.713  1.00  0.00     0.134 A 
ATOM     56  F   UNL A   1      45.688  32.563  31.149  1.00  0.00    -0.206 F 
ATOM     57  C   UNL A   1      45.832  34.537  29.883  1.00  0.00     0.040 A 
ATOM     58  C   UNL A   1      45.075  34.560  27.595  1.00  0.00     0.040 A 
ATOM     59  F   UNL A   1      44.166  32.620  26.642  1.00  0.00    -0.206 F 
ATOM     60  C   UNL A   1      45.636  35.222  28.684  1.00  0.00     0.006 A 
ENDBRANCH  36  53
ENDBRANCH  10  11
ENDBRANCH   3   5
ENDBRANCH   2   3
ENDBRANCH   1   2
BRANCH   1  61
ATOM     61  C   UNL A   1      37.717  20.383  24.624  1.00  0.00     0.274 C 
BRANCH  61  62
ATOM     62  O   UNL A   1      37.391  21.766  24.877  1.00  0.00    -0.457 OA
BRANCH  62  63
ATOM     63  C   UNL A   1      36.587  22.351  23.928  1.00  0.00     0.368 C 
ATOM     64  O   UNL A   1      36.991  22.671  22.813  1.00  0.00    -0.245 OA
BRANCH  63  65
ATOM     65  C   UNL A   1      35.196  22.784  24.510  1.00  0.00     0.200 C 
ATOM     66  C   UNL A   1      35.164  23.063  26.012  1.00  0.00     0.081 C 
ATOM     67  C   UNL A   1      34.918  24.121  23.780  1.00  0.00     0.146 C 
ATOM     68  C   UNL A   1      33.870  23.706  26.497  1.00  0.00     0.013 C 
ATOM     69  C   UNL A   1      33.749  24.993  24.281  1.00  0.00     0.191 C 
ATOM     70  C   UNL A   1      33.662  25.048  25.819  1.00  0.00     0.065 C 
BRANCH  65  71
ATOM     71  N   UNL A   1      34.141  21.812  24.141  1.00  0.00    -0.329 N 
ATOM     72  H   UNL A   1      34.311  21.555  23.168  1.00  0.00     0.347 HD
ATOM     73  H   UNL A   1      33.283  22.315  24.363  1.00  0.00     0.347 HD
BRANCH  71  74
ATOM     74  C   UNL A   1      33.979  20.554  24.882  1.00  0.00     0.183 C 
ATOM     75  C   UNL A   1      32.717  20.019  25.492  1.00  0.00     0.071 C 
ATOM     76  C   UNL A   1      33.233  19.419  24.220  1.00  0.00     0.071 C 
ENDBRANCH  71  74
ENDBRANCH  65  71
BRANCH  69  77
ATOM     77  N   UNL A   1      33.686  26.346  23.666  1.00  0.00    -0.331 N 
ATOM     78  C   UNL A   1      33.190  27.439  24.509  1.00  0.00     0.278 C 
ATOM     79  C   UNL A   1      33.224  26.491  22.282  1.00  0.00     0.278 C 
ATOM     80  H   UNL A   1      34.697  26.455  23.592  1.00  0.00     0.348 HD
ATOM     81  C   UNL A   1      31.679  27.602  24.620  1.00  0.00     0.198 C 
ATOM     82  C   UNL A   1      31.739  26.285  22.111  1.00  0.00     0.198 C 
ATOM     83  S   UNL A   1      30.838  27.483  23.059  1.00  0.00     0.161 S 
ATOM     84  O   UNL A   1      29.522  26.918  23.314  1.00  0.00    -0.228 OA
ATOM     85  O   UNL A   1      30.966  28.761  22.383  1.00  0.00    -0.228 OA
ENDBRANCH  69  77
ENDBRANCH  63  65
ENDBRANCH  62  63
ENDBRANCH  61  62
ENDBRANCH   1  61
TORSDOF 14
ENDMDL
