MODEL 1
REMARK VINA RESULT:     -12.5      0.000      0.000
REMARK SMILES Cc1ccc(/C=C(\NC(=O)c2cccc(C)c2)C(=O)OCCOC(=O)c2ccc(-c3c4nc(c(-c5c(F)cccc5F)c5ccc([nH]5)c(-c5c(F)cccc5F)c5nc(c(-c6c(F)cccc6F)c6ccc3[nH]6)C=C5)C=C4)cc2)cc1
REMARK SMILES IDX 21 1 20 2 18 3 19 4 7 5 6 6 5 7 1 8 2 9 3 10 81 11 4 12
REMARK SMILES IDX 80 13 8 14 9 15 10 17 11 18 12 19 17 20 13 21 15 22 14 23
REMARK SMILES IDX 16 24 22 25 23 26 24 27 25 28 26 29 27 30 79 31 28 32 78 33
REMARK SMILES IDX 29 34 30 35 31 36 72 37 32 38 77 39 71 40 73 41 33 42 76 43
REMARK SMILES IDX 70 44 69 45 34 47 60 48 43 49 59 50 44 51 47 52 58 53 74 54
REMARK SMILES IDX 45 55 46 56 57 58 75 59 48 60 35 61 36 62 41 63 37 64 38 65
REMARK SMILES IDX 40 66 42 67 39 68 61 69 62 70 67 71 63 72 64 73 66 74 68 75
REMARK SMILES IDX 65 76 49 77 50 78 55 79 51 80 52 81 54 82 56 83 53 84
REMARK H PARENT 8 16 73 46 47 57
REMARK Flexibility Score: inf
ROOT
ATOM      1  C   UNL A   1      33.048  28.662  25.667  1.00  0.00     0.275 C 
ENDROOT
BRANCH   1   2
ATOM      2  O   UNL A   1      31.815  28.088  25.174  1.00  0.00    -0.457 OA
BRANCH   2   3
ATOM      3  C   UNL A   1      32.011  26.996  24.409  1.00  0.00     0.354 C 
ATOM      4  O   UNL A   1      31.567  26.865  23.279  1.00  0.00    -0.244 OA
BRANCH   3   5
ATOM      5  C   UNL A   1      32.798  25.909  25.020  1.00  0.00     0.128 C 
ATOM      6  C   UNL A   1      33.921  25.574  24.339  1.00  0.00     0.042 C 
BRANCH   6   7
ATOM      7  C   UNL A   1      34.903  24.452  24.413  1.00  0.00    -0.023 A 
ATOM      8  C   UNL A   1      37.771  21.213  25.001  1.00  0.00     0.044 C 
ATOM      9  C   UNL A   1      36.790  22.336  24.806  1.00  0.00    -0.051 A 
ATOM     10  C   UNL A   1      36.137  22.513  23.581  1.00  0.00     0.004 A 
ATOM     11  C   UNL A   1      36.490  23.216  25.843  1.00  0.00     0.004 A 
ATOM     12  C   UNL A   1      35.196  23.546  23.392  1.00  0.00     0.008 A 
ATOM     13  C   UNL A   1      35.561  24.251  25.646  1.00  0.00     0.008 A 
ENDBRANCH   6   7
BRANCH   5  14
ATOM     14  N   UNL A   1      32.310  25.244  26.121  1.00  0.00    -0.316 N 
ATOM     15  C   UNL A   1      31.758  23.995  26.340  1.00  0.00     0.255 C 
ATOM     16  H   UNL A   1      32.365  25.783  26.943  1.00  0.00     0.170 HD
ATOM     17  O   UNL A   1      30.918  23.967  27.250  1.00  0.00    -0.269 OA
BRANCH  15  18
ATOM     18  C   UNL A   1      32.095  22.675  25.697  1.00  0.00     0.040 A 
ATOM     19  C   UNL A   1      32.984  21.851  26.407  1.00  0.00     0.014 A 
ATOM     20  C   UNL A   1      31.823  22.301  24.377  1.00  0.00     0.017 A 
ATOM     21  C   UNL A   1      33.592  20.737  25.814  1.00  0.00     0.001 A 
ATOM     22  C   UNL A   1      32.403  21.163  23.770  1.00  0.00    -0.050 A 
ATOM     23  C   UNL A   1      33.312  20.403  24.496  1.00  0.00     0.003 A 
ATOM     24  C   UNL A   1      32.154  20.814  22.329  1.00  0.00     0.044 C 
ENDBRANCH  15  18
ENDBRANCH   5  14
ENDBRANCH   3   5
ENDBRANCH   2   3
ENDBRANCH   1   2
BRANCH   1  25
ATOM     25  C   UNL A   1      33.117  28.700  27.201  1.00  0.00     0.275 C 
BRANCH  25  26
ATOM     26  O   UNL A   1      34.445  28.950  27.691  1.00  0.00    -0.458 OA
BRANCH  26  27
ATOM     27  C   UNL A   1      34.982  30.194  27.581  1.00  0.00     0.338 C 
ATOM     28  O   UNL A   1      34.389  31.215  27.282  1.00  0.00    -0.246 OA
BRANCH  27  29
ATOM     29  C   UNL A   1      36.330  30.147  28.227  1.00  0.00     0.060 A 
ATOM     30  C   UNL A   1      36.466  29.654  29.544  1.00  0.00     0.016 A 
ATOM     31  C   UNL A   1      37.419  30.137  27.371  1.00  0.00     0.016 A 
ATOM     32  C   UNL A   1      37.629  28.955  29.934  1.00  0.00     0.010 A 
ATOM     33  C   UNL A   1      38.471  29.326  27.704  1.00  0.00     0.010 A 
ATOM     34  C   UNL A   1      38.618  28.727  28.983  1.00  0.00    -0.014 A 
BRANCH  34  35
ATOM     35  C   UNL A   1      39.897  28.003  29.140  1.00  0.00     0.031 A 
ATOM     36  C   UNL A   1      40.212  26.596  28.748  1.00  0.00     0.074 A 
ATOM     37  C   UNL A   1      40.902  28.880  29.393  1.00  0.00     0.049 A 
ATOM     38  N   UNL A   1      41.424  26.146  28.754  1.00  0.00    -0.248 NA
ATOM     39  C   UNL A   1      39.280  25.565  28.285  1.00  0.00     0.031 C 
ATOM     40  C   UNL A   1      42.335  28.809  29.174  1.00  0.00     0.029 A 
ATOM     41  N   UNL A   1      40.740  30.115  30.040  1.00  0.00    -0.354 N 
ATOM     42  C   UNL A   1      41.493  24.968  28.039  1.00  0.00     0.074 A 
ATOM     43  C   UNL A   1      40.115  24.621  27.804  1.00  0.00     0.031 C 
ATOM     44  C   UNL A   1      42.932  29.740  29.945  1.00  0.00     0.029 A 
ATOM     45  C   UNL A   1      41.894  30.311  30.794  1.00  0.00     0.049 A 
ATOM     46  H   UNL A   1      39.967  30.720  29.976  1.00  0.00     0.167 HD
ATOM     47  C   UNL A   1      42.736  24.532  27.665  1.00  0.00     0.037 A 
ATOM     48  C   UNL A   1      41.771  30.155  32.147  1.00  0.00     0.037 A 
ATOM     49  C   UNL A   1      43.751  25.213  28.469  1.00  0.00     0.049 A 
ATOM     50  C   UNL A   1      42.603  28.991  32.612  1.00  0.00     0.074 A 
ATOM     51  C   UNL A   1      44.694  26.193  28.219  1.00  0.00     0.029 A 
ATOM     52  N   UNL A   1      43.692  25.057  29.850  1.00  0.00    -0.354 N 
ATOM     53  N   UNL A   1      42.885  27.950  31.875  1.00  0.00    -0.248 NA
ATOM     54  C   UNL A   1      43.271  28.963  33.907  1.00  0.00     0.031 C 
ATOM     55  C   UNL A   1      45.079  26.736  29.479  1.00  0.00     0.029 A 
ATOM     56  C   UNL A   1      44.409  26.048  30.481  1.00  0.00     0.049 A 
ATOM     57  H   UNL A   1      43.204  24.337  30.312  1.00  0.00     0.167 HD
ATOM     58  C   UNL A   1      43.824  27.192  32.511  1.00  0.00     0.074 A 
ATOM     59  C   UNL A   1      44.002  27.841  33.798  1.00  0.00     0.031 C 
ATOM     60  C   UNL A   1      44.429  26.116  31.932  1.00  0.00     0.037 A 
BRANCH  47  61
ATOM     61  C   UNL A   1      43.127  23.603  26.527  1.00  0.00     0.057 A 
ATOM     62  C   UNL A   1      43.058  22.197  26.696  1.00  0.00     0.134 A 
ATOM     63  C   UNL A   1      43.712  24.001  25.312  1.00  0.00     0.134 A 
ATOM     64  F   UNL A   1      42.520  21.647  27.795  1.00  0.00    -0.206 F 
ATOM     65  C   UNL A   1      43.554  21.275  25.759  1.00  0.00     0.040 A 
ATOM     66  C   UNL A   1      44.183  23.086  24.350  1.00  0.00     0.040 A 
ATOM     67  F   UNL A   1      43.886  25.290  25.004  1.00  0.00    -0.206 F 
ATOM     68  C   UNL A   1      44.119  21.718  24.576  1.00  0.00     0.006 A 
ENDBRANCH  47  61
BRANCH  48  69
ATOM     69  C   UNL A   1      40.398  30.538  32.635  1.00  0.00     0.057 A 
ATOM     70  C   UNL A   1      39.503  29.497  32.978  1.00  0.00     0.134 A 
ATOM     71  C   UNL A   1      40.104  31.802  33.162  1.00  0.00     0.134 A 
ATOM     72  F   UNL A   1      39.729  28.247  32.540  1.00  0.00    -0.206 F 
ATOM     73  C   UNL A   1      38.456  29.674  33.891  1.00  0.00     0.040 A 
ATOM     74  C   UNL A   1      39.037  31.996  34.057  1.00  0.00     0.040 A 
ATOM     75  F   UNL A   1      40.897  32.852  32.906  1.00  0.00    -0.206 F 
ATOM     76  C   UNL A   1      38.235  30.924  34.454  1.00  0.00     0.006 A 
ENDBRANCH  48  69
BRANCH  60  77
ATOM     77  C   UNL A   1      45.167  25.060  32.703  1.00  0.00     0.057 A 
ATOM     78  C   UNL A   1      46.465  25.244  33.202  1.00  0.00     0.134 A 
ATOM     79  C   UNL A   1      44.516  23.883  33.129  1.00  0.00     0.134 A 
ATOM     80  F   UNL A   1      47.144  26.381  32.988  1.00  0.00    -0.206 F 
ATOM     81  C   UNL A   1      47.105  24.290  33.996  1.00  0.00     0.040 A 
ATOM     82  C   UNL A   1      45.125  22.949  33.969  1.00  0.00     0.040 A 
ATOM     83  F   UNL A   1      43.252  23.606  32.774  1.00  0.00    -0.206 F 
ATOM     84  C   UNL A   1      46.432  23.141  34.389  1.00  0.00     0.006 A 
ENDBRANCH  60  77
ENDBRANCH  34  35
ENDBRANCH  27  29
ENDBRANCH  26  27
ENDBRANCH  25  26
ENDBRANCH   1  25
TORSDOF 14
ENDMDL
MODEL 2
REMARK VINA RESULT:     -12.3      3.417      8.566
REMARK SMILES Cc1ccc(/C=C(\NC(=O)c2cccc(C)c2)C(=O)OCCOC(=O)c2ccc(-c3c4nc(c(-c5c(F)cccc5F)c5ccc([nH]5)c(-c5c(F)cccc5F)c5nc(c(-c6c(F)cccc6F)c6ccc3[nH]6)C=C5)C=C4)cc2)cc1
REMARK SMILES IDX 21 1 20 2 18 3 19 4 7 5 6 6 5 7 1 8 2 9 3 10 81 11 4 12
REMARK SMILES IDX 80 13 8 14 9 15 10 17 11 18 12 19 17 20 13 21 15 22 14 23
REMARK SMILES IDX 16 24 22 25 23 26 24 27 25 28 26 29 27 30 79 31 28 32 78 33
REMARK SMILES IDX 29 34 30 35 31 36 72 37 32 38 77 39 71 40 73 41 33 42 76 43
REMARK SMILES IDX 70 44 69 45 34 47 60 48 43 49 59 50 44 51 47 52 58 53 74 54
REMARK SMILES IDX 45 55 46 56 57 58 75 59 48 60 35 61 36 62 41 63 37 64 38 65
REMARK SMILES IDX 40 66 42 67 39 68 61 69 62 70 67 71 63 72 64 73 66 74 68 75
REMARK SMILES IDX 65 76 49 77 50 78 55 79 51 80 52 81 54 82 56 83 53 84
REMARK H PARENT 8 16 73 46 47 57
REMARK Flexibility Score: inf
ROOT
ATOM      1  C   UNL A   1      36.025  22.879  24.955  1.00  0.00     0.275 C 
ENDROOT
BRANCH   1   2
ATOM      2  O   UNL A   1      34.635  22.538  25.166  1.00  0.00    -0.457 OA
BRANCH   2   3
ATOM      3  C   UNL A   1      33.811  23.105  24.263  1.00  0.00     0.354 C 
ATOM      4  O   UNL A   1      33.147  22.475  23.455  1.00  0.00    -0.244 OA
BRANCH   3   5
ATOM      5  C   UNL A   1      33.755  24.579  24.271  1.00  0.00     0.128 C 
ATOM      6  C   UNL A   1      33.392  25.123  25.458  1.00  0.00     0.042 C 
BRANCH   6   7
ATOM      7  C   UNL A   1      32.997  26.488  25.915  1.00  0.00    -0.023 A 
ATOM      8  C   UNL A   1      32.131  30.613  27.053  1.00  0.00     0.044 C 
ATOM      9  C   UNL A   1      32.441  29.194  26.664  1.00  0.00    -0.051 A 
ATOM     10  C   UNL A   1      31.502  28.175  26.860  1.00  0.00     0.004 A 
ATOM     11  C   UNL A   1      33.660  28.859  26.080  1.00  0.00     0.004 A 
ATOM     12  C   UNL A   1      31.770  26.844  26.478  1.00  0.00     0.008 A 
ATOM     13  C   UNL A   1      33.927  27.530  25.711  1.00  0.00     0.008 A 
ENDBRANCH   6   7
BRANCH   5  14
ATOM     14  N   UNL A   1      33.941  25.278  23.101  1.00  0.00    -0.316 N 
ATOM     15  C   UNL A   1      33.111  25.962  22.231  1.00  0.00     0.255 C 
ATOM     16  H   UNL A   1      34.883  25.296  22.817  1.00  0.00     0.170 HD
ATOM     17  O   UNL A   1      33.484  25.933  21.050  1.00  0.00    -0.269 OA
BRANCH  15  18
ATOM     18  C   UNL A   1      31.890  26.792  22.529  1.00  0.00     0.040 A 
ATOM     19  C   UNL A   1      32.098  28.176  22.646  1.00  0.00     0.014 A 
ATOM     20  C   UNL A   1      30.643  26.315  22.945  1.00  0.00     0.017 A 
ATOM     21  C   UNL A   1      31.123  29.026  23.185  1.00  0.00     0.001 A 
ATOM     22  C   UNL A   1      29.634  27.160  23.462  1.00  0.00    -0.050 A 
ATOM     23  C   UNL A   1      29.901  28.518  23.603  1.00  0.00     0.003 A 
ATOM     24  C   UNL A   1      28.325  26.623  23.968  1.00  0.00     0.044 C 
ENDBRANCH  15  18
ENDBRANCH   5  14
ENDBRANCH   3   5
ENDBRANCH   2   3
ENDBRANCH   1   2
BRANCH   1  25
ATOM     25  C   UNL A   1      36.650  23.604  26.157  1.00  0.00     0.275 C 
BRANCH  25  26
ATOM     26  O   UNL A   1      37.988  24.059  25.895  1.00  0.00    -0.458 OA
BRANCH  26  27
ATOM     27  C   UNL A   1      39.033  23.501  26.562  1.00  0.00     0.338 C 
ATOM     28  O   UNL A   1      39.381  22.335  26.518  1.00  0.00    -0.246 OA
BRANCH  27  29
ATOM     29  C   UNL A   1      39.879  24.626  27.070  1.00  0.00     0.060 A 
ATOM     30  C   UNL A   1      40.373  25.599  26.173  1.00  0.00     0.016 A 
ATOM     31  C   UNL A   1      39.751  24.929  28.415  1.00  0.00     0.016 A 
ATOM     32  C   UNL A   1      40.533  26.940  26.583  1.00  0.00     0.010 A 
ATOM     33  C   UNL A   1      39.758  26.254  28.762  1.00  0.00     0.010 A 
ATOM     34  C   UNL A   1      40.157  27.290  27.876  1.00  0.00    -0.014 A 
BRANCH  34  35
ATOM     35  C   UNL A   1      40.201  28.618  28.521  1.00  0.00     0.031 A 
ATOM     36  C   UNL A   1      39.136  29.666  28.544  1.00  0.00     0.074 A 
ATOM     37  C   UNL A   1      41.230  28.674  29.405  1.00  0.00     0.049 A 
ATOM     38  N   UNL A   1      39.222  30.703  29.313  1.00  0.00    -0.248 NA
ATOM     39  C   UNL A   1      37.882  29.685  27.789  1.00  0.00     0.031 C 
ATOM     40  C   UNL A   1      41.455  29.485  30.589  1.00  0.00     0.029 A 
ATOM     41  N   UNL A   1      42.419  27.936  29.295  1.00  0.00    -0.354 N 
ATOM     42  C   UNL A   1      37.992  31.320  29.410  1.00  0.00     0.074 A 
ATOM     43  C   UNL A   1      37.194  30.672  28.400  1.00  0.00     0.031 C 
ATOM     44  C   UNL A   1      42.770  29.456  30.883  1.00  0.00     0.029 A 
ATOM     45  C   UNL A   1      43.431  28.755  29.788  1.00  0.00     0.049 A 
ATOM     46  H   UNL A   1      42.518  27.023  28.940  1.00  0.00     0.167 HD
ATOM     47  C   UNL A   1      37.821  32.223  30.426  1.00  0.00     0.037 A 
ATOM     48  C   UNL A   1      44.276  29.302  28.863  1.00  0.00     0.037 A 
ATOM     49  C   UNL A   1      39.130  32.631  30.938  1.00  0.00     0.049 A 
ATOM     50  C   UNL A   1      44.136  30.801  28.855  1.00  0.00     0.074 A 
ATOM     51  C   UNL A   1      39.839  32.388  32.099  1.00  0.00     0.029 A 
ATOM     52  N   UNL A   1      40.014  33.226  30.044  1.00  0.00    -0.354 N 
ATOM     53  N   UNL A   1      43.039  31.436  29.169  1.00  0.00    -0.248 NA
ATOM     54  C   UNL A   1      45.255  31.698  28.599  1.00  0.00     0.031 C 
ATOM     55  C   UNL A   1      41.204  32.697  31.828  1.00  0.00     0.029 A 
ATOM     56  C   UNL A   1      41.301  33.173  30.528  1.00  0.00     0.049 A 
ATOM     57  H   UNL A   1      39.755  33.630  29.184  1.00  0.00     0.167 HD
ATOM     58  C   UNL A   1      43.308  32.769  29.270  1.00  0.00     0.074 A 
ATOM     59  C   UNL A   1      44.697  32.891  28.862  1.00  0.00     0.031 C 
ATOM     60  C   UNL A   1      42.400  33.680  29.724  1.00  0.00     0.037 A 
BRANCH  47  61
ATOM     61  C   UNL A   1      36.535  32.692  31.089  1.00  0.00     0.057 A 
ATOM     62  C   UNL A   1      35.771  33.735  30.507  1.00  0.00     0.134 A 
ATOM     63  C   UNL A   1      36.071  32.283  32.351  1.00  0.00     0.134 A 
ATOM     64  F   UNL A   1      36.071  34.236  29.300  1.00  0.00    -0.206 F 
ATOM     65  C   UNL A   1      34.667  34.335  31.137  1.00  0.00     0.040 A 
ATOM     66  C   UNL A   1      34.947  32.855  32.978  1.00  0.00     0.040 A 
ATOM     67  F   UNL A   1      36.694  31.334  33.056  1.00  0.00    -0.206 F 
ATOM     68  C   UNL A   1      34.248  33.895  32.379  1.00  0.00     0.006 A 
ENDBRANCH  47  61
BRANCH  48  69
ATOM     69  C   UNL A   1      44.457  28.404  27.667  1.00  0.00     0.057 A 
ATOM     70  C   UNL A   1      45.147  27.183  27.855  1.00  0.00     0.134 A 
ATOM     71  C   UNL A   1      43.650  28.486  26.525  1.00  0.00     0.134 A 
ATOM     72  F   UNL A   1      45.919  27.009  28.941  1.00  0.00    -0.206 F 
ATOM     73  C   UNL A   1      44.947  26.069  27.030  1.00  0.00     0.040 A 
ATOM     74  C   UNL A   1      43.465  27.382  25.674  1.00  0.00     0.040 A 
ATOM     75  F   UNL A   1      42.946  29.595  26.263  1.00  0.00    -0.206 F 
ATOM     76  C   UNL A   1      44.082  26.160  25.947  1.00  0.00     0.006 A 
ENDBRANCH  48  69
BRANCH  60  77
ATOM     77  C   UNL A   1      42.521  35.160  29.502  1.00  0.00     0.057 A 
ATOM     78  C   UNL A   1      43.432  35.966  30.201  1.00  0.00     0.134 A 
ATOM     79  C   UNL A   1      41.846  35.792  28.436  1.00  0.00     0.134 A 
ATOM     80  F   UNL A   1      44.237  35.458  31.145  1.00  0.00    -0.206 F 
ATOM     81  C   UNL A   1      43.599  37.324  29.921  1.00  0.00     0.040 A 
ATOM     82  C   UNL A   1      42.048  37.135  28.110  1.00  0.00     0.040 A 
ATOM     83  F   UNL A   1      40.988  35.126  27.648  1.00  0.00    -0.206 F 
ATOM     84  C   UNL A   1      42.912  37.911  28.866  1.00  0.00     0.006 A 
ENDBRANCH  60  77
ENDBRANCH  34  35
ENDBRANCH  27  29
ENDBRANCH  26  27
ENDBRANCH  25  26
ENDBRANCH   1  25
TORSDOF 14
ENDMDL
MODEL 3
REMARK VINA RESULT:     -12.0      1.347      2.291
REMARK SMILES Cc1ccc(/C=C(\NC(=O)c2cccc(C)c2)C(=O)OCCOC(=O)c2ccc(-c3c4nc(c(-c5c(F)cccc5F)c5ccc([nH]5)c(-c5c(F)cccc5F)c5nc(c(-c6c(F)cccc6F)c6ccc3[nH]6)C=C5)C=C4)cc2)cc1
REMARK SMILES IDX 21 1 20 2 18 3 19 4 7 5 6 6 5 7 1 8 2 9 3 10 81 11 4 12
REMARK SMILES IDX 80 13 8 14 9 15 10 17 11 18 12 19 17 20 13 21 15 22 14 23
REMARK SMILES IDX 16 24 22 25 23 26 24 27 25 28 26 29 27 30 79 31 28 32 78 33
REMARK SMILES IDX 29 34 30 35 31 36 72 37 32 38 77 39 71 40 73 41 33 42 76 43
REMARK SMILES IDX 70 44 69 45 34 47 60 48 43 49 59 50 44 51 47 52 58 53 74 54
REMARK SMILES IDX 45 55 46 56 57 58 75 59 48 60 35 61 36 62 41 63 37 64 38 65
REMARK SMILES IDX 40 66 42 67 39 68 61 69 62 70 67 71 63 72 64 73 66 74 68 75
REMARK SMILES IDX 65 76 49 77 50 78 55 79 51 80 52 81 54 82 56 83 53 84
REMARK H PARENT 8 16 73 46 47 57
REMARK Flexibility Score: inf
ROOT
ATOM      1  C   UNL A   1      33.398  30.210  27.493  1.00  0.00     0.275 C 
ENDROOT
BRANCH   1   2
ATOM      2  O   UNL A   1      34.042  29.585  26.358  1.00  0.00    -0.457 OA
BRANCH   2   3
ATOM      3  C   UNL A   1      33.172  29.212  25.399  1.00  0.00     0.354 C 
ATOM      4  O   UNL A   1      32.257  29.914  24.998  1.00  0.00    -0.244 OA
BRANCH   3   5
ATOM      5  C   UNL A   1      33.359  27.859  24.843  1.00  0.00     0.128 C 
ATOM      6  C   UNL A   1      33.528  26.886  25.772  1.00  0.00     0.042 C 
BRANCH   6   7
ATOM      7  C   UNL A   1      33.947  25.454  25.733  1.00  0.00    -0.023 A 
ATOM      8  C   UNL A   1      34.816  21.176  25.692  1.00  0.00     0.044 C 
ATOM      9  C   UNL A   1      34.511  22.648  25.717  1.00  0.00    -0.051 A 
ATOM     10  C   UNL A   1      35.422  23.578  25.206  1.00  0.00     0.004 A 
ATOM     11  C   UNL A   1      33.306  23.123  26.229  1.00  0.00     0.004 A 
ATOM     12  C   UNL A   1      35.138  24.959  25.200  1.00  0.00     0.008 A 
ATOM     13  C   UNL A   1      33.032  24.500  26.233  1.00  0.00     0.008 A 
ENDBRANCH   6   7
BRANCH   5  14
ATOM     14  N   UNL A   1      33.473  27.687  23.484  1.00  0.00    -0.316 N 
ATOM     15  C   UNL A   1      33.365  26.607  22.625  1.00  0.00     0.255 C 
ATOM     16  H   UNL A   1      33.680  28.526  23.012  1.00  0.00     0.170 HD
ATOM     17  O   UNL A   1      34.092  26.684  21.624  1.00  0.00    -0.269 OA
BRANCH  15  18
ATOM     18  C   UNL A   1      32.443  25.419  22.694  1.00  0.00     0.040 A 
ATOM     19  C   UNL A   1      31.159  25.663  23.210  1.00  0.00     0.014 A 
ATOM     20  C   UNL A   1      32.805  24.077  22.543  1.00  0.00     0.017 A 
ATOM     21  C   UNL A   1      30.303  24.619  23.585  1.00  0.00     0.001 A 
ATOM     22  C   UNL A   1      31.944  23.008  22.886  1.00  0.00    -0.050 A 
ATOM     23  C   UNL A   1      30.700  23.297  23.436  1.00  0.00     0.003 A 
ATOM     24  C   UNL A   1      32.375  21.572  22.782  1.00  0.00     0.044 C 
ENDBRANCH  15  18
ENDBRANCH   5  14
ENDBRANCH   3   5
ENDBRANCH   2   3
ENDBRANCH   1   2
BRANCH   1  25
ATOM     25  C   UNL A   1      33.924  31.626  27.772  1.00  0.00     0.275 C 
BRANCH  25  26
ATOM     26  O   UNL A   1      35.360  31.692  27.783  1.00  0.00    -0.458 OA
BRANCH  26  27
ATOM     27  C   UNL A   1      36.041  31.378  28.916  1.00  0.00     0.338 C 
ATOM     28  O   UNL A   1      35.856  31.845  30.026  1.00  0.00    -0.246 OA
BRANCH  27  29
ATOM     29  C   UNL A   1      36.805  30.123  28.634  1.00  0.00     0.060 A 
ATOM     30  C   UNL A   1      37.656  30.052  27.510  1.00  0.00     0.016 A 
ATOM     31  C   UNL A   1      37.013  29.278  29.712  1.00  0.00     0.016 A 
ATOM     32  C   UNL A   1      38.843  29.288  27.552  1.00  0.00     0.010 A 
ATOM     33  C   UNL A   1      38.237  28.670  29.803  1.00  0.00     0.010 A 
ATOM     34  C   UNL A   1      39.175  28.641  28.738  1.00  0.00    -0.014 A 
BRANCH  34  35
ATOM     35  C   UNL A   1      40.364  27.817  29.035  1.00  0.00     0.031 A 
ATOM     36  C   UNL A   1      40.598  26.381  28.692  1.00  0.00     0.074 A 
ATOM     37  C   UNL A   1      41.408  28.611  29.385  1.00  0.00     0.049 A 
ATOM     38  N   UNL A   1      41.761  25.832  28.829  1.00  0.00    -0.248 NA
ATOM     39  C   UNL A   1      39.636  25.424  28.143  1.00  0.00     0.031 C 
ATOM     40  C   UNL A   1      42.845  28.416  29.319  1.00  0.00     0.029 A 
ATOM     41  N   UNL A   1      41.285  29.867  30.000  1.00  0.00    -0.354 N 
ATOM     42  C   UNL A   1      41.803  24.640  28.136  1.00  0.00     0.074 A 
ATOM     43  C   UNL A   1      40.432  24.404  27.761  1.00  0.00     0.031 C 
ATOM     44  C   UNL A   1      43.435  29.308  30.140  1.00  0.00     0.029 A 
ATOM     45  C   UNL A   1      42.366  29.979  30.870  1.00  0.00     0.049 A 
ATOM     46  H   UNL A   1      40.577  30.533  29.849  1.00  0.00     0.167 HD
ATOM     47  C   UNL A   1      43.037  24.095  27.900  1.00  0.00     0.037 A 
ATOM     48  C   UNL A   1      42.090  29.859  32.203  1.00  0.00     0.037 A 
ATOM     49  C   UNL A   1      44.017  24.704  28.800  1.00  0.00     0.049 A 
ATOM     50  C   UNL A   1      42.768  28.637  32.764  1.00  0.00     0.074 A 
ATOM     51  C   UNL A   1      45.060  25.596  28.641  1.00  0.00     0.029 A 
ATOM     52  N   UNL A   1      43.801  24.577  30.168  1.00  0.00    -0.354 N 
ATOM     53  N   UNL A   1      43.036  27.564  32.070  1.00  0.00    -0.248 NA
ATOM     54  C   UNL A   1      43.292  28.578  34.122  1.00  0.00     0.031 C 
ATOM     55  C   UNL A   1      45.357  26.128  29.930  1.00  0.00     0.029 A 
ATOM     56  C   UNL A   1      44.529  25.516  30.862  1.00  0.00     0.049 A 
ATOM     57  H   UNL A   1      43.208  23.909  30.583  1.00  0.00     0.167 HD
ATOM     58  C   UNL A   1      43.836  26.742  32.808  1.00  0.00     0.074 A 
ATOM     59  C   UNL A   1      43.933  27.397  34.101  1.00  0.00     0.031 C 
ATOM     60  C   UNL A   1      44.405  25.609  32.307  1.00  0.00     0.037 A 
BRANCH  47  61
ATOM     61  C   UNL A   1      43.464  23.116  26.817  1.00  0.00     0.057 A 
ATOM     62  C   UNL A   1      43.012  21.772  26.850  1.00  0.00     0.134 A 
ATOM     63  C   UNL A   1      44.418  23.370  25.817  1.00  0.00     0.134 A 
ATOM     64  F   UNL A   1      42.093  21.362  27.737  1.00  0.00    -0.206 F 
ATOM     65  C   UNL A   1      43.487  20.770  25.988  1.00  0.00     0.040 A 
ATOM     66  C   UNL A   1      44.879  22.381  24.926  1.00  0.00     0.040 A 
ATOM     67  F   UNL A   1      44.976  24.575  25.667  1.00  0.00    -0.206 F 
ATOM     68  C   UNL A   1      44.426  21.072  25.017  1.00  0.00     0.006 A 
ENDBRANCH  47  61
BRANCH  48  69
ATOM     69  C   UNL A   1      40.711  30.364  32.540  1.00  0.00     0.057 A 
ATOM     70  C   UNL A   1      39.727  29.412  32.897  1.00  0.00     0.134 A 
ATOM     71  C   UNL A   1      40.460  31.685  32.929  1.00  0.00     0.134 A 
ATOM     72  F   UNL A   1      39.904  28.116  32.589  1.00  0.00    -0.206 F 
ATOM     73  C   UNL A   1      38.625  29.732  33.700  1.00  0.00     0.040 A 
ATOM     74  C   UNL A   1      39.342  32.022  33.713  1.00  0.00     0.040 A 
ATOM     75  F   UNL A   1      41.337  32.659  32.651  1.00  0.00    -0.206 F 
ATOM     76  C   UNL A   1      38.444  31.039  34.132  1.00  0.00     0.006 A 
ENDBRANCH  48  69
BRANCH  60  77
ATOM     77  C   UNL A   1      44.966  24.509  33.161  1.00  0.00     0.057 A 
ATOM     78  C   UNL A   1      44.310  23.284  33.357  1.00  0.00     0.134 A 
ATOM     79  C   UNL A   1      46.281  24.580  33.665  1.00  0.00     0.134 A 
ATOM     80  F   UNL A   1      43.111  23.035  32.811  1.00  0.00    -0.206 F 
ATOM     81  C   UNL A   1      44.884  22.234  34.078  1.00  0.00     0.040 A 
ATOM     82  C   UNL A   1      46.886  23.516  34.338  1.00  0.00     0.040 A 
ATOM     83  F   UNL A   1      47.044  25.671  33.500  1.00  0.00    -0.206 F 
ATOM     84  C   UNL A   1      46.180  22.345  34.564  1.00  0.00     0.006 A 
ENDBRANCH  60  77
ENDBRANCH  34  35
ENDBRANCH  27  29
ENDBRANCH  26  27
ENDBRANCH  25  26
ENDBRANCH   1  25
TORSDOF 14
ENDMDL
