MODEL 1
REMARK VINA RESULT:     -10.5      0.000      0.000
REMARK SMILES CCCOc1cc(NC[C@H]2CC[C@@H](C(=O)OCCOC(=O)c3ccc(-c4c5nc(c(-c6c(F)cccc6F)c6ccc([nH]6)c(-c6c(F)cccc6F)c6nc(c(-c7c(F)cccc7F)c7ccc4[nH]7)C=C6)C=C5)cc3)O2)ncn1
REMARK SMILES IDX 14 1 15 2 13 3 10 4 11 5 76 6 12 7 9 8 8 9 7 11 5 12 6 13
REMARK SMILES IDX 79 14 78 15 77 16 4 17 3 18 2 19 1 20 16 21 17 22 18 23
REMARK SMILES IDX 19 24 20 25 21 26 22 27 23 28 75 29 24 30 74 31 25 32 26 33
REMARK SMILES IDX 27 34 68 35 28 36 73 37 67 38 69 39 29 40 72 41 66 42 65 43
REMARK SMILES IDX 30 45 56 46 39 47 55 48 40 49 43 50 54 51 70 52 41 53 42 54
REMARK SMILES IDX 53 56 71 57 44 58 31 59 32 60 37 61 33 62 34 63 36 64 38 65
REMARK SMILES IDX 35 66 57 67 58 68 63 69 59 70 60 71 62 72 64 73 61 74 45 75
REMARK SMILES IDX 46 76 51 77 47 78 48 79 50 80 52 81 49 82
REMARK H PARENT 8 10 69 44 43 55
REMARK Flexibility Score: inf
ROOT
ATOM      1  C   UNL A   1      40.551  21.263  26.734  1.00  0.00     0.335 C 
ATOM      2  O   UNL A   1      40.402  21.021  27.926  1.00  0.00    -0.249 OA
ENDROOT
BRANCH   1   3
ATOM      3  C   UNL A   1      39.708  22.275  25.953  1.00  0.00     0.228 C 
ATOM      4  C   UNL A   1      37.440  22.413  25.353  1.00  0.00     0.138 C 
ATOM      5  C   UNL A   1      37.801  23.676  26.124  1.00  0.00     0.037 C 
ATOM      6  O   UNL A   1      38.665  21.673  25.187  1.00  0.00    -0.361 OA
ATOM      7  C   UNL A   1      39.051  23.291  26.875  1.00  0.00     0.047 C 
BRANCH   4   8
ATOM      8  C   UNL A   1      36.390  21.457  25.952  1.00  0.00     0.146 C 
BRANCH   8   9
ATOM      9  N   UNL A   1      36.076  20.316  25.104  1.00  0.00    -0.367 N 
ATOM     10  H   UNL A   1      36.792  19.866  24.601  1.00  0.00     0.162 HD
BRANCH   9  11
ATOM     11  C   UNL A   1      34.771  19.867  25.006  1.00  0.00     0.133 A 
ATOM     12  C   UNL A   1      32.473  20.226  25.146  1.00  0.00     0.218 A 
ATOM     13  C   UNL A   1      33.743  20.698  25.380  1.00  0.00     0.115 A 
ATOM     14  N   UNL A   1      32.180  18.999  24.704  1.00  0.00    -0.202 NA
ATOM     15  C   UNL A   1      33.249  18.240  24.454  1.00  0.00     0.228 A 
ATOM     16  N   UNL A   1      34.530  18.624  24.554  1.00  0.00    -0.219 NA
BRANCH  12  17
ATOM     17  O   UNL A   1      31.416  21.075  25.369  1.00  0.00    -0.478 OA
BRANCH  17  18
ATOM     18  C   UNL A   1      31.891  22.424  25.506  1.00  0.00     0.231 C 
BRANCH  18  19
ATOM     19  C   UNL A   1      31.260  23.319  24.434  1.00  0.00     0.038 C 
ATOM     20  C   UNL A   1      31.891  23.139  23.059  1.00  0.00     0.007 C 
ENDBRANCH  18  19
ENDBRANCH  17  18
ENDBRANCH  12  17
ENDBRANCH   9  11
ENDBRANCH   8   9
ENDBRANCH   4   8
ENDBRANCH   1   3
BRANCH   1  21
ATOM     21  O   UNL A   1      41.530  20.733  25.949  1.00  0.00    -0.460 OA
BRANCH  21  22
ATOM     22  C   UNL A   1      42.882  21.118  26.250  1.00  0.00     0.274 C 
BRANCH  22  23
ATOM     23  C   UNL A   1      43.514  21.882  25.083  1.00  0.00     0.275 C 
BRANCH  23  24
ATOM     24  O   UNL A   1      42.949  23.200  24.930  1.00  0.00    -0.458 OA
BRANCH  24  25
ATOM     25  C   UNL A   1      43.787  24.222  25.213  1.00  0.00     0.338 C 
ATOM     26  O   UNL A   1      44.817  24.523  24.624  1.00  0.00    -0.246 OA
BRANCH  25  27
ATOM     27  C   UNL A   1      43.215  25.068  26.272  1.00  0.00     0.060 A 
ATOM     28  C   UNL A   1      43.649  26.395  26.351  1.00  0.00     0.016 A 
ATOM     29  C   UNL A   1      42.324  24.558  27.217  1.00  0.00     0.016 A 
ATOM     30  C   UNL A   1      43.196  27.221  27.372  1.00  0.00     0.010 A 
ATOM     31  C   UNL A   1      41.869  25.389  28.246  1.00  0.00     0.010 A 
ATOM     32  C   UNL A   1      42.307  26.721  28.331  1.00  0.00    -0.014 A 
BRANCH  32  33
ATOM     33  C   UNL A   1      41.866  27.603  29.435  1.00  0.00     0.031 A 
ATOM     34  C   UNL A   1      42.589  27.581  30.748  1.00  0.00     0.074 A 
ATOM     35  C   UNL A   1      40.834  28.444  29.238  1.00  0.00     0.049 A 
ATOM     36  N   UNL A   1      42.318  28.231  31.850  1.00  0.00    -0.248 NA
ATOM     37  C   UNL A   1      43.776  26.715  30.832  1.00  0.00     0.031 C 
ATOM     38  C   UNL A   1      40.088  28.584  27.988  1.00  0.00     0.029 A 
ATOM     39  N   UNL A   1      40.236  29.336  30.090  1.00  0.00    -0.354 N 
ATOM     40  C   UNL A   1      43.285  27.841  32.765  1.00  0.00     0.074 A 
ATOM     41  C   UNL A   1      44.146  26.889  32.093  1.00  0.00     0.031 C 
ATOM     42  C   UNL A   1      39.124  29.504  28.156  1.00  0.00     0.029 A 
ATOM     43  C   UNL A   1      39.159  29.983  29.536  1.00  0.00     0.049 A 
ATOM     44  H   UNL A   1      40.548  29.497  31.010  1.00  0.00     0.167 HD
ATOM     45  C   UNL A   1      43.439  28.242  34.049  1.00  0.00     0.037 A 
ATOM     46  C   UNL A   1      38.280  30.839  30.089  1.00  0.00     0.037 A 
ATOM     47  C   UNL A   1      42.589  29.200  34.706  1.00  0.00     0.049 A 
ATOM     48  C   UNL A   1      38.437  31.219  31.534  1.00  0.00     0.074 A 
ATOM     49  C   UNL A   1      42.683  29.694  35.996  1.00  0.00     0.029 A 
ATOM     50  N   UNL A   1      41.486  29.805  34.125  1.00  0.00    -0.354 N 
ATOM     51  N   UNL A   1      39.361  30.852  32.389  1.00  0.00    -0.248 NA
ATOM     52  C   UNL A   1      37.425  32.126  32.095  1.00  0.00     0.031 C 
ATOM     53  C   UNL A   1      41.611  30.567  36.208  1.00  0.00     0.029 A 
ATOM     54  C   UNL A   1      40.873  30.646  35.039  1.00  0.00     0.049 A 
ATOM     55  H   UNL A   1      41.182  29.659  33.200  1.00  0.00     0.167 HD
ATOM     56  C   UNL A   1      39.051  31.490  33.583  1.00  0.00     0.074 A 
ATOM     57  C   UNL A   1      37.863  32.283  33.336  1.00  0.00     0.031 C 
ATOM     58  C   UNL A   1      39.689  31.424  34.776  1.00  0.00     0.037 A 
BRANCH  45  59
ATOM     59  C   UNL A   1      44.551  27.620  34.840  1.00  0.00     0.057 A 
ATOM     60  C   UNL A   1      44.378  26.426  35.550  1.00  0.00     0.134 A 
ATOM     61  C   UNL A   1      45.822  28.208  34.857  1.00  0.00     0.134 A 
ATOM     62  F   UNL A   1      43.180  25.822  35.584  1.00  0.00    -0.206 F 
ATOM     63  C   UNL A   1      45.428  25.846  36.263  1.00  0.00     0.040 A 
ATOM     64  C   UNL A   1      46.885  27.627  35.550  1.00  0.00     0.040 A 
ATOM     65  F   UNL A   1      46.052  29.351  34.195  1.00  0.00    -0.206 F 
ATOM     66  C   UNL A   1      46.688  26.443  36.258  1.00  0.00     0.006 A 
ENDBRANCH  45  59
BRANCH  46  67
ATOM     67  C   UNL A   1      37.151  31.362  29.283  1.00  0.00     0.057 A 
ATOM     68  C   UNL A   1      37.174  32.655  28.752  1.00  0.00     0.134 A 
ATOM     69  C   UNL A   1      36.014  30.581  29.036  1.00  0.00     0.134 A 
ATOM     70  F   UNL A   1      38.225  33.458  28.975  1.00  0.00    -0.206 F 
ATOM     71  C   UNL A   1      36.103  33.159  28.011  1.00  0.00     0.040 A 
ATOM     72  C   UNL A   1      34.947  31.063  28.277  1.00  0.00     0.040 A 
ATOM     73  F   UNL A   1      35.933  29.332  29.518  1.00  0.00    -0.206 F 
ATOM     74  C   UNL A   1      34.988  32.358  27.766  1.00  0.00     0.006 A 
ENDBRANCH  46  67
BRANCH  58  75
ATOM     75  C   UNL A   1      39.123  32.241  35.898  1.00  0.00     0.057 A 
ATOM     76  C   UNL A   1      39.493  33.576  36.093  1.00  0.00     0.134 A 
ATOM     77  C   UNL A   1      38.170  31.696  36.768  1.00  0.00     0.134 A 
ATOM     78  F   UNL A   1      40.412  34.150  35.302  1.00  0.00    -0.206 F 
ATOM     79  C   UNL A   1      38.948  34.339  37.128  1.00  0.00     0.040 A 
ATOM     80  C   UNL A   1      37.601  32.454  37.792  1.00  0.00     0.040 A 
ATOM     81  F   UNL A   1      37.769  30.423  36.628  1.00  0.00    -0.206 F 
ATOM     82  C   UNL A   1      37.994  33.779  37.977  1.00  0.00     0.006 A 
ENDBRANCH  58  75
ENDBRANCH  32  33
ENDBRANCH  25  27
ENDBRANCH  24  25
ENDBRANCH  23  24
ENDBRANCH  22  23
ENDBRANCH  21  22
ENDBRANCH   1  21
TORSDOF 17
ENDMDL
MODEL 2
REMARK VINA RESULT:     -10.4      5.626     11.574
REMARK SMILES CCCOc1cc(NC[C@H]2CC[C@@H](C(=O)OCCOC(=O)c3ccc(-c4c5nc(c(-c6c(F)cccc6F)c6ccc([nH]6)c(-c6c(F)cccc6F)c6nc(c(-c7c(F)cccc7F)c7ccc4[nH]7)C=C6)C=C5)cc3)O2)ncn1
REMARK SMILES IDX 14 1 15 2 13 3 10 4 11 5 76 6 12 7 9 8 8 9 7 11 5 12 6 13
REMARK SMILES IDX 79 14 78 15 77 16 4 17 3 18 2 19 1 20 16 21 17 22 18 23
REMARK SMILES IDX 19 24 20 25 21 26 22 27 23 28 75 29 24 30 74 31 25 32 26 33
REMARK SMILES IDX 27 34 68 35 28 36 73 37 67 38 69 39 29 40 72 41 66 42 65 43
REMARK SMILES IDX 30 45 56 46 39 47 55 48 40 49 43 50 54 51 70 52 41 53 42 54
REMARK SMILES IDX 53 56 71 57 44 58 31 59 32 60 37 61 33 62 34 63 36 64 38 65
REMARK SMILES IDX 35 66 57 67 58 68 63 69 59 70 60 71 62 72 64 73 61 74 45 75
REMARK SMILES IDX 46 76 51 77 47 78 48 79 50 80 52 81 49 82
REMARK H PARENT 8 10 69 44 43 55
REMARK Flexibility Score: inf
ROOT
ATOM      1  C   UNL A   1      32.966  36.263  29.397  1.00  0.00     0.335 C 
ATOM      2  O   UNL A   1      33.261  37.160  28.614  1.00  0.00    -0.249 OA
ENDROOT
BRANCH   1   3
ATOM      3  C   UNL A   1      32.542  36.499  30.849  1.00  0.00     0.228 C 
ATOM      4  C   UNL A   1      32.758  35.280  32.846  1.00  0.00     0.138 C 
ATOM      5  C   UNL A   1      33.383  36.651  33.062  1.00  0.00     0.037 C 
ATOM      6  O   UNL A   1      32.167  35.303  31.531  1.00  0.00    -0.361 OA
ATOM      7  C   UNL A   1      33.653  37.146  31.662  1.00  0.00     0.047 C 
BRANCH   4   8
ATOM      8  C   UNL A   1      33.662  34.034  32.934  1.00  0.00     0.146 C 
BRANCH   8   9
ATOM      9  N   UNL A   1      34.534  34.017  34.099  1.00  0.00    -0.367 N 
ATOM     10  H   UNL A   1      34.211  34.368  34.960  1.00  0.00     0.162 HD
BRANCH   9  11
ATOM     11  C   UNL A   1      35.815  33.507  33.994  1.00  0.00     0.133 A 
ATOM     12  C   UNL A   1      37.712  32.994  32.741  1.00  0.00     0.218 A 
ATOM     13  C   UNL A   1      36.399  33.400  32.755  1.00  0.00     0.115 A 
ATOM     14  N   UNL A   1      38.402  32.593  33.814  1.00  0.00    -0.202 NA
ATOM     15  C   UNL A   1      37.716  32.651  34.956  1.00  0.00     0.228 A 
ATOM     16  N   UNL A   1      36.467  33.117  35.103  1.00  0.00    -0.219 NA
BRANCH  12  17
ATOM     17  O   UNL A   1      38.382  33.010  31.542  1.00  0.00    -0.478 OA
BRANCH  17  18
ATOM     18  C   UNL A   1      37.450  33.181  30.462  1.00  0.00     0.231 C 
BRANCH  18  19
ATOM     19  C   UNL A   1      38.170  33.713  29.219  1.00  0.00     0.038 C 
ATOM     20  C   UNL A   1      39.266  34.720  29.550  1.00  0.00     0.007 C 
ENDBRANCH  18  19
ENDBRANCH  17  18
ENDBRANCH  12  17
ENDBRANCH   9  11
ENDBRANCH   8   9
ENDBRANCH   4   8
ENDBRANCH   1   3
BRANCH   1  21
ATOM     21  O   UNL A   1      32.895  34.942  29.075  1.00  0.00    -0.460 OA
BRANCH  21  22
ATOM     22  C   UNL A   1      34.142  34.249  28.904  1.00  0.00     0.274 C 
BRANCH  22  23
ATOM     23  C   UNL A   1      33.926  32.861  28.292  1.00  0.00     0.275 C 
BRANCH  23  24
ATOM     24  O   UNL A   1      34.691  31.846  28.972  1.00  0.00    -0.458 OA
BRANCH  24  25
ATOM     25  C   UNL A   1      34.808  30.673  28.310  1.00  0.00     0.338 C 
ATOM     26  O   UNL A   1      33.970  30.136  27.596  1.00  0.00    -0.246 OA
BRANCH  25  27
ATOM     27  C   UNL A   1      36.180  30.158  28.430  1.00  0.00     0.060 A 
ATOM     28  C   UNL A   1      36.589  29.678  29.679  1.00  0.00     0.016 A 
ATOM     29  C   UNL A   1      37.078  30.206  27.363  1.00  0.00     0.016 A 
ATOM     30  C   UNL A   1      37.894  29.243  29.870  1.00  0.00     0.010 A 
ATOM     31  C   UNL A   1      38.393  29.769  27.555  1.00  0.00     0.010 A 
ATOM     32  C   UNL A   1      38.808  29.292  28.810  1.00  0.00    -0.014 A 
BRANCH  32  33
ATOM     33  C   UNL A   1      40.205  28.862  29.041  1.00  0.00     0.031 A 
ATOM     34  C   UNL A   1      41.182  29.801  29.683  1.00  0.00     0.074 A 
ATOM     35  C   UNL A   1      40.579  27.616  28.700  1.00  0.00     0.049 A 
ATOM     36  N   UNL A   1      42.459  29.632  29.914  1.00  0.00    -0.248 NA
ATOM     37  C   UNL A   1      40.653  31.100  30.128  1.00  0.00     0.031 C 
ATOM     38  C   UNL A   1      39.702  26.603  28.113  1.00  0.00     0.029 A 
ATOM     39  N   UNL A   1      41.797  26.992  28.797  1.00  0.00    -0.354 N 
ATOM     40  C   UNL A   1      42.892  30.807  30.511  1.00  0.00     0.074 A 
ATOM     41  C   UNL A   1      41.745  31.686  30.600  1.00  0.00     0.031 C 
ATOM     42  C   UNL A   1      40.412  25.485  27.894  1.00  0.00     0.029 A 
ATOM     43  C   UNL A   1      41.800  25.719  28.284  1.00  0.00     0.049 A 
ATOM     44  H   UNL A   1      42.590  27.416  29.195  1.00  0.00     0.167 HD
ATOM     45  C   UNL A   1      44.135  31.121  30.946  1.00  0.00     0.037 A 
ATOM     46  C   UNL A   1      42.816  24.851  28.118  1.00  0.00     0.037 A 
ATOM     47  C   UNL A   1      45.268  30.236  30.869  1.00  0.00     0.049 A 
ATOM     48  C   UNL A   1      44.199  25.249  28.552  1.00  0.00     0.074 A 
ATOM     49  C   UNL A   1      46.562  30.451  31.311  1.00  0.00     0.029 A 
ATOM     50  N   UNL A   1      45.242  28.968  30.309  1.00  0.00    -0.354 N 
ATOM     51  N   UNL A   1      44.597  26.359  29.124  1.00  0.00    -0.248 NA
ATOM     52  C   UNL A   1      45.274  24.278  28.308  1.00  0.00     0.031 C 
ATOM     53  C   UNL A   1      47.330  29.329  30.979  1.00  0.00     0.029 A 
ATOM     54  C   UNL A   1      46.504  28.401  30.367  1.00  0.00     0.049 A 
ATOM     55  H   UNL A   1      44.446  28.535  29.926  1.00  0.00     0.167 HD
ATOM     56  C   UNL A   1      45.964  26.217  29.321  1.00  0.00     0.074 A 
ATOM     57  C   UNL A   1      46.323  24.905  28.824  1.00  0.00     0.031 C 
ATOM     58  C   UNL A   1      46.843  27.094  29.863  1.00  0.00     0.037 A 
BRANCH  45  59
ATOM     59  C   UNL A   1      44.344  32.492  31.515  1.00  0.00     0.057 A 
ATOM     60  C   UNL A   1      44.713  33.579  30.714  1.00  0.00     0.134 A 
ATOM     61  C   UNL A   1      44.135  32.732  32.879  1.00  0.00     0.134 A 
ATOM     62  F   UNL A   1      44.943  33.410  29.403  1.00  0.00    -0.206 F 
ATOM     63  C   UNL A   1      44.881  34.856  31.253  1.00  0.00     0.040 A 
ATOM     64  C   UNL A   1      44.280  34.007  33.426  1.00  0.00     0.040 A 
ATOM     65  F   UNL A   1      43.777  31.732  33.699  1.00  0.00    -0.206 F 
ATOM     66  C   UNL A   1      44.657  35.073  32.612  1.00  0.00     0.006 A 
ENDBRANCH  45  59
BRANCH  46  67
ATOM     67  C   UNL A   1      42.569  23.538  27.475  1.00  0.00     0.057 A 
ATOM     68  C   UNL A   1      42.631  23.385  26.087  1.00  0.00     0.134 A 
ATOM     69  C   UNL A   1      42.254  22.406  28.238  1.00  0.00     0.134 A 
ATOM     70  F   UNL A   1      42.906  24.437  25.303  1.00  0.00    -0.206 F 
ATOM     71  C   UNL A   1      42.378  22.155  25.476  1.00  0.00     0.040 A 
ATOM     72  C   UNL A   1      42.022  21.165  27.644  1.00  0.00     0.040 A 
ATOM     73  F   UNL A   1      42.180  22.490  29.574  1.00  0.00    -0.206 F 
ATOM     74  C   UNL A   1      42.079  21.039  26.258  1.00  0.00     0.006 A 
ENDBRANCH  46  67
BRANCH  58  75
ATOM     75  C   UNL A   1      48.274  26.655  29.956  1.00  0.00     0.057 A 
ATOM     76  C   UNL A   1      49.226  27.052  29.011  1.00  0.00     0.134 A 
ATOM     77  C   UNL A   1      48.708  25.860  31.024  1.00  0.00     0.134 A 
ATOM     78  F   UNL A   1      48.867  27.802  27.958  1.00  0.00    -0.206 F 
ATOM     79  C   UNL A   1      50.561  26.657  29.113  1.00  0.00     0.040 A 
ATOM     80  C   UNL A   1      50.044  25.477  31.149  1.00  0.00     0.040 A 
ATOM     81  F   UNL A   1      47.845  25.453  31.966  1.00  0.00    -0.206 F 
ATOM     82  C   UNL A   1      50.974  25.872  30.189  1.00  0.00     0.006 A 
ENDBRANCH  58  75
ENDBRANCH  32  33
ENDBRANCH  25  27
ENDBRANCH  24  25
ENDBRANCH  23  24
ENDBRANCH  22  23
ENDBRANCH  21  22
ENDBRANCH   1  21
TORSDOF 17
ENDMDL
MODEL 3
REMARK VINA RESULT:     -10.1      5.492     11.646
REMARK SMILES CCCOc1cc(NC[C@H]2CC[C@@H](C(=O)OCCOC(=O)c3ccc(-c4c5nc(c(-c6c(F)cccc6F)c6ccc([nH]6)c(-c6c(F)cccc6F)c6nc(c(-c7c(F)cccc7F)c7ccc4[nH]7)C=C6)C=C5)cc3)O2)ncn1
REMARK SMILES IDX 14 1 15 2 13 3 10 4 11 5 76 6 12 7 9 8 8 9 7 11 5 12 6 13
REMARK SMILES IDX 79 14 78 15 77 16 4 17 3 18 2 19 1 20 16 21 17 22 18 23
REMARK SMILES IDX 19 24 20 25 21 26 22 27 23 28 75 29 24 30 74 31 25 32 26 33
REMARK SMILES IDX 27 34 68 35 28 36 73 37 67 38 69 39 29 40 72 41 66 42 65 43
REMARK SMILES IDX 30 45 56 46 39 47 55 48 40 49 43 50 54 51 70 52 41 53 42 54
REMARK SMILES IDX 53 56 71 57 44 58 31 59 32 60 37 61 33 62 34 63 36 64 38 65
REMARK SMILES IDX 35 66 57 67 58 68 63 69 59 70 60 71 62 72 64 73 61 74 45 75
REMARK SMILES IDX 46 76 51 77 47 78 48 79 50 80 52 81 49 82
REMARK H PARENT 8 10 69 44 43 55
REMARK Flexibility Score: inf
ROOT
ATOM      1  C   UNL A   1      32.902  35.672  29.774  1.00  0.00     0.335 C 
ATOM      2  O   UNL A   1      32.260  36.225  28.889  1.00  0.00    -0.249 OA
ENDROOT
BRANCH   1   3
ATOM      3  C   UNL A   1      32.742  35.977  31.266  1.00  0.00     0.228 C 
ATOM      4  C   UNL A   1      34.034  35.547  33.181  1.00  0.00     0.138 C 
ATOM      5  C   UNL A   1      33.801  37.049  33.099  1.00  0.00     0.037 C 
ATOM      6  O   UNL A   1      33.269  34.956  32.113  1.00  0.00    -0.361 OA
ATOM      7  C   UNL A   1      33.435  37.275  31.653  1.00  0.00     0.047 C 
BRANCH   4   8
ATOM      8  C   UNL A   1      35.477  35.016  33.076  1.00  0.00     0.146 C 
BRANCH   8   9
ATOM      9  N   UNL A   1      35.915  34.257  34.238  1.00  0.00    -0.367 N 
ATOM     10  H   UNL A   1      35.281  34.063  34.966  1.00  0.00     0.162 HD
BRANCH   9  11
ATOM     11  C   UNL A   1      37.221  33.809  34.318  1.00  0.00     0.133 A 
ATOM     12  C   UNL A   1      38.834  32.155  34.007  1.00  0.00     0.218 A 
ATOM     13  C   UNL A   1      37.503  32.498  34.018  1.00  0.00     0.115 A 
ATOM     14  N   UNL A   1      39.836  32.961  34.376  1.00  0.00    -0.202 NA
ATOM     15  C   UNL A   1      39.447  34.186  34.733  1.00  0.00     0.228 A 
ATOM     16  N   UNL A   1      38.193  34.658  34.692  1.00  0.00    -0.219 NA
BRANCH  12  17
ATOM     17  O   UNL A   1      39.175  30.897  33.575  1.00  0.00    -0.478 OA
BRANCH  17  18
ATOM     18  C   UNL A   1      40.556  30.635  33.873  1.00  0.00     0.231 C 
BRANCH  18  19
ATOM     19  C   UNL A   1      40.808  29.125  33.935  1.00  0.00     0.038 C 
ATOM     20  C   UNL A   1      40.061  28.350  32.856  1.00  0.00     0.007 C 
ENDBRANCH  18  19
ENDBRANCH  17  18
ENDBRANCH  12  17
ENDBRANCH   9  11
ENDBRANCH   8   9
ENDBRANCH   4   8
ENDBRANCH   1   3
BRANCH   1  21
ATOM     21  O   UNL A   1      33.787  34.657  29.574  1.00  0.00    -0.460 OA
BRANCH  21  22
ATOM     22  C   UNL A   1      33.776  34.033  28.279  1.00  0.00     0.274 C 
BRANCH  22  23
ATOM     23  C   UNL A   1      34.866  32.962  28.170  1.00  0.00     0.275 C 
BRANCH  23  24
ATOM     24  O   UNL A   1      34.529  31.771  28.908  1.00  0.00    -0.458 OA
BRANCH  24  25
ATOM     25  C   UNL A   1      34.677  30.611  28.229  1.00  0.00     0.338 C 
ATOM     26  O   UNL A   1      33.866  30.078  27.482  1.00  0.00    -0.246 OA
BRANCH  25  27
ATOM     27  C   UNL A   1      36.050  30.108  28.380  1.00  0.00     0.060 A 
ATOM     28  C   UNL A   1      36.453  29.683  29.650  1.00  0.00     0.016 A 
ATOM     29  C   UNL A   1      36.955  30.114  27.316  1.00  0.00     0.016 A 
ATOM     30  C   UNL A   1      37.759  29.262  29.867  1.00  0.00     0.010 A 
ATOM     31  C   UNL A   1      38.270  29.692  27.535  1.00  0.00     0.010 A 
ATOM     32  C   UNL A   1      38.679  29.270  28.812  1.00  0.00    -0.014 A 
BRANCH  32  33
ATOM     33  C   UNL A   1      40.077  28.856  29.070  1.00  0.00     0.031 A 
ATOM     34  C   UNL A   1      41.027  29.801  29.744  1.00  0.00     0.074 A 
ATOM     35  C   UNL A   1      40.475  27.619  28.724  1.00  0.00     0.049 A 
ATOM     36  N   UNL A   1      42.300  29.646  30.001  1.00  0.00    -0.248 NA
ATOM     37  C   UNL A   1      40.470  31.087  30.190  1.00  0.00     0.031 C 
ATOM     38  C   UNL A   1      39.625  26.601  28.107  1.00  0.00     0.029 A 
ATOM     39  N   UNL A   1      41.699  27.010  28.842  1.00  0.00    -0.354 N 
ATOM     40  C   UNL A   1      42.703  30.820  30.620  1.00  0.00     0.074 A 
ATOM     41  C   UNL A   1      41.543  31.683  30.693  1.00  0.00     0.031 C 
ATOM     42  C   UNL A   1      40.355  25.495  27.891  1.00  0.00     0.029 A 
ATOM     43  C   UNL A   1      41.731  25.743  28.315  1.00  0.00     0.049 A 
ATOM     44  H   UNL A   1      42.477  27.441  29.262  1.00  0.00     0.167 HD
ATOM     45  C   UNL A   1      43.932  31.146  31.086  1.00  0.00     0.037 A 
ATOM     46  C   UNL A   1      42.762  24.891  28.163  1.00  0.00     0.037 A 
ATOM     47  C   UNL A   1      45.079  30.278  31.025  1.00  0.00     0.049 A 
ATOM     48  C   UNL A   1      44.129  25.303  28.632  1.00  0.00     0.074 A 
ATOM     49  C   UNL A   1      46.360  30.505  31.498  1.00  0.00     0.029 A 
ATOM     50  N   UNL A   1      45.083  29.016  30.451  1.00  0.00    -0.354 N 
ATOM     51  N   UNL A   1      44.499  26.411  29.224  1.00  0.00    -0.248 NA
ATOM     52  C   UNL A   1      45.223  24.349  28.402  1.00  0.00     0.031 C 
ATOM     53  C   UNL A   1      47.149  29.398  31.171  1.00  0.00     0.029 A 
ATOM     54  C   UNL A   1      46.350  28.464  30.531  1.00  0.00     0.049 A 
ATOM     55  H   UNL A   1      44.301  28.576  30.045  1.00  0.00     0.167 HD
ATOM     56  C   UNL A   1      45.863  26.286  29.451  1.00  0.00     0.074 A 
ATOM     57  C   UNL A   1      46.251  24.984  28.947  1.00  0.00     0.031 C 
ATOM     58  C   UNL A   1      46.719  27.168  30.021  1.00  0.00     0.037 A 
BRANCH  45  59
ATOM     59  C   UNL A   1      44.110  32.514  31.674  1.00  0.00     0.057 A 
ATOM     60  C   UNL A   1      43.989  32.750  33.049  1.00  0.00     0.134 A 
ATOM     61  C   UNL A   1      44.445  33.599  30.856  1.00  0.00     0.134 A 
ATOM     62  F   UNL A   1      43.656  31.754  33.884  1.00  0.00    -0.206 F 
ATOM     63  C   UNL A   1      44.181  34.024  33.587  1.00  0.00     0.040 A 
ATOM     64  C   UNL A   1      44.659  34.873  31.384  1.00  0.00     0.040 A 
ATOM     65  F   UNL A   1      44.579  33.437  29.531  1.00  0.00    -0.206 F 
ATOM     66  C   UNL A   1      44.524  35.088  32.754  1.00  0.00     0.006 A 
ENDBRANCH  45  59
BRANCH  46  67
ATOM     67  C   UNL A   1      42.547  23.582  27.501  1.00  0.00     0.057 A 
ATOM     68  C   UNL A   1      42.257  22.432  28.241  1.00  0.00     0.134 A 
ATOM     69  C   UNL A   1      42.638  23.450  26.109  1.00  0.00     0.134 A 
ATOM     70  F   UNL A   1      42.181  22.490  29.578  1.00  0.00    -0.206 F 
ATOM     71  C   UNL A   1      42.076  21.193  27.623  1.00  0.00     0.040 A 
ATOM     72  C   UNL A   1      42.435  22.223  25.476  1.00  0.00     0.040 A 
ATOM     73  F   UNL A   1      42.912  24.517  25.345  1.00  0.00    -0.206 F 
ATOM     74  C   UNL A   1      42.158  21.089  26.235  1.00  0.00     0.006 A 
ENDBRANCH  46  67
BRANCH  58  75
ATOM     75  C   UNL A   1      48.152  26.748  30.142  1.00  0.00     0.057 A 
ATOM     76  C   UNL A   1      48.601  25.970  31.215  1.00  0.00     0.134 A 
ATOM     77  C   UNL A   1      49.083  27.094  29.154  1.00  0.00     0.134 A 
ATOM     78  F   UNL A   1      47.760  25.619  32.199  1.00  0.00    -0.206 F 
ATOM     79  C   UNL A   1      49.933  25.564  31.312  1.00  0.00     0.040 A 
ATOM     80  C   UNL A   1      50.412  26.676  29.229  1.00  0.00     0.040 A 
ATOM     81  F   UNL A   1      48.713  27.832  28.097  1.00  0.00    -0.206 F 
ATOM     82  C   UNL A   1      50.842  25.912  30.313  1.00  0.00     0.006 A 
ENDBRANCH  58  75
ENDBRANCH  32  33
ENDBRANCH  25  27
ENDBRANCH  24  25
ENDBRANCH  23  24
ENDBRANCH  22  23
ENDBRANCH  21  22
ENDBRANCH   1  21
TORSDOF 17
ENDMDL
