MODEL 1
REMARK VINA RESULT:     -13.0      0.000      0.000
REMARK SMILES Cc1ccc(-c2c(C(=O)OCCOC(=O)c3ccc(-c4c5nc(c(-c6c(F)cccc6F)c6ccc([nH]6)c(-c6c(F)cccc6F)c6nc(c(-c7c(F)cccc7F)c7ccc4[nH]7)C=C6)C=C5)cc3)nnn2Cc2c(F)cccc2Cl)cc1
REMARK SMILES IDX 11 1 10 2 8 3 9 4 7 5 6 6 72 7 70 8 71 9 5 10 1 11 2 12 3 13
REMARK SMILES IDX 83 14 4 15 82 16 73 17 74 18 75 19 80 20 76 21 77 22 79 23
REMARK SMILES IDX 81 24 78 25 12 26 13 27 14 28 15 29 16 30 17 31 69 32 18 33
REMARK SMILES IDX 68 34 19 35 20 36 21 37 62 38 22 39 67 40 61 41 63 42 23 43
REMARK SMILES IDX 66 44 60 45 59 46 24 48 50 49 33 50 49 51 34 52 37 53 48 54
REMARK SMILES IDX 64 55 35 56 36 57 47 59 65 60 38 61 25 62 26 63 31 64 27 65
REMARK SMILES IDX 28 66 30 67 32 68 29 69 51 70 52 71 57 72 53 73 54 74 56 75
REMARK SMILES IDX 58 76 55 77 39 78 40 79 45 80 41 81 42 82 44 83 46 84 43 85
REMARK H PARENT 63 47 37 58
REMARK Flexibility Score: inf
ROOT
ATOM      1  C   UNL A   1      33.374  30.038  26.212  1.00  0.00     0.275 C 
ENDROOT
BRANCH   1   2
ATOM      2  O   UNL A   1      33.979  28.747  26.241  1.00  0.00    -0.457 OA
BRANCH   2   3
ATOM      3  C   UNL A   1      33.583  27.925  25.229  1.00  0.00     0.361 C 
ATOM      4  O   UNL A   1      33.904  28.086  24.052  1.00  0.00    -0.244 OA
BRANCH   3   5
ATOM      5  C   UNL A   1      32.745  26.836  25.691  1.00  0.00     0.198 A 
ATOM      6  C   UNL A   1      33.106  25.498  25.769  1.00  0.00     0.104 A 
ATOM      7  N   UNL A   1      32.034  24.918  26.400  1.00  0.00    -0.239 N 
ATOM      8  N   UNL A   1      31.457  26.988  26.128  1.00  0.00    -0.122 NA
ATOM      9  N   UNL A   1      31.029  25.810  26.556  1.00  0.00    -0.066 NA
BRANCH   6  10
ATOM     10  C   UNL A   1      34.334  24.892  25.282  1.00  0.00     0.002 A 
ATOM     11  C   UNL A   1      37.266  21.971  24.116  1.00  0.00     0.044 C 
ATOM     12  C   UNL A   1      36.323  23.070  24.505  1.00  0.00    -0.051 A 
ATOM     13  C   UNL A   1      35.393  23.541  23.574  1.00  0.00     0.004 A 
ATOM     14  C   UNL A   1      36.292  23.569  25.812  1.00  0.00     0.004 A 
ATOM     15  C   UNL A   1      34.409  24.448  23.961  1.00  0.00     0.011 A 
ATOM     16  C   UNL A   1      35.303  24.478  26.199  1.00  0.00     0.011 A 
ENDBRANCH   6  10
BRANCH   7  17
ATOM     17  C   UNL A   1      31.811  23.554  26.858  1.00  0.00     0.187 C 
BRANCH  17  18
ATOM     18  C   UNL A   1      32.264  22.474  25.913  1.00  0.00     0.028 A 
ATOM     19  C   UNL A   1      33.235  21.573  26.369  1.00  0.00     0.129 A 
ATOM     20  C   UNL A   1      31.818  22.329  24.590  1.00  0.00     0.049 A 
ATOM     21  F   UNL A   1      33.747  21.715  27.599  1.00  0.00    -0.207 F 
ATOM     22  C   UNL A   1      33.705  20.528  25.578  1.00  0.00     0.040 A 
ATOM     23  C   UNL A   1      32.262  21.261  23.799  1.00  0.00     0.021 A 
ATOM     24  Cl  UNL A   1      30.715  23.439  23.857  1.00  0.00    -0.084 Cl
ATOM     25  C   UNL A   1      33.200  20.357  24.294  1.00  0.00     0.005 A 
ENDBRANCH  17  18
ENDBRANCH   7  17
ENDBRANCH   3   5
ENDBRANCH   2   3
ENDBRANCH   1   2
BRANCH   1  26
ATOM     26  C   UNL A   1      33.857  30.889  27.389  1.00  0.00     0.275 C 
BRANCH  26  27
ATOM     27  O   UNL A   1      34.991  30.408  28.176  1.00  0.00    -0.458 OA
BRANCH  27  28
ATOM     28  C   UNL A   1      36.254  30.885  28.330  1.00  0.00     0.338 C 
ATOM     29  O   UNL A   1      36.501  32.084  28.307  1.00  0.00    -0.246 OA
BRANCH  28  30
ATOM     30  C   UNL A   1      37.353  29.923  28.512  1.00  0.00     0.060 A 
ATOM     31  C   UNL A   1      37.432  29.119  29.664  1.00  0.00     0.016 A 
ATOM     32  C   UNL A   1      38.304  29.808  27.511  1.00  0.00     0.016 A 
ATOM     33  C   UNL A   1      38.438  28.153  29.772  1.00  0.00     0.010 A 
ATOM     34  C   UNL A   1      39.160  28.738  27.528  1.00  0.00     0.010 A 
ATOM     35  C   UNL A   1      39.296  27.962  28.688  1.00  0.00    -0.014 A 
BRANCH  35  36
ATOM     36  C   UNL A   1      40.528  27.176  28.715  1.00  0.00     0.031 A 
ATOM     37  C   UNL A   1      40.601  25.738  28.436  1.00  0.00     0.074 A 
ATOM     38  C   UNL A   1      41.645  27.908  28.919  1.00  0.00     0.049 A 
ATOM     39  N   UNL A   1      41.480  24.940  28.941  1.00  0.00    -0.248 NA
ATOM     40  C   UNL A   1      39.680  25.081  27.523  1.00  0.00     0.031 C 
ATOM     41  C   UNL A   1      43.046  27.553  28.796  1.00  0.00     0.029 A 
ATOM     42  N   UNL A   1      41.667  29.201  29.459  1.00  0.00    -0.354 N 
ATOM     43  C   UNL A   1      41.451  23.776  28.200  1.00  0.00     0.074 A 
ATOM     44  C   UNL A   1      40.235  23.866  27.423  1.00  0.00     0.031 C 
ATOM     45  C   UNL A   1      43.767  28.441  29.511  1.00  0.00     0.029 A 
ATOM     46  C   UNL A   1      42.820  29.286  30.233  1.00  0.00     0.049 A 
ATOM     47  H   UNL A   1      40.998  29.909  29.317  1.00  0.00     0.167 HD
ATOM     48  C   UNL A   1      42.554  22.967  28.169  1.00  0.00     0.037 A 
ATOM     49  C   UNL A   1      42.676  29.372  31.588  1.00  0.00     0.037 A 
ATOM     50  C   UNL A   1      43.634  23.550  28.969  1.00  0.00     0.049 A 
ATOM     51  C   UNL A   1      43.311  28.193  32.277  1.00  0.00     0.074 A 
ATOM     52  C   UNL A   1      44.731  24.314  28.602  1.00  0.00     0.029 A 
ATOM     53  N   UNL A   1      43.499  23.692  30.347  1.00  0.00    -0.354 N 
ATOM     54  N   UNL A   1      43.444  27.015  31.733  1.00  0.00    -0.248 NA
ATOM     55  C   UNL A   1      43.883  28.269  33.613  1.00  0.00     0.031 C 
ATOM     56  C   UNL A   1      45.208  24.982  29.754  1.00  0.00     0.029 A 
ATOM     57  C   UNL A   1      44.422  24.603  30.829  1.00  0.00     0.049 A 
ATOM     58  H   UNL A   1      42.841  23.212  30.899  1.00  0.00     0.167 HD
ATOM     59  C   UNL A   1      44.148  26.203  32.580  1.00  0.00     0.074 A 
ATOM     60  C   UNL A   1      44.394  27.034  33.747  1.00  0.00     0.031 C 
ATOM     61  C   UNL A   1      44.493  24.926  32.246  1.00  0.00     0.037 A 
BRANCH  48  62
ATOM     62  C   UNL A   1      42.792  21.876  27.136  1.00  0.00     0.057 A 
ATOM     63  C   UNL A   1      42.087  20.653  27.186  1.00  0.00     0.134 A 
ATOM     64  C   UNL A   1      43.728  21.946  26.089  1.00  0.00     0.134 A 
ATOM     65  F   UNL A   1      41.057  20.464  28.023  1.00  0.00    -0.206 F 
ATOM     66  C   UNL A   1      42.390  19.551  26.373  1.00  0.00     0.040 A 
ATOM     67  C   UNL A   1      44.071  20.839  25.292  1.00  0.00     0.040 A 
ATOM     68  F   UNL A   1      44.313  23.102  25.750  1.00  0.00    -0.206 F 
ATOM     69  C   UNL A   1      43.416  19.627  25.447  1.00  0.00     0.006 A 
ENDBRANCH  48  62
BRANCH  49  70
ATOM     70  C   UNL A   1      41.412  30.052  32.031  1.00  0.00     0.057 A 
ATOM     71  C   UNL A   1      40.355  29.275  32.555  1.00  0.00     0.134 A 
ATOM     72  C   UNL A   1      41.320  31.434  32.233  1.00  0.00     0.134 A 
ATOM     73  F   UNL A   1      40.368  27.938  32.417  1.00  0.00    -0.206 F 
ATOM     74  C   UNL A   1      39.319  29.827  33.317  1.00  0.00     0.040 A 
ATOM     75  C   UNL A   1      40.276  32.001  32.981  1.00  0.00     0.040 A 
ATOM     76  F   UNL A   1      42.271  32.256  31.771  1.00  0.00    -0.206 F 
ATOM     77  C   UNL A   1      39.289  31.196  33.550  1.00  0.00     0.006 A 
ENDBRANCH  49  70
BRANCH  61  78
ATOM     78  C   UNL A   1      45.046  23.891  33.192  1.00  0.00     0.057 A 
ATOM     79  C   UNL A   1      46.339  23.933  33.729  1.00  0.00     0.134 A 
ATOM     80  C   UNL A   1      44.210  22.882  33.721  1.00  0.00     0.134 A 
ATOM     81  F   UNL A   1      47.201  24.909  33.415  1.00  0.00    -0.206 F 
ATOM     82  C   UNL A   1      46.791  23.001  34.670  1.00  0.00     0.040 A 
ATOM     83  C   UNL A   1      44.631  21.986  34.706  1.00  0.00     0.040 A 
ATOM     84  F   UNL A   1      42.935  22.736  33.328  1.00  0.00    -0.206 F 
ATOM     85  C   UNL A   1      45.933  22.031  35.173  1.00  0.00     0.006 A 
ENDBRANCH  61  78
ENDBRANCH  35  36
ENDBRANCH  28  30
ENDBRANCH  27  28
ENDBRANCH  26  27
ENDBRANCH   1  26
TORSDOF 14
ENDMDL
MODEL 2
REMARK VINA RESULT:     -12.8      3.986      9.197
REMARK SMILES Cc1ccc(-c2c(C(=O)OCCOC(=O)c3ccc(-c4c5nc(c(-c6c(F)cccc6F)c6ccc([nH]6)c(-c6c(F)cccc6F)c6nc(c(-c7c(F)cccc7F)c7ccc4[nH]7)C=C6)C=C5)cc3)nnn2Cc2c(F)cccc2Cl)cc1
REMARK SMILES IDX 11 1 10 2 8 3 9 4 7 5 6 6 72 7 70 8 71 9 5 10 1 11 2 12 3 13
REMARK SMILES IDX 83 14 4 15 82 16 73 17 74 18 75 19 80 20 76 21 77 22 79 23
REMARK SMILES IDX 81 24 78 25 12 26 13 27 14 28 15 29 16 30 17 31 69 32 18 33
REMARK SMILES IDX 68 34 19 35 20 36 21 37 62 38 22 39 67 40 61 41 63 42 23 43
REMARK SMILES IDX 66 44 60 45 59 46 24 48 50 49 33 50 49 51 34 52 37 53 48 54
REMARK SMILES IDX 64 55 35 56 36 57 47 59 65 60 38 61 25 62 26 63 31 64 27 65
REMARK SMILES IDX 28 66 30 67 32 68 29 69 51 70 52 71 57 72 53 73 54 74 56 75
REMARK SMILES IDX 58 76 55 77 39 78 40 79 45 80 41 81 42 82 44 83 46 84 43 85
REMARK H PARENT 63 47 37 58
REMARK Flexibility Score: inf
ROOT
ATOM      1  C   UNL A   1      37.571  22.027  25.023  1.00  0.00     0.275 C 
ENDROOT
BRANCH   1   2
ATOM      2  O   UNL A   1      37.040  23.342  24.873  1.00  0.00    -0.457 OA
BRANCH   2   3
ATOM      3  C   UNL A   1      35.722  23.450  25.203  1.00  0.00     0.361 C 
ATOM      4  O   UNL A   1      35.286  23.267  26.339  1.00  0.00    -0.244 OA
BRANCH   3   5
ATOM      5  C   UNL A   1      34.891  23.810  24.072  1.00  0.00     0.198 A 
ATOM      6  C   UNL A   1      34.053  24.913  23.986  1.00  0.00     0.104 A 
ATOM      7  N   UNL A   1      33.622  24.881  22.683  1.00  0.00    -0.239 N 
ATOM      8  N   UNL A   1      34.826  23.095  22.907  1.00  0.00    -0.122 NA
ATOM      9  N   UNL A   1      34.045  23.755  22.065  1.00  0.00    -0.066 NA
BRANCH   6  10
ATOM     10  C   UNL A   1      33.729  25.851  25.047  1.00  0.00     0.002 A 
ATOM     11  C   UNL A   1      31.850  29.018  27.268  1.00  0.00     0.044 C 
ATOM     12  C   UNL A   1      32.582  27.906  26.579  1.00  0.00    -0.051 A 
ATOM     13  C   UNL A   1      32.090  26.601  26.665  1.00  0.00     0.004 A 
ATOM     14  C   UNL A   1      33.695  28.163  25.771  1.00  0.00     0.004 A 
ATOM     15  C   UNL A   1      32.663  25.581  25.907  1.00  0.00     0.011 A 
ATOM     16  C   UNL A   1      34.268  27.140  25.009  1.00  0.00     0.011 A 
ENDBRANCH   6  10
BRANCH   7  17
ATOM     17  C   UNL A   1      32.787  25.802  21.925  1.00  0.00     0.187 C 
BRANCH  17  18
ATOM     18  C   UNL A   1      31.573  26.319  22.649  1.00  0.00     0.028 A 
ATOM     19  C   UNL A   1      31.459  27.704  22.825  1.00  0.00     0.129 A 
ATOM     20  C   UNL A   1      30.568  25.513  23.204  1.00  0.00     0.049 A 
ATOM     21  F   UNL A   1      32.431  28.512  22.379  1.00  0.00    -0.207 F 
ATOM     22  C   UNL A   1      30.366  28.282  23.465  1.00  0.00     0.040 A 
ATOM     23  C   UNL A   1      29.449  26.088  23.821  1.00  0.00     0.021 A 
ATOM     24  Cl  UNL A   1      30.641  23.787  23.170  1.00  0.00    -0.084 Cl
ATOM     25  C   UNL A   1      29.344  27.473  23.946  1.00  0.00     0.005 A 
ENDBRANCH  17  18
ENDBRANCH   7  17
ENDBRANCH   3   5
ENDBRANCH   2   3
ENDBRANCH   1   2
BRANCH   1  26
ATOM     26  C   UNL A   1      38.728  22.021  26.024  1.00  0.00     0.275 C 
BRANCH  26  27
ATOM     27  O   UNL A   1      39.001  23.243  26.778  1.00  0.00    -0.458 OA
BRANCH  27  28
ATOM     28  C   UNL A   1      40.145  23.951  26.976  1.00  0.00     0.338 C 
ATOM     29  O   UNL A   1      41.251  23.458  26.790  1.00  0.00    -0.246 OA
BRANCH  28  30
ATOM     30  C   UNL A   1      40.042  25.342  27.444  1.00  0.00     0.060 A 
ATOM     31  C   UNL A   1      40.459  26.413  26.634  1.00  0.00     0.016 A 
ATOM     32  C   UNL A   1      39.502  25.580  28.697  1.00  0.00     0.016 A 
ATOM     33  C   UNL A   1      40.271  27.730  27.069  1.00  0.00     0.010 A 
ATOM     34  C   UNL A   1      39.139  26.858  29.032  1.00  0.00     0.010 A 
ATOM     35  C   UNL A   1      39.597  27.943  28.271  1.00  0.00    -0.014 A 
BRANCH  35  36
ATOM     36  C   UNL A   1      39.520  29.219  28.981  1.00  0.00     0.031 A 
ATOM     37  C   UNL A   1      38.487  30.235  28.752  1.00  0.00     0.074 A 
ATOM     38  C   UNL A   1      40.432  29.357  29.968  1.00  0.00     0.049 A 
ATOM     39  N   UNL A   1      38.659  31.502  28.922  1.00  0.00    -0.248 NA
ATOM     40  C   UNL A   1      37.141  29.887  28.327  1.00  0.00     0.031 C 
ATOM     41  C   UNL A   1      40.545  30.347  31.023  1.00  0.00     0.029 A 
ATOM     42  N   UNL A   1      41.604  28.598  30.086  1.00  0.00    -0.354 N 
ATOM     43  C   UNL A   1      37.409  32.086  28.948  1.00  0.00     0.074 A 
ATOM     44  C   UNL A   1      36.517  31.065  28.446  1.00  0.00     0.031 C 
ATOM     45  C   UNL A   1      41.818  30.339  31.468  1.00  0.00     0.029 A 
ATOM     46  C   UNL A   1      42.579  29.452  30.593  1.00  0.00     0.049 A 
ATOM     47  H   UNL A   1      41.715  27.647  29.855  1.00  0.00     0.167 HD
ATOM     48  C   UNL A   1      37.237  33.287  29.581  1.00  0.00     0.037 A 
ATOM     49  C   UNL A   1      43.608  29.809  29.770  1.00  0.00     0.037 A 
ATOM     50  C   UNL A   1      38.501  33.736  30.169  1.00  0.00     0.049 A 
ATOM     51  C   UNL A   1      43.623  31.296  29.534  1.00  0.00     0.074 A 
ATOM     52  C   UNL A   1      38.996  33.629  31.459  1.00  0.00     0.029 A 
ATOM     53  N   UNL A   1      39.583  34.065  29.359  1.00  0.00    -0.354 N 
ATOM     54  N   UNL A   1      42.561  32.052  29.574  1.00  0.00    -0.248 NA
ATOM     55  C   UNL A   1      44.845  32.045  29.279  1.00  0.00     0.031 C 
ATOM     56  C   UNL A   1      40.398  33.815  31.411  1.00  0.00     0.029 A 
ATOM     57  C   UNL A   1      40.754  34.065  30.096  1.00  0.00     0.049 A 
ATOM     58  H   UNL A   1      39.525  34.268  28.397  1.00  0.00     0.167 HD
ATOM     59  C   UNL A   1      42.932  33.360  29.418  1.00  0.00     0.074 A 
ATOM     60  C   UNL A   1      44.372  33.302  29.230  1.00  0.00     0.031 C 
ATOM     61  C   UNL A   1      42.033  34.385  29.481  1.00  0.00     0.037 A 
BRANCH  48  62
ATOM     62  C   UNL A   1      35.887  33.855  29.996  1.00  0.00     0.057 A 
ATOM     63  C   UNL A   1      34.991  34.384  29.041  1.00  0.00     0.134 A 
ATOM     64  C   UNL A   1      35.424  33.949  31.320  1.00  0.00     0.134 A 
ATOM     65  F   UNL A   1      35.198  34.250  27.725  1.00  0.00    -0.206 F 
ATOM     66  C   UNL A   1      33.819  35.076  29.381  1.00  0.00     0.040 A 
ATOM     67  C   UNL A   1      34.274  34.673  31.680  1.00  0.00     0.040 A 
ATOM     68  F   UNL A   1      36.029  33.296  32.321  1.00  0.00    -0.206 F 
ATOM     69  C   UNL A   1      33.477  35.261  30.710  1.00  0.00     0.006 A 
ENDBRANCH  48  62
BRANCH  49  70
ATOM     70  C   UNL A   1      43.969  28.769  28.748  1.00  0.00     0.057 A 
ATOM     71  C   UNL A   1      43.590  28.963  27.401  1.00  0.00     0.134 A 
ATOM     72  C   UNL A   1      44.908  27.760  28.986  1.00  0.00     0.134 A 
ATOM     73  F   UNL A   1      42.701  29.919  27.081  1.00  0.00    -0.206 F 
ATOM     74  C   UNL A   1      44.182  28.262  26.344  1.00  0.00     0.040 A 
ATOM     75  C   UNL A   1      45.495  27.038  27.935  1.00  0.00     0.040 A 
ATOM     76  F   UNL A   1      45.328  27.496  30.230  1.00  0.00    -0.206 F 
ATOM     77  C   UNL A   1      45.156  27.308  26.608  1.00  0.00     0.006 A 
ENDBRANCH  49  70
BRANCH  61  78
ATOM     78  C   UNL A   1      42.302  35.813  29.085  1.00  0.00     0.057 A 
ATOM     79  C   UNL A   1      43.104  36.692  29.823  1.00  0.00     0.134 A 
ATOM     80  C   UNL A   1      41.873  36.304  27.830  1.00  0.00     0.134 A 
ATOM     81  F   UNL A   1      43.685  36.321  30.972  1.00  0.00    -0.206 F 
ATOM     82  C   UNL A   1      43.402  37.987  29.382  1.00  0.00     0.040 A 
ATOM     83  C   UNL A   1      42.216  37.570  27.353  1.00  0.00     0.040 A 
ATOM     84  F   UNL A   1      41.125  35.566  26.996  1.00  0.00    -0.206 F 
ATOM     85  C   UNL A   1      42.970  38.426  28.137  1.00  0.00     0.006 A 
ENDBRANCH  61  78
ENDBRANCH  35  36
ENDBRANCH  28  30
ENDBRANCH  27  28
ENDBRANCH  26  27
ENDBRANCH   1  26
TORSDOF 14
ENDMDL
MODEL 3
REMARK VINA RESULT:     -12.6      0.968      1.475
REMARK SMILES Cc1ccc(-c2c(C(=O)OCCOC(=O)c3ccc(-c4c5nc(c(-c6c(F)cccc6F)c6ccc([nH]6)c(-c6c(F)cccc6F)c6nc(c(-c7c(F)cccc7F)c7ccc4[nH]7)C=C6)C=C5)cc3)nnn2Cc2c(F)cccc2Cl)cc1
REMARK SMILES IDX 11 1 10 2 8 3 9 4 7 5 6 6 72 7 70 8 71 9 5 10 1 11 2 12 3 13
REMARK SMILES IDX 83 14 4 15 82 16 73 17 74 18 75 19 80 20 76 21 77 22 79 23
REMARK SMILES IDX 81 24 78 25 12 26 13 27 14 28 15 29 16 30 17 31 69 32 18 33
REMARK SMILES IDX 68 34 19 35 20 36 21 37 62 38 22 39 67 40 61 41 63 42 23 43
REMARK SMILES IDX 66 44 60 45 59 46 24 48 50 49 33 50 49 51 34 52 37 53 48 54
REMARK SMILES IDX 64 55 35 56 36 57 47 59 65 60 38 61 25 62 26 63 31 64 27 65
REMARK SMILES IDX 28 66 30 67 32 68 29 69 51 70 52 71 57 72 53 73 54 74 56 75
REMARK SMILES IDX 58 76 55 77 39 78 40 79 45 80 41 81 42 82 44 83 46 84 43 85
REMARK H PARENT 63 47 37 58
REMARK Flexibility Score: inf
ROOT
ATOM      1  C   UNL A   1      34.221  28.753  25.885  1.00  0.00     0.275 C 
ENDROOT
BRANCH   1   2
ATOM      2  O   UNL A   1      32.962  28.628  25.229  1.00  0.00    -0.457 OA
BRANCH   2   3
ATOM      3  C   UNL A   1      32.996  27.866  24.100  1.00  0.00     0.361 C 
ATOM      4  O   UNL A   1      33.696  28.127  23.121  1.00  0.00    -0.244 OA
BRANCH   3   5
ATOM      5  C   UNL A   1      32.122  26.713  24.176  1.00  0.00     0.198 A 
ATOM      6  C   UNL A   1      32.518  25.389  24.304  1.00  0.00     0.104 A 
ATOM      7  N   UNL A   1      31.333  24.721  24.485  1.00  0.00    -0.239 N 
ATOM      8  N   UNL A   1      30.755  26.780  24.140  1.00  0.00    -0.122 NA
ATOM      9  N   UNL A   1      30.281  25.557  24.325  1.00  0.00    -0.066 NA
BRANCH   6  10
ATOM     10  C   UNL A   1      33.874  24.871  24.248  1.00  0.00     0.002 A 
ATOM     11  C   UNL A   1      37.261  22.240  24.571  1.00  0.00     0.044 C 
ATOM     12  C   UNL A   1      36.154  23.242  24.431  1.00  0.00    -0.051 A 
ATOM     13  C   UNL A   1      35.399  23.273  23.254  1.00  0.00     0.004 A 
ATOM     14  C   UNL A   1      35.798  24.082  25.492  1.00  0.00     0.004 A 
ATOM     15  C   UNL A   1      34.271  24.086  23.164  1.00  0.00     0.011 A 
ATOM     16  C   UNL A   1      34.664  24.896  25.401  1.00  0.00     0.011 A 
ENDBRANCH   6  10
BRANCH   7  17
ATOM     17  C   UNL A   1      31.052  23.318  24.760  1.00  0.00     0.187 C 
BRANCH  17  18
ATOM     18  C   UNL A   1      32.045  22.625  25.653  1.00  0.00     0.028 A 
ATOM     19  C   UNL A   1      32.239  23.144  26.940  1.00  0.00     0.129 A 
ATOM     20  C   UNL A   1      32.827  21.522  25.277  1.00  0.00     0.049 A 
ATOM     21  F   UNL A   1      31.571  24.242  27.320  1.00  0.00    -0.207 F 
ATOM     22  C   UNL A   1      33.120  22.563  27.847  1.00  0.00     0.040 A 
ATOM     23  C   UNL A   1      33.692  20.912  26.195  1.00  0.00     0.021 A 
ATOM     24  Cl  UNL A   1      32.781  20.854  23.684  1.00  0.00    -0.084 Cl
ATOM     25  C   UNL A   1      33.835  21.428  27.482  1.00  0.00     0.005 A 
ENDBRANCH  17  18
ENDBRANCH   7  17
ENDBRANCH   3   5
ENDBRANCH   2   3
ENDBRANCH   1   2
BRANCH   1  26
ATOM     26  C   UNL A   1      34.060  29.448  27.239  1.00  0.00     0.275 C 
BRANCH  26  27
ATOM     27  O   UNL A   1      34.878  30.627  27.517  1.00  0.00    -0.458 OA
BRANCH  27  28
ATOM     28  C   UNL A   1      35.766  30.900  28.509  1.00  0.00     0.338 C 
ATOM     29  O   UNL A   1      35.634  31.867  29.249  1.00  0.00    -0.246 OA
BRANCH  28  30
ATOM     30  C   UNL A   1      36.929  30.013  28.679  1.00  0.00     0.060 A 
ATOM     31  C   UNL A   1      37.091  29.245  29.846  1.00  0.00     0.016 A 
ATOM     32  C   UNL A   1      37.854  29.932  27.653  1.00  0.00     0.016 A 
ATOM     33  C   UNL A   1      38.159  28.347  29.947  1.00  0.00     0.010 A 
ATOM     34  C   UNL A   1      38.776  28.918  27.668  1.00  0.00     0.010 A 
ATOM     35  C   UNL A   1      38.994  28.181  28.841  1.00  0.00    -0.014 A 
BRANCH  35  36
ATOM     36  C   UNL A   1      40.273  27.474  28.849  1.00  0.00     0.031 A 
ATOM     37  C   UNL A   1      40.439  26.055  28.514  1.00  0.00     0.074 A 
ATOM     38  C   UNL A   1      41.340  28.265  29.091  1.00  0.00     0.049 A 
ATOM     39  N   UNL A   1      41.363  25.294  28.995  1.00  0.00    -0.248 NA
ATOM     40  C   UNL A   1      39.567  25.378  27.567  1.00  0.00     0.031 C 
ATOM     41  C   UNL A   1      42.762  28.005  28.968  1.00  0.00     0.029 A 
ATOM     42  N   UNL A   1      41.277  29.535  29.682  1.00  0.00    -0.354 N 
ATOM     43  C   UNL A   1      41.413  24.161  28.207  1.00  0.00     0.074 A 
ATOM     44  C   UNL A   1      40.199  24.206  27.424  1.00  0.00     0.031 C 
ATOM     45  C   UNL A   1      43.420  28.906  29.724  1.00  0.00     0.029 A 
ATOM     46  C   UNL A   1      42.417  29.661  30.470  1.00  0.00     0.049 A 
ATOM     47  H   UNL A   1      40.566  30.205  29.562  1.00  0.00     0.167 HD
ATOM     48  C   UNL A   1      42.565  23.425  28.155  1.00  0.00     0.037 A 
ATOM     49  C   UNL A   1      42.259  29.683  31.826  1.00  0.00     0.037 A 
ATOM     50  C   UNL A   1      43.600  24.043  28.987  1.00  0.00     0.049 A 
ATOM     51  C   UNL A   1      42.962  28.519  32.473  1.00  0.00     0.074 A 
ATOM     52  C   UNL A   1      44.649  24.888  28.661  1.00  0.00     0.029 A 
ATOM     53  N   UNL A   1      43.448  24.120  30.368  1.00  0.00    -0.354 N 
ATOM     54  N   UNL A   1      43.172  27.375  31.884  1.00  0.00    -0.248 NA
ATOM     55  C   UNL A   1      43.519  28.578  33.817  1.00  0.00     0.031 C 
ATOM     56  C   UNL A   1      45.075  25.538  29.843  1.00  0.00     0.029 A 
ATOM     57  C   UNL A   1      44.307  25.067  30.895  1.00  0.00     0.049 A 
ATOM     58  H   UNL A   1      42.817  23.579  30.896  1.00  0.00     0.167 HD
ATOM     59  C   UNL A   1      43.921  26.576  32.706  1.00  0.00     0.074 A 
ATOM     60  C   UNL A   1      44.106  27.373  33.906  1.00  0.00     0.031 C 
ATOM     61  C   UNL A   1      44.349  25.337  32.324  1.00  0.00     0.037 A 
BRANCH  48  62
ATOM     62  C   UNL A   1      42.878  22.393  27.081  1.00  0.00     0.057 A 
ATOM     63  C   UNL A   1      42.289  21.110  27.105  1.00  0.00     0.134 A 
ATOM     64  C   UNL A   1      43.780  22.582  26.020  1.00  0.00     0.134 A 
ATOM     65  F   UNL A   1      41.299  20.801  27.954  1.00  0.00    -0.206 F 
ATOM     66  C   UNL A   1      42.673  20.067  26.249  1.00  0.00     0.040 A 
ATOM     67  C   UNL A   1      44.205  21.537  25.180  1.00  0.00     0.040 A 
ATOM     68  F   UNL A   1      44.250  23.797  25.708  1.00  0.00    -0.206 F 
ATOM     69  C   UNL A   1      43.667  20.266  25.307  1.00  0.00     0.006 A 
ENDBRANCH  48  62
BRANCH  49  70
ATOM     70  C   UNL A   1      40.951  30.264  32.284  1.00  0.00     0.057 A 
ATOM     71  C   UNL A   1      39.951  29.404  32.789  1.00  0.00     0.134 A 
ATOM     72  C   UNL A   1      40.765  31.631  32.517  1.00  0.00     0.134 A 
ATOM     73  F   UNL A   1      40.056  28.075  32.620  1.00  0.00    -0.206 F 
ATOM     74  C   UNL A   1      38.880  29.866  33.563  1.00  0.00     0.040 A 
ATOM     75  C   UNL A   1      39.685  32.108  33.277  1.00  0.00     0.040 A 
ATOM     76  F   UNL A   1      41.657  32.528  32.075  1.00  0.00    -0.206 F 
ATOM     77  C   UNL A   1      38.756  31.224  33.828  1.00  0.00     0.006 A 
ENDBRANCH  49  70
BRANCH  61  78
ATOM     78  C   UNL A   1      44.959  24.302  33.233  1.00  0.00     0.057 A 
ATOM     79  C   UNL A   1      44.317  23.116  33.612  1.00  0.00     0.134 A 
ATOM     80  C   UNL A   1      46.311  24.407  33.635  1.00  0.00     0.134 A 
ATOM     81  F   UNL A   1      43.078  22.823  33.198  1.00  0.00    -0.206 F 
ATOM     82  C   UNL A   1      44.947  22.138  34.390  1.00  0.00     0.040 A 
ATOM     83  C   UNL A   1      46.967  23.409  34.358  1.00  0.00     0.040 A 
ATOM     84  F   UNL A   1      47.066  25.470  33.319  1.00  0.00    -0.206 F 
ATOM     85  C   UNL A   1      46.281  22.275  34.755  1.00  0.00     0.006 A 
ENDBRANCH  61  78
ENDBRANCH  35  36
ENDBRANCH  28  30
ENDBRANCH  27  28
ENDBRANCH  26  27
ENDBRANCH   1  26
TORSDOF 14
ENDMDL
