MODEL 1
REMARK VINA RESULT:     -13.0      0.000      0.000
REMARK SMILES Cc1ccccc1[C@@H]1[NH2+][C@H](C(=O)OCCOC(=O)c2ccc(-c3c4nc(c(-c5c(F)cccc5F)c5ccc([nH]5)c(-c5c(F)cccc5F)c5nc(c(-c6c(F)cccc6F)c6ccc3[nH]6)C=C5)C=C4)cc2)CC2=c3ccccc3=N[C@@H]21
REMARK SMILES IDX 15 1 14 2 13 3 11 4 12 5 10 6 8 7 9 8 82 9 74 12 81 13 73 14
REMARK SMILES IDX 75 15 80 16 76 17 79 18 77 19 78 20 7 21 1 22 2 23 3 24 4 25
REMARK SMILES IDX 6 26 5 27 16 28 17 29 18 30 19 31 20 32 72 33 21 34 71 35
REMARK SMILES IDX 22 36 23 37 24 38 65 39 25 40 70 41 64 42 66 43 26 44 69 45
REMARK SMILES IDX 63 46 62 47 27 49 53 50 36 51 52 52 37 53 40 54 51 55 67 56
REMARK SMILES IDX 38 57 39 58 50 60 68 61 41 62 28 63 29 64 34 65 30 66 31 67
REMARK SMILES IDX 33 68 35 69 32 70 54 71 55 72 60 73 56 74 57 75 59 76 61 77
REMARK SMILES IDX 58 78 42 79 43 80 48 81 44 82 45 83 47 84 49 85 46 86
REMARK H PARENT 9 10 9 11 66 48 40 59
REMARK Flexibility Score: inf
ROOT
ATOM      1  C   UNL A   1      33.363  31.095  27.244  1.00  0.00     0.275 C 
ENDROOT
BRANCH   1   2
ATOM      2  C   UNL A   1      34.376  29.931  27.170  1.00  0.00     0.274 C 
BRANCH   2   3
ATOM      3  O   UNL A   1      33.997  28.659  26.566  1.00  0.00    -0.458 OA
BRANCH   3   4
ATOM      4  C   UNL A   1      33.223  28.319  25.491  1.00  0.00     0.365 C 
ATOM      5  O   UNL A   1      33.742  28.191  24.385  1.00  0.00    -0.245 OA
BRANCH   4   6
ATOM      6  C   UNL A   1      31.735  28.045  25.751  1.00  0.00     0.298 C 
ATOM      7  C   UNL A   1      29.900  27.469  24.172  1.00  0.00     0.243 C 
ATOM      8  N   UNL A   1      31.132  28.180  24.447  1.00  0.00    -0.326 N 
ATOM      9  C   UNL A   1      30.293  25.932  24.196  1.00  0.00     0.196 C 
ATOM     10  H   UNL A   1      30.944  29.172  24.304  1.00  0.00     0.347 HD
ATOM     11  H   UNL A   1      31.810  27.752  23.816  1.00  0.00     0.347 HD
ATOM     12  C   UNL A   1      31.272  25.675  25.356  1.00  0.00    -0.024 C 
ATOM     13  N   UNL A   1      31.084  25.464  23.015  1.00  0.00    -0.270 NA
ATOM     14  C   UNL A   1      31.398  26.707  26.439  1.00  0.00     0.111 C 
ATOM     15  C   UNL A   1      32.316  24.934  24.989  1.00  0.00     0.002 A 
ATOM     16  C   UNL A   1      32.148  24.914  23.527  1.00  0.00     0.066 A 
ATOM     17  C   UNL A   1      33.583  24.685  25.610  1.00  0.00     0.010 A 
ATOM     18  C   UNL A   1      33.306  24.395  22.763  1.00  0.00     0.028 A 
ATOM     19  C   UNL A   1      34.623  24.336  24.838  1.00  0.00     0.001 A 
ATOM     20  C   UNL A   1      34.462  24.151  23.408  1.00  0.00     0.002 A 
BRANCH   7  21
ATOM     21  C   UNL A   1      29.410  28.310  22.973  1.00  0.00     0.015 A 
ATOM     22  C   UNL A   1      26.907  28.052  23.663  1.00  0.00     0.045 C 
ATOM     23  C   UNL A   1      28.033  28.687  22.879  1.00  0.00    -0.042 A 
ATOM     24  C   UNL A   1      27.664  29.826  22.126  1.00  0.00     0.004 A 
ATOM     25  C   UNL A   1      28.621  30.639  21.528  1.00  0.00     0.000 A 
ATOM     26  C   UNL A   1      30.346  29.118  22.280  1.00  0.00     0.010 A 
ATOM     27  C   UNL A   1      29.961  30.285  21.605  1.00  0.00     0.001 A 
ENDBRANCH   7  21
ENDBRANCH   4   6
ENDBRANCH   3   4
ENDBRANCH   2   3
ENDBRANCH   1   2
BRANCH   1  28
ATOM     28  O   UNL A   1      33.622  32.263  28.095  1.00  0.00    -0.458 OA
BRANCH  28  29
ATOM     29  C   UNL A   1      34.709  33.101  28.218  1.00  0.00     0.338 C 
ATOM     30  O   UNL A   1      34.842  34.112  27.585  1.00  0.00    -0.246 OA
BRANCH  29  31
ATOM     31  C   UNL A   1      35.679  32.724  29.264  1.00  0.00     0.060 A 
ATOM     32  C   UNL A   1      35.588  31.516  29.985  1.00  0.00     0.016 A 
ATOM     33  C   UNL A   1      36.860  33.377  29.127  1.00  0.00     0.016 A 
ATOM     34  C   UNL A   1      36.773  30.832  30.322  1.00  0.00     0.010 A 
ATOM     35  C   UNL A   1      37.903  32.513  29.048  1.00  0.00     0.010 A 
ATOM     36  C   UNL A   1      37.952  31.298  29.752  1.00  0.00    -0.014 A 
BRANCH  36  37
ATOM     37  C   UNL A   1      39.318  30.750  29.780  1.00  0.00     0.031 A 
ATOM     38  C   UNL A   1      39.727  29.514  29.066  1.00  0.00     0.074 A 
ATOM     39  C   UNL A   1      40.178  31.570  30.450  1.00  0.00     0.049 A 
ATOM     40  N   UNL A   1      40.382  28.536  29.600  1.00  0.00    -0.248 NA
ATOM     41  C   UNL A   1      39.455  29.268  27.645  1.00  0.00     0.031 C 
ATOM     42  C   UNL A   1      41.609  31.599  30.641  1.00  0.00     0.029 A 
ATOM     43  N   UNL A   1      39.768  32.667  31.242  1.00  0.00    -0.354 N 
ATOM     44  C   UNL A   1      40.925  27.808  28.547  1.00  0.00     0.074 A 
ATOM     45  C   UNL A   1      40.131  28.138  27.395  1.00  0.00     0.031 C 
ATOM     46  C   UNL A   1      41.871  32.336  31.750  1.00  0.00     0.029 A 
ATOM     47  C   UNL A   1      40.596  32.755  32.333  1.00  0.00     0.049 A 
ATOM     48  H   UNL A   1      39.015  33.270  31.044  1.00  0.00     0.167 HD
ATOM     49  C   UNL A   1      42.203  27.325  28.627  1.00  0.00     0.037 A 
ATOM     50  C   UNL A   1      40.011  32.450  33.525  1.00  0.00     0.037 A 
ATOM     51  C   UNL A   1      42.844  27.910  29.796  1.00  0.00     0.049 A 
ATOM     52  C   UNL A   1      40.650  31.192  34.014  1.00  0.00     0.074 A 
ATOM     53  C   UNL A   1      43.721  28.975  29.911  1.00  0.00     0.029 A 
ATOM     54  N   UNL A   1      42.344  27.663  31.063  1.00  0.00    -0.354 N 
ATOM     55  N   UNL A   1      41.042  30.222  33.235  1.00  0.00    -0.248 NA
ATOM     56  C   UNL A   1      41.063  31.036  35.398  1.00  0.00     0.031 C 
ATOM     57  C   UNL A   1      43.765  29.355  31.272  1.00  0.00     0.029 A 
ATOM     58  C   UNL A   1      42.882  28.548  31.970  1.00  0.00     0.049 A 
ATOM     59  H   UNL A   1      41.697  26.956  31.283  1.00  0.00     0.167 HD
ATOM     60  C   UNL A   1      41.869  29.402  33.953  1.00  0.00     0.074 A 
ATOM     61  C   UNL A   1      41.823  29.935  35.304  1.00  0.00     0.031 C 
ATOM     62  C   UNL A   1      42.596  28.398  33.383  1.00  0.00     0.037 A 
BRANCH  49  63
ATOM     63  C   UNL A   1      43.020  26.665  27.525  1.00  0.00     0.057 A 
ATOM     64  C   UNL A   1      43.619  27.436  26.499  1.00  0.00     0.134 A 
ATOM     65  C   UNL A   1      43.318  25.293  27.451  1.00  0.00     0.134 A 
ATOM     66  F   UNL A   1      43.534  28.772  26.471  1.00  0.00    -0.206 F 
ATOM     67  C   UNL A   1      44.366  26.888  25.448  1.00  0.00     0.040 A 
ATOM     68  C   UNL A   1      44.059  24.727  26.394  1.00  0.00     0.040 A 
ATOM     69  F   UNL A   1      42.947  24.445  28.421  1.00  0.00    -0.206 F 
ATOM     70  C   UNL A   1      44.578  25.523  25.381  1.00  0.00     0.006 A 
ENDBRANCH  49  63
BRANCH  50  71
ATOM     71  C   UNL A   1      38.543  32.814  33.601  1.00  0.00     0.057 A 
ATOM     72  C   UNL A   1      38.164  34.160  33.381  1.00  0.00     0.134 A 
ATOM     73  C   UNL A   1      37.503  31.878  33.545  1.00  0.00     0.134 A 
ATOM     74  F   UNL A   1      39.095  35.128  33.380  1.00  0.00    -0.206 F 
ATOM     75  C   UNL A   1      36.854  34.542  33.048  1.00  0.00     0.040 A 
ATOM     76  C   UNL A   1      36.181  32.250  33.222  1.00  0.00     0.040 A 
ATOM     77  F   UNL A   1      37.748  30.572  33.715  1.00  0.00    -0.206 F 
ATOM     78  C   UNL A   1      35.858  33.579  32.948  1.00  0.00     0.006 A 
ENDBRANCH  50  71
BRANCH  62  79
ATOM     79  C   UNL A   1      43.207  27.218  34.094  1.00  0.00     0.057 A 
ATOM     80  C   UNL A   1      44.580  27.055  34.304  1.00  0.00     0.134 A 
ATOM     81  C   UNL A   1      42.389  26.274  34.766  1.00  0.00     0.134 A 
ATOM     82  F   UNL A   1      45.481  27.937  33.856  1.00  0.00    -0.206 F 
ATOM     83  C   UNL A   1      45.104  25.999  35.057  1.00  0.00     0.040 A 
ATOM     84  C   UNL A   1      42.897  25.270  35.587  1.00  0.00     0.040 A 
ATOM     85  F   UNL A   1      41.050  26.295  34.696  1.00  0.00    -0.206 F 
ATOM     86  C   UNL A   1      44.264  25.115  35.717  1.00  0.00     0.006 A 
ENDBRANCH  62  79
ENDBRANCH  36  37
ENDBRANCH  29  31
ENDBRANCH  28  29
ENDBRANCH   1  28
TORSDOF 12
ENDMDL
MODEL 2
REMARK VINA RESULT:     -13.0      1.218      3.528
REMARK SMILES Cc1ccccc1[C@@H]1[NH2+][C@H](C(=O)OCCOC(=O)c2ccc(-c3c4nc(c(-c5c(F)cccc5F)c5ccc([nH]5)c(-c5c(F)cccc5F)c5nc(c(-c6c(F)cccc6F)c6ccc3[nH]6)C=C5)C=C4)cc2)CC2=c3ccccc3=N[C@@H]21
REMARK SMILES IDX 15 1 14 2 13 3 11 4 12 5 10 6 8 7 9 8 82 9 74 12 81 13 73 14
REMARK SMILES IDX 75 15 80 16 76 17 79 18 77 19 78 20 7 21 1 22 2 23 3 24 4 25
REMARK SMILES IDX 6 26 5 27 16 28 17 29 18 30 19 31 20 32 72 33 21 34 71 35
REMARK SMILES IDX 22 36 23 37 24 38 65 39 25 40 70 41 64 42 66 43 26 44 69 45
REMARK SMILES IDX 63 46 62 47 27 49 53 50 36 51 52 52 37 53 40 54 51 55 67 56
REMARK SMILES IDX 38 57 39 58 50 60 68 61 41 62 28 63 29 64 34 65 30 66 31 67
REMARK SMILES IDX 33 68 35 69 32 70 54 71 55 72 60 73 56 74 57 75 59 76 61 77
REMARK SMILES IDX 58 78 42 79 43 80 48 81 44 82 45 83 47 84 49 85 46 86
REMARK H PARENT 9 10 9 11 66 48 40 59
REMARK Flexibility Score: inf
ROOT
ATOM      1  C   UNL A   1      34.007  31.269  27.627  1.00  0.00     0.275 C 
ENDROOT
BRANCH   1   2
ATOM      2  C   UNL A   1      32.698  30.650  27.089  1.00  0.00     0.274 C 
BRANCH   2   3
ATOM      3  O   UNL A   1      32.233  29.360  27.586  1.00  0.00    -0.458 OA
BRANCH   3   4
ATOM      4  C   UNL A   1      32.241  28.093  27.070  1.00  0.00     0.365 C 
ATOM      5  O   UNL A   1      31.214  27.420  27.096  1.00  0.00    -0.245 OA
BRANCH   4   6
ATOM      6  C   UNL A   1      33.542  27.606  26.416  1.00  0.00     0.298 C 
ATOM      7  C   UNL A   1      34.030  25.516  25.157  1.00  0.00     0.243 C 
ATOM      8  N   UNL A   1      33.314  26.196  26.217  1.00  0.00    -0.326 N 
ATOM      9  C   UNL A   1      33.463  26.135  23.810  1.00  0.00     0.196 C 
ATOM     10  H   UNL A   1      33.555  25.726  27.090  1.00  0.00     0.347 HD
ATOM     11  H   UNL A   1      32.337  26.141  25.929  1.00  0.00     0.347 HD
ATOM     12  C   UNL A   1      33.285  27.654  23.983  1.00  0.00    -0.024 C 
ATOM     13  N   UNL A   1      32.078  25.701  23.450  1.00  0.00    -0.270 NA
ATOM     14  C   UNL A   1      33.973  28.338  25.129  1.00  0.00     0.111 C 
ATOM     15  C   UNL A   1      32.109  28.086  23.532  1.00  0.00     0.002 A 
ATOM     16  C   UNL A   1      31.415  26.810  23.292  1.00  0.00     0.066 A 
ATOM     17  C   UNL A   1      31.395  29.312  23.732  1.00  0.00     0.010 A 
ATOM     18  C   UNL A   1      29.959  26.919  23.038  1.00  0.00     0.028 A 
ATOM     19  C   UNL A   1      30.060  29.310  23.604  1.00  0.00     0.001 A 
ATOM     20  C   UNL A   1      29.349  28.107  23.212  1.00  0.00     0.002 A 
BRANCH   7  21
ATOM     21  C   UNL A   1      33.892  24.068  25.674  1.00  0.00     0.015 A 
ATOM     22  C   UNL A   1      36.371  23.498  25.093  1.00  0.00     0.045 C 
ATOM     23  C   UNL A   1      35.048  23.231  25.775  1.00  0.00    -0.042 A 
ATOM     24  C   UNL A   1      35.055  22.144  26.680  1.00  0.00     0.004 A 
ATOM     25  C   UNL A   1      33.983  21.909  27.536  1.00  0.00     0.000 A 
ATOM     26  C   UNL A   1      32.790  23.744  26.504  1.00  0.00     0.010 A 
ATOM     27  C   UNL A   1      32.852  22.708  27.447  1.00  0.00     0.001 A 
ENDBRANCH   7  21
ENDBRANCH   4   6
ENDBRANCH   3   4
ENDBRANCH   2   3
ENDBRANCH   1   2
BRANCH   1  28
ATOM     28  O   UNL A   1      34.096  32.707  27.910  1.00  0.00    -0.458 OA
BRANCH  28  29
ATOM     29  C   UNL A   1      34.143  33.423  29.087  1.00  0.00     0.338 C 
ATOM     30  O   UNL A   1      33.317  34.236  29.402  1.00  0.00    -0.246 OA
BRANCH  29  31
ATOM     31  C   UNL A   1      35.241  33.059  30.002  1.00  0.00     0.060 A 
ATOM     32  C   UNL A   1      35.226  31.879  30.775  1.00  0.00     0.016 A 
ATOM     33  C   UNL A   1      36.404  33.676  29.678  1.00  0.00     0.016 A 
ATOM     34  C   UNL A   1      36.432  31.179  30.972  1.00  0.00     0.010 A 
ATOM     35  C   UNL A   1      37.408  32.783  29.490  1.00  0.00     0.010 A 
ATOM     36  C   UNL A   1      37.529  31.594  30.227  1.00  0.00    -0.014 A 
BRANCH  36  37
ATOM     37  C   UNL A   1      38.875  31.012  30.087  1.00  0.00     0.031 A 
ATOM     38  C   UNL A   1      39.163  29.772  29.322  1.00  0.00     0.074 A 
ATOM     39  C   UNL A   1      39.830  31.805  30.653  1.00  0.00     0.049 A 
ATOM     40  N   UNL A   1      39.854  28.774  29.769  1.00  0.00    -0.248 NA
ATOM     41  C   UNL A   1      38.717  29.545  27.943  1.00  0.00     0.031 C 
ATOM     42  C   UNL A   1      41.273  31.798  30.670  1.00  0.00     0.029 A 
ATOM     43  N   UNL A   1      39.546  32.906  31.494  1.00  0.00    -0.354 N 
ATOM     44  C   UNL A   1      40.247  28.042  28.654  1.00  0.00     0.074 A 
ATOM     45  C   UNL A   1      39.329  28.401  27.608  1.00  0.00     0.031 C 
ATOM     46  C   UNL A   1      41.686  32.520  31.743  1.00  0.00     0.029 A 
ATOM     47  C   UNL A   1      40.501  32.964  32.478  1.00  0.00     0.049 A 
ATOM     48  H   UNL A   1      38.790  33.528  31.392  1.00  0.00     0.167 HD
ATOM     49  C   UNL A   1      41.513  27.527  28.576  1.00  0.00     0.037 A 
ATOM     50  C   UNL A   1      40.057  32.664  33.730  1.00  0.00     0.037 A 
ATOM     51  C   UNL A   1      42.304  28.087  29.663  1.00  0.00     0.049 A 
ATOM     52  C   UNL A   1      40.718  31.387  34.132  1.00  0.00     0.074 A 
ATOM     53  C   UNL A   1      43.216  29.129  29.676  1.00  0.00     0.029 A 
ATOM     54  N   UNL A   1      41.955  27.842  30.979  1.00  0.00    -0.354 N 
ATOM     55  N   UNL A   1      40.989  30.414  33.306  1.00  0.00    -0.248 NA
ATOM     56  C   UNL A   1      41.291  31.209  35.455  1.00  0.00     0.031 C 
ATOM     57  C   UNL A   1      43.433  29.497  31.025  1.00  0.00     0.029 A 
ATOM     58  C   UNL A   1      42.620  28.706  31.820  1.00  0.00     0.049 A 
ATOM     59  H   UNL A   1      41.321  27.149  31.273  1.00  0.00     0.167 HD
ATOM     60  C   UNL A   1      41.875  29.568  33.915  1.00  0.00     0.074 A 
ATOM     61  C   UNL A   1      42.006  30.091  35.265  1.00  0.00     0.031 C 
ATOM     62  C   UNL A   1      42.503  28.551  33.256  1.00  0.00     0.037 A 
BRANCH  49  63
ATOM     63  C   UNL A   1      42.174  26.857  27.380  1.00  0.00     0.057 A 
ATOM     64  C   UNL A   1      42.391  25.457  27.356  1.00  0.00     0.134 A 
ATOM     65  C   UNL A   1      42.555  27.511  26.196  1.00  0.00     0.134 A 
ATOM     66  F   UNL A   1      41.990  24.658  28.352  1.00  0.00    -0.206 F 
ATOM     67  C   UNL A   1      43.010  24.784  26.295  1.00  0.00     0.040 A 
ATOM     68  C   UNL A   1      43.189  26.847  25.126  1.00  0.00     0.040 A 
ATOM     69  F   UNL A   1      42.291  28.810  26.000  1.00  0.00    -0.206 F 
ATOM     70  C   UNL A   1      43.429  25.480  25.177  1.00  0.00     0.006 A 
ENDBRANCH  49  63
BRANCH  50  71
ATOM     71  C   UNL A   1      38.618  33.063  33.984  1.00  0.00     0.057 A 
ATOM     72  C   UNL A   1      38.235  34.406  33.758  1.00  0.00     0.134 A 
ATOM     73  C   UNL A   1      37.565  32.148  34.107  1.00  0.00     0.134 A 
ATOM     74  F   UNL A   1      39.174  35.353  33.592  1.00  0.00    -0.206 F 
ATOM     75  C   UNL A   1      36.899  34.803  33.586  1.00  0.00     0.040 A 
ATOM     76  C   UNL A   1      36.218  32.536  33.947  1.00  0.00     0.040 A 
ATOM     77  F   UNL A   1      37.809  30.845  34.300  1.00  0.00    -0.206 F 
ATOM     78  C   UNL A   1      35.883  33.859  33.661  1.00  0.00     0.006 A 
ENDBRANCH  50  71
BRANCH  62  79
ATOM     79  C   UNL A   1      43.165  27.351  33.881  1.00  0.00     0.057 A 
ATOM     80  C   UNL A   1      44.550  27.182  33.979  1.00  0.00     0.134 A 
ATOM     81  C   UNL A   1      42.400  26.387  34.588  1.00  0.00     0.134 A 
ATOM     82  F   UNL A   1      45.415  28.077  33.487  1.00  0.00    -0.206 F 
ATOM     83  C   UNL A   1      45.129  26.105  34.657  1.00  0.00     0.040 A 
ATOM     84  C   UNL A   1      42.969  25.360  35.337  1.00  0.00     0.040 A 
ATOM     85  F   UNL A   1      41.060  26.411  34.625  1.00  0.00    -0.206 F 
ATOM     86  C   UNL A   1      44.342  25.202  35.355  1.00  0.00     0.006 A 
ENDBRANCH  62  79
ENDBRANCH  36  37
ENDBRANCH  29  31
ENDBRANCH  28  29
ENDBRANCH   1  28
TORSDOF 12
ENDMDL
MODEL 3
REMARK VINA RESULT:     -12.9      2.295      4.602
REMARK SMILES Cc1ccccc1[C@@H]1[NH2+][C@H](C(=O)OCCOC(=O)c2ccc(-c3c4nc(c(-c5c(F)cccc5F)c5ccc([nH]5)c(-c5c(F)cccc5F)c5nc(c(-c6c(F)cccc6F)c6ccc3[nH]6)C=C5)C=C4)cc2)CC2=c3ccccc3=N[C@@H]21
REMARK SMILES IDX 15 1 14 2 13 3 11 4 12 5 10 6 8 7 9 8 82 9 74 12 81 13 73 14
REMARK SMILES IDX 75 15 80 16 76 17 79 18 77 19 78 20 7 21 1 22 2 23 3 24 4 25
REMARK SMILES IDX 6 26 5 27 16 28 17 29 18 30 19 31 20 32 72 33 21 34 71 35
REMARK SMILES IDX 22 36 23 37 24 38 65 39 25 40 70 41 64 42 66 43 26 44 69 45
REMARK SMILES IDX 63 46 62 47 27 49 53 50 36 51 52 52 37 53 40 54 51 55 67 56
REMARK SMILES IDX 38 57 39 58 50 60 68 61 41 62 28 63 29 64 34 65 30 66 31 67
REMARK SMILES IDX 33 68 35 69 32 70 54 71 55 72 60 73 56 74 57 75 59 76 61 77
REMARK SMILES IDX 58 78 42 79 43 80 48 81 44 82 45 83 47 84 49 85 46 86
REMARK H PARENT 9 10 9 11 66 48 40 59
REMARK Flexibility Score: inf
ROOT
ATOM      1  C   UNL A   1      33.835  28.556  26.406  1.00  0.00     0.275 C 
ENDROOT
BRANCH   1   2
ATOM      2  C   UNL A   1      33.670  27.061  26.054  1.00  0.00     0.274 C 
BRANCH   2   3
ATOM      3  O   UNL A   1      33.088  26.663  24.777  1.00  0.00    -0.458 OA
BRANCH   3   4
ATOM      4  C   UNL A   1      33.534  26.705  23.484  1.00  0.00     0.365 C 
ATOM      5  O   UNL A   1      33.771  27.789  22.959  1.00  0.00    -0.245 OA
BRANCH   4   6
ATOM      6  C   UNL A   1      33.780  25.363  22.780  1.00  0.00     0.298 C 
ATOM      7  C   UNL A   1      34.166  23.093  23.722  1.00  0.00     0.243 C 
ATOM      8  N   UNL A   1      34.329  24.529  23.821  1.00  0.00    -0.326 N 
ATOM      9  C   UNL A   1      32.608  22.839  23.883  1.00  0.00     0.196 C 
ATOM     10  H   UNL A   1      35.331  24.715  23.859  1.00  0.00     0.347 HD
ATOM     11  H   UNL A   1      33.790  24.782  24.650  1.00  0.00     0.347 HD
ATOM     12  C   UNL A   1      31.834  23.916  23.101  1.00  0.00    -0.024 C 
ATOM     13  N   UNL A   1      32.078  23.023  25.269  1.00  0.00    -0.270 NA
ATOM     14  C   UNL A   1      32.565  24.730  22.073  1.00  0.00     0.111 C 
ATOM     15  C   UNL A   1      30.832  24.439  23.807  1.00  0.00     0.002 A 
ATOM     16  C   UNL A   1      31.107  23.881  25.141  1.00  0.00     0.066 A 
ATOM     17  C   UNL A   1      30.047  25.623  23.626  1.00  0.00     0.010 A 
ATOM     18  C   UNL A   1      30.331  24.483  26.251  1.00  0.00     0.028 A 
ATOM     19  C   UNL A   1      29.471  26.185  24.699  1.00  0.00     0.001 A 
ATOM     20  C   UNL A   1      29.586  25.578  26.013  1.00  0.00     0.002 A 
BRANCH   7  21
ATOM     21  C   UNL A   1      35.306  22.664  24.672  1.00  0.00     0.015 A 
ATOM     22  C   UNL A   1      34.539  20.170  24.660  1.00  0.00     0.045 C 
ATOM     23  C   UNL A   1      35.531  21.277  24.940  1.00  0.00    -0.042 A 
ATOM     24  C   UNL A   1      36.809  20.838  25.357  1.00  0.00     0.004 A 
ATOM     25  C   UNL A   1      37.883  21.718  25.446  1.00  0.00     0.000 A 
ATOM     26  C   UNL A   1      36.405  23.540  24.855  1.00  0.00     0.010 A 
ATOM     27  C   UNL A   1      37.680  23.067  25.195  1.00  0.00     0.001 A 
ENDBRANCH   7  21
ENDBRANCH   4   6
ENDBRANCH   3   4
ENDBRANCH   2   3
ENDBRANCH   1   2
BRANCH   1  28
ATOM     28  O   UNL A   1      34.971  29.015  27.215  1.00  0.00    -0.458 OA
BRANCH  28  29
ATOM     29  C   UNL A   1      35.166  30.135  27.993  1.00  0.00     0.338 C 
ATOM     30  O   UNL A   1      34.357  31.015  28.105  1.00  0.00    -0.246 OA
BRANCH  29  31
ATOM     31  C   UNL A   1      36.419  30.150  28.772  1.00  0.00     0.060 A 
ATOM     32  C   UNL A   1      36.626  29.318  29.892  1.00  0.00     0.016 A 
ATOM     33  C   UNL A   1      37.460  30.648  28.060  1.00  0.00     0.016 A 
ATOM     34  C   UNL A   1      37.906  28.767  30.104  1.00  0.00     0.010 A 
ATOM     35  C   UNL A   1      38.499  29.777  28.017  1.00  0.00     0.010 A 
ATOM     36  C   UNL A   1      38.836  28.927  29.083  1.00  0.00    -0.014 A 
BRANCH  36  37
ATOM     37  C   UNL A   1      40.191  28.374  28.920  1.00  0.00     0.031 A 
ATOM     38  C   UNL A   1      40.471  27.027  28.360  1.00  0.00     0.074 A 
ATOM     39  C   UNL A   1      41.152  29.286  29.243  1.00  0.00     0.049 A 
ATOM     40  N   UNL A   1      41.246  26.148  28.906  1.00  0.00    -0.248 NA
ATOM     41  C   UNL A   1      39.916  26.541  27.091  1.00  0.00     0.031 C 
ATOM     42  C   UNL A   1      42.589  29.329  29.124  1.00  0.00     0.029 A 
ATOM     43  N   UNL A   1      40.890  30.510  29.902  1.00  0.00    -0.354 N 
ATOM     44  C   UNL A   1      41.575  25.241  27.905  1.00  0.00     0.074 A 
ATOM     45  C   UNL A   1      40.552  25.377  26.905  1.00  0.00     0.031 C 
ATOM     46  C   UNL A   1      43.060  30.244  30.009  1.00  0.00     0.029 A 
ATOM     47  C   UNL A   1      41.924  30.775  30.765  1.00  0.00     0.049 A 
ATOM     48  H   UNL A   1      40.098  31.078  29.765  1.00  0.00     0.167 HD
ATOM     49  C   UNL A   1      42.853  24.763  27.798  1.00  0.00     0.037 A 
ATOM     50  C   UNL A   1      41.607  30.689  32.087  1.00  0.00     0.037 A 
ATOM     51  C   UNL A   1      43.709  25.533  28.688  1.00  0.00     0.049 A 
ATOM     52  C   UNL A   1      42.364  29.527  32.641  1.00  0.00     0.074 A 
ATOM     53  C   UNL A   1      44.566  26.591  28.432  1.00  0.00     0.029 A 
ATOM     54  N   UNL A   1      43.489  25.517  30.055  1.00  0.00    -0.354 N 
ATOM     55  N   UNL A   1      42.607  28.431  31.977  1.00  0.00    -0.248 NA
ATOM     56  C   UNL A   1      43.059  29.608  33.914  1.00  0.00     0.031 C 
ATOM     57  C   UNL A   1      44.882  27.201  29.668  1.00  0.00     0.029 A 
ATOM     58  C   UNL A   1      44.183  26.539  30.664  1.00  0.00     0.049 A 
ATOM     59  H   UNL A   1      42.919  24.867  30.524  1.00  0.00     0.167 HD
ATOM     60  C   UNL A   1      43.585  27.737  32.637  1.00  0.00     0.074 A 
ATOM     61  C   UNL A   1      43.808  28.497  33.855  1.00  0.00     0.031 C 
ATOM     62  C   UNL A   1      44.201  26.640  32.109  1.00  0.00     0.037 A 
BRANCH  49  63
ATOM     63  C   UNL A   1      43.439  23.911  26.680  1.00  0.00     0.057 A 
ATOM     64  C   UNL A   1      43.416  22.497  26.752  1.00  0.00     0.134 A 
ATOM     65  C   UNL A   1      43.971  24.410  25.478  1.00  0.00     0.134 A 
ATOM     66  F   UNL A   1      42.847  21.846  27.774  1.00  0.00    -0.206 F 
ATOM     67  C   UNL A   1      43.954  21.658  25.768  1.00  0.00     0.040 A 
ATOM     68  C   UNL A   1      44.525  23.578  24.485  1.00  0.00     0.040 A 
ATOM     69  F   UNL A   1      43.937  25.718  25.190  1.00  0.00    -0.206 F 
ATOM     70  C   UNL A   1      44.528  22.196  24.631  1.00  0.00     0.006 A 
ENDBRANCH  49  63
BRANCH  50  71
ATOM     71  C   UNL A   1      40.178  31.080  32.403  1.00  0.00     0.057 A 
ATOM     72  C   UNL A   1      39.306  30.100  32.932  1.00  0.00     0.134 A 
ATOM     73  C   UNL A   1      39.741  32.405  32.526  1.00  0.00     0.134 A 
ATOM     74  F   UNL A   1      39.652  28.802  32.893  1.00  0.00    -0.206 F 
ATOM     75  C   UNL A   1      38.117  30.417  33.609  1.00  0.00     0.040 A 
ATOM     76  C   UNL A   1      38.544  32.736  33.194  1.00  0.00     0.040 A 
ATOM     77  F   UNL A   1      40.497  33.419  32.082  1.00  0.00    -0.206 F 
ATOM     78  C   UNL A   1      37.742  31.746  33.759  1.00  0.00     0.006 A 
ENDBRANCH  50  71
BRANCH  62  79
ATOM     79  C   UNL A   1      44.974  25.593  32.869  1.00  0.00     0.057 A 
ATOM     80  C   UNL A   1      46.367  25.469  32.834  1.00  0.00     0.134 A 
ATOM     81  C   UNL A   1      44.330  24.772  33.830  1.00  0.00     0.134 A 
ATOM     82  F   UNL A   1      47.137  26.266  32.085  1.00  0.00    -0.206 F 
ATOM     83  C   UNL A   1      47.059  24.552  33.632  1.00  0.00     0.040 A 
ATOM     84  C   UNL A   1      45.018  23.918  34.688  1.00  0.00     0.040 A 
ATOM     85  F   UNL A   1      43.003  24.780  34.017  1.00  0.00    -0.206 F 
ATOM     86  C   UNL A   1      46.389  23.787  34.575  1.00  0.00     0.006 A 
ENDBRANCH  62  79
ENDBRANCH  36  37
ENDBRANCH  29  31
ENDBRANCH  28  29
ENDBRANCH   1  28
TORSDOF 12
ENDMDL
