MODEL 1
REMARK VINA RESULT:     -10.6      0.000      0.000
REMARK SMILES CN(c1ccc(C(=O)OCCOC(=O)c2ccc(-c3c4nc(c(-c5c(F)cccc5F)c5ccc([nH]5)c(-c5c(F)cccc5F)c5nc(c(-c6c(F)cccc6F)c6ccc3[nH]6)C=C5)C=C4)cc2)cc1)S(C)(=O)=O
REMARK SMILES IDX 10 1 9 2 7 3 8 4 6 5 3 6 4 7 70 8 5 9 69 10 2 11 1 12 71 13
REMARK SMILES IDX 72 14 73 15 74 16 11 17 12 18 13 19 14 20 15 21 16 22 68 23
REMARK SMILES IDX 17 24 67 25 18 26 19 27 20 28 61 29 21 30 66 31 60 32 62 33
REMARK SMILES IDX 22 34 65 35 59 36 58 37 23 39 49 40 32 41 48 42 33 43 36 44
REMARK SMILES IDX 47 45 63 46 34 47 35 48 46 50 64 51 37 52 24 53 25 54 30 55
REMARK SMILES IDX 26 56 27 57 29 58 31 59 28 60 50 61 51 62 56 63 52 64 53 65
REMARK SMILES IDX 55 66 57 67 54 68 38 69 39 70 44 71 40 72 41 73 43 74 45 75
REMARK SMILES IDX 42 76
REMARK H PARENT 62 38 36 49
REMARK Flexibility Score: inf
ROOT
ATOM      1  C   UNL A   1      34.353  34.220  29.829  1.00  0.00     0.275 C 
ENDROOT
BRANCH   1   2
ATOM      2  O   UNL A   1      33.779  33.095  29.131  1.00  0.00    -0.458 OA
BRANCH   2   3
ATOM      3  C   UNL A   1      34.495  32.629  28.078  1.00  0.00     0.338 C 
ATOM      4  O   UNL A   1      35.466  33.165  27.568  1.00  0.00    -0.246 OA
BRANCH   3   5
ATOM      5  C   UNL A   1      34.007  31.293  27.647  1.00  0.00     0.060 A 
ATOM      6  C   UNL A   1      33.189  28.712  26.900  1.00  0.00     0.051 A 
ATOM      7  C   UNL A   1      34.515  28.947  27.260  1.00  0.00     0.028 A 
ATOM      8  C   UNL A   1      32.293  29.788  26.844  1.00  0.00     0.028 A 
ATOM      9  C   UNL A   1      34.922  30.230  27.624  1.00  0.00     0.018 A 
ATOM     10  C   UNL A   1      32.690  31.073  27.237  1.00  0.00     0.018 A 
BRANCH   6  11
ATOM     11  N   UNL A   1      32.755  27.438  26.397  1.00  0.00    -0.274 N 
ATOM     12  C   UNL A   1      31.334  27.103  26.642  1.00  0.00     0.163 C 
BRANCH  11  13
ATOM     13  S   UNL A   1      33.384  26.940  24.883  1.00  0.00     0.231 S 
ATOM     14  C   UNL A   1      31.913  26.296  24.120  1.00  0.00     0.183 C 
ATOM     15  O   UNL A   1      33.799  28.118  24.148  1.00  0.00    -0.207 OA
ATOM     16  O   UNL A   1      34.280  25.818  25.070  1.00  0.00    -0.207 OA
ENDBRANCH  11  13
ENDBRANCH   6  11
ENDBRANCH   3   5
ENDBRANCH   2   3
ENDBRANCH   1   2
BRANCH   1  17
ATOM     17  C   UNL A   1      34.582  33.906  31.307  1.00  0.00     0.275 C 
BRANCH  17  18
ATOM     18  O   UNL A   1      34.741  32.489  31.503  1.00  0.00    -0.458 OA
BRANCH  18  19
ATOM     19  C   UNL A   1      35.704  32.130  32.381  1.00  0.00     0.338 C 
ATOM     20  O   UNL A   1      35.734  32.339  33.582  1.00  0.00    -0.246 OA
BRANCH  19  21
ATOM     21  C   UNL A   1      36.756  31.372  31.688  1.00  0.00     0.060 A 
ATOM     22  C   UNL A   1      37.690  30.682  32.455  1.00  0.00     0.016 A 
ATOM     23  C   UNL A   1      36.928  31.486  30.311  1.00  0.00     0.016 A 
ATOM     24  C   UNL A   1      38.851  30.189  31.869  1.00  0.00     0.010 A 
ATOM     25  C   UNL A   1      38.049  30.901  29.708  1.00  0.00     0.010 A 
ATOM     26  C   UNL A   1      39.048  30.283  30.484  1.00  0.00    -0.014 A 
BRANCH  26  27
ATOM     27  C   UNL A   1      40.312  29.788  29.862  1.00  0.00     0.031 A 
ATOM     28  C   UNL A   1      41.507  30.701  29.737  1.00  0.00     0.074 A 
ATOM     29  C   UNL A   1      40.414  28.518  29.424  1.00  0.00     0.049 A 
ATOM     30  N   UNL A   1      42.624  30.525  29.074  1.00  0.00    -0.248 NA
ATOM     31  C   UNL A   1      41.427  31.992  30.438  1.00  0.00     0.031 C 
ATOM     32  C   UNL A   1      39.366  27.499  29.524  1.00  0.00     0.029 A 
ATOM     33  N   UNL A   1      41.454  27.859  28.814  1.00  0.00    -0.354 N 
ATOM     34  C   UNL A   1      43.349  31.701  29.227  1.00  0.00     0.074 A 
ATOM     35  C   UNL A   1      42.542  32.587  30.038  1.00  0.00     0.031 C 
ATOM     36  C   UNL A   1      39.833  26.338  29.040  1.00  0.00     0.029 A 
ATOM     37  C   UNL A   1      41.173  26.550  28.506  1.00  0.00     0.049 A 
ATOM     38  H   UNL A   1      42.320  28.285  28.616  1.00  0.00     0.167 HD
ATOM     39  C   UNL A   1      44.576  32.013  28.740  1.00  0.00     0.037 A 
ATOM     40  C   UNL A   1      41.891  25.630  27.834  1.00  0.00     0.037 A 
ATOM     41  C   UNL A   1      45.405  31.107  27.987  1.00  0.00     0.049 A 
ATOM     42  C   UNL A   1      43.228  26.007  27.268  1.00  0.00     0.074 A 
ATOM     43  C   UNL A   1      46.670  31.324  27.465  1.00  0.00     0.029 A 
ATOM     44  N   UNL A   1      45.061  29.802  27.665  1.00  0.00    -0.354 N 
ATOM     45  N   UNL A   1      43.874  27.144  27.361  1.00  0.00    -0.248 NA
ATOM     46  C   UNL A   1      43.926  24.981  26.480  1.00  0.00     0.031 C 
ATOM     47  C   UNL A   1      47.073  30.164  26.794  1.00  0.00     0.029 A 
ATOM     48  C   UNL A   1      46.081  29.208  26.939  1.00  0.00     0.049 A 
ATOM     49  H   UNL A   1      44.216  29.363  27.916  1.00  0.00     0.167 HD
ATOM     50  C   UNL A   1      45.059  26.967  26.661  1.00  0.00     0.074 A 
ATOM     51  C   UNL A   1      45.051  25.607  26.161  1.00  0.00     0.031 C 
ATOM     52  C   UNL A   1      46.062  27.854  26.448  1.00  0.00     0.037 A 
BRANCH  39  53
ATOM     53  C   UNL A   1      45.080  33.409  28.975  1.00  0.00     0.057 A 
ATOM     54  C   UNL A   1      44.794  34.467  28.104  1.00  0.00     0.134 A 
ATOM     55  C   UNL A   1      45.850  33.701  30.109  1.00  0.00     0.134 A 
ATOM     56  F   UNL A   1      44.069  34.258  26.994  1.00  0.00    -0.206 F 
ATOM     57  C   UNL A   1      45.284  35.755  28.332  1.00  0.00     0.040 A 
ATOM     58  C   UNL A   1      46.321  34.990  30.364  1.00  0.00     0.040 A 
ATOM     59  F   UNL A   1      46.153  32.739  30.994  1.00  0.00    -0.206 F 
ATOM     60  C   UNL A   1      46.047  36.020  29.468  1.00  0.00     0.006 A 
ENDBRANCH  39  53
BRANCH  40  61
ATOM     61  C   UNL A   1      41.335  24.268  27.630  1.00  0.00     0.057 A 
ATOM     62  C   UNL A   1      41.807  23.177  28.369  1.00  0.00     0.134 A 
ATOM     63  C   UNL A   1      40.310  24.025  26.707  1.00  0.00     0.134 A 
ATOM     64  F   UNL A   1      42.806  23.340  29.249  1.00  0.00    -0.206 F 
ATOM     65  C   UNL A   1      41.281  21.895  28.197  1.00  0.00     0.040 A 
ATOM     66  C   UNL A   1      39.755  22.755  26.546  1.00  0.00     0.040 A 
ATOM     67  F   UNL A   1      39.813  25.028  25.968  1.00  0.00    -0.206 F 
ATOM     68  C   UNL A   1      40.244  21.684  27.290  1.00  0.00     0.006 A 
ENDBRANCH  40  61
BRANCH  52  69
ATOM     69  C   UNL A   1      47.249  27.367  25.671  1.00  0.00     0.057 A 
ATOM     70  C   UNL A   1      47.379  27.600  24.296  1.00  0.00     0.134 A 
ATOM     71  C   UNL A   1      48.285  26.676  26.312  1.00  0.00     0.134 A 
ATOM     72  F   UNL A   1      46.413  28.242  23.621  1.00  0.00    -0.206 F 
ATOM     73  C   UNL A   1      48.488  27.144  23.581  1.00  0.00     0.040 A 
ATOM     74  C   UNL A   1      49.410  26.236  25.612  1.00  0.00     0.040 A 
ATOM     75  F   UNL A   1      48.225  26.425  27.628  1.00  0.00    -0.206 F 
ATOM     76  C   UNL A   1      49.510  26.464  24.241  1.00  0.00     0.006 A 
ENDBRANCH  52  69
ENDBRANCH  26  27
ENDBRANCH  19  21
ENDBRANCH  18  19
ENDBRANCH  17  18
ENDBRANCH   1  17
TORSDOF 13
ENDMDL
MODEL 2
REMARK VINA RESULT:     -10.5      4.743     10.146
REMARK SMILES CN(c1ccc(C(=O)OCCOC(=O)c2ccc(-c3c4nc(c(-c5c(F)cccc5F)c5ccc([nH]5)c(-c5c(F)cccc5F)c5nc(c(-c6c(F)cccc6F)c6ccc3[nH]6)C=C5)C=C4)cc2)cc1)S(C)(=O)=O
REMARK SMILES IDX 10 1 9 2 7 3 8 4 6 5 3 6 4 7 70 8 5 9 69 10 2 11 1 12 71 13
REMARK SMILES IDX 72 14 73 15 74 16 11 17 12 18 13 19 14 20 15 21 16 22 68 23
REMARK SMILES IDX 17 24 67 25 18 26 19 27 20 28 61 29 21 30 66 31 60 32 62 33
REMARK SMILES IDX 22 34 65 35 59 36 58 37 23 39 49 40 32 41 48 42 33 43 36 44
REMARK SMILES IDX 47 45 63 46 34 47 35 48 46 50 64 51 37 52 24 53 25 54 30 55
REMARK SMILES IDX 26 56 27 57 29 58 31 59 28 60 50 61 51 62 56 63 52 64 53 65
REMARK SMILES IDX 55 66 57 67 54 68 38 69 39 70 44 71 40 72 41 73 43 74 45 75
REMARK SMILES IDX 42 76
REMARK H PARENT 62 38 36 49
REMARK Flexibility Score: inf
ROOT
ATOM      1  C   UNL A   1      42.869  21.355  26.157  1.00  0.00     0.275 C 
ENDROOT
BRANCH   1   2
ATOM      2  O   UNL A   1      41.493  21.089  25.815  1.00  0.00    -0.458 OA
BRANCH   2   3
ATOM      3  C   UNL A   1      40.588  21.316  26.799  1.00  0.00     0.338 C 
ATOM      4  O   UNL A   1      40.756  21.132  27.993  1.00  0.00    -0.246 OA
BRANCH   3   5
ATOM      5  C   UNL A   1      39.347  21.926  26.255  1.00  0.00     0.060 A 
ATOM      6  C   UNL A   1      36.949  22.952  25.212  1.00  0.00     0.051 A 
ATOM      7  C   UNL A   1      37.321  21.636  24.941  1.00  0.00     0.028 A 
ATOM      8  C   UNL A   1      37.817  23.773  25.944  1.00  0.00     0.028 A 
ATOM      9  C   UNL A   1      38.516  21.130  25.453  1.00  0.00     0.018 A 
ATOM     10  C   UNL A   1      39.003  23.260  26.485  1.00  0.00     0.018 A 
BRANCH   6  11
ATOM     11  N   UNL A   1      35.796  23.554  24.602  1.00  0.00    -0.274 N 
ATOM     12  C   UNL A   1      35.609  23.265  23.162  1.00  0.00     0.163 C 
BRANCH  11  13
ATOM     13  S   UNL A   1      34.363  23.622  25.537  1.00  0.00     0.231 S 
ATOM     14  C   UNL A   1      34.160  25.382  25.688  1.00  0.00     0.183 C 
ATOM     15  O   UNL A   1      33.269  23.106  24.740  1.00  0.00    -0.207 OA
ATOM     16  O   UNL A   1      34.623  23.119  26.870  1.00  0.00    -0.207 OA
ENDBRANCH  11  13
ENDBRANCH   6  11
ENDBRANCH   3   5
ENDBRANCH   2   3
ENDBRANCH   1   2
BRANCH   1  17
ATOM     17  C   UNL A   1      43.622  21.998  24.992  1.00  0.00     0.275 C 
BRANCH  17  18
ATOM     18  O   UNL A   1      43.085  23.300  24.701  1.00  0.00    -0.458 OA
BRANCH  18  19
ATOM     19  C   UNL A   1      43.889  24.342  25.011  1.00  0.00     0.338 C 
ATOM     20  O   UNL A   1      45.014  24.564  24.597  1.00  0.00    -0.246 OA
BRANCH  19  21
ATOM     21  C   UNL A   1      43.193  25.259  25.925  1.00  0.00     0.060 A 
ATOM     22  C   UNL A   1      43.613  26.584  25.982  1.00  0.00     0.016 A 
ATOM     23  C   UNL A   1      42.260  24.780  26.842  1.00  0.00     0.016 A 
ATOM     24  C   UNL A   1      43.183  27.412  27.014  1.00  0.00     0.010 A 
ATOM     25  C   UNL A   1      41.753  25.644  27.821  1.00  0.00     0.010 A 
ATOM     26  C   UNL A   1      42.240  26.959  27.948  1.00  0.00    -0.014 A 
BRANCH  26  27
ATOM     27  C   UNL A   1      41.810  27.836  29.077  1.00  0.00     0.031 A 
ATOM     28  C   UNL A   1      42.611  27.878  30.356  1.00  0.00     0.074 A 
ATOM     29  C   UNL A   1      40.717  28.616  28.967  1.00  0.00     0.049 A 
ATOM     30  N   UNL A   1      42.313  28.427  31.507  1.00  0.00    -0.248 NA
ATOM     31  C   UNL A   1      43.915  27.197  30.340  1.00  0.00     0.031 C 
ATOM     32  C   UNL A   1      39.869  28.727  27.778  1.00  0.00     0.029 A 
ATOM     33  N   UNL A   1      40.132  29.475  29.866  1.00  0.00    -0.354 N 
ATOM     34  C   UNL A   1      43.357  28.107  32.366  1.00  0.00     0.074 A 
ATOM     35  C   UNL A   1      44.294  27.307  31.605  1.00  0.00     0.031 C 
ATOM     36  C   UNL A   1      38.909  29.635  28.004  1.00  0.00     0.029 A 
ATOM     37  C   UNL A   1      39.008  30.099  29.383  1.00  0.00     0.049 A 
ATOM     38  H   UNL A   1      40.486  29.629  30.773  1.00  0.00     0.167 HD
ATOM     39  C   UNL A   1      43.524  28.450  33.668  1.00  0.00     0.037 A 
ATOM     40  C   UNL A   1      38.128  30.921  29.986  1.00  0.00     0.037 A 
ATOM     41  C   UNL A   1      42.624  29.298  34.406  1.00  0.00     0.049 A 
ATOM     42  C   UNL A   1      38.308  31.255  31.438  1.00  0.00     0.074 A 
ATOM     43  C   UNL A   1      42.715  29.717  35.723  1.00  0.00     0.029 A 
ATOM     44  N   UNL A   1      41.475  29.876  33.884  1.00  0.00    -0.354 N 
ATOM     45  N   UNL A   1      39.264  30.891  32.257  1.00  0.00    -0.248 NA
ATOM     46  C   UNL A   1      37.272  32.095  32.056  1.00  0.00     0.031 C 
ATOM     47  C   UNL A   1      41.602  30.515  36.008  1.00  0.00     0.029 A 
ATOM     48  C   UNL A   1      40.842  30.633  34.856  1.00  0.00     0.049 A 
ATOM     49  H   UNL A   1      41.158  29.764  32.959  1.00  0.00     0.167 HD
ATOM     50  C   UNL A   1      38.955  31.468  33.481  1.00  0.00     0.074 A 
ATOM     51  C   UNL A   1      37.732  32.220  33.293  1.00  0.00     0.031 C 
ATOM     52  C   UNL A   1      39.625  31.379  34.657  1.00  0.00     0.037 A 
BRANCH  39  53
ATOM     53  C   UNL A   1      44.710  27.872  34.389  1.00  0.00     0.057 A 
ATOM     54  C   UNL A   1      45.940  28.536  34.464  1.00  0.00     0.134 A 
ATOM     55  C   UNL A   1      44.607  26.634  35.037  1.00  0.00     0.134 A 
ATOM     56  F   UNL A   1      46.111  29.721  33.859  1.00  0.00    -0.206 F 
ATOM     57  C   UNL A   1      47.034  27.975  35.127  1.00  0.00     0.040 A 
ATOM     58  C   UNL A   1      45.685  26.077  35.728  1.00  0.00     0.040 A 
ATOM     59  F   UNL A   1      43.455  25.947  35.018  1.00  0.00    -0.206 F 
ATOM     60  C   UNL A   1      46.907  26.743  35.765  1.00  0.00     0.006 A 
ENDBRANCH  39  53
BRANCH  40  61
ATOM     61  C   UNL A   1      36.974  31.455  29.219  1.00  0.00     0.057 A 
ATOM     62  C   UNL A   1      36.978  32.764  28.727  1.00  0.00     0.134 A 
ATOM     63  C   UNL A   1      35.849  30.667  28.946  1.00  0.00     0.134 A 
ATOM     64  F   UNL A   1      38.014  33.577  28.978  1.00  0.00    -0.206 F 
ATOM     65  C   UNL A   1      35.905  33.272  27.990  1.00  0.00     0.040 A 
ATOM     66  C   UNL A   1      34.782  31.151  28.188  1.00  0.00     0.040 A 
ATOM     67  F   UNL A   1      35.783  29.403  29.390  1.00  0.00    -0.206 F 
ATOM     68  C   UNL A   1      34.807  32.459  27.711  1.00  0.00     0.006 A 
ENDBRANCH  40  61
BRANCH  52  69
ATOM     69  C   UNL A   1      39.066  32.143  35.820  1.00  0.00     0.057 A 
ATOM     70  C   UNL A   1      39.335  33.505  36.008  1.00  0.00     0.134 A 
ATOM     71  C   UNL A   1      38.231  31.513  36.750  1.00  0.00     0.134 A 
ATOM     72  F   UNL A   1      40.141  34.163  35.161  1.00  0.00    -0.206 F 
ATOM     73  C   UNL A   1      38.809  34.208  37.094  1.00  0.00     0.040 A 
ATOM     74  C   UNL A   1      37.680  32.211  37.826  1.00  0.00     0.040 A 
ATOM     75  F   UNL A   1      37.930  30.212  36.625  1.00  0.00    -0.206 F 
ATOM     76  C   UNL A   1      37.974  33.561  38.004  1.00  0.00     0.006 A 
ENDBRANCH  52  69
ENDBRANCH  26  27
ENDBRANCH  19  21
ENDBRANCH  18  19
ENDBRANCH  17  18
ENDBRANCH   1  17
TORSDOF 13
ENDMDL
MODEL 3
REMARK VINA RESULT:     -10.1      2.902      7.817
REMARK SMILES CN(c1ccc(C(=O)OCCOC(=O)c2ccc(-c3c4nc(c(-c5c(F)cccc5F)c5ccc([nH]5)c(-c5c(F)cccc5F)c5nc(c(-c6c(F)cccc6F)c6ccc3[nH]6)C=C5)C=C4)cc2)cc1)S(C)(=O)=O
REMARK SMILES IDX 10 1 9 2 7 3 8 4 6 5 3 6 4 7 70 8 5 9 69 10 2 11 1 12 71 13
REMARK SMILES IDX 72 14 73 15 74 16 11 17 12 18 13 19 14 20 15 21 16 22 68 23
REMARK SMILES IDX 17 24 67 25 18 26 19 27 20 28 61 29 21 30 66 31 60 32 62 33
REMARK SMILES IDX 22 34 65 35 59 36 58 37 23 39 49 40 32 41 48 42 33 43 36 44
REMARK SMILES IDX 47 45 63 46 34 47 35 48 46 50 64 51 37 52 24 53 25 54 30 55
REMARK SMILES IDX 26 56 27 57 29 58 31 59 28 60 50 61 51 62 56 63 52 64 53 65
REMARK SMILES IDX 55 66 57 67 54 68 38 69 39 70 44 71 40 72 41 73 43 74 45 75
REMARK SMILES IDX 42 76
REMARK H PARENT 62 38 36 49
REMARK Flexibility Score: inf
ROOT
ATOM      1  C   UNL A   1      34.980  20.998  25.375  1.00  0.00     0.275 C 
ENDROOT
BRANCH   1   2
ATOM      2  O   UNL A   1      35.050  22.383  25.775  1.00  0.00    -0.458 OA
BRANCH   2   3
ATOM      3  C   UNL A   1      34.087  22.797  26.635  1.00  0.00     0.338 C 
ATOM      4  O   UNL A   1      33.732  22.226  27.653  1.00  0.00    -0.246 OA
BRANCH   3   5
ATOM      5  C   UNL A   1      33.548  24.123  26.237  1.00  0.00     0.060 A 
ATOM      6  C   UNL A   1      32.438  26.620  25.587  1.00  0.00     0.051 A 
ATOM      7  C   UNL A   1      31.683  25.683  26.291  1.00  0.00     0.028 A 
ATOM      8  C   UNL A   1      33.722  26.275  25.145  1.00  0.00     0.028 A 
ATOM      9  C   UNL A   1      32.233  24.441  26.607  1.00  0.00     0.018 A 
ATOM     10  C   UNL A   1      34.289  25.039  25.487  1.00  0.00     0.018 A 
BRANCH   6  11
ATOM     11  N   UNL A   1      31.871  27.858  25.129  1.00  0.00    -0.274 N 
ATOM     12  C   UNL A   1      32.728  29.055  25.297  1.00  0.00     0.163 C 
BRANCH  11  13
ATOM     13  S   UNL A   1      30.941  27.809  23.692  1.00  0.00     0.231 S 
ATOM     14  C   UNL A   1      30.304  29.468  23.663  1.00  0.00     0.183 C 
ATOM     15  O   UNL A   1      31.840  27.648  22.568  1.00  0.00    -0.207 OA
ATOM     16  O   UNL A   1      29.804  26.931  23.874  1.00  0.00    -0.207 OA
ENDBRANCH  11  13
ENDBRANCH   6  11
ENDBRANCH   3   5
ENDBRANCH   2   3
ENDBRANCH   1   2
BRANCH   1  17
ATOM     17  C   UNL A   1      36.360  20.447  25.019  1.00  0.00     0.275 C 
BRANCH  17  18
ATOM     18  O   UNL A   1      37.354  21.484  25.099  1.00  0.00    -0.458 OA
BRANCH  18  19
ATOM     19  C   UNL A   1      38.518  21.128  25.688  1.00  0.00     0.338 C 
ATOM     20  O   UNL A   1      39.061  20.036  25.666  1.00  0.00    -0.246 OA
BRANCH  19  21
ATOM     21  C   UNL A   1      39.115  22.289  26.363  1.00  0.00     0.060 A 
ATOM     22  C   UNL A   1      38.611  23.554  26.075  1.00  0.00     0.016 A 
ATOM     23  C   UNL A   1      40.269  22.152  27.130  1.00  0.00     0.016 A 
ATOM     24  C   UNL A   1      39.311  24.692  26.464  1.00  0.00     0.010 A 
ATOM     25  C   UNL A   1      40.917  23.300  27.606  1.00  0.00     0.010 A 
ATOM     26  C   UNL A   1      40.472  24.585  27.243  1.00  0.00    -0.014 A 
BRANCH  26  27
ATOM     27  C   UNL A   1      41.243  25.806  27.626  1.00  0.00     0.031 A 
ATOM     28  C   UNL A   1      40.613  26.860  28.503  1.00  0.00     0.074 A 
ATOM     29  C   UNL A   1      42.515  25.975  27.213  1.00  0.00     0.049 A 
ATOM     30  N   UNL A   1      41.041  28.062  28.798  1.00  0.00    -0.248 NA
ATOM     31  C   UNL A   1      39.320  26.520  29.118  1.00  0.00     0.031 C 
ATOM     32  C   UNL A   1      43.280  25.023  26.406  1.00  0.00     0.029 A 
ATOM     33  N   UNL A   1      43.397  27.008  27.424  1.00  0.00    -0.354 N 
ATOM     34  C   UNL A   1      40.048  28.642  29.578  1.00  0.00     0.074 A 
ATOM     35  C   UNL A   1      38.989  27.662  29.702  1.00  0.00     0.031 C 
ATOM     36  C   UNL A   1      44.525  25.491  26.233  1.00  0.00     0.029 A 
ATOM     37  C   UNL A   1      44.620  26.819  26.829  1.00  0.00     0.049 A 
ATOM     38  H   UNL A   1      43.172  27.809  27.952  1.00  0.00     0.167 HD
ATOM     39  C   UNL A   1      40.020  29.876  30.141  1.00  0.00     0.037 A 
ATOM     40  C   UNL A   1      45.689  27.633  26.734  1.00  0.00     0.037 A 
ATOM     41  C   UNL A   1      41.100  30.826  30.069  1.00  0.00     0.049 A 
ATOM     42  C   UNL A   1      45.622  29.009  27.329  1.00  0.00     0.074 A 
ATOM     43  C   UNL A   1      41.173  32.094  30.621  1.00  0.00     0.029 A 
ATOM     44  N   UNL A   1      42.306  30.604  29.421  1.00  0.00    -0.354 N 
ATOM     45  N   UNL A   1      44.650  29.571  28.005  1.00  0.00    -0.248 NA
ATOM     46  C   UNL A   1      46.792  29.875  27.124  1.00  0.00     0.031 C 
ATOM     47  C   UNL A   1      42.408  32.653  30.273  1.00  0.00     0.029 A 
ATOM     48  C   UNL A   1      43.123  31.717  29.545  1.00  0.00     0.049 A 
ATOM     49  H   UNL A   1      42.546  29.777  28.943  1.00  0.00     0.167 HD
ATOM     50  C   UNL A   1      45.096  30.847  28.321  1.00  0.00     0.074 A 
ATOM     51  C   UNL A   1      46.432  30.971  27.777  1.00  0.00     0.031 C 
ATOM     52  C   UNL A   1      44.452  31.828  29.000  1.00  0.00     0.037 A 
BRANCH  39  53
ATOM     53  C   UNL A   1      38.760  30.283  30.853  1.00  0.00     0.057 A 
ATOM     54  C   UNL A   1      38.550  30.025  32.213  1.00  0.00     0.134 A 
ATOM     55  C   UNL A   1      37.748  30.964  30.164  1.00  0.00     0.134 A 
ATOM     56  F   UNL A   1      39.473  29.367  32.932  1.00  0.00    -0.206 F 
ATOM     57  C   UNL A   1      37.365  30.398  32.853  1.00  0.00     0.040 A 
ATOM     58  C   UNL A   1      36.573  31.369  30.800  1.00  0.00     0.040 A 
ATOM     59  F   UNL A   1      37.886  31.257  28.862  1.00  0.00    -0.206 F 
ATOM     60  C   UNL A   1      36.374  31.076  32.147  1.00  0.00     0.006 A 
ENDBRANCH  39  53
BRANCH  40  61
ATOM     61  C   UNL A   1      46.902  27.173  26.012  1.00  0.00     0.057 A 
ATOM     62  C   UNL A   1      47.928  26.498  26.681  1.00  0.00     0.134 A 
ATOM     63  C   UNL A   1      47.059  27.383  24.636  1.00  0.00     0.134 A 
ATOM     64  F   UNL A   1      47.849  26.290  28.004  1.00  0.00    -0.206 F 
ATOM     65  C   UNL A   1      49.067  26.046  26.009  1.00  0.00     0.040 A 
ATOM     66  C   UNL A   1      48.178  26.913  23.947  1.00  0.00     0.040 A 
ATOM     67  F   UNL A   1      46.112  28.024  23.936  1.00  0.00    -0.206 F 
ATOM     68  C   UNL A   1      49.188  26.245  24.635  1.00  0.00     0.006 A 
ENDBRANCH  40  61
BRANCH  52  69
ATOM     69  C   UNL A   1      45.201  33.109  29.221  1.00  0.00     0.057 A 
ATOM     70  C   UNL A   1      46.039  33.295  30.328  1.00  0.00     0.134 A 
ATOM     71  C   UNL A   1      45.099  34.160  28.301  1.00  0.00     0.134 A 
ATOM     72  F   UNL A   1      46.166  32.332  31.253  1.00  0.00    -0.206 F 
ATOM     73  C   UNL A   1      46.732  34.491  30.524  1.00  0.00     0.040 A 
ATOM     74  C   UNL A   1      45.807  35.351  28.474  1.00  0.00     0.040 A 
ATOM     75  F   UNL A   1      44.319  34.045  27.217  1.00  0.00    -0.206 F 
ATOM     76  C   UNL A   1      46.621  35.521  29.591  1.00  0.00     0.006 A 
ENDBRANCH  52  69
ENDBRANCH  26  27
ENDBRANCH  19  21
ENDBRANCH  18  19
ENDBRANCH  17  18
ENDBRANCH   1  17
TORSDOF 13
ENDMDL
