MODEL 1
REMARK VINA RESULT:     -11.6      0.000      0.000
REMARK SMILES O=C(OCCOC(=O)c1cccc(N[C@H]2CCCC[C@@H]2O)c1)c1ccc(-c2c3nc(c(-c4c(F)cccc4F)c4ccc([nH]4)c(-c4c(F)cccc4F)c4nc(c(-c5c(F)cccc5F)c5ccc2[nH]5)C=C4)C=C3)cc1
REMARK SMILES IDX 5 1 4 2 3 3 2 4 1 5 23 6 24 7 76 8 25 9 75 10 26 11 27 12
REMARK SMILES IDX 28 13 69 14 29 15 74 16 68 17 70 18 30 19 73 20 67 21 66 22
REMARK SMILES IDX 31 24 57 25 40 26 56 27 41 28 44 29 55 30 71 31 42 32 43 33
REMARK SMILES IDX 54 35 72 36 45 37 32 38 33 39 38 40 34 41 35 42 37 43 39 44
REMARK SMILES IDX 36 45 58 46 59 47 64 48 60 49 61 50 63 51 65 52 62 53 46 54
REMARK SMILES IDX 47 55 52 56 48 57 49 58 51 59 53 60 50 61 6 62 7 63 8 64
REMARK SMILES IDX 9 65 10 66 22 67 11 68 13 69 12 70 14 71 15 73 16 74 20 75
REMARK SMILES IDX 17 76 19 77 18 78 21 79
REMARK H PARENT 70 23 44 34 14 72 21 80
REMARK Flexibility Score: inf
ROOT
ATOM      1  C   UNL A   1      38.554  21.426  25.726  1.00  0.00     0.275 C 
ENDROOT
BRANCH   1   2
ATOM      2  C   UNL A   1      38.877  20.051  25.134  1.00  0.00     0.275 C 
BRANCH   2   3
ATOM      3  O   UNL A   1      39.852  19.286  25.864  1.00  0.00    -0.458 OA
BRANCH   3   4
ATOM      4  C   UNL A   1      41.190  19.497  25.937  1.00  0.00     0.338 C 
ATOM      5  O   UNL A   1      41.961  18.580  25.665  1.00  0.00    -0.246 OA
BRANCH   4   6
ATOM      6  C   UNL A   1      41.765  20.742  26.528  1.00  0.00     0.060 A 
ATOM      7  C   UNL A   1      41.811  21.056  27.890  1.00  0.00     0.016 A 
ATOM      8  C   UNL A   1      42.272  21.679  25.614  1.00  0.00     0.016 A 
ATOM      9  C   UNL A   1      42.429  22.230  28.341  1.00  0.00     0.010 A 
ATOM     10  C   UNL A   1      42.888  22.850  26.058  1.00  0.00     0.010 A 
ATOM     11  C   UNL A   1      42.973  23.133  27.429  1.00  0.00    -0.014 A 
BRANCH  11  12
ATOM     12  C   UNL A   1      43.464  24.466  27.856  1.00  0.00     0.031 A 
ATOM     13  C   UNL A   1      42.430  25.525  28.121  1.00  0.00     0.074 A 
ATOM     14  C   UNL A   1      44.782  24.748  27.912  1.00  0.00     0.049 A 
ATOM     15  N   UNL A   1      42.588  26.803  28.341  1.00  0.00    -0.248 NA
ATOM     16  C   UNL A   1      41.026  25.075  28.172  1.00  0.00     0.031 C 
ATOM     17  C   UNL A   1      45.875  23.794  27.723  1.00  0.00     0.029 A 
ATOM     18  N   UNL A   1      45.427  25.958  28.044  1.00  0.00    -0.354 N 
ATOM     19  C   UNL A   1      41.311  27.297  28.587  1.00  0.00     0.074 A 
ATOM     20  C   UNL A   1      40.383  26.204  28.426  1.00  0.00     0.031 C 
ATOM     21  C   UNL A   1      47.039  24.467  27.621  1.00  0.00     0.029 A 
ATOM     22  C   UNL A   1      46.769  25.895  27.738  1.00  0.00     0.049 A 
ATOM     23  H   UNL A   1      44.973  26.785  28.330  1.00  0.00     0.167 HD
ATOM     24  C   UNL A   1      40.959  28.548  28.959  1.00  0.00     0.037 A 
ATOM     25  C   UNL A   1      47.645  26.890  27.499  1.00  0.00     0.037 A 
ATOM     26  C   UNL A   1      41.903  29.623  29.079  1.00  0.00     0.049 A 
ATOM     27  C   UNL A   1      47.183  28.310  27.655  1.00  0.00     0.074 A 
ATOM     28  C   UNL A   1      41.710  30.899  29.574  1.00  0.00     0.029 A 
ATOM     29  N   UNL A   1      43.219  29.543  28.654  1.00  0.00    -0.354 N 
ATOM     30  N   UNL A   1      45.990  28.756  27.963  1.00  0.00    -0.248 NA
ATOM     31  C   UNL A   1      48.192  29.358  27.451  1.00  0.00     0.031 C 
ATOM     32  C   UNL A   1      42.904  31.608  29.403  1.00  0.00     0.029 A 
ATOM     33  C   UNL A   1      43.846  30.760  28.840  1.00  0.00     0.049 A 
ATOM     34  H   UNL A   1      43.644  28.741  28.276  1.00  0.00     0.167 HD
ATOM     35  C   UNL A   1      46.121  30.133  28.067  1.00  0.00     0.074 A 
ATOM     36  C   UNL A   1      47.492  30.452  27.721  1.00  0.00     0.031 C 
ATOM     37  C   UNL A   1      45.207  31.046  28.471  1.00  0.00     0.037 A 
BRANCH  24  38
ATOM     38  C   UNL A   1      39.522  28.800  29.295  1.00  0.00     0.057 A 
ATOM     39  C   UNL A   1      39.030  28.589  30.591  1.00  0.00     0.134 A 
ATOM     40  C   UNL A   1      38.630  29.299  28.340  1.00  0.00     0.134 A 
ATOM     41  F   UNL A   1      39.831  28.104  31.552  1.00  0.00    -0.206 F 
ATOM     42  C   UNL A   1      37.699  28.850  30.920  1.00  0.00     0.040 A 
ATOM     43  C   UNL A   1      37.301  29.582  28.662  1.00  0.00     0.040 A 
ATOM     44  F   UNL A   1      39.035  29.527  27.081  1.00  0.00    -0.206 F 
ATOM     45  C   UNL A   1      36.831  29.356  29.955  1.00  0.00     0.006 A 
ENDBRANCH  24  38
BRANCH  25  46
ATOM     46  C   UNL A   1      49.017  26.624  26.996  1.00  0.00     0.057 A 
ATOM     47  C   UNL A   1      49.312  26.549  25.634  1.00  0.00     0.134 A 
ATOM     48  C   UNL A   1      50.049  26.318  27.891  1.00  0.00     0.134 A 
ATOM     49  F   UNL A   1      48.349  26.751  24.724  1.00  0.00    -0.206 F 
ATOM     50  C   UNL A   1      50.590  26.203  25.184  1.00  0.00     0.040 A 
ATOM     51  C   UNL A   1      51.338  26.005  27.462  1.00  0.00     0.040 A 
ATOM     52  F   UNL A   1      49.793  26.246  29.203  1.00  0.00    -0.206 F 
ATOM     53  C   UNL A   1      51.611  25.944  26.099  1.00  0.00     0.006 A 
ENDBRANCH  25  46
BRANCH  37  54
ATOM     54  C   UNL A   1      45.684  32.453  28.637  1.00  0.00     0.057 A 
ATOM     55  C   UNL A   1      46.328  32.887  29.798  1.00  0.00     0.134 A 
ATOM     56  C   UNL A   1      45.531  33.369  27.589  1.00  0.00     0.134 A 
ATOM     57  F   UNL A   1      46.477  32.059  30.844  1.00  0.00    -0.206 F 
ATOM     58  C   UNL A   1      46.802  34.192  29.914  1.00  0.00     0.040 A 
ATOM     59  C   UNL A   1      46.021  34.668  27.683  1.00  0.00     0.040 A 
ATOM     60  F   UNL A   1      44.917  33.006  26.452  1.00  0.00    -0.206 F 
ATOM     61  C   UNL A   1      46.659  35.084  28.850  1.00  0.00     0.006 A 
ENDBRANCH  37  54
ENDBRANCH  11  12
ENDBRANCH   4   6
ENDBRANCH   3   4
ENDBRANCH   2   3
ENDBRANCH   1   2
BRANCH   1  62
ATOM     62  O   UNL A   1      37.343  21.993  25.201  1.00  0.00    -0.458 OA
BRANCH  62  63
ATOM     63  C   UNL A   1      36.999  23.185  25.755  1.00  0.00     0.338 C 
ATOM     64  O   UNL A   1      37.754  24.073  26.096  1.00  0.00    -0.246 OA
BRANCH  63  65
ATOM     65  C   UNL A   1      35.527  23.340  25.730  1.00  0.00     0.062 A 
ATOM     66  C   UNL A   1      35.021  24.627  25.548  1.00  0.00     0.016 A 
ATOM     67  C   UNL A   1      34.655  22.249  25.848  1.00  0.00     0.041 A 
ATOM     68  C   UNL A   1      33.647  24.813  25.462  1.00  0.00     0.003 A 
ATOM     69  C   UNL A   1      33.260  22.425  25.779  1.00  0.00     0.035 A 
ATOM     70  C   UNL A   1      32.782  23.722  25.582  1.00  0.00     0.026 A 
BRANCH  69  71
ATOM     71  N   UNL A   1      32.452  21.322  25.907  1.00  0.00    -0.380 N 
ATOM     72  H   UNL A   1      31.938  21.292  26.747  1.00  0.00     0.160 HD
BRANCH  71  73
ATOM     73  C   UNL A   1      32.217  20.182  25.016  1.00  0.00     0.107 C 
ATOM     74  C   UNL A   1      32.443  20.575  23.552  1.00  0.00     0.027 C 
ATOM     75  C   UNL A   1      32.920  18.858  25.398  1.00  0.00     0.136 C 
ATOM     76  C   UNL A   1      32.162  19.433  22.578  1.00  0.00     0.002 C 
ATOM     77  C   UNL A   1      32.501  17.749  24.429  1.00  0.00     0.034 C 
ATOM     78  C   UNL A   1      32.831  18.125  22.991  1.00  0.00     0.003 C 
BRANCH  75  79
ATOM     79  O   UNL A   1      32.620  18.422  26.721  1.00  0.00    -0.391 OA
ATOM     80  H   UNL A   1      33.446  18.267  27.206  1.00  0.00     0.211 HD
ENDBRANCH  75  79
ENDBRANCH  71  73
ENDBRANCH  69  71
ENDBRANCH  63  65
ENDBRANCH  62  63
ENDBRANCH   1  62
TORSDOF 14
ENDMDL
MODEL 2
REMARK VINA RESULT:     -11.4      4.107      8.147
REMARK SMILES O=C(OCCOC(=O)c1cccc(N[C@H]2CCCC[C@@H]2O)c1)c1ccc(-c2c3nc(c(-c4c(F)cccc4F)c4ccc([nH]4)c(-c4c(F)cccc4F)c4nc(c(-c5c(F)cccc5F)c5ccc2[nH]5)C=C4)C=C3)cc1
REMARK SMILES IDX 5 1 4 2 3 3 2 4 1 5 23 6 24 7 76 8 25 9 75 10 26 11 27 12
REMARK SMILES IDX 28 13 69 14 29 15 74 16 68 17 70 18 30 19 73 20 67 21 66 22
REMARK SMILES IDX 31 24 57 25 40 26 56 27 41 28 44 29 55 30 71 31 42 32 43 33
REMARK SMILES IDX 54 35 72 36 45 37 32 38 33 39 38 40 34 41 35 42 37 43 39 44
REMARK SMILES IDX 36 45 58 46 59 47 64 48 60 49 61 50 63 51 65 52 62 53 46 54
REMARK SMILES IDX 47 55 52 56 48 57 49 58 51 59 53 60 50 61 6 62 7 63 8 64
REMARK SMILES IDX 9 65 10 66 22 67 11 68 13 69 12 70 14 71 15 73 16 74 20 75
REMARK SMILES IDX 17 76 19 77 18 78 21 79
REMARK H PARENT 70 23 44 34 14 72 21 80
REMARK Flexibility Score: inf
ROOT
ATOM      1  C   UNL A   1      40.740  20.549  26.468  1.00  0.00     0.275 C 
ENDROOT
BRANCH   1   2
ATOM      2  C   UNL A   1      42.127  21.051  26.053  1.00  0.00     0.275 C 
BRANCH   2   3
ATOM      3  O   UNL A   1      42.137  22.311  25.360  1.00  0.00    -0.458 OA
BRANCH   3   4
ATOM      4  C   UNL A   1      43.028  23.324  25.488  1.00  0.00     0.338 C 
ATOM      5  O   UNL A   1      44.153  23.204  25.007  1.00  0.00    -0.246 OA
BRANCH   4   6
ATOM      6  C   UNL A   1      42.767  24.505  26.366  1.00  0.00     0.060 A 
ATOM      7  C   UNL A   1      43.498  25.697  26.375  1.00  0.00     0.016 A 
ATOM      8  C   UNL A   1      41.706  24.370  27.276  1.00  0.00     0.016 A 
ATOM      9  C   UNL A   1      43.127  26.766  27.201  1.00  0.00     0.010 A 
ATOM     10  C   UNL A   1      41.334  25.432  28.102  1.00  0.00     0.010 A 
ATOM     11  C   UNL A   1      42.042  26.642  28.068  1.00  0.00    -0.014 A 
BRANCH  11  12
ATOM     12  C   UNL A   1      41.740  27.678  29.085  1.00  0.00     0.031 A 
ATOM     13  C   UNL A   1      42.414  27.544  30.423  1.00  0.00     0.074 A 
ATOM     14  C   UNL A   1      40.827  28.644  28.858  1.00  0.00     0.049 A 
ATOM     15  N   UNL A   1      42.203  28.205  31.529  1.00  0.00    -0.248 NA
ATOM     16  C   UNL A   1      43.495  26.544  30.516  1.00  0.00     0.031 C 
ATOM     17  C   UNL A   1      40.146  28.903  27.589  1.00  0.00     0.029 A 
ATOM     18  N   UNL A   1      40.237  29.532  29.730  1.00  0.00    -0.354 N 
ATOM     19  C   UNL A   1      43.143  27.723  32.433  1.00  0.00     0.074 A 
ATOM     20  C   UNL A   1      43.881  26.673  31.776  1.00  0.00     0.031 C 
ATOM     21  C   UNL A   1      39.147  29.785  27.794  1.00  0.00     0.029 A 
ATOM     22  C   UNL A   1      39.123  30.150  29.206  1.00  0.00     0.049 A 
ATOM     23  H   UNL A   1      40.579  29.708  30.638  1.00  0.00     0.167 HD
ATOM     24  C   UNL A   1      43.390  28.159  33.689  1.00  0.00     0.037 A 
ATOM     25  C   UNL A   1      38.157  30.856  29.827  1.00  0.00     0.037 A 
ATOM     26  C   UNL A   1      42.616  29.185  34.328  1.00  0.00     0.049 A 
ATOM     27  C   UNL A   1      38.293  31.123  31.298  1.00  0.00     0.074 A 
ATOM     28  C   UNL A   1      42.837  29.816  35.537  1.00  0.00     0.029 A 
ATOM     29  N   UNL A   1      41.439  29.698  33.808  1.00  0.00    -0.354 N 
ATOM     30  N   UNL A   1      39.229  30.723  32.122  1.00  0.00    -0.248 NA
ATOM     31  C   UNL A   1      37.251  31.954  31.916  1.00  0.00     0.031 C 
ATOM     32  C   UNL A   1      41.762  30.681  35.771  1.00  0.00     0.029 A 
ATOM     33  C   UNL A   1      40.897  30.614  34.689  1.00  0.00     0.049 A 
ATOM     34  H   UNL A   1      41.046  29.446  32.942  1.00  0.00     0.167 HD
ATOM     35  C   UNL A   1      38.934  31.317  33.340  1.00  0.00     0.074 A 
ATOM     36  C   UNL A   1      37.695  32.047  33.163  1.00  0.00     0.031 C 
ATOM     37  C   UNL A   1      39.655  31.310  34.486  1.00  0.00     0.037 A 
BRANCH  24  38
ATOM     38  C   UNL A   1      44.552  27.562  34.421  1.00  0.00     0.057 A 
ATOM     39  C   UNL A   1      44.403  26.409  35.206  1.00  0.00     0.134 A 
ATOM     40  C   UNL A   1      45.836  28.106  34.312  1.00  0.00     0.134 A 
ATOM     41  F   UNL A   1      43.197  25.842  35.360  1.00  0.00    -0.206 F 
ATOM     42  C   UNL A   1      45.487  25.829  35.868  1.00  0.00     0.040 A 
ATOM     43  C   UNL A   1      46.931  27.523  34.954  1.00  0.00     0.040 A 
ATOM     44  F   UNL A   1      46.051  29.206  33.575  1.00  0.00    -0.206 F 
ATOM     45  C   UNL A   1      46.758  26.382  35.736  1.00  0.00     0.006 A 
ENDBRANCH  24  38
BRANCH  25  46
ATOM     46  C   UNL A   1      36.925  31.289  29.121  1.00  0.00     0.057 A 
ATOM     47  C   UNL A   1      35.886  30.406  28.820  1.00  0.00     0.134 A 
ATOM     48  C   UNL A   1      36.819  32.593  28.623  1.00  0.00     0.134 A 
ATOM     49  F   UNL A   1      35.963  29.123  29.196  1.00  0.00    -0.206 F 
ATOM     50  C   UNL A   1      34.778  30.815  28.070  1.00  0.00     0.040 A 
ATOM     51  C   UNL A   1      35.706  33.029  27.905  1.00  0.00     0.040 A 
ATOM     52  F   UNL A   1      37.841  33.445  28.767  1.00  0.00    -0.206 F 
ATOM     53  C   UNL A   1      34.679  32.133  27.623  1.00  0.00     0.006 A 
ENDBRANCH  25  46
BRANCH  37  54
ATOM     54  C   UNL A   1      39.162  32.177  35.599  1.00  0.00     0.057 A 
ATOM     55  C   UNL A   1      38.339  31.685  36.615  1.00  0.00     0.134 A 
ATOM     56  C   UNL A   1      39.563  33.517  35.670  1.00  0.00     0.134 A 
ATOM     57  F   UNL A   1      37.901  30.417  36.583  1.00  0.00    -0.206 F 
ATOM     58  C   UNL A   1      37.925  32.502  37.667  1.00  0.00     0.040 A 
ATOM     59  C   UNL A   1      39.177  34.336  36.727  1.00  0.00     0.040 A 
ATOM     60  F   UNL A   1      40.352  34.043  34.719  1.00  0.00    -0.206 F 
ATOM     61  C   UNL A   1      38.354  33.828  37.730  1.00  0.00     0.006 A 
ENDBRANCH  37  54
ENDBRANCH  11  12
ENDBRANCH   4   6
ENDBRANCH   3   4
ENDBRANCH   2   3
ENDBRANCH   1   2
BRANCH   1  62
ATOM     62  O   UNL A   1      39.686  21.459  26.116  1.00  0.00    -0.458 OA
BRANCH  62  63
ATOM     63  C   UNL A   1      38.630  20.875  25.491  1.00  0.00     0.338 C 
ATOM     64  O   UNL A   1      38.603  19.770  24.990  1.00  0.00    -0.246 OA
BRANCH  63  65
ATOM     65  C   UNL A   1      37.424  21.718  25.657  1.00  0.00     0.062 A 
ATOM     66  C   UNL A   1      37.598  23.101  25.611  1.00  0.00     0.016 A 
ATOM     67  C   UNL A   1      36.143  21.174  25.820  1.00  0.00     0.041 A 
ATOM     68  C   UNL A   1      36.489  23.931  25.705  1.00  0.00     0.003 A 
ATOM     69  C   UNL A   1      35.011  22.002  25.934  1.00  0.00     0.035 A 
ATOM     70  C   UNL A   1      35.214  23.382  25.870  1.00  0.00     0.026 A 
BRANCH  69  71
ATOM     71  N   UNL A   1      33.781  21.416  26.099  1.00  0.00    -0.380 N 
ATOM     72  H   UNL A   1      33.361  21.593  26.972  1.00  0.00     0.160 HD
BRANCH  71  73
ATOM     73  C   UNL A   1      32.980  20.573  25.206  1.00  0.00     0.107 C 
ATOM     74  C   UNL A   1      33.065  21.072  23.760  1.00  0.00     0.027 C 
ATOM     75  C   UNL A   1      33.195  19.046  25.330  1.00  0.00     0.136 C 
ATOM     76  C   UNL A   1      32.206  20.255  22.796  1.00  0.00     0.002 C 
ATOM     77  C   UNL A   1      32.223  18.309  24.405  1.00  0.00     0.034 C 
ATOM     78  C   UNL A   1      32.402  18.751  22.959  1.00  0.00     0.003 C 
BRANCH  75  79
ATOM     79  O   UNL A   1      33.000  18.554  26.653  1.00  0.00    -0.391 OA
ATOM     80  H   UNL A   1      32.818  19.296  27.250  1.00  0.00     0.211 HD
ENDBRANCH  75  79
ENDBRANCH  71  73
ENDBRANCH  69  71
ENDBRANCH  63  65
ENDBRANCH  62  63
ENDBRANCH   1  62
TORSDOF 14
ENDMDL
MODEL 3
REMARK VINA RESULT:     -11.4      5.761     10.545
REMARK SMILES O=C(OCCOC(=O)c1cccc(N[C@H]2CCCC[C@@H]2O)c1)c1ccc(-c2c3nc(c(-c4c(F)cccc4F)c4ccc([nH]4)c(-c4c(F)cccc4F)c4nc(c(-c5c(F)cccc5F)c5ccc2[nH]5)C=C4)C=C3)cc1
REMARK SMILES IDX 5 1 4 2 3 3 2 4 1 5 23 6 24 7 76 8 25 9 75 10 26 11 27 12
REMARK SMILES IDX 28 13 69 14 29 15 74 16 68 17 70 18 30 19 73 20 67 21 66 22
REMARK SMILES IDX 31 24 57 25 40 26 56 27 41 28 44 29 55 30 71 31 42 32 43 33
REMARK SMILES IDX 54 35 72 36 45 37 32 38 33 39 38 40 34 41 35 42 37 43 39 44
REMARK SMILES IDX 36 45 58 46 59 47 64 48 60 49 61 50 63 51 65 52 62 53 46 54
REMARK SMILES IDX 47 55 52 56 48 57 49 58 51 59 53 60 50 61 6 62 7 63 8 64
REMARK SMILES IDX 9 65 10 66 22 67 11 68 13 69 12 70 14 71 15 73 16 74 20 75
REMARK SMILES IDX 17 76 19 77 18 78 21 79
REMARK H PARENT 70 23 44 34 14 72 21 80
REMARK Flexibility Score: inf
ROOT
ATOM      1  C   UNL A   1      32.763  31.357  26.865  1.00  0.00     0.275 C 
ENDROOT
BRANCH   1   2
ATOM      2  C   UNL A   1      31.753  32.469  27.164  1.00  0.00     0.275 C 
BRANCH   2   3
ATOM      3  O   UNL A   1      32.313  33.790  27.267  1.00  0.00    -0.458 OA
BRANCH   3   4
ATOM      4  C   UNL A   1      32.954  34.342  28.327  1.00  0.00     0.338 C 
ATOM      5  O   UNL A   1      32.662  35.482  28.682  1.00  0.00    -0.246 OA
BRANCH   4   6
ATOM      6  C   UNL A   1      34.143  33.695  28.959  1.00  0.00     0.060 A 
ATOM      7  C   UNL A   1      34.113  32.789  30.024  1.00  0.00     0.016 A 
ATOM      8  C   UNL A   1      35.393  34.069  28.441  1.00  0.00     0.016 A 
ATOM      9  C   UNL A   1      35.289  32.196  30.503  1.00  0.00     0.010 A 
ATOM     10  C   UNL A   1      36.568  33.482  28.915  1.00  0.00     0.010 A 
ATOM     11  C   UNL A   1      36.523  32.537  29.950  1.00  0.00    -0.014 A 
BRANCH  11  12
ATOM     12  C   UNL A   1      37.796  32.074  30.553  1.00  0.00     0.031 A 
ATOM     13  C   UNL A   1      38.448  30.866  29.939  1.00  0.00     0.074 A 
ATOM     14  C   UNL A   1      38.303  32.651  31.662  1.00  0.00     0.049 A 
ATOM     15  N   UNL A   1      39.462  30.162  30.366  1.00  0.00    -0.248 NA
ATOM     16  C   UNL A   1      37.894  30.404  28.651  1.00  0.00     0.031 C 
ATOM     17  C   UNL A   1      37.788  33.854  32.318  1.00  0.00     0.029 A 
ATOM     18  N   UNL A   1      39.314  32.233  32.499  1.00  0.00    -0.354 N 
ATOM     19  C   UNL A   1      39.684  29.201  29.386  1.00  0.00     0.074 A 
ATOM     20  C   UNL A   1      38.665  29.364  28.377  1.00  0.00     0.031 C 
ATOM     21  C   UNL A   1      38.395  34.002  33.513  1.00  0.00     0.029 A 
ATOM     22  C   UNL A   1      39.337  32.904  33.701  1.00  0.00     0.049 A 
ATOM     23  H   UNL A   1      39.956  31.525  32.260  1.00  0.00     0.167 HD
ATOM     24  C   UNL A   1      40.683  28.292  29.321  1.00  0.00     0.037 A 
ATOM     25  C   UNL A   1      39.987  32.604  34.843  1.00  0.00     0.037 A 
ATOM     26  C   UNL A   1      41.663  28.132  30.357  1.00  0.00     0.049 A 
ATOM     27  C   UNL A   1      40.910  31.422  34.857  1.00  0.00     0.074 A 
ATOM     28  C   UNL A   1      42.803  27.351  30.364  1.00  0.00     0.029 A 
ATOM     29  N   UNL A   1      41.583  28.749  31.595  1.00  0.00    -0.354 N 
ATOM     30  N   UNL A   1      41.166  30.568  33.896  1.00  0.00    -0.248 NA
ATOM     31  C   UNL A   1      41.649  31.175  36.102  1.00  0.00     0.031 C 
ATOM     32  C   UNL A   1      43.389  27.460  31.630  1.00  0.00     0.029 A 
ATOM     33  C   UNL A   1      42.634  28.339  32.393  1.00  0.00     0.049 A 
ATOM     34  H   UNL A   1      40.881  29.383  31.867  1.00  0.00     0.167 HD
ATOM     35  C   UNL A   1      42.152  29.729  34.393  1.00  0.00     0.074 A 
ATOM     36  C   UNL A   1      42.397  30.134  35.763  1.00  0.00     0.031 C 
ATOM     37  C   UNL A   1      42.838  28.751  33.755  1.00  0.00     0.037 A 
BRANCH  24  38
ATOM     38  C   UNL A   1      40.783  27.447  28.089  1.00  0.00     0.057 A 
ATOM     39  C   UNL A   1      41.513  27.875  26.971  1.00  0.00     0.134 A 
ATOM     40  C   UNL A   1      40.189  26.182  28.026  1.00  0.00     0.134 A 
ATOM     41  F   UNL A   1      42.100  29.082  26.962  1.00  0.00    -0.206 F 
ATOM     42  C   UNL A   1      41.636  27.081  25.829  1.00  0.00     0.040 A 
ATOM     43  C   UNL A   1      40.321  25.371  26.896  1.00  0.00     0.040 A 
ATOM     44  F   UNL A   1      39.478  25.710  29.061  1.00  0.00    -0.206 F 
ATOM     45  C   UNL A   1      41.044  25.821  25.793  1.00  0.00     0.006 A 
ENDBRANCH  24  38
BRANCH  25  46
ATOM     46  C   UNL A   1      39.741  33.348  36.105  1.00  0.00     0.057 A 
ATOM     47  C   UNL A   1      38.746  32.976  37.010  1.00  0.00     0.134 A 
ATOM     48  C   UNL A   1      40.435  34.535  36.370  1.00  0.00     0.134 A 
ATOM     49  F   UNL A   1      37.990  31.895  36.774  1.00  0.00    -0.206 F 
ATOM     50  C   UNL A   1      38.469  33.747  38.145  1.00  0.00     0.040 A 
ATOM     51  C   UNL A   1      40.197  35.297  37.513  1.00  0.00     0.040 A 
ATOM     52  F   UNL A   1      41.307  35.011  35.473  1.00  0.00    -0.206 F 
ATOM     53  C   UNL A   1      39.205  34.903  38.406  1.00  0.00     0.006 A 
ENDBRANCH  25  46
BRANCH  37  54
ATOM     54  C   UNL A   1      43.963  28.115  34.506  1.00  0.00     0.057 A 
ATOM     55  C   UNL A   1      45.236  28.689  34.563  1.00  0.00     0.134 A 
ATOM     56  C   UNL A   1      43.744  26.930  35.217  1.00  0.00     0.134 A 
ATOM     57  F   UNL A   1      45.509  29.810  33.877  1.00  0.00    -0.206 F 
ATOM     58  C   UNL A   1      46.259  28.100  35.304  1.00  0.00     0.040 A 
ATOM     59  C   UNL A   1      44.751  26.344  35.980  1.00  0.00     0.040 A 
ATOM     60  F   UNL A   1      42.542  26.334  35.196  1.00  0.00    -0.206 F 
ATOM     61  C   UNL A   1      46.015  26.930  36.024  1.00  0.00     0.006 A 
ENDBRANCH  37  54
ENDBRANCH  11  12
ENDBRANCH   4   6
ENDBRANCH   3   4
ENDBRANCH   2   3
ENDBRANCH   1   2
BRANCH   1  62
ATOM     62  O   UNL A   1      32.174  30.046  26.880  1.00  0.00    -0.458 OA
BRANCH  62  63
ATOM     63  C   UNL A   1      33.075  29.030  26.891  1.00  0.00     0.338 C 
ATOM     64  O   UNL A   1      34.058  28.938  27.598  1.00  0.00    -0.246 OA
BRANCH  63  65
ATOM     65  C   UNL A   1      32.597  27.930  26.023  1.00  0.00     0.062 A 
ATOM     66  C   UNL A   1      32.794  26.625  26.475  1.00  0.00     0.016 A 
ATOM     67  C   UNL A   1      31.938  28.163  24.808  1.00  0.00     0.041 A 
ATOM     68  C   UNL A   1      32.311  25.563  25.722  1.00  0.00     0.003 A 
ATOM     69  C   UNL A   1      31.458  27.096  24.026  1.00  0.00     0.035 A 
ATOM     70  C   UNL A   1      31.657  25.802  24.510  1.00  0.00     0.026 A 
BRANCH  69  71
ATOM     71  N   UNL A   1      30.826  27.382  22.841  1.00  0.00    -0.380 N 
ATOM     72  H   UNL A   1      31.193  26.906  22.061  1.00  0.00     0.160 HD
BRANCH  71  73
ATOM     73  C   UNL A   1      29.700  28.268  22.531  1.00  0.00     0.107 C 
ATOM     74  C   UNL A   1      28.491  27.949  23.416  1.00  0.00     0.027 C 
ATOM     75  C   UNL A   1      30.017  29.781  22.470  1.00  0.00     0.136 C 
ATOM     76  C   UNL A   1      27.273  28.814  23.097  1.00  0.00     0.002 C 
ATOM     77  C   UNL A   1      28.766  30.556  22.044  1.00  0.00     0.034 C 
ATOM     78  C   UNL A   1      27.611  30.298  23.001  1.00  0.00     0.003 C 
BRANCH  75  79
ATOM     79  O   UNL A   1      31.063  30.102  21.557  1.00  0.00    -0.391 OA
ATOM     80  H   UNL A   1      31.817  30.466  22.045  1.00  0.00     0.211 HD
ENDBRANCH  75  79
ENDBRANCH  71  73
ENDBRANCH  69  71
ENDBRANCH  63  65
ENDBRANCH  62  63
ENDBRANCH   1  62
TORSDOF 14
ENDMDL
