MODEL 1
REMARK VINA RESULT:     -11.9      0.000      0.000
REMARK SMILES C[C@@H](Sc1nc(-c2ccc3c(c2)OCO3)ccc1C#N)C(=O)OCCOC(=O)c1ccc(-c2c3nc(c(-c4c(F)cccc4F)c4ccc([nH]4)c(-c4c(F)cccc4F)c4nc(c(-c5c(F)cccc5F)c5ccc2[nH]5)C=C4)C=C3)cc1
REMARK SMILES IDX 24 1 23 2 21 3 22 4 2 5 1 6 3 7 4 8 5 9 18 10 6 11 17 12
REMARK SMILES IDX 16 13 19 14 20 15 7 16 8 17 12 18 9 19 11 20 10 21 13 22
REMARK SMILES IDX 15 23 14 24 25 25 26 26 27 27 28 28 29 29 30 30 82 31 31 32
REMARK SMILES IDX 81 33 32 34 33 35 34 36 75 37 35 38 80 39 74 40 76 41 36 42
REMARK SMILES IDX 79 43 73 44 72 45 37 47 63 48 46 49 62 50 47 51 50 52 61 53
REMARK SMILES IDX 77 54 48 55 49 56 60 58 78 59 51 60 38 61 39 62 44 63 40 64
REMARK SMILES IDX 41 65 43 66 45 67 42 68 64 69 65 70 70 71 66 72 67 73 69 74
REMARK SMILES IDX 71 75 68 76 52 77 53 78 58 79 54 80 55 81 57 82 59 83 56 84
REMARK H PARENT 76 46 50 57
REMARK Flexibility Score: inf
ROOT
ATOM      1  C   UNL A   1      31.784  31.062  26.413  1.00  0.00     0.274 C 
ENDROOT
BRANCH   1   2
ATOM      2  O   UNL A   1      31.801  30.155  27.533  1.00  0.00    -0.461 OA
BRANCH   2   3
ATOM      3  C   UNL A   1      32.131  28.861  27.267  1.00  0.00     0.319 C 
ATOM      4  O   UNL A   1      31.618  27.891  27.819  1.00  0.00    -0.251 OA
BRANCH   3   5
ATOM      5  C   UNL A   1      33.238  28.728  26.221  1.00  0.00     0.160 C 
ATOM      6  C   UNL A   1      34.640  28.822  26.811  1.00  0.00     0.032 C 
BRANCH   5   7
ATOM      7  S   UNL A   1      32.965  27.138  25.364  1.00  0.00    -0.090 SA
BRANCH   7   8
ATOM      8  C   UNL A   1      31.290  27.308  24.740  1.00  0.00     0.115 A 
ATOM      9  N   UNL A   1      30.930  28.506  24.200  1.00  0.00    -0.240 NA
ATOM     10  C   UNL A   1      30.446  26.196  24.727  1.00  0.00     0.084 A 
ATOM     11  C   UNL A   1      29.716  28.603  23.597  1.00  0.00     0.072 A 
ATOM     12  C   UNL A   1      29.222  26.301  24.071  1.00  0.00     0.024 A 
ATOM     13  C   UNL A   1      28.859  27.509  23.489  1.00  0.00     0.030 A 
BRANCH  10  14
ATOM     14  C   UNL A   1      30.783  24.957  25.364  1.00  0.00     0.102 C 
ATOM     15  N   UNL A   1      31.010  23.955  25.899  1.00  0.00    -0.192 NA
ENDBRANCH  10  14
BRANCH  11  16
ATOM     16  C   UNL A   1      29.330  29.912  23.035  1.00  0.00     0.004 A 
ATOM     17  C   UNL A   1      29.244  31.055  23.877  1.00  0.00     0.014 A 
ATOM     18  C   UNL A   1      28.965  30.052  21.683  1.00  0.00     0.061 A 
ATOM     19  C   UNL A   1      28.773  32.287  23.409  1.00  0.00     0.051 A 
ATOM     20  C   UNL A   1      28.490  31.276  21.249  1.00  0.00     0.166 A 
ATOM     21  C   UNL A   1      28.390  32.359  22.091  1.00  0.00     0.165 A 
ATOM     22  O   UNL A   1      28.045  31.561  19.995  1.00  0.00    -0.454 OA
ATOM     23  O   UNL A   1      27.874  33.456  21.476  1.00  0.00    -0.454 OA
ATOM     24  C   UNL A   1      27.626  32.934  20.155  1.00  0.00     0.468 C 
ENDBRANCH  11  16
ENDBRANCH   7   8
ENDBRANCH   5   7
ENDBRANCH   3   5
ENDBRANCH   2   3
ENDBRANCH   1   2
BRANCH   1  25
ATOM     25  C   UNL A   1      31.554  32.504  26.873  1.00  0.00     0.275 C 
BRANCH  25  26
ATOM     26  O   UNL A   1      32.775  33.265  26.841  1.00  0.00    -0.458 OA
BRANCH  26  27
ATOM     27  C   UNL A   1      33.104  33.865  28.007  1.00  0.00     0.338 C 
ATOM     28  O   UNL A   1      32.490  34.736  28.596  1.00  0.00    -0.246 OA
BRANCH  27  29
ATOM     29  C   UNL A   1      34.326  33.258  28.542  1.00  0.00     0.060 A 
ATOM     30  C   UNL A   1      34.231  32.124  29.354  1.00  0.00     0.016 A 
ATOM     31  C   UNL A   1      35.553  33.879  28.320  1.00  0.00     0.016 A 
ATOM     32  C   UNL A   1      35.370  31.605  29.961  1.00  0.00     0.010 A 
ATOM     33  C   UNL A   1      36.696  33.343  28.908  1.00  0.00     0.010 A 
ATOM     34  C   UNL A   1      36.611  32.211  29.741  1.00  0.00    -0.014 A 
BRANCH  34  35
ATOM     35  C   UNL A   1      37.835  31.691  30.390  1.00  0.00     0.031 A 
ATOM     36  C   UNL A   1      38.680  30.683  29.675  1.00  0.00     0.074 A 
ATOM     37  C   UNL A   1      38.135  32.072  31.645  1.00  0.00     0.049 A 
ATOM     38  N   UNL A   1      39.660  29.949  30.133  1.00  0.00    -0.248 NA
ATOM     39  C   UNL A   1      38.365  30.459  28.256  1.00  0.00     0.031 C 
ATOM     40  C   UNL A   1      37.401  33.069  32.423  1.00  0.00     0.029 A 
ATOM     41  N   UNL A   1      39.116  31.633  32.497  1.00  0.00    -0.354 N 
ATOM     42  C   UNL A   1      40.054  29.146  29.071  1.00  0.00     0.074 A 
ATOM     43  C   UNL A   1      39.194  29.472  27.952  1.00  0.00     0.031 C 
ATOM     44  C   UNL A   1      37.938  33.144  33.650  1.00  0.00     0.029 A 
ATOM     45  C   UNL A   1      39.008  32.158  33.761  1.00  0.00     0.049 A 
ATOM     46  H   UNL A   1      39.825  31.004  32.230  1.00  0.00     0.167 HD
ATOM     47  C   UNL A   1      41.042  28.220  29.041  1.00  0.00     0.037 A 
ATOM     48  C   UNL A   1      39.658  31.840  34.896  1.00  0.00     0.037 A 
ATOM     49  C   UNL A   1      41.885  27.913  30.167  1.00  0.00     0.049 A 
ATOM     50  C   UNL A   1      40.710  30.766  34.860  1.00  0.00     0.074 A 
ATOM     51  C   UNL A   1      42.943  27.023  30.235  1.00  0.00     0.029 A 
ATOM     52  N   UNL A   1      41.754  28.476  31.430  1.00  0.00    -0.354 N 
ATOM     53  N   UNL A   1      41.100  30.027  33.848  1.00  0.00    -0.248 NA
ATOM     54  C   UNL A   1      41.412  30.480  36.118  1.00  0.00     0.031 C 
ATOM     55  C   UNL A   1      43.402  26.994  31.555  1.00  0.00     0.029 A 
ATOM     56  C   UNL A   1      42.685  27.924  32.293  1.00  0.00     0.049 A 
ATOM     57  H   UNL A   1      41.095  29.165  31.675  1.00  0.00     0.167 HD
ATOM     58  C   UNL A   1      42.112  29.211  34.338  1.00  0.00     0.074 A 
ATOM     59  C   UNL A   1      42.276  29.549  35.738  1.00  0.00     0.031 C 
ATOM     60  C   UNL A   1      42.842  28.276  33.684  1.00  0.00     0.037 A 
BRANCH  47  61
ATOM     61  C   UNL A   1      41.220  27.439  27.770  1.00  0.00     0.057 A 
ATOM     62  C   UNL A   1      42.149  27.802  26.787  1.00  0.00     0.134 A 
ATOM     63  C   UNL A   1      40.443  26.296  27.528  1.00  0.00     0.134 A 
ATOM     64  F   UNL A   1      42.919  28.889  26.947  1.00  0.00    -0.206 F 
ATOM     65  C   UNL A   1      42.268  27.087  25.593  1.00  0.00     0.040 A 
ATOM     66  C   UNL A   1      40.578  25.554  26.354  1.00  0.00     0.040 A 
ATOM     67  F   UNL A   1      39.539  25.883  28.428  1.00  0.00    -0.206 F 
ATOM     68  C   UNL A   1      41.485  25.957  25.376  1.00  0.00     0.006 A 
ENDBRANCH  47  61
BRANCH  48  69
ATOM     69  C   UNL A   1      39.299  32.530  36.160  1.00  0.00     0.057 A 
ATOM     70  C   UNL A   1      39.859  33.766  36.496  1.00  0.00     0.134 A 
ATOM     71  C   UNL A   1      38.358  31.985  37.043  1.00  0.00     0.134 A 
ATOM     72  F   UNL A   1      40.779  34.331  35.700  1.00  0.00    -0.206 F 
ATOM     73  C   UNL A   1      39.504  34.433  37.670  1.00  0.00     0.040 A 
ATOM     74  C   UNL A   1      37.971  32.654  38.205  1.00  0.00     0.040 A 
ATOM     75  F   UNL A   1      37.777  30.807  36.773  1.00  0.00    -0.206 F 
ATOM     76  C   UNL A   1      38.548  33.881  38.522  1.00  0.00     0.006 A 
ENDBRANCH  48  69
BRANCH  60  77
ATOM     77  C   UNL A   1      43.926  27.576  34.454  1.00  0.00     0.057 A 
ATOM     78  C   UNL A   1      45.228  28.084  34.539  1.00  0.00     0.134 A 
ATOM     79  C   UNL A   1      43.634  26.417  35.187  1.00  0.00     0.134 A 
ATOM     80  F   UNL A   1      45.576  29.182  33.851  1.00  0.00    -0.206 F 
ATOM     81  C   UNL A   1      46.204  27.459  35.318  1.00  0.00     0.040 A 
ATOM     82  C   UNL A   1      44.592  25.802  35.993  1.00  0.00     0.040 A 
ATOM     83  F   UNL A   1      42.405  25.883  35.157  1.00  0.00    -0.206 F 
ATOM     84  C   UNL A   1      45.883  26.322  36.057  1.00  0.00     0.006 A 
ENDBRANCH  60  77
ENDBRANCH  34  35
ENDBRANCH  27  29
ENDBRANCH  26  27
ENDBRANCH  25  26
ENDBRANCH   1  25
TORSDOF 15
ENDMDL
MODEL 2
REMARK VINA RESULT:     -11.7      6.292     11.238
REMARK SMILES C[C@@H](Sc1nc(-c2ccc3c(c2)OCO3)ccc1C#N)C(=O)OCCOC(=O)c1ccc(-c2c3nc(c(-c4c(F)cccc4F)c4ccc([nH]4)c(-c4c(F)cccc4F)c4nc(c(-c5c(F)cccc5F)c5ccc2[nH]5)C=C4)C=C3)cc1
REMARK SMILES IDX 24 1 23 2 21 3 22 4 2 5 1 6 3 7 4 8 5 9 18 10 6 11 17 12
REMARK SMILES IDX 16 13 19 14 20 15 7 16 8 17 12 18 9 19 11 20 10 21 13 22
REMARK SMILES IDX 15 23 14 24 25 25 26 26 27 27 28 28 29 29 30 30 82 31 31 32
REMARK SMILES IDX 81 33 32 34 33 35 34 36 75 37 35 38 80 39 74 40 76 41 36 42
REMARK SMILES IDX 79 43 73 44 72 45 37 47 63 48 46 49 62 50 47 51 50 52 61 53
REMARK SMILES IDX 77 54 48 55 49 56 60 58 78 59 51 60 38 61 39 62 44 63 40 64
REMARK SMILES IDX 41 65 43 66 45 67 42 68 64 69 65 70 70 71 66 72 67 73 69 74
REMARK SMILES IDX 71 75 68 76 52 77 53 78 58 79 54 80 55 81 57 82 59 83 56 84
REMARK H PARENT 76 46 50 57
REMARK Flexibility Score: inf
ROOT
ATOM      1  C   UNL A   1      38.994  21.547  26.045  1.00  0.00     0.274 C 
ENDROOT
BRANCH   1   2
ATOM      2  O   UNL A   1      37.733  21.946  25.471  1.00  0.00    -0.461 OA
BRANCH   2   3
ATOM      3  C   UNL A   1      37.387  23.256  25.607  1.00  0.00     0.319 C 
ATOM      4  O   UNL A   1      37.835  24.000  26.477  1.00  0.00    -0.251 OA
BRANCH   3   5
ATOM      5  C   UNL A   1      36.351  23.712  24.580  1.00  0.00     0.160 C 
ATOM      6  C   UNL A   1      36.378  22.896  23.293  1.00  0.00     0.032 C 
BRANCH   5   7
ATOM      7  S   UNL A   1      34.722  23.632  25.403  1.00  0.00    -0.090 SA
BRANCH   7   8
ATOM      8  C   UNL A   1      33.866  22.365  24.463  1.00  0.00     0.115 A 
ATOM      9  N   UNL A   1      34.060  21.065  24.821  1.00  0.00    -0.240 NA
ATOM     10  C   UNL A   1      32.955  22.742  23.474  1.00  0.00     0.084 A 
ATOM     11  C   UNL A   1      33.310  20.109  24.213  1.00  0.00     0.072 A 
ATOM     12  C   UNL A   1      32.167  21.754  22.888  1.00  0.00     0.024 A 
ATOM     13  C   UNL A   1      32.335  20.429  23.270  1.00  0.00     0.030 A 
BRANCH  10  14
ATOM     14  C   UNL A   1      32.804  24.098  23.032  1.00  0.00     0.102 C 
ATOM     15  N   UNL A   1      32.710  25.182  22.638  1.00  0.00    -0.192 NA
ENDBRANCH  10  14
BRANCH  11  16
ATOM     16  C   UNL A   1      33.545  18.703  24.596  1.00  0.00     0.004 A 
ATOM     17  C   UNL A   1      34.822  18.111  24.394  1.00  0.00     0.014 A 
ATOM     18  C   UNL A   1      32.507  17.894  25.093  1.00  0.00     0.061 A 
ATOM     19  C   UNL A   1      35.057  16.753  24.637  1.00  0.00     0.051 A 
ATOM     20  C   UNL A   1      32.761  16.552  25.311  1.00  0.00     0.166 A 
ATOM     21  C   UNL A   1      33.998  15.997  25.082  1.00  0.00     0.165 A 
ATOM     22  O   UNL A   1      31.857  15.626  25.734  1.00  0.00    -0.454 OA
ATOM     23  O   UNL A   1      34.029  14.661  25.330  1.00  0.00    -0.454 OA
ATOM     24  C   UNL A   1      32.659  14.426  25.712  1.00  0.00     0.468 C 
ENDBRANCH  11  16
ENDBRANCH   7   8
ENDBRANCH   5   7
ENDBRANCH   3   5
ENDBRANCH   2   3
ENDBRANCH   1   2
BRANCH   1  25
ATOM     25  C   UNL A   1      39.389  20.141  25.588  1.00  0.00     0.275 C 
BRANCH  25  26
ATOM     26  O   UNL A   1      40.332  19.541  26.494  1.00  0.00    -0.458 OA
BRANCH  26  27
ATOM     27  C   UNL A   1      41.619  19.566  26.079  1.00  0.00     0.338 C 
ATOM     28  O   UNL A   1      42.201  18.734  25.406  1.00  0.00    -0.246 OA
BRANCH  27  29
ATOM     29  C   UNL A   1      42.245  20.820  26.503  1.00  0.00     0.060 A 
ATOM     30  C   UNL A   1      42.284  21.143  27.863  1.00  0.00     0.016 A 
ATOM     31  C   UNL A   1      42.699  21.719  25.542  1.00  0.00     0.016 A 
ATOM     32  C   UNL A   1      42.772  22.380  28.272  1.00  0.00     0.010 A 
ATOM     33  C   UNL A   1      43.210  22.948  25.954  1.00  0.00     0.010 A 
ATOM     34  C   UNL A   1      43.240  23.291  27.319  1.00  0.00    -0.014 A 
BRANCH  34  35
ATOM     35  C   UNL A   1      43.745  24.621  27.725  1.00  0.00     0.031 A 
ATOM     36  C   UNL A   1      42.774  25.694  28.110  1.00  0.00     0.074 A 
ATOM     37  C   UNL A   1      45.064  24.877  27.672  1.00  0.00     0.049 A 
ATOM     38  N   UNL A   1      42.980  26.972  28.290  1.00  0.00    -0.248 NA
ATOM     39  C   UNL A   1      41.377  25.272  28.296  1.00  0.00     0.031 C 
ATOM     40  C   UNL A   1      46.101  23.899  27.341  1.00  0.00     0.029 A 
ATOM     41  N   UNL A   1      45.752  26.049  27.857  1.00  0.00    -0.354 N 
ATOM     42  C   UNL A   1      41.734  27.516  28.574  1.00  0.00     0.074 A 
ATOM     43  C   UNL A   1      40.777  26.431  28.522  1.00  0.00     0.031 C 
ATOM     44  C   UNL A   1      47.291  24.518  27.318  1.00  0.00     0.029 A 
ATOM     45  C   UNL A   1      47.089  25.942  27.568  1.00  0.00     0.049 A 
ATOM     46  H   UNL A   1      45.328  26.882  28.167  1.00  0.00     0.167 HD
ATOM     47  C   UNL A   1      41.424  28.806  28.847  1.00  0.00     0.037 A 
ATOM     48  C   UNL A   1      48.036  26.893  27.459  1.00  0.00     0.037 A 
ATOM     49  C   UNL A   1      42.395  29.869  28.893  1.00  0.00     0.049 A 
ATOM     50  C   UNL A   1      47.664  28.328  27.705  1.00  0.00     0.074 A 
ATOM     51  C   UNL A   1      42.197  31.203  29.202  1.00  0.00     0.029 A 
ATOM     52  N   UNL A   1      43.745  29.720  28.607  1.00  0.00    -0.354 N 
ATOM     53  N   UNL A   1      46.491  28.837  28.000  1.00  0.00    -0.248 NA
ATOM     54  C   UNL A   1      48.740  29.322  27.604  1.00  0.00     0.031 C 
ATOM     55  C   UNL A   1      43.412  31.874  29.029  1.00  0.00     0.029 A 
ATOM     56  C   UNL A   1      44.385  30.945  28.691  1.00  0.00     0.049 A 
ATOM     57  H   UNL A   1      44.183  28.869  28.376  1.00  0.00     0.167 HD
ATOM     58  C   UNL A   1      46.692  30.203  28.150  1.00  0.00     0.074 A 
ATOM     59  C   UNL A   1      48.102  30.442  27.916  1.00  0.00     0.031 C 
ATOM     60  C   UNL A   1      45.793  31.167  28.462  1.00  0.00     0.037 A 
BRANCH  47  61
ATOM     61  C   UNL A   1      39.975  29.139  29.058  1.00  0.00     0.057 A 
ATOM     62  C   UNL A   1      39.395  29.205  30.332  1.00  0.00     0.134 A 
ATOM     63  C   UNL A   1      39.143  29.403  27.960  1.00  0.00     0.134 A 
ATOM     64  F   UNL A   1      40.129  28.956  31.427  1.00  0.00    -0.206 F 
ATOM     65  C   UNL A   1      38.035  29.475  30.503  1.00  0.00     0.040 A 
ATOM     66  C   UNL A   1      37.791  29.708  28.121  1.00  0.00     0.040 A 
ATOM     67  F   UNL A   1      39.631  29.367  26.711  1.00  0.00    -0.206 F 
ATOM     68  C   UNL A   1      37.231  29.731  29.396  1.00  0.00     0.006 A 
ENDBRANCH  47  61
BRANCH  48  69
ATOM     69  C   UNL A   1      49.414  26.507  27.065  1.00  0.00     0.057 A 
ATOM     70  C   UNL A   1      49.814  26.511  25.725  1.00  0.00     0.134 A 
ATOM     71  C   UNL A   1      50.375  26.161  28.024  1.00  0.00     0.134 A 
ATOM     72  F   UNL A   1      48.935  26.817  24.759  1.00  0.00    -0.206 F 
ATOM     73  C   UNL A   1      51.116  26.177  25.351  1.00  0.00     0.040 A 
ATOM     74  C   UNL A   1      51.688  25.854  27.668  1.00  0.00     0.040 A 
ATOM     75  F   UNL A   1      50.057  26.148  29.327  1.00  0.00    -0.206 F 
ATOM     76  C   UNL A   1      52.060  25.858  26.325  1.00  0.00     0.006 A 
ENDBRANCH  48  69
BRANCH  60  77
ATOM     77  C   UNL A   1      46.304  32.570  28.621  1.00  0.00     0.057 A 
ATOM     78  C   UNL A   1      46.313  33.487  27.561  1.00  0.00     0.134 A 
ATOM     79  C   UNL A   1      46.718  33.032  29.878  1.00  0.00     0.134 A 
ATOM     80  F   UNL A   1      45.941  33.106  26.330  1.00  0.00    -0.206 F 
ATOM     81  C   UNL A   1      46.724  34.808  27.745  1.00  0.00     0.040 A 
ATOM     82  C   UNL A   1      47.101  34.358  30.081  1.00  0.00     0.040 A 
ATOM     83  F   UNL A   1      46.725  32.209  30.937  1.00  0.00    -0.206 F 
ATOM     84  C   UNL A   1      47.107  35.249  29.011  1.00  0.00     0.006 A 
ENDBRANCH  60  77
ENDBRANCH  34  35
ENDBRANCH  27  29
ENDBRANCH  26  27
ENDBRANCH  25  26
ENDBRANCH   1  25
TORSDOF 15
ENDMDL
MODEL 3
REMARK VINA RESULT:     -11.3      4.986      9.407
REMARK SMILES C[C@@H](Sc1nc(-c2ccc3c(c2)OCO3)ccc1C#N)C(=O)OCCOC(=O)c1ccc(-c2c3nc(c(-c4c(F)cccc4F)c4ccc([nH]4)c(-c4c(F)cccc4F)c4nc(c(-c5c(F)cccc5F)c5ccc2[nH]5)C=C4)C=C3)cc1
REMARK SMILES IDX 24 1 23 2 21 3 22 4 2 5 1 6 3 7 4 8 5 9 18 10 6 11 17 12
REMARK SMILES IDX 16 13 19 14 20 15 7 16 8 17 12 18 9 19 11 20 10 21 13 22
REMARK SMILES IDX 15 23 14 24 25 25 26 26 27 27 28 28 29 29 30 30 82 31 31 32
REMARK SMILES IDX 81 33 32 34 33 35 34 36 75 37 35 38 80 39 74 40 76 41 36 42
REMARK SMILES IDX 79 43 73 44 72 45 37 47 63 48 46 49 62 50 47 51 50 52 61 53
REMARK SMILES IDX 77 54 48 55 49 56 60 58 78 59 51 60 38 61 39 62 44 63 40 64
REMARK SMILES IDX 41 65 43 66 45 67 42 68 64 69 65 70 70 71 66 72 67 73 69 74
REMARK SMILES IDX 71 75 68 76 52 77 53 78 58 79 54 80 55 81 57 82 59 83 56 84
REMARK H PARENT 76 46 50 57
REMARK Flexibility Score: inf
ROOT
ATOM      1  C   UNL A   1      39.972  21.840  26.212  1.00  0.00     0.274 C 
ENDROOT
BRANCH   1   2
ATOM      2  O   UNL A   1      38.745  22.592  26.131  1.00  0.00    -0.461 OA
BRANCH   2   3
ATOM      3  C   UNL A   1      37.786  22.109  25.294  1.00  0.00     0.319 C 
ATOM      4  O   UNL A   1      37.607  20.914  25.067  1.00  0.00    -0.251 OA
BRANCH   3   5
ATOM      5  C   UNL A   1      36.960  23.210  24.630  1.00  0.00     0.160 C 
ATOM      6  C   UNL A   1      36.674  22.945  23.156  1.00  0.00     0.032 C 
BRANCH   5   7
ATOM      7  S   UNL A   1      35.423  23.375  25.603  1.00  0.00    -0.090 SA
BRANCH   7   8
ATOM      8  C   UNL A   1      34.303  22.248  24.767  1.00  0.00     0.115 A 
ATOM      9  N   UNL A   1      34.412  20.919  25.044  1.00  0.00    -0.240 NA
ATOM     10  C   UNL A   1      33.296  22.763  23.948  1.00  0.00     0.084 A 
ATOM     11  C   UNL A   1      33.481  20.073  24.530  1.00  0.00     0.072 A 
ATOM     12  C   UNL A   1      32.327  21.888  23.461  1.00  0.00     0.024 A 
ATOM     13  C   UNL A   1      32.412  20.535  23.765  1.00  0.00     0.030 A 
BRANCH  10  14
ATOM     14  C   UNL A   1      33.221  24.147  23.584  1.00  0.00     0.102 C 
ATOM     15  N   UNL A   1      33.114  25.259  23.280  1.00  0.00    -0.192 NA
ENDBRANCH  10  14
BRANCH  11  16
ATOM     16  C   UNL A   1      33.623  18.634  24.822  1.00  0.00     0.004 A 
ATOM     17  C   UNL A   1      34.818  17.947  24.471  1.00  0.00     0.014 A 
ATOM     18  C   UNL A   1      32.566  17.889  25.378  1.00  0.00     0.061 A 
ATOM     19  C   UNL A   1      34.951  16.563  24.625  1.00  0.00     0.051 A 
ATOM     20  C   UNL A   1      32.718  16.520  25.507  1.00  0.00     0.166 A 
ATOM     21  C   UNL A   1      33.874  15.876  25.134  1.00  0.00     0.165 A 
ATOM     22  O   UNL A   1      31.777  15.652  25.970  1.00  0.00    -0.454 OA
ATOM     23  O   UNL A   1      33.808  14.531  25.314  1.00  0.00    -0.454 OA
ATOM     24  C   UNL A   1      32.463  14.392  25.814  1.00  0.00     0.468 C 
ENDBRANCH  11  16
ENDBRANCH   7   8
ENDBRANCH   5   7
ENDBRANCH   3   5
ENDBRANCH   2   3
ENDBRANCH   1   2
BRANCH   1  25
ATOM     25  C   UNL A   1      41.189  22.742  25.993  1.00  0.00     0.275 C 
BRANCH  25  26
ATOM     26  O   UNL A   1      41.242  23.796  26.971  1.00  0.00    -0.458 OA
BRANCH  26  27
ATOM     27  C   UNL A   1      41.239  25.049  26.460  1.00  0.00     0.338 C 
ATOM     28  O   UNL A   1      41.418  25.383  25.303  1.00  0.00    -0.246 OA
BRANCH  27  29
ATOM     29  C   UNL A   1      40.909  26.006  27.519  1.00  0.00     0.060 A 
ATOM     30  C   UNL A   1      41.736  27.114  27.726  1.00  0.00     0.016 A 
ATOM     31  C   UNL A   1      39.837  25.745  28.369  1.00  0.00     0.016 A 
ATOM     32  C   UNL A   1      41.501  27.969  28.798  1.00  0.00     0.010 A 
ATOM     33  C   UNL A   1      39.588  26.616  29.427  1.00  0.00     0.010 A 
ATOM     34  C   UNL A   1      40.423  27.725  29.656  1.00  0.00    -0.014 A 
BRANCH  34  35
ATOM     35  C   UNL A   1      40.162  28.607  30.815  1.00  0.00     0.031 A 
ATOM     36  C   UNL A   1      39.135  29.691  30.703  1.00  0.00     0.074 A 
ATOM     37  C   UNL A   1      40.901  28.475  31.931  1.00  0.00     0.049 A 
ATOM     38  N   UNL A   1      38.899  30.695  31.506  1.00  0.00    -0.248 NA
ATOM     39  C   UNL A   1      38.270  29.648  29.514  1.00  0.00     0.031 C 
ATOM     40  C   UNL A   1      41.906  27.437  32.160  1.00  0.00     0.029 A 
ATOM     41  N   UNL A   1      40.947  29.246  33.064  1.00  0.00    -0.354 N 
ATOM     42  C   UNL A   1      37.885  31.427  30.903  1.00  0.00     0.074 A 
ATOM     43  C   UNL A   1      37.566  30.761  29.657  1.00  0.00     0.031 C 
ATOM     44  C   UNL A   1      42.490  27.652  33.348  1.00  0.00     0.029 A 
ATOM     45  C   UNL A   1      41.946  28.876  33.929  1.00  0.00     0.049 A 
ATOM     46  H   UNL A   1      40.325  29.989  33.240  1.00  0.00     0.167 HD
ATOM     47  C   UNL A   1      37.284  32.555  31.350  1.00  0.00     0.037 A 
ATOM     48  C   UNL A   1      42.412  29.486  35.035  1.00  0.00     0.037 A 
ATOM     49  C   UNL A   1      37.619  33.200  32.594  1.00  0.00     0.049 A 
ATOM     50  C   UNL A   1      41.775  30.770  35.486  1.00  0.00     0.074 A 
ATOM     51  C   UNL A   1      37.044  34.322  33.165  1.00  0.00     0.029 A 
ATOM     52  N   UNL A   1      38.630  32.788  33.451  1.00  0.00    -0.354 N 
ATOM     53  N   UNL A   1      40.798  31.446  34.929  1.00  0.00    -0.248 NA
ATOM     54  C   UNL A   1      42.299  31.378  36.716  1.00  0.00     0.031 C 
ATOM     55  C   UNL A   1      37.756  34.631  34.328  1.00  0.00     0.029 A 
ATOM     56  C   UNL A   1      38.723  33.657  34.526  1.00  0.00     0.049 A 
ATOM     57  H   UNL A   1      39.199  31.996  33.314  1.00  0.00     0.167 HD
ATOM     58  C   UNL A   1      40.570  32.540  35.753  1.00  0.00     0.074 A 
ATOM     59  C   UNL A   1      41.511  32.435  36.851  1.00  0.00     0.031 C 
ATOM     60  C   UNL A   1      39.660  33.535  35.616  1.00  0.00     0.037 A 
BRANCH  47  61
ATOM     61  C   UNL A   1      36.249  33.187  30.463  1.00  0.00     0.057 A 
ATOM     62  C   UNL A   1      34.874  33.044  30.690  1.00  0.00     0.134 A 
ATOM     63  C   UNL A   1      36.641  33.957  29.358  1.00  0.00     0.134 A 
ATOM     64  F   UNL A   1      34.427  32.313  31.723  1.00  0.00    -0.206 F 
ATOM     65  C   UNL A   1      33.929  33.604  29.828  1.00  0.00     0.040 A 
ATOM     66  C   UNL A   1      35.705  34.550  28.510  1.00  0.00     0.040 A 
ATOM     67  F   UNL A   1      37.940  34.145  29.084  1.00  0.00    -0.206 F 
ATOM     68  C   UNL A   1      34.344  34.363  28.737  1.00  0.00     0.006 A 
ENDBRANCH  47  61
BRANCH  48  69
ATOM     69  C   UNL A   1      43.564  28.896  35.762  1.00  0.00     0.057 A 
ATOM     70  C   UNL A   1      43.390  27.845  36.668  1.00  0.00     0.134 A 
ATOM     71  C   UNL A   1      44.872  29.347  35.539  1.00  0.00     0.134 A 
ATOM     72  F   UNL A   1      42.161  27.381  36.937  1.00  0.00    -0.206 F 
ATOM     73  C   UNL A   1      44.473  27.268  37.333  1.00  0.00     0.040 A 
ATOM     74  C   UNL A   1      45.967  28.759  36.174  1.00  0.00     0.040 A 
ATOM     75  F   UNL A   1      45.107  30.346  34.676  1.00  0.00    -0.206 F 
ATOM     76  C   UNL A   1      45.767  27.719  37.078  1.00  0.00     0.006 A 
ENDBRANCH  48  69
BRANCH  60  77
ATOM     77  C   UNL A   1      39.592  34.570  36.702  1.00  0.00     0.057 A 
ATOM     78  C   UNL A   1      38.868  34.367  37.884  1.00  0.00     0.134 A 
ATOM     79  C   UNL A   1      40.332  35.756  36.593  1.00  0.00     0.134 A 
ATOM     80  F   UNL A   1      38.128  33.260  38.046  1.00  0.00    -0.206 F 
ATOM     81  C   UNL A   1      38.875  35.310  38.914  1.00  0.00     0.040 A 
ATOM     82  C   UNL A   1      40.371  36.691  37.627  1.00  0.00     0.040 A 
ATOM     83  F   UNL A   1      41.054  36.010  35.492  1.00  0.00    -0.206 F 
ATOM     84  C   UNL A   1      39.639  36.470  38.791  1.00  0.00     0.006 A 
ENDBRANCH  60  77
ENDBRANCH  34  35
ENDBRANCH  27  29
ENDBRANCH  26  27
ENDBRANCH  25  26
ENDBRANCH   1  25
TORSDOF 15
ENDMDL
