MODEL 1
REMARK VINA RESULT:     -11.7      0.000      0.000
REMARK SMILES O=C(OCCOC(=O)c1ccc(-n2cccc2/C=N/NC(=O)c2cccs2)cc1)c1ccc(-c2c3nc(c(-c4c(F)cccc4F)c4ccc([nH]4)c(-c4c(F)cccc4F)c4nc(c(-c5c(F)cccc5F)c5ccc2[nH]5)C=C4)C=C3)cc1
REMARK SMILES IDX 5 1 4 2 3 3 2 4 1 5 30 6 31 7 83 8 32 9 82 10 33 11 34 12
REMARK SMILES IDX 35 13 76 14 36 15 81 16 75 17 77 18 37 19 80 20 74 21 73 22
REMARK SMILES IDX 38 24 64 25 47 26 63 27 48 28 51 29 62 30 78 31 49 32 50 33
REMARK SMILES IDX 61 35 79 36 52 37 39 38 40 39 45 40 41 41 42 42 44 43 46 44
REMARK SMILES IDX 43 45 65 46 66 47 71 48 67 49 68 50 70 51 72 52 69 53 53 54
REMARK SMILES IDX 54 55 59 56 55 57 56 58 58 59 60 60 57 61 6 62 7 63 8 64
REMARK SMILES IDX 9 65 10 66 29 67 11 68 28 69 12 70 13 71 14 72 17 73 15 74
REMARK SMILES IDX 16 75 18 76 19 77 20 78 21 79 22 81 23 82 24 83 27 84 25 85
REMARK SMILES IDX 26 86
REMARK H PARENT 77 23 51 34 20 80
REMARK Flexibility Score: inf
ROOT
ATOM      1  C   UNL A   1      32.413  29.939  25.515  1.00  0.00     0.275 C 
ENDROOT
BRANCH   1   2
ATOM      2  C   UNL A   1      32.773  29.965  27.006  1.00  0.00     0.275 C 
BRANCH   2   3
ATOM      3  O   UNL A   1      34.131  29.646  27.343  1.00  0.00    -0.458 OA
BRANCH   3   4
ATOM      4  C   UNL A   1      34.997  30.635  27.646  1.00  0.00     0.338 C 
ATOM      5  O   UNL A   1      34.680  31.816  27.628  1.00  0.00    -0.246 OA
BRANCH   4   6
ATOM      6  C   UNL A   1      36.260  30.186  28.295  1.00  0.00     0.060 A 
ATOM      7  C   UNL A   1      36.300  29.534  29.531  1.00  0.00     0.016 A 
ATOM      8  C   UNL A   1      37.432  30.264  27.532  1.00  0.00     0.016 A 
ATOM      9  C   UNL A   1      37.494  28.996  30.016  1.00  0.00     0.010 A 
ATOM     10  C   UNL A   1      38.592  29.615  27.960  1.00  0.00     0.010 A 
ATOM     11  C   UNL A   1      38.634  28.971  29.209  1.00  0.00    -0.014 A 
BRANCH  11  12
ATOM     12  C   UNL A   1      39.892  28.312  29.673  1.00  0.00     0.031 A 
ATOM     13  C   UNL A   1      40.266  26.950  28.961  1.00  0.00     0.074 A 
ATOM     14  C   UNL A   1      40.549  29.034  30.636  1.00  0.00     0.049 A 
ATOM     15  N   UNL A   1      41.395  26.296  28.885  1.00  0.00    -0.248 NA
ATOM     16  C   UNL A   1      39.231  26.231  28.170  1.00  0.00     0.031 C 
ATOM     17  C   UNL A   1      40.073  30.291  31.272  1.00  0.00     0.029 A 
ATOM     18  N   UNL A   1      41.744  28.859  31.287  1.00  0.00    -0.354 N 
ATOM     19  C   UNL A   1      41.265  25.260  27.914  1.00  0.00     0.074 A 
ATOM     20  C   UNL A   1      39.898  25.284  27.498  1.00  0.00     0.031 C 
ATOM     21  C   UNL A   1      40.913  30.698  32.246  1.00  0.00     0.029 A 
ATOM     22  C   UNL A   1      42.013  29.769  32.344  1.00  0.00     0.049 A 
ATOM     23  H   UNL A   1      42.377  28.148  31.036  1.00  0.00     0.167 HD
ATOM     24  C   UNL A   1      42.281  24.431  27.520  1.00  0.00     0.037 A 
ATOM     25  C   UNL A   1      43.014  29.714  33.275  1.00  0.00     0.037 A 
ATOM     26  C   UNL A   1      43.334  24.439  28.467  1.00  0.00     0.049 A 
ATOM     27  C   UNL A   1      43.827  28.572  32.848  1.00  0.00     0.074 A 
ATOM     28  C   UNL A   1      43.619  23.642  29.545  1.00  0.00     0.029 A 
ATOM     29  N   UNL A   1      44.195  25.492  28.450  1.00  0.00    -0.354 N 
ATOM     30  N   UNL A   1      44.652  28.593  31.851  1.00  0.00    -0.248 NA
ATOM     31  C   UNL A   1      43.456  27.263  33.381  1.00  0.00     0.031 C 
ATOM     32  C   UNL A   1      44.554  24.364  30.314  1.00  0.00     0.029 A 
ATOM     33  C   UNL A   1      44.672  25.619  29.730  1.00  0.00     0.049 A 
ATOM     34  H   UNL A   1      44.429  26.051  27.674  1.00  0.00     0.167 HD
ATOM     35  C   UNL A   1      44.696  27.281  31.442  1.00  0.00     0.074 A 
ATOM     36  C   UNL A   1      44.020  26.489  32.461  1.00  0.00     0.031 C 
ATOM     37  C   UNL A   1      44.980  26.942  30.165  1.00  0.00     0.037 A 
BRANCH  24  38
ATOM     38  C   UNL A   1      42.539  23.478  26.367  1.00  0.00     0.057 A 
ATOM     39  C   UNL A   1      42.463  22.087  26.571  1.00  0.00     0.134 A 
ATOM     40  C   UNL A   1      43.392  23.866  25.317  1.00  0.00     0.134 A 
ATOM     41  F   UNL A   1      41.744  21.592  27.589  1.00  0.00    -0.206 F 
ATOM     42  C   UNL A   1      43.228  21.168  25.828  1.00  0.00     0.040 A 
ATOM     43  C   UNL A   1      44.090  22.956  24.504  1.00  0.00     0.040 A 
ATOM     44  F   UNL A   1      43.717  25.155  25.156  1.00  0.00    -0.206 F 
ATOM     45  C   UNL A   1      44.043  21.599  24.786  1.00  0.00     0.006 A 
ENDBRANCH  24  38
BRANCH  25  46
ATOM     46  C   UNL A   1      43.334  30.340  34.604  1.00  0.00     0.057 A 
ATOM     47  C   UNL A   1      42.589  30.213  35.779  1.00  0.00     0.134 A 
ATOM     48  C   UNL A   1      44.542  31.073  34.760  1.00  0.00     0.134 A 
ATOM     49  F   UNL A   1      41.366  29.673  35.774  1.00  0.00    -0.206 F 
ATOM     50  C   UNL A   1      43.070  30.658  37.027  1.00  0.00     0.040 A 
ATOM     51  C   UNL A   1      45.045  31.496  35.994  1.00  0.00     0.040 A 
ATOM     52  F   UNL A   1      45.313  31.394  33.711  1.00  0.00    -0.206 F 
ATOM     53  C   UNL A   1      44.317  31.265  37.144  1.00  0.00     0.006 A 
ENDBRANCH  25  46
BRANCH  37  54
ATOM     54  C   UNL A   1      45.238  28.086  29.226  1.00  0.00     0.057 A 
ATOM     55  C   UNL A   1      46.532  28.543  29.008  1.00  0.00     0.134 A 
ATOM     56  C   UNL A   1      44.206  28.746  28.529  1.00  0.00     0.134 A 
ATOM     57  F   UNL A   1      47.564  27.969  29.643  1.00  0.00    -0.206 F 
ATOM     58  C   UNL A   1      46.794  29.592  28.120  1.00  0.00     0.040 A 
ATOM     59  C   UNL A   1      44.453  29.777  27.621  1.00  0.00     0.040 A 
ATOM     60  F   UNL A   1      42.931  28.388  28.697  1.00  0.00    -0.206 F 
ATOM     61  C   UNL A   1      45.758  30.204  27.415  1.00  0.00     0.006 A 
ENDBRANCH  37  54
ENDBRANCH  11  12
ENDBRANCH   4   6
ENDBRANCH   3   4
ENDBRANCH   2   3
ENDBRANCH   1   2
BRANCH   1  62
ATOM     62  O   UNL A   1      32.084  28.632  24.996  1.00  0.00    -0.458 OA
BRANCH  62  63
ATOM     63  C   UNL A   1      32.780  28.259  23.880  1.00  0.00     0.338 C 
ATOM     64  O   UNL A   1      32.838  28.857  22.820  1.00  0.00    -0.246 OA
BRANCH  63  65
ATOM     65  C   UNL A   1      33.481  26.972  24.107  1.00  0.00     0.060 A 
ATOM     66  C   UNL A   1      33.899  26.626  25.404  1.00  0.00     0.018 A 
ATOM     67  C   UNL A   1      33.736  26.103  23.042  1.00  0.00     0.018 A 
ATOM     68  C   UNL A   1      34.476  25.370  25.658  1.00  0.00     0.027 A 
ATOM     69  C   UNL A   1      34.376  24.883  23.279  1.00  0.00     0.027 A 
ATOM     70  C   UNL A   1      34.708  24.504  24.589  1.00  0.00     0.046 A 
BRANCH  70  71
ATOM     71  N   UNL A   1      35.338  23.248  24.781  1.00  0.00    -0.316 N 
ATOM     72  C   UNL A   1      36.621  22.979  24.347  1.00  0.00     0.092 A 
ATOM     73  C   UNL A   1      34.749  22.051  25.160  1.00  0.00     0.066 A 
ATOM     74  C   UNL A   1      36.839  21.623  24.389  1.00  0.00     0.021 A 
ATOM     75  C   UNL A   1      35.647  21.037  24.855  1.00  0.00     0.030 A 
BRANCH  73  76
ATOM     76  C   UNL A   1      33.431  21.862  25.702  1.00  0.00     0.160 C 
ATOM     77  N   UNL A   1      33.048  22.615  26.682  1.00  0.00    -0.179 NA
BRANCH  77  78
ATOM     78  N   UNL A   1      31.785  22.511  27.194  1.00  0.00    -0.242 N 
ATOM     79  C   UNL A   1      30.583  23.119  26.902  1.00  0.00     0.281 C 
ATOM     80  H   UNL A   1      31.720  21.862  27.932  1.00  0.00     0.194 HD
ATOM     81  O   UNL A   1      29.636  22.960  27.680  1.00  0.00    -0.266 OA
BRANCH  79  82
ATOM     82  C   UNL A   1      30.485  23.879  25.688  1.00  0.00     0.094 A 
ATOM     83  C   UNL A   1      30.777  23.484  24.400  1.00  0.00     0.026 A 
ATOM     84  S   UNL A   1      29.998  25.513  25.766  1.00  0.00    -0.139 S 
ATOM     85  C   UNL A   1      30.572  24.524  23.476  1.00  0.00     0.012 A 
ATOM     86  C   UNL A   1      30.252  25.712  24.093  1.00  0.00     0.065 A 
ENDBRANCH  79  82
ENDBRANCH  77  78
ENDBRANCH  73  76
ENDBRANCH  70  71
ENDBRANCH  63  65
ENDBRANCH  62  63
ENDBRANCH   1  62
TORSDOF 15
ENDMDL
MODEL 2
REMARK VINA RESULT:     -11.7      3.297      7.599
REMARK SMILES O=C(OCCOC(=O)c1ccc(-n2cccc2/C=N/NC(=O)c2cccs2)cc1)c1ccc(-c2c3nc(c(-c4c(F)cccc4F)c4ccc([nH]4)c(-c4c(F)cccc4F)c4nc(c(-c5c(F)cccc5F)c5ccc2[nH]5)C=C4)C=C3)cc1
REMARK SMILES IDX 5 1 4 2 3 3 2 4 1 5 30 6 31 7 83 8 32 9 82 10 33 11 34 12
REMARK SMILES IDX 35 13 76 14 36 15 81 16 75 17 77 18 37 19 80 20 74 21 73 22
REMARK SMILES IDX 38 24 64 25 47 26 63 27 48 28 51 29 62 30 78 31 49 32 50 33
REMARK SMILES IDX 61 35 79 36 52 37 39 38 40 39 45 40 41 41 42 42 44 43 46 44
REMARK SMILES IDX 43 45 65 46 66 47 71 48 67 49 68 50 70 51 72 52 69 53 53 54
REMARK SMILES IDX 54 55 59 56 55 57 56 58 58 59 60 60 57 61 6 62 7 63 8 64
REMARK SMILES IDX 9 65 10 66 29 67 11 68 28 69 12 70 13 71 14 72 17 73 15 74
REMARK SMILES IDX 16 75 18 76 19 77 20 78 21 79 22 81 23 82 24 83 27 84 25 85
REMARK SMILES IDX 26 86
REMARK H PARENT 77 23 51 34 20 80
REMARK Flexibility Score: inf
ROOT
ATOM      1  C   UNL A   1      37.035  20.179  24.990  1.00  0.00     0.275 C 
ENDROOT
BRANCH   1   2
ATOM      2  C   UNL A   1      38.457  19.619  24.866  1.00  0.00     0.275 C 
BRANCH   2   3
ATOM      3  O   UNL A   1      39.171  19.405  26.092  1.00  0.00    -0.458 OA
BRANCH   3   4
ATOM      4  C   UNL A   1      40.504  19.608  26.136  1.00  0.00     0.338 C 
ATOM      5  O   UNL A   1      41.303  18.864  25.585  1.00  0.00    -0.246 OA
BRANCH   4   6
ATOM      6  C   UNL A   1      40.919  20.950  26.632  1.00  0.00     0.060 A 
ATOM      7  C   UNL A   1      41.108  21.244  27.986  1.00  0.00     0.016 A 
ATOM      8  C   UNL A   1      41.312  21.891  25.673  1.00  0.00     0.016 A 
ATOM      9  C   UNL A   1      41.650  22.470  28.380  1.00  0.00     0.010 A 
ATOM     10  C   UNL A   1      41.969  23.059  26.064  1.00  0.00     0.010 A 
ATOM     11  C   UNL A   1      42.146  23.360  27.426  1.00  0.00    -0.014 A 
BRANCH  11  12
ATOM     12  C   UNL A   1      42.817  24.631  27.834  1.00  0.00     0.031 A 
ATOM     13  C   UNL A   1      41.862  25.799  28.311  1.00  0.00     0.074 A 
ATOM     14  C   UNL A   1      44.184  24.560  27.763  1.00  0.00     0.049 A 
ATOM     15  N   UNL A   1      42.098  26.879  29.006  1.00  0.00    -0.248 NA
ATOM     16  C   UNL A   1      40.408  25.724  28.003  1.00  0.00     0.031 C 
ATOM     17  C   UNL A   1      44.980  23.415  27.248  1.00  0.00     0.029 A 
ATOM     18  N   UNL A   1      45.187  25.434  28.096  1.00  0.00    -0.354 N 
ATOM     19  C   UNL A   1      40.855  27.468  29.383  1.00  0.00     0.074 A 
ATOM     20  C   UNL A   1      39.844  26.693  28.736  1.00  0.00     0.031 C 
ATOM     21  C   UNL A   1      46.299  23.699  27.231  1.00  0.00     0.029 A 
ATOM     22  C   UNL A   1      46.502  25.038  27.731  1.00  0.00     0.049 A 
ATOM     23  H   UNL A   1      45.008  26.283  28.562  1.00  0.00     0.167 HD
ATOM     24  C   UNL A   1      40.728  28.569  30.188  1.00  0.00     0.037 A 
ATOM     25  C   UNL A   1      47.650  25.782  27.760  1.00  0.00     0.037 A 
ATOM     26  C   UNL A   1      41.946  29.288  30.254  1.00  0.00     0.049 A 
ATOM     27  C   UNL A   1      47.235  27.042  28.384  1.00  0.00     0.074 A 
ATOM     28  C   UNL A   1      42.439  30.348  29.537  1.00  0.00     0.029 A 
ATOM     29  N   UNL A   1      42.921  28.811  31.072  1.00  0.00    -0.354 N 
ATOM     30  N   UNL A   1      47.015  27.193  29.651  1.00  0.00    -0.248 NA
ATOM     31  C   UNL A   1      46.749  28.092  27.491  1.00  0.00     0.031 C 
ATOM     32  C   UNL A   1      43.826  30.366  29.792  1.00  0.00     0.029 A 
ATOM     33  C   UNL A   1      44.113  29.228  30.535  1.00  0.00     0.049 A 
ATOM     34  H   UNL A   1      42.797  28.273  31.888  1.00  0.00     0.167 HD
ATOM     35  C   UNL A   1      46.112  28.229  29.699  1.00  0.00     0.074 A 
ATOM     36  C   UNL A   1      46.046  28.806  28.362  1.00  0.00     0.031 C 
ATOM     37  C   UNL A   1      45.230  28.358  30.714  1.00  0.00     0.037 A 
BRANCH  24  38
ATOM     38  C   UNL A   1      39.613  29.234  30.973  1.00  0.00     0.057 A 
ATOM     39  C   UNL A   1      39.128  28.638  32.154  1.00  0.00     0.134 A 
ATOM     40  C   UNL A   1      38.677  30.047  30.306  1.00  0.00     0.134 A 
ATOM     41  F   UNL A   1      39.897  27.780  32.841  1.00  0.00    -0.206 F 
ATOM     42  C   UNL A   1      37.799  28.792  32.592  1.00  0.00     0.040 A 
ATOM     43  C   UNL A   1      37.375  30.287  30.781  1.00  0.00     0.040 A 
ATOM     44  F   UNL A   1      38.937  30.497  29.072  1.00  0.00    -0.206 F 
ATOM     45  C   UNL A   1      36.917  29.622  31.909  1.00  0.00     0.006 A 
ENDBRANCH  24  38
BRANCH  25  46
ATOM     46  C   UNL A   1      49.036  25.714  27.182  1.00  0.00     0.057 A 
ATOM     47  C   UNL A   1      49.389  25.944  25.851  1.00  0.00     0.134 A 
ATOM     48  C   UNL A   1      50.143  25.479  28.043  1.00  0.00     0.134 A 
ATOM     49  F   UNL A   1      48.463  26.045  24.891  1.00  0.00    -0.206 F 
ATOM     50  C   UNL A   1      50.732  26.065  25.438  1.00  0.00     0.040 A 
ATOM     51  C   UNL A   1      51.478  25.622  27.655  1.00  0.00     0.040 A 
ATOM     52  F   UNL A   1      49.976  25.119  29.324  1.00  0.00    -0.206 F 
ATOM     53  C   UNL A   1      51.779  25.944  26.346  1.00  0.00     0.006 A 
ENDBRANCH  25  46
BRANCH  37  54
ATOM     54  C   UNL A   1      45.296  27.300  31.779  1.00  0.00     0.057 A 
ATOM     55  C   UNL A   1      46.085  27.484  32.907  1.00  0.00     0.134 A 
ATOM     56  C   UNL A   1      44.581  26.090  31.694  1.00  0.00     0.134 A 
ATOM     57  F   UNL A   1      46.801  28.608  33.053  1.00  0.00    -0.206 F 
ATOM     58  C   UNL A   1      46.143  26.520  33.920  1.00  0.00     0.040 A 
ATOM     59  C   UNL A   1      44.607  25.130  32.706  1.00  0.00     0.040 A 
ATOM     60  F   UNL A   1      43.817  25.820  30.632  1.00  0.00    -0.206 F 
ATOM     61  C   UNL A   1      45.395  25.345  33.829  1.00  0.00     0.006 A 
ENDBRANCH  37  54
ENDBRANCH  11  12
ENDBRANCH   4   6
ENDBRANCH   3   4
ENDBRANCH   2   3
ENDBRANCH   1   2
BRANCH   1  62
ATOM     62  O   UNL A   1      36.813  21.423  24.292  1.00  0.00    -0.458 OA
BRANCH  62  63
ATOM     63  C   UNL A   1      36.900  22.547  25.067  1.00  0.00     0.338 C 
ATOM     64  O   UNL A   1      37.682  22.746  25.981  1.00  0.00    -0.246 OA
BRANCH  63  65
ATOM     65  C   UNL A   1      35.878  23.541  24.663  1.00  0.00     0.060 A 
ATOM     66  C   UNL A   1      35.298  23.464  23.385  1.00  0.00     0.018 A 
ATOM     67  C   UNL A   1      35.491  24.559  25.540  1.00  0.00     0.018 A 
ATOM     68  C   UNL A   1      34.257  24.336  23.019  1.00  0.00     0.027 A 
ATOM     69  C   UNL A   1      34.506  25.473  25.152  1.00  0.00     0.027 A 
ATOM     70  C   UNL A   1      33.866  25.335  23.909  1.00  0.00     0.046 A 
BRANCH  70  71
ATOM     71  N   UNL A   1      32.861  26.275  23.569  1.00  0.00    -0.316 N 
ATOM     72  C   UNL A   1      32.987  27.159  22.515  1.00  0.00     0.092 A 
ATOM     73  C   UNL A   1      31.764  26.658  24.327  1.00  0.00     0.066 A 
ATOM     74  C   UNL A   1      32.022  28.131  22.621  1.00  0.00     0.021 A 
ATOM     75  C   UNL A   1      31.284  27.843  23.785  1.00  0.00     0.030 A 
BRANCH  73  76
ATOM     76  C   UNL A   1      31.245  26.007  25.499  1.00  0.00     0.160 C 
ATOM     77  N   UNL A   1      30.369  25.066  25.351  1.00  0.00    -0.179 NA
BRANCH  77  78
ATOM     78  N   UNL A   1      29.888  24.381  26.430  1.00  0.00    -0.242 N 
ATOM     79  C   UNL A   1      30.204  23.171  27.012  1.00  0.00     0.281 C 
ATOM     80  H   UNL A   1      29.157  24.852  26.892  1.00  0.00     0.194 HD
ATOM     81  O   UNL A   1      29.449  22.719  27.879  1.00  0.00    -0.266 OA
BRANCH  79  82
ATOM     82  C   UNL A   1      31.414  22.517  26.602  1.00  0.00     0.094 A 
ATOM     83  C   UNL A   1      31.664  21.826  25.436  1.00  0.00     0.026 A 
ATOM     84  S   UNL A   1      32.752  22.501  27.660  1.00  0.00    -0.139 S 
ATOM     85  C   UNL A   1      32.971  21.307  25.408  1.00  0.00     0.012 A 
ATOM     86  C   UNL A   1      33.636  21.508  26.595  1.00  0.00     0.065 A 
ENDBRANCH  79  82
ENDBRANCH  77  78
ENDBRANCH  73  76
ENDBRANCH  70  71
ENDBRANCH  63  65
ENDBRANCH  62  63
ENDBRANCH   1  62
TORSDOF 15
ENDMDL
MODEL 3
REMARK VINA RESULT:     -11.6      1.516      2.601
REMARK SMILES O=C(OCCOC(=O)c1ccc(-n2cccc2/C=N/NC(=O)c2cccs2)cc1)c1ccc(-c2c3nc(c(-c4c(F)cccc4F)c4ccc([nH]4)c(-c4c(F)cccc4F)c4nc(c(-c5c(F)cccc5F)c5ccc2[nH]5)C=C4)C=C3)cc1
REMARK SMILES IDX 5 1 4 2 3 3 2 4 1 5 30 6 31 7 83 8 32 9 82 10 33 11 34 12
REMARK SMILES IDX 35 13 76 14 36 15 81 16 75 17 77 18 37 19 80 20 74 21 73 22
REMARK SMILES IDX 38 24 64 25 47 26 63 27 48 28 51 29 62 30 78 31 49 32 50 33
REMARK SMILES IDX 61 35 79 36 52 37 39 38 40 39 45 40 41 41 42 42 44 43 46 44
REMARK SMILES IDX 43 45 65 46 66 47 71 48 67 49 68 50 70 51 72 52 69 53 53 54
REMARK SMILES IDX 54 55 59 56 55 57 56 58 58 59 60 60 57 61 6 62 7 63 8 64
REMARK SMILES IDX 9 65 10 66 29 67 11 68 28 69 12 70 13 71 14 72 17 73 15 74
REMARK SMILES IDX 16 75 18 76 19 77 20 78 21 79 22 81 23 82 24 83 27 84 25 85
REMARK SMILES IDX 26 86
REMARK H PARENT 77 23 51 34 20 80
REMARK Flexibility Score: inf
ROOT
ATOM      1  C   UNL A   1      32.366  30.147  26.416  1.00  0.00     0.275 C 
ENDROOT
BRANCH   1   2
ATOM      2  C   UNL A   1      33.192  31.127  27.259  1.00  0.00     0.275 C 
BRANCH   2   3
ATOM      3  O   UNL A   1      34.306  30.575  27.976  1.00  0.00    -0.458 OA
BRANCH   3   4
ATOM      4  C   UNL A   1      35.531  31.121  27.836  1.00  0.00     0.338 C 
ATOM      5  O   UNL A   1      35.706  32.325  27.712  1.00  0.00    -0.246 OA
BRANCH   4   6
ATOM      6  C   UNL A   1      36.665  30.208  28.148  1.00  0.00     0.060 A 
ATOM      7  C   UNL A   1      37.824  30.126  27.368  1.00  0.00     0.016 A 
ATOM      8  C   UNL A   1      36.631  29.547  29.382  1.00  0.00     0.016 A 
ATOM      9  C   UNL A   1      38.919  29.372  27.796  1.00  0.00     0.010 A 
ATOM     10  C   UNL A   1      37.771  28.900  29.863  1.00  0.00     0.010 A 
ATOM     11  C   UNL A   1      38.930  28.808  29.073  1.00  0.00    -0.014 A 
BRANCH  11  12
ATOM     12  C   UNL A   1      40.132  28.081  29.583  1.00  0.00     0.031 A 
ATOM     13  C   UNL A   1      40.345  26.615  29.025  1.00  0.00     0.074 A 
ATOM     14  C   UNL A   1      40.890  28.836  30.439  1.00  0.00     0.049 A 
ATOM     15  N   UNL A   1      41.401  25.845  29.002  1.00  0.00    -0.248 NA
ATOM     16  C   UNL A   1      39.218  25.921  28.347  1.00  0.00     0.031 C 
ATOM     17  C   UNL A   1      40.562  30.199  30.935  1.00  0.00     0.029 A 
ATOM     18  N   UNL A   1      42.083  28.616  31.080  1.00  0.00    -0.354 N 
ATOM     19  C   UNL A   1      41.136  24.724  28.161  1.00  0.00     0.074 A 
ATOM     20  C   UNL A   1      39.765  24.840  27.776  1.00  0.00     0.031 C 
ATOM     21  C   UNL A   1      41.470  30.627  31.836  1.00  0.00     0.029 A 
ATOM     22  C   UNL A   1      42.476  29.608  32.017  1.00  0.00     0.049 A 
ATOM     23  H   UNL A   1      42.633  27.820  30.900  1.00  0.00     0.167 HD
ATOM     24  C   UNL A   1      42.052  23.756  27.844  1.00  0.00     0.037 A 
ATOM     25  C   UNL A   1      43.498  29.557  32.926  1.00  0.00     0.037 A 
ATOM     26  C   UNL A   1      43.132  23.764  28.760  1.00  0.00     0.049 A 
ATOM     27  C   UNL A   1      44.179  28.297  32.617  1.00  0.00     0.074 A 
ATOM     28  C   UNL A   1      43.373  23.070  29.917  1.00  0.00     0.029 A 
ATOM     29  N   UNL A   1      44.091  24.715  28.602  1.00  0.00    -0.354 N 
ATOM     30  N   UNL A   1      44.968  28.120  31.606  1.00  0.00    -0.248 NA
ATOM     31  C   UNL A   1      43.699  27.101  33.307  1.00  0.00     0.031 C 
ATOM     32  C   UNL A   1      44.400  23.776  30.576  1.00  0.00     0.029 A 
ATOM     33  C   UNL A   1      44.622  24.938  29.847  1.00  0.00     0.049 A 
ATOM     34  H   UNL A   1      44.354  25.155  27.761  1.00  0.00     0.167 HD
ATOM     35  C   UNL A   1      44.869  26.773  31.352  1.00  0.00     0.074 A 
ATOM     36  C   UNL A   1      44.152  26.175  32.471  1.00  0.00     0.031 C 
ATOM     37  C   UNL A   1      45.074  26.264  30.117  1.00  0.00     0.037 A 
BRANCH  24  38
ATOM     38  C   UNL A   1      42.175  22.657  26.805  1.00  0.00     0.057 A 
ATOM     39  C   UNL A   1      41.746  21.350  27.105  1.00  0.00     0.134 A 
ATOM     40  C   UNL A   1      43.189  22.726  25.831  1.00  0.00     0.134 A 
ATOM     41  F   UNL A   1      40.838  21.143  28.071  1.00  0.00    -0.206 F 
ATOM     42  C   UNL A   1      42.329  20.207  26.527  1.00  0.00     0.040 A 
ATOM     43  C   UNL A   1      43.717  21.600  25.175  1.00  0.00     0.040 A 
ATOM     44  F   UNL A   1      43.830  23.881  25.609  1.00  0.00    -0.206 F 
ATOM     45  C   UNL A   1      43.317  20.328  25.554  1.00  0.00     0.006 A 
ENDBRANCH  24  38
BRANCH  25  46
ATOM     46  C   UNL A   1      43.923  30.295  34.165  1.00  0.00     0.057 A 
ATOM     47  C   UNL A   1      45.088  31.049  34.320  1.00  0.00     0.134 A 
ATOM     48  C   UNL A   1      43.056  30.331  35.291  1.00  0.00     0.134 A 
ATOM     49  F   UNL A   1      46.070  31.011  33.411  1.00  0.00    -0.206 F 
ATOM     50  C   UNL A   1      45.307  31.877  35.440  1.00  0.00     0.040 A 
ATOM     51  C   UNL A   1      43.245  31.166  36.395  1.00  0.00     0.040 A 
ATOM     52  F   UNL A   1      41.957  29.566  35.359  1.00  0.00    -0.206 F 
ATOM     53  C   UNL A   1      44.367  31.969  36.462  1.00  0.00     0.006 A 
ENDBRANCH  25  46
BRANCH  37  54
ATOM     54  C   UNL A   1      45.411  27.261  29.046  1.00  0.00     0.057 A 
ATOM     55  C   UNL A   1      46.736  27.561  28.752  1.00  0.00     0.134 A 
ATOM     56  C   UNL A   1      44.427  27.934  28.296  1.00  0.00     0.134 A 
ATOM     57  F   UNL A   1      47.727  26.965  29.431  1.00  0.00    -0.206 F 
ATOM     58  C   UNL A   1      47.071  28.469  27.742  1.00  0.00     0.040 A 
ATOM     59  C   UNL A   1      44.744  28.824  27.268  1.00  0.00     0.040 A 
ATOM     60  F   UNL A   1      43.129  27.724  28.528  1.00  0.00    -0.206 F 
ATOM     61  C   UNL A   1      46.077  29.095  26.989  1.00  0.00     0.006 A 
ENDBRANCH  37  54
ENDBRANCH  11  12
ENDBRANCH   4   6
ENDBRANCH   3   4
ENDBRANCH   2   3
ENDBRANCH   1   2
BRANCH   1  62
ATOM     62  O   UNL A   1      32.820  28.777  26.466  1.00  0.00    -0.458 OA
BRANCH  62  63
ATOM     63  C   UNL A   1      31.933  27.891  27.012  1.00  0.00     0.338 C 
ATOM     64  O   UNL A   1      31.048  28.141  27.811  1.00  0.00    -0.246 OA
BRANCH  63  65
ATOM     65  C   UNL A   1      32.188  26.520  26.510  1.00  0.00     0.060 A 
ATOM     66  C   UNL A   1      33.486  26.154  26.113  1.00  0.00     0.018 A 
ATOM     67  C   UNL A   1      31.148  25.589  26.423  1.00  0.00     0.018 A 
ATOM     68  C   UNL A   1      33.769  24.831  25.728  1.00  0.00     0.027 A 
ATOM     69  C   UNL A   1      31.412  24.293  25.972  1.00  0.00     0.027 A 
ATOM     70  C   UNL A   1      32.726  23.907  25.663  1.00  0.00     0.046 A 
BRANCH  70  71
ATOM     71  N   UNL A   1      32.946  22.576  25.228  1.00  0.00    -0.316 N 
ATOM     72  C   UNL A   1      33.416  21.582  26.063  1.00  0.00     0.092 A 
ATOM     73  C   UNL A   1      32.997  22.107  23.923  1.00  0.00     0.066 A 
ATOM     74  C   UNL A   1      33.819  20.508  25.307  1.00  0.00     0.021 A 
ATOM     75  C   UNL A   1      33.600  20.856  23.961  1.00  0.00     0.030 A 
BRANCH  73  76
ATOM     76  C   UNL A   1      32.578  22.794  22.732  1.00  0.00     0.160 C 
ATOM     77  N   UNL A   1      33.438  23.529  22.104  1.00  0.00    -0.179 NA
BRANCH  77  78
ATOM     78  N   UNL A   1      33.102  24.158  20.938  1.00  0.00    -0.242 N 
ATOM     79  C   UNL A   1      32.479  25.352  20.642  1.00  0.00     0.281 C 
ATOM     80  H   UNL A   1      33.360  23.648  20.136  1.00  0.00     0.194 HD
ATOM     81  O   UNL A   1      32.133  25.563  19.475  1.00  0.00    -0.266 OA
BRANCH  79  82
ATOM     82  C   UNL A   1      32.293  26.302  21.702  1.00  0.00     0.094 A 
ATOM     83  C   UNL A   1      31.136  26.617  22.381  1.00  0.00     0.026 A 
ATOM     84  S   UNL A   1      33.619  27.244  22.216  1.00  0.00    -0.139 S 
ATOM     85  C   UNL A   1      31.353  27.618  23.344  1.00  0.00     0.012 A 
ATOM     86  C   UNL A   1      32.631  28.124  23.289  1.00  0.00     0.065 A 
ENDBRANCH  79  82
ENDBRANCH  77  78
ENDBRANCH  73  76
ENDBRANCH  70  71
ENDBRANCH  63  65
ENDBRANCH  62  63
ENDBRANCH   1  62
TORSDOF 15
ENDMDL
