MODEL 1
REMARK VINA RESULT:     -11.2      0.000      0.000
REMARK SMILES CC(C)[NH2+][C@@H](C(=O)OCCOC(=O)c1ccc(-c2c3nc(c(-c4c(F)cccc4F)c4ccc([nH]4)c(-c4c(F)cccc4F)c4nc(c(-c5c(F)cccc5F)c5ccc2[nH]5)C=C4)C=C3)cc1)c1c[nH]c2ccc(Br)cc12
REMARK SMILES IDX 9 1 8 2 6 3 7 4 5 5 4 6 2 9 1 10 3 11 68 12 69 13 77 14
REMARK SMILES IDX 70 15 71 16 76 17 72 19 74 20 73 21 75 22 10 23 11 24 12 25
REMARK SMILES IDX 13 26 14 27 15 28 67 29 16 30 66 31 17 32 18 33 19 34 60 35
REMARK SMILES IDX 20 36 65 37 59 38 61 39 21 40 64 41 58 42 57 43 22 45 48 46
REMARK SMILES IDX 31 47 47 48 32 49 35 50 46 51 62 52 33 53 34 54 45 56 63 57
REMARK SMILES IDX 36 58 23 59 24 60 29 61 25 62 26 63 28 64 30 65 27 66 49 67
REMARK SMILES IDX 50 68 55 69 51 70 52 71 54 72 56 73 53 74 37 75 38 76 43 77
REMARK SMILES IDX 39 78 40 79 42 80 44 81 41 82
REMARK H PARENT 4 7 4 8 70 18 61 44 35 55
REMARK Flexibility Score: inf
ROOT
ATOM      1  C   UNL A   1      35.441  22.203  23.997  1.00  0.00     0.274 C 
ENDROOT
BRANCH   1   2
ATOM      2  O   UNL A   1      34.171  22.861  24.230  1.00  0.00    -0.457 OA
BRANCH   2   3
ATOM      3  C   UNL A   1      33.721  23.673  23.231  1.00  0.00     0.370 C 
ATOM      4  O   UNL A   1      33.927  23.455  22.036  1.00  0.00    -0.245 OA
BRANCH   3   5
ATOM      5  C   UNL A   1      33.061  24.967  23.698  1.00  0.00     0.327 C 
BRANCH   5   6
ATOM      6  N   UNL A   1      33.708  26.214  23.199  1.00  0.00    -0.329 N 
ATOM      7  H   UNL A   1      33.923  26.789  24.013  1.00  0.00     0.347 HD
ATOM      8  H   UNL A   1      34.511  25.884  22.663  1.00  0.00     0.347 HD
BRANCH   6   9
ATOM      9  C   UNL A   1      32.966  27.049  22.261  1.00  0.00     0.177 C 
ATOM     10  C   UNL A   1      31.475  26.738  22.456  1.00  0.00     0.075 C 
ATOM     11  C   UNL A   1      33.208  28.522  22.581  1.00  0.00     0.075 C 
ENDBRANCH   6   9
ENDBRANCH   5   6
BRANCH   5  12
ATOM     12  C   UNL A   1      32.889  25.256  25.188  1.00  0.00     0.046 A 
ATOM     13  C   UNL A   1      31.991  24.514  25.957  1.00  0.00     0.094 A 
ATOM     14  C   UNL A   1      33.037  26.466  25.949  1.00  0.00     0.010 A 
ATOM     15  N   UNL A   1      31.131  25.463  26.462  1.00  0.00    -0.361 N 
ATOM     16  C   UNL A   1      31.796  26.657  26.564  1.00  0.00     0.046 A 
ATOM     17  C   UNL A   1      34.011  27.458  26.157  1.00  0.00     0.026 A 
ATOM     18  H   UNL A   1      30.191  25.309  26.710  1.00  0.00     0.166 HD
ATOM     19  C   UNL A   1      31.403  27.859  27.161  1.00  0.00     0.028 A 
ATOM     20  C   UNL A   1      33.704  28.560  26.966  1.00  0.00     0.018 A 
ATOM     21  C   UNL A   1      32.404  28.800  27.395  1.00  0.00     0.018 A 
ATOM     22  Br  UNL A   1      35.091  29.703  27.564  1.00  0.00    -0.051 Br
ENDBRANCH   5  12
ENDBRANCH   3   5
ENDBRANCH   2   3
ENDBRANCH   1   2
BRANCH   1  23
ATOM     23  C   UNL A   1      35.763  21.204  25.096  1.00  0.00     0.275 C 
BRANCH  23  24
ATOM     24  O   UNL A   1      36.726  21.805  25.968  1.00  0.00    -0.458 OA
BRANCH  24  25
ATOM     25  C   UNL A   1      38.001  21.440  25.750  1.00  0.00     0.338 C 
ATOM     26  O   UNL A   1      38.387  20.416  25.183  1.00  0.00    -0.246 OA
BRANCH  25  27
ATOM     27  C   UNL A   1      38.925  22.505  26.175  1.00  0.00     0.060 A 
ATOM     28  C   UNL A   1      40.019  22.219  27.003  1.00  0.00     0.016 A 
ATOM     29  C   UNL A   1      38.569  23.831  25.924  1.00  0.00     0.016 A 
ATOM     30  C   UNL A   1      40.702  23.248  27.642  1.00  0.00     0.010 A 
ATOM     31  C   UNL A   1      39.303  24.864  26.501  1.00  0.00     0.010 A 
ATOM     32  C   UNL A   1      40.365  24.580  27.376  1.00  0.00    -0.014 A 
BRANCH  32  33
ATOM     33  C   UNL A   1      41.169  25.699  27.912  1.00  0.00     0.031 A 
ATOM     34  C   UNL A   1      40.525  26.802  28.693  1.00  0.00     0.074 A 
ATOM     35  C   UNL A   1      42.472  25.761  27.587  1.00  0.00     0.049 A 
ATOM     36  N   UNL A   1      40.973  28.006  28.937  1.00  0.00    -0.248 NA
ATOM     37  C   UNL A   1      39.205  26.516  29.275  1.00  0.00     0.031 C 
ATOM     38  C   UNL A   1      43.218  24.718  26.879  1.00  0.00     0.029 A 
ATOM     39  N   UNL A   1      43.390  26.762  27.772  1.00  0.00    -0.354 N 
ATOM     40  C   UNL A   1      39.976  28.641  29.664  1.00  0.00     0.074 A 
ATOM     41  C   UNL A   1      38.904  27.681  29.839  1.00  0.00     0.031 C 
ATOM     42  C   UNL A   1      44.470  25.142  26.666  1.00  0.00     0.029 A 
ATOM     43  C   UNL A   1      44.583  26.515  27.142  1.00  0.00     0.049 A 
ATOM     44  H   UNL A   1      43.211  27.573  28.301  1.00  0.00     0.167 HD
ATOM     45  C   UNL A   1      39.966  29.915  30.126  1.00  0.00     0.037 A 
ATOM     46  C   UNL A   1      45.629  27.325  26.898  1.00  0.00     0.037 A 
ATOM     47  C   UNL A   1      41.057  30.843  29.958  1.00  0.00     0.049 A 
ATOM     48  C   UNL A   1      45.568  28.748  27.357  1.00  0.00     0.074 A 
ATOM     49  C   UNL A   1      41.153  32.153  30.397  1.00  0.00     0.029 A 
ATOM     50  N   UNL A   1      42.246  30.555  29.304  1.00  0.00    -0.354 N 
ATOM     51  N   UNL A   1      44.596  29.371  27.975  1.00  0.00    -0.248 NA
ATOM     52  C   UNL A   1      46.739  29.584  27.069  1.00  0.00     0.031 C 
ATOM     53  C   UNL A   1      42.389  32.665  29.984  1.00  0.00     0.029 A 
ATOM     54  C   UNL A   1      43.078  31.663  29.321  1.00  0.00     0.049 A 
ATOM     55  H   UNL A   1      42.466  29.689  28.889  1.00  0.00     0.167 HD
ATOM     56  C   UNL A   1      45.037  30.672  28.160  1.00  0.00     0.074 A 
ATOM     57  C   UNL A   1      46.373  30.743  27.598  1.00  0.00     0.031 C 
ATOM     58  C   UNL A   1      44.397  31.713  28.743  1.00  0.00     0.037 A 
BRANCH  45  59
ATOM     59  C   UNL A   1      38.732  30.402  30.826  1.00  0.00     0.057 A 
ATOM     60  C   UNL A   1      37.689  31.036  30.138  1.00  0.00     0.134 A 
ATOM     61  C   UNL A   1      38.549  30.157  32.193  1.00  0.00     0.134 A 
ATOM     62  F   UNL A   1      37.803  31.307  28.830  1.00  0.00    -0.206 F 
ATOM     63  C   UNL A   1      36.510  31.409  30.788  1.00  0.00     0.040 A 
ATOM     64  C   UNL A   1      37.368  30.509  32.849  1.00  0.00     0.040 A 
ATOM     65  F   UNL A   1      39.505  29.546  32.908  1.00  0.00    -0.206 F 
ATOM     66  C   UNL A   1      36.343  31.137  32.145  1.00  0.00     0.006 A 
ENDBRANCH  45  59
BRANCH  46  67
ATOM     67  C   UNL A   1      46.778  26.801  26.127  1.00  0.00     0.057 A 
ATOM     68  C   UNL A   1      46.915  27.074  24.763  1.00  0.00     0.134 A 
ATOM     69  C   UNL A   1      47.807  26.086  26.754  1.00  0.00     0.134 A 
ATOM     70  F   UNL A   1      45.953  27.742  24.110  1.00  0.00    -0.206 F 
ATOM     71  C   UNL A   1      48.040  26.662  24.049  1.00  0.00     0.040 A 
ATOM     72  C   UNL A   1      48.949  25.688  26.057  1.00  0.00     0.040 A 
ATOM     73  F   UNL A   1      47.736  25.805  28.064  1.00  0.00    -0.206 F 
ATOM     74  C   UNL A   1      49.066  25.979  24.700  1.00  0.00     0.006 A 
ENDBRANCH  46  67
BRANCH  58  75
ATOM     75  C   UNL A   1      45.152  33.004  28.819  1.00  0.00     0.057 A 
ATOM     76  C   UNL A   1      45.025  33.988  27.831  1.00  0.00     0.134 A 
ATOM     77  C   UNL A   1      46.017  33.261  29.890  1.00  0.00     0.134 A 
ATOM     78  F   UNL A   1      44.224  33.789  26.773  1.00  0.00    -0.206 F 
ATOM     79  C   UNL A   1      45.751  35.177  27.895  1.00  0.00     0.040 A 
ATOM     80  C   UNL A   1      46.734  34.454  29.973  1.00  0.00     0.040 A 
ATOM     81  F   UNL A   1      46.178  32.358  30.868  1.00  0.00    -0.206 F 
ATOM     82  C   UNL A   1      46.607  35.414  28.970  1.00  0.00     0.006 A 
ENDBRANCH  58  75
ENDBRANCH  32  33
ENDBRANCH  25  27
ENDBRANCH  24  25
ENDBRANCH  23  24
ENDBRANCH   1  23
TORSDOF 14
ENDMDL
MODEL 2
REMARK VINA RESULT:     -11.2      3.964      8.636
REMARK SMILES CC(C)[NH2+][C@@H](C(=O)OCCOC(=O)c1ccc(-c2c3nc(c(-c4c(F)cccc4F)c4ccc([nH]4)c(-c4c(F)cccc4F)c4nc(c(-c5c(F)cccc5F)c5ccc2[nH]5)C=C4)C=C3)cc1)c1c[nH]c2ccc(Br)cc12
REMARK SMILES IDX 9 1 8 2 6 3 7 4 5 5 4 6 2 9 1 10 3 11 68 12 69 13 77 14
REMARK SMILES IDX 70 15 71 16 76 17 72 19 74 20 73 21 75 22 10 23 11 24 12 25
REMARK SMILES IDX 13 26 14 27 15 28 67 29 16 30 66 31 17 32 18 33 19 34 60 35
REMARK SMILES IDX 20 36 65 37 59 38 61 39 21 40 64 41 58 42 57 43 22 45 48 46
REMARK SMILES IDX 31 47 47 48 32 49 35 50 46 51 62 52 33 53 34 54 45 56 63 57
REMARK SMILES IDX 36 58 23 59 24 60 29 61 25 62 26 63 28 64 30 65 27 66 49 67
REMARK SMILES IDX 50 68 55 69 51 70 52 71 54 72 56 73 53 74 37 75 38 76 43 77
REMARK SMILES IDX 39 78 40 79 42 80 44 81 41 82
REMARK H PARENT 4 7 4 8 70 18 61 44 35 55
REMARK Flexibility Score: inf
ROOT
ATOM      1  C   UNL A   1      31.917  28.328  24.834  1.00  0.00     0.274 C 
ENDROOT
BRANCH   1   2
ATOM      2  O   UNL A   1      32.381  27.313  25.757  1.00  0.00    -0.457 OA
BRANCH   2   3
ATOM      3  C   UNL A   1      31.581  26.218  25.900  1.00  0.00     0.370 C 
ATOM      4  O   UNL A   1      30.515  26.234  26.516  1.00  0.00    -0.245 OA
BRANCH   3   5
ATOM      5  C   UNL A   1      32.166  24.914  25.363  1.00  0.00     0.327 C 
BRANCH   5   6
ATOM      6  N   UNL A   1      32.528  23.915  26.408  1.00  0.00    -0.329 N 
ATOM      7  H   UNL A   1      33.518  23.699  26.289  1.00  0.00     0.347 HD
ATOM      8  H   UNL A   1      32.274  24.366  27.287  1.00  0.00     0.347 HD
BRANCH   6   9
ATOM      9  C   UNL A   1      31.807  22.648  26.431  1.00  0.00     0.177 C 
ATOM     10  C   UNL A   1      30.362  22.954  26.851  1.00  0.00     0.075 C 
ATOM     11  C   UNL A   1      31.795  22.039  25.031  1.00  0.00     0.075 C 
ENDBRANCH   6   9
ENDBRANCH   5   6
BRANCH   5  12
ATOM     12  C   UNL A   1      33.409  24.931  24.474  1.00  0.00     0.046 A 
ATOM     13  C   UNL A   1      33.289  24.963  23.085  1.00  0.00     0.094 A 
ATOM     14  C   UNL A   1      34.728  24.395  24.669  1.00  0.00     0.010 A 
ATOM     15  N   UNL A   1      33.955  23.831  22.673  1.00  0.00    -0.361 N 
ATOM     16  C   UNL A   1      34.924  23.525  23.592  1.00  0.00     0.046 A 
ATOM     17  C   UNL A   1      35.756  24.466  25.625  1.00  0.00     0.026 A 
ATOM     18  H   UNL A   1      33.765  23.324  21.850  1.00  0.00     0.166 HD
ATOM     19  C   UNL A   1      35.948  22.574  23.539  1.00  0.00     0.028 A 
ATOM     20  C   UNL A   1      36.910  23.691  25.451  1.00  0.00     0.018 A 
ATOM     21  C   UNL A   1      36.974  22.705  24.473  1.00  0.00     0.018 A 
ATOM     22  Br  UNL A   1      38.446  24.040  26.501  1.00  0.00    -0.051 Br
ENDBRANCH   5  12
ENDBRANCH   3   5
ENDBRANCH   2   3
ENDBRANCH   1   2
BRANCH   1  23
ATOM     23  C   UNL A   1      31.836  29.693  25.499  1.00  0.00     0.275 C 
BRANCH  23  24
ATOM     24  O   UNL A   1      33.151  30.046  25.942  1.00  0.00    -0.458 OA
BRANCH  24  25
ATOM     25  C   UNL A   1      33.201  31.025  26.861  1.00  0.00     0.338 C 
ATOM     26  O   UNL A   1      32.324  31.857  27.099  1.00  0.00    -0.246 OA
BRANCH  25  27
ATOM     27  C   UNL A   1      34.425  30.911  27.673  1.00  0.00     0.060 A 
ATOM     28  C   UNL A   1      35.262  32.018  27.867  1.00  0.00     0.016 A 
ATOM     29  C   UNL A   1      34.852  29.638  28.055  1.00  0.00     0.016 A 
ATOM     30  C   UNL A   1      36.549  31.844  28.366  1.00  0.00     0.010 A 
ATOM     31  C   UNL A   1      36.110  29.476  28.628  1.00  0.00     0.010 A 
ATOM     32  C   UNL A   1      36.974  30.574  28.773  1.00  0.00    -0.014 A 
BRANCH  32  33
ATOM     33  C   UNL A   1      38.272  30.379  29.452  1.00  0.00     0.031 A 
ATOM     34  C   UNL A   1      39.294  29.435  28.898  1.00  0.00     0.074 A 
ATOM     35  C   UNL A   1      38.470  30.982  30.638  1.00  0.00     0.049 A 
ATOM     36  N   UNL A   1      40.309  28.875  29.504  1.00  0.00    -0.248 NA
ATOM     37  C   UNL A   1      39.158  29.072  27.480  1.00  0.00     0.031 C 
ATOM     38  C   UNL A   1      37.570  31.964  31.247  1.00  0.00     0.029 A 
ATOM     39  N   UNL A   1      39.471  30.827  31.561  1.00  0.00    -0.354 N 
ATOM     40  C   UNL A   1      40.911  28.058  28.557  1.00  0.00     0.074 A 
ATOM     41  C   UNL A   1      40.159  28.211  27.328  1.00  0.00     0.031 C 
ATOM     42  C   UNL A   1      38.043  32.304  32.452  1.00  0.00     0.029 A 
ATOM     43  C   UNL A   1      39.226  31.499  32.732  1.00  0.00     0.049 A 
ATOM     44  H   UNL A   1      40.280  30.289  31.401  1.00  0.00     0.167 HD
ATOM     45  C   UNL A   1      41.987  27.251  28.718  1.00  0.00     0.037 A 
ATOM     46  C   UNL A   1      39.832  31.420  33.930  1.00  0.00     0.037 A 
ATOM     47  C   UNL A   1      42.733  27.136  29.947  1.00  0.00     0.049 A 
ATOM     48  C   UNL A   1      40.975  30.471  34.105  1.00  0.00     0.074 A 
ATOM     49  C   UNL A   1      43.846  26.355  30.213  1.00  0.00     0.029 A 
ATOM     50  N   UNL A   1      42.445  27.828  31.114  1.00  0.00    -0.354 N 
ATOM     51  N   UNL A   1      41.496  29.643  33.234  1.00  0.00    -0.248 NA
ATOM     52  C   UNL A   1      41.602  30.432  35.431  1.00  0.00     0.031 C 
ATOM     53  C   UNL A   1      44.213  26.555  31.549  1.00  0.00     0.029 A 
ATOM     54  C   UNL A   1      43.353  27.488  32.105  1.00  0.00     0.049 A 
ATOM     55  H   UNL A   1      41.704  28.467  31.222  1.00  0.00     0.167 HD
ATOM     56  C   UNL A   1      42.519  28.987  33.900  1.00  0.00     0.074 A 
ATOM     57  C   UNL A   1      42.552  29.526  35.247  1.00  0.00     0.031 C 
ATOM     58  C   UNL A   1      43.357  28.027  33.440  1.00  0.00     0.037 A 
BRANCH  45  59
ATOM     59  C   UNL A   1      42.410  26.398  27.558  1.00  0.00     0.057 A 
ATOM     60  C   UNL A   1      41.986  25.071  27.419  1.00  0.00     0.134 A 
ATOM     61  C   UNL A   1      43.183  26.942  26.524  1.00  0.00     0.134 A 
ATOM     62  F   UNL A   1      41.251  24.487  28.376  1.00  0.00    -0.206 F 
ATOM     63  C   UNL A   1      42.319  24.315  26.292  1.00  0.00     0.040 A 
ATOM     64  C   UNL A   1      43.506  26.203  25.385  1.00  0.00     0.040 A 
ATOM     65  F   UNL A   1      43.613  28.210  26.591  1.00  0.00    -0.206 F 
ATOM     66  C   UNL A   1      43.073  24.884  25.266  1.00  0.00     0.006 A 
ENDBRANCH  45  59
BRANCH  46  67
ATOM     67  C   UNL A   1      39.308  32.228  35.054  1.00  0.00     0.057 A 
ATOM     68  C   UNL A   1      39.681  33.565  35.213  1.00  0.00     0.134 A 
ATOM     69  C   UNL A   1      38.360  31.705  35.944  1.00  0.00     0.134 A 
ATOM     70  F   UNL A   1      40.594  34.112  34.400  1.00  0.00    -0.206 F 
ATOM     71  C   UNL A   1      39.123  34.360  36.215  1.00  0.00     0.040 A 
ATOM     72  C   UNL A   1      37.777  32.495  36.935  1.00  0.00     0.040 A 
ATOM     73  F   UNL A   1      37.955  30.431  35.832  1.00  0.00    -0.206 F 
ATOM     74  C   UNL A   1      38.158  33.828  37.070  1.00  0.00     0.006 A 
ENDBRANCH  46  67
BRANCH  58  75
ATOM     75  C   UNL A   1      44.389  27.525  34.401  1.00  0.00     0.057 A 
ATOM     76  C   UNL A   1      45.630  28.159  34.543  1.00  0.00     0.134 A 
ATOM     77  C   UNL A   1      44.138  26.396  35.190  1.00  0.00     0.134 A 
ATOM     78  F   UNL A   1      45.933  29.234  33.800  1.00  0.00    -0.206 F 
ATOM     79  C   UNL A   1      46.597  27.670  35.422  1.00  0.00     0.040 A 
ATOM     80  C   UNL A   1      45.091  25.910  36.086  1.00  0.00     0.040 A 
ATOM     81  F   UNL A   1      42.967  25.749  35.101  1.00  0.00    -0.206 F 
ATOM     82  C   UNL A   1      46.327  26.544  36.198  1.00  0.00     0.006 A 
ENDBRANCH  58  75
ENDBRANCH  32  33
ENDBRANCH  25  27
ENDBRANCH  24  25
ENDBRANCH  23  24
ENDBRANCH   1  23
TORSDOF 14
ENDMDL
MODEL 3
REMARK VINA RESULT:     -11.1      3.975      8.521
REMARK SMILES CC(C)[NH2+][C@@H](C(=O)OCCOC(=O)c1ccc(-c2c3nc(c(-c4c(F)cccc4F)c4ccc([nH]4)c(-c4c(F)cccc4F)c4nc(c(-c5c(F)cccc5F)c5ccc2[nH]5)C=C4)C=C3)cc1)c1c[nH]c2ccc(Br)cc12
REMARK SMILES IDX 9 1 8 2 6 3 7 4 5 5 4 6 2 9 1 10 3 11 68 12 69 13 77 14
REMARK SMILES IDX 70 15 71 16 76 17 72 19 74 20 73 21 75 22 10 23 11 24 12 25
REMARK SMILES IDX 13 26 14 27 15 28 67 29 16 30 66 31 17 32 18 33 19 34 60 35
REMARK SMILES IDX 20 36 65 37 59 38 61 39 21 40 64 41 58 42 57 43 22 45 48 46
REMARK SMILES IDX 31 47 47 48 32 49 35 50 46 51 62 52 33 53 34 54 45 56 63 57
REMARK SMILES IDX 36 58 23 59 24 60 29 61 25 62 26 63 28 64 30 65 27 66 49 67
REMARK SMILES IDX 50 68 55 69 51 70 52 71 54 72 56 73 53 74 37 75 38 76 43 77
REMARK SMILES IDX 39 78 40 79 42 80 44 81 41 82
REMARK H PARENT 4 7 4 8 70 18 61 44 35 55
REMARK Flexibility Score: inf
ROOT
ATOM      1  C   UNL A   1      31.768  28.052  26.817  1.00  0.00     0.274 C 
ENDROOT
BRANCH   1   2
ATOM      2  O   UNL A   1      32.565  26.954  26.311  1.00  0.00    -0.457 OA
BRANCH   2   3
ATOM      3  C   UNL A   1      31.896  25.795  26.049  1.00  0.00     0.370 C 
ATOM      4  O   UNL A   1      31.186  25.221  26.877  1.00  0.00    -0.245 OA
BRANCH   3   5
ATOM      5  C   UNL A   1      32.199  25.164  24.693  1.00  0.00     0.327 C 
BRANCH   5   6
ATOM      6  N   UNL A   1      33.650  25.000  24.391  1.00  0.00    -0.329 N 
ATOM      7  H   UNL A   1      33.776  25.198  23.398  1.00  0.00     0.347 HD
ATOM      8  H   UNL A   1      34.116  25.640  25.035  1.00  0.00     0.347 HD
BRANCH   6   9
ATOM      9  C   UNL A   1      34.268  23.707  24.658  1.00  0.00     0.177 C 
ATOM     10  C   UNL A   1      35.048  23.306  23.396  1.00  0.00     0.075 C 
ATOM     11  C   UNL A   1      35.247  23.834  25.822  1.00  0.00     0.075 C 
ENDBRANCH   6   9
ENDBRANCH   5   6
BRANCH   5  12
ATOM     12  C   UNL A   1      31.661  25.794  23.409  1.00  0.00     0.046 A 
ATOM     13  C   UNL A   1      32.457  25.866  22.266  1.00  0.00     0.094 A 
ATOM     14  C   UNL A   1      30.690  26.830  23.189  1.00  0.00     0.010 A 
ATOM     15  N   UNL A   1      32.511  27.214  21.989  1.00  0.00    -0.361 N 
ATOM     16  C   UNL A   1      31.371  27.811  22.461  1.00  0.00     0.046 A 
ATOM     17  C   UNL A   1      29.361  27.112  23.550  1.00  0.00     0.026 A 
ATOM     18  H   UNL A   1      33.248  27.674  21.526  1.00  0.00     0.166 HD
ATOM     19  C   UNL A   1      30.896  29.114  22.283  1.00  0.00     0.028 A 
ATOM     20  C   UNL A   1      28.788  28.330  23.159  1.00  0.00     0.018 A 
ATOM     21  C   UNL A   1      29.561  29.345  22.608  1.00  0.00     0.018 A 
ATOM     22  Br  UNL A   1      26.916  28.577  23.300  1.00  0.00    -0.051 Br
ENDBRANCH   5  12
ENDBRANCH   3   5
ENDBRANCH   2   3
ENDBRANCH   1   2
BRANCH   1  23
ATOM     23  C   UNL A   1      31.775  29.235  25.861  1.00  0.00     0.275 C 
BRANCH  23  24
ATOM     24  O   UNL A   1      33.060  29.862  25.947  1.00  0.00    -0.458 OA
BRANCH  24  25
ATOM     25  C   UNL A   1      33.142  30.877  26.825  1.00  0.00     0.338 C 
ATOM     26  O   UNL A   1      32.289  31.742  27.033  1.00  0.00    -0.246 OA
BRANCH  25  27
ATOM     27  C   UNL A   1      34.369  30.765  27.632  1.00  0.00     0.060 A 
ATOM     28  C   UNL A   1      35.131  31.899  27.939  1.00  0.00     0.016 A 
ATOM     29  C   UNL A   1      34.876  29.491  27.895  1.00  0.00     0.016 A 
ATOM     30  C   UNL A   1      36.426  31.761  28.430  1.00  0.00     0.010 A 
ATOM     31  C   UNL A   1      36.141  29.355  28.461  1.00  0.00     0.010 A 
ATOM     32  C   UNL A   1      36.931  30.488  28.719  1.00  0.00    -0.014 A 
BRANCH  32  33
ATOM     33  C   UNL A   1      38.237  30.312  29.387  1.00  0.00     0.031 A 
ATOM     34  C   UNL A   1      39.268  29.383  28.826  1.00  0.00     0.074 A 
ATOM     35  C   UNL A   1      38.436  30.920  30.571  1.00  0.00     0.049 A 
ATOM     36  N   UNL A   1      40.296  28.838  29.424  1.00  0.00    -0.248 NA
ATOM     37  C   UNL A   1      39.126  29.016  27.409  1.00  0.00     0.031 C 
ATOM     38  C   UNL A   1      37.526  31.889  31.186  1.00  0.00     0.029 A 
ATOM     39  N   UNL A   1      39.445  30.780  31.487  1.00  0.00    -0.354 N 
ATOM     40  C   UNL A   1      40.902  28.029  28.474  1.00  0.00     0.074 A 
ATOM     41  C   UNL A   1      40.138  28.169  27.250  1.00  0.00     0.031 C 
ATOM     42  C   UNL A   1      38.004  32.238  32.387  1.00  0.00     0.029 A 
ATOM     43  C   UNL A   1      39.200  31.450  32.658  1.00  0.00     0.049 A 
ATOM     44  H   UNL A   1      40.261  30.254  31.321  1.00  0.00     0.167 HD
ATOM     45  C   UNL A   1      41.991  27.237  28.626  1.00  0.00     0.037 A 
ATOM     46  C   UNL A   1      39.816  31.381  33.852  1.00  0.00     0.037 A 
ATOM     47  C   UNL A   1      42.748  27.135  29.850  1.00  0.00     0.049 A 
ATOM     48  C   UNL A   1      40.975  30.448  34.019  1.00  0.00     0.074 A 
ATOM     49  C   UNL A   1      43.874  26.370  30.108  1.00  0.00     0.029 A 
ATOM     50  N   UNL A   1      42.459  27.824  31.019  1.00  0.00    -0.354 N 
ATOM     51  N   UNL A   1      41.501  29.627  33.144  1.00  0.00    -0.248 NA
ATOM     52  C   UNL A   1      41.613  30.420  35.339  1.00  0.00     0.031 C 
ATOM     53  C   UNL A   1      44.249  26.577  31.441  1.00  0.00     0.029 A 
ATOM     54  C   UNL A   1      43.380  27.498  32.002  1.00  0.00     0.049 A 
ATOM     55  H   UNL A   1      41.710  28.452  31.132  1.00  0.00     0.167 HD
ATOM     56  C   UNL A   1      42.539  28.987  33.803  1.00  0.00     0.074 A 
ATOM     57  C   UNL A   1      42.574  29.527  35.149  1.00  0.00     0.031 C 
ATOM     58  C   UNL A   1      43.386  28.039  33.337  1.00  0.00     0.037 A 
BRANCH  45  59
ATOM     59  C   UNL A   1      42.417  26.390  27.465  1.00  0.00     0.057 A 
ATOM     60  C   UNL A   1      43.330  26.848  26.507  1.00  0.00     0.134 A 
ATOM     61  C   UNL A   1      41.972  25.066  27.353  1.00  0.00     0.134 A 
ATOM     62  F   UNL A   1      43.789  28.107  26.551  1.00  0.00    -0.206 F 
ATOM     63  C   UNL A   1      43.782  26.019  25.477  1.00  0.00     0.040 A 
ATOM     64  C   UNL A   1      42.431  24.223  26.339  1.00  0.00     0.040 A 
ATOM     65  F   UNL A   1      41.105  24.562  28.243  1.00  0.00    -0.206 F 
ATOM     66  C   UNL A   1      43.341  24.699  25.397  1.00  0.00     0.006 A 
ENDBRANCH  45  59
BRANCH  46  67
ATOM     67  C   UNL A   1      39.290  32.182  34.979  1.00  0.00     0.057 A 
ATOM     68  C   UNL A   1      39.621  33.532  35.118  1.00  0.00     0.134 A 
ATOM     69  C   UNL A   1      38.379  31.637  35.894  1.00  0.00     0.134 A 
ATOM     70  F   UNL A   1      40.499  34.101  34.280  1.00  0.00    -0.206 F 
ATOM     71  C   UNL A   1      39.058  34.319  36.123  1.00  0.00     0.040 A 
ATOM     72  C   UNL A   1      37.791  32.418  36.890  1.00  0.00     0.040 A 
ATOM     73  F   UNL A   1      38.015  30.350  35.802  1.00  0.00    -0.206 F 
ATOM     74  C   UNL A   1      38.131  33.764  37.004  1.00  0.00     0.006 A 
ENDBRANCH  46  67
BRANCH  58  75
ATOM     75  C   UNL A   1      44.434  27.553  34.291  1.00  0.00     0.057 A 
ATOM     76  C   UNL A   1      45.667  28.202  34.419  1.00  0.00     0.134 A 
ATOM     77  C   UNL A   1      44.204  26.424  35.086  1.00  0.00     0.134 A 
ATOM     78  F   UNL A   1      45.950  29.279  33.671  1.00  0.00    -0.206 F 
ATOM     79  C   UNL A   1      46.648  27.729  35.291  1.00  0.00     0.040 A 
ATOM     80  C   UNL A   1      45.170  25.952  35.974  1.00  0.00     0.040 A 
ATOM     81  F   UNL A   1      43.040  25.761  35.009  1.00  0.00    -0.206 F 
ATOM     82  C   UNL A   1      46.399  26.602  36.074  1.00  0.00     0.006 A 
ENDBRANCH  58  75
ENDBRANCH  32  33
ENDBRANCH  25  27
ENDBRANCH  24  25
ENDBRANCH  23  24
ENDBRANCH   1  23
TORSDOF 14
ENDMDL
