MODEL 1
REMARK VINA RESULT:     -11.8      0.000      0.000
REMARK SMILES CCc1ccc2c(CC(=O)OCCOC(=O)c3ccc(-c4c5nc(c(-c6c(F)cccc6F)c6ccc([nH]6)c(-c6c(F)cccc6F)c6nc(c(-c7c(F)cccc7F)c7ccc4[nH]7)C=C6)C=C5)cc3)c(C(=O)c3cc(C)ccn3)[nH]c2c1
REMARK SMILES IDX 12 1 11 2 9 3 10 4 8 5 7 6 3 7 4 8 83 9 5 10 82 11 6 12
REMARK SMILES IDX 81 13 71 14 2 16 1 17 72 18 73 19 74 20 75 21 80 22 76 23
REMARK SMILES IDX 79 24 77 25 78 26 13 27 14 28 15 29 16 30 17 31 18 32 70 33
REMARK SMILES IDX 19 34 69 35 20 36 21 37 22 38 63 39 23 40 68 41 62 42 64 43
REMARK SMILES IDX 24 44 67 45 61 46 60 47 25 49 51 50 34 51 50 52 35 53 38 54
REMARK SMILES IDX 49 55 65 56 36 57 37 58 48 60 66 61 39 62 26 63 27 64 32 65
REMARK SMILES IDX 28 66 29 67 31 68 33 69 30 70 52 71 53 72 58 73 54 74 55 75
REMARK SMILES IDX 57 76 59 77 56 78 40 79 41 80 46 81 42 82 43 83 45 84 47 85
REMARK SMILES IDX 44 86
REMARK H PARENT 81 15 64 48 38 59
REMARK Flexibility Score: inf
ROOT
ATOM      1  C   UNL A   1      32.011  27.898  25.932  1.00  0.00     0.274 C 
ENDROOT
BRANCH   1   2
ATOM      2  O   UNL A   1      33.256  27.286  25.539  1.00  0.00    -0.462 OA
BRANCH   2   3
ATOM      3  C   UNL A   1      33.328  25.939  25.710  1.00  0.00     0.310 C 
ATOM      4  O   UNL A   1      32.614  25.305  26.486  1.00  0.00    -0.252 OA
BRANCH   3   5
ATOM      5  C   UNL A   1      34.337  25.237  24.831  1.00  0.00     0.161 C 
BRANCH   5   6
ATOM      6  C   UNL A   1      33.813  24.203  23.881  1.00  0.00     0.000 A 
ATOM      7  C   UNL A   1      32.904  20.107  24.291  1.00  0.00    -0.046 A 
ATOM      8  C   UNL A   1      33.618  20.689  25.349  1.00  0.00     0.004 A 
ATOM      9  C   UNL A   1      32.665  20.854  23.127  1.00  0.00     0.030 A 
ATOM     10  C   UNL A   1      34.050  22.020  25.298  1.00  0.00     0.011 A 
ATOM     11  C   UNL A   1      33.075  22.194  23.110  1.00  0.00     0.046 A 
ATOM     12  C   UNL A   1      33.723  22.803  24.176  1.00  0.00     0.004 A 
ATOM     13  N   UNL A   1      32.917  23.153  22.140  1.00  0.00    -0.352 N 
ATOM     14  C   UNL A   1      33.145  24.405  22.672  1.00  0.00     0.093 A 
ATOM     15  H   UNL A   1      32.676  22.974  21.202  1.00  0.00     0.167 HD
BRANCH   7  16
ATOM     16  C   UNL A   1      32.353  18.713  24.499  1.00  0.00     0.032 C 
ATOM     17  C   UNL A   1      32.823  17.968  25.741  1.00  0.00     0.009 C 
ENDBRANCH   7  16
BRANCH  14  18
ATOM     18  C   UNL A   1      32.647  25.637  22.078  1.00  0.00     0.227 C 
ATOM     19  O   UNL A   1      33.278  26.290  21.251  1.00  0.00    -0.285 OA
BRANCH  18  20
ATOM     20  C   UNL A   1      31.390  26.223  22.604  1.00  0.00     0.113 A 
ATOM     21  C   UNL A   1      31.031  27.514  22.231  1.00  0.00     0.036 A 
ATOM     22  N   UNL A   1      30.673  25.450  23.450  1.00  0.00    -0.253 NA
ATOM     23  C   UNL A   1      29.847  28.044  22.751  1.00  0.00    -0.047 A 
ATOM     24  C   UNL A   1      29.498  25.954  23.875  1.00  0.00     0.112 A 
ATOM     25  C   UNL A   1      29.423  29.450  22.451  1.00  0.00     0.044 C 
ATOM     26  C   UNL A   1      29.052  27.230  23.564  1.00  0.00     0.023 A 
ENDBRANCH  18  20
ENDBRANCH  14  18
ENDBRANCH   5   6
ENDBRANCH   3   5
ENDBRANCH   2   3
ENDBRANCH   1   2
BRANCH   1  27
ATOM     27  C   UNL A   1      31.903  29.310  25.362  1.00  0.00     0.275 C 
BRANCH  27  28
ATOM     28  O   UNL A   1      33.123  30.027  25.615  1.00  0.00    -0.458 OA
BRANCH  28  29
ATOM     29  C   UNL A   1      33.077  30.891  26.655  1.00  0.00     0.338 C 
ATOM     30  O   UNL A   1      32.204  31.717  26.884  1.00  0.00    -0.246 OA
BRANCH  29  31
ATOM     31  C   UNL A   1      34.289  30.764  27.484  1.00  0.00     0.060 A 
ATOM     32  C   UNL A   1      35.145  31.844  27.700  1.00  0.00     0.016 A 
ATOM     33  C   UNL A   1      34.620  29.501  27.980  1.00  0.00     0.016 A 
ATOM     34  C   UNL A   1      36.371  31.644  28.337  1.00  0.00     0.010 A 
ATOM     35  C   UNL A   1      35.799  29.326  28.705  1.00  0.00     0.010 A 
ATOM     36  C   UNL A   1      36.701  30.389  28.869  1.00  0.00    -0.014 A 
BRANCH  36  37
ATOM     37  C   UNL A   1      37.967  30.184  29.622  1.00  0.00     0.031 A 
ATOM     38  C   UNL A   1      39.078  29.350  29.044  1.00  0.00     0.074 A 
ATOM     39  C   UNL A   1      38.104  30.712  30.853  1.00  0.00     0.049 A 
ATOM     40  N   UNL A   1      40.155  28.888  29.630  1.00  0.00    -0.248 NA
ATOM     41  C   UNL A   1      38.957  28.972  27.627  1.00  0.00     0.031 C 
ATOM     42  C   UNL A   1      37.117  31.560  31.526  1.00  0.00     0.029 A 
ATOM     43  N   UNL A   1      39.125  30.607  31.764  1.00  0.00    -0.354 N 
ATOM     44  C   UNL A   1      40.814  28.128  28.672  1.00  0.00     0.074 A 
ATOM     45  C   UNL A   1      40.016  28.191  27.464  1.00  0.00     0.031 C 
ATOM     46  C   UNL A   1      37.589  31.916  32.729  1.00  0.00     0.029 A 
ATOM     47  C   UNL A   1      38.873  31.260  32.945  1.00  0.00     0.049 A 
ATOM     48  H   UNL A   1      39.958  30.112  31.587  1.00  0.00     0.167 HD
ATOM     49  C   UNL A   1      41.977  27.443  28.791  1.00  0.00     0.037 A 
ATOM     50  C   UNL A   1      39.571  31.294  34.095  1.00  0.00     0.037 A 
ATOM     51  C   UNL A   1      42.794  27.422  29.978  1.00  0.00     0.049 A 
ATOM     52  C   UNL A   1      40.844  30.512  34.209  1.00  0.00     0.074 A 
ATOM     53  C   UNL A   1      44.002  26.777  30.184  1.00  0.00     0.029 A 
ATOM     54  N   UNL A   1      42.494  28.091  31.156  1.00  0.00    -0.354 N 
ATOM     55  N   UNL A   1      41.433  29.760  33.312  1.00  0.00    -0.248 NA
ATOM     56  C   UNL A   1      41.539  30.567  35.502  1.00  0.00     0.031 C 
ATOM     57  C   UNL A   1      44.420  27.033  31.496  1.00  0.00     0.029 A 
ATOM     58  C   UNL A   1      43.489  27.864  32.095  1.00  0.00     0.049 A 
ATOM     59  H   UNL A   1      41.693  28.644  31.304  1.00  0.00     0.167 HD
ATOM     60  C   UNL A   1      42.568  29.256  33.928  1.00  0.00     0.074 A 
ATOM     61  C   UNL A   1      42.597  29.801  35.270  1.00  0.00     0.031 C 
ATOM     62  C   UNL A   1      43.500  28.410  33.427  1.00  0.00     0.037 A 
BRANCH  49  63
ATOM     63  C   UNL A   1      42.433  26.634  27.615  1.00  0.00     0.057 A 
ATOM     64  C   UNL A   1      42.046  25.301  27.436  1.00  0.00     0.134 A 
ATOM     65  C   UNL A   1      43.221  27.219  26.614  1.00  0.00     0.134 A 
ATOM     66  F   UNL A   1      41.300  24.679  28.362  1.00  0.00    -0.206 F 
ATOM     67  C   UNL A   1      42.438  24.573  26.310  1.00  0.00     0.040 A 
ATOM     68  C   UNL A   1      43.603  26.507  25.476  1.00  0.00     0.040 A 
ATOM     69  F   UNL A   1      43.619  28.495  26.720  1.00  0.00    -0.206 F 
ATOM     70  C   UNL A   1      43.212  25.179  25.323  1.00  0.00     0.006 A 
ENDBRANCH  49  63
BRANCH  50  71
ATOM     71  C   UNL A   1      39.049  32.075  35.242  1.00  0.00     0.057 A 
ATOM     72  C   UNL A   1      39.249  33.456  35.324  1.00  0.00     0.134 A 
ATOM     73  C   UNL A   1      38.315  31.462  36.265  1.00  0.00     0.134 A 
ATOM     74  F   UNL A   1      39.963  34.092  34.383  1.00  0.00    -0.206 F 
ATOM     75  C   UNL A   1      38.737  34.204  36.385  1.00  0.00     0.040 A 
ATOM     76  C   UNL A   1      37.778  32.200  37.319  1.00  0.00     0.040 A 
ATOM     77  F   UNL A   1      38.088  30.140  36.238  1.00  0.00    -0.206 F 
ATOM     78  C   UNL A   1      37.992  33.576  37.382  1.00  0.00     0.006 A 
ENDBRANCH  50  71
BRANCH  62  79
ATOM     79  C   UNL A   1      44.633  28.040  34.333  1.00  0.00     0.057 A 
ATOM     80  C   UNL A   1      44.574  26.909  35.156  1.00  0.00     0.134 A 
ATOM     81  C   UNL A   1      45.797  28.816  34.375  1.00  0.00     0.134 A 
ATOM     82  F   UNL A   1      43.478  26.135  35.172  1.00  0.00    -0.206 F 
ATOM     83  C   UNL A   1      45.630  26.571  36.004  1.00  0.00     0.040 A 
ATOM     84  C   UNL A   1      46.866  28.479  35.206  1.00  0.00     0.040 A 
ATOM     85  F   UNL A   1      45.915  29.910  33.608  1.00  0.00    -0.206 F 
ATOM     86  C   UNL A   1      46.782  27.356  36.027  1.00  0.00     0.006 A 
ENDBRANCH  62  79
ENDBRANCH  36  37
ENDBRANCH  29  31
ENDBRANCH  28  29
ENDBRANCH  27  28
ENDBRANCH   1  27
TORSDOF 15
ENDMDL
MODEL 2
REMARK VINA RESULT:     -11.8      3.704      8.124
REMARK SMILES CCc1ccc2c(CC(=O)OCCOC(=O)c3ccc(-c4c5nc(c(-c6c(F)cccc6F)c6ccc([nH]6)c(-c6c(F)cccc6F)c6nc(c(-c7c(F)cccc7F)c7ccc4[nH]7)C=C6)C=C5)cc3)c(C(=O)c3cc(C)ccn3)[nH]c2c1
REMARK SMILES IDX 12 1 11 2 9 3 10 4 8 5 7 6 3 7 4 8 83 9 5 10 82 11 6 12
REMARK SMILES IDX 81 13 71 14 2 16 1 17 72 18 73 19 74 20 75 21 80 22 76 23
REMARK SMILES IDX 79 24 77 25 78 26 13 27 14 28 15 29 16 30 17 31 18 32 70 33
REMARK SMILES IDX 19 34 69 35 20 36 21 37 22 38 63 39 23 40 68 41 62 42 64 43
REMARK SMILES IDX 24 44 67 45 61 46 60 47 25 49 51 50 34 51 50 52 35 53 38 54
REMARK SMILES IDX 49 55 65 56 36 57 37 58 48 60 66 61 39 62 26 63 27 64 32 65
REMARK SMILES IDX 28 66 29 67 31 68 33 69 30 70 52 71 53 72 58 73 54 74 55 75
REMARK SMILES IDX 57 76 59 77 56 78 40 79 41 80 46 81 42 82 43 83 45 84 47 85
REMARK SMILES IDX 44 86
REMARK H PARENT 81 15 64 48 38 59
REMARK Flexibility Score: inf
ROOT
ATOM      1  C   UNL A   1      36.128  22.812  23.671  1.00  0.00     0.274 C 
ENDROOT
BRANCH   1   2
ATOM      2  O   UNL A   1      35.116  22.726  22.647  1.00  0.00    -0.462 OA
BRANCH   2   3
ATOM      3  C   UNL A   1      34.017  23.504  22.841  1.00  0.00     0.310 C 
ATOM      4  O   UNL A   1      34.027  24.733  22.800  1.00  0.00    -0.252 OA
BRANCH   3   5
ATOM      5  C   UNL A   1      32.731  22.743  23.074  1.00  0.00     0.161 C 
BRANCH   5   6
ATOM      6  C   UNL A   1      32.702  21.788  24.227  1.00  0.00     0.000 A 
ATOM      7  C   UNL A   1      32.884  17.584  24.496  1.00  0.00    -0.046 A 
ATOM      8  C   UNL A   1      32.686  18.113  23.211  1.00  0.00     0.004 A 
ATOM      9  C   UNL A   1      32.865  18.445  25.605  1.00  0.00     0.030 A 
ATOM     10  C   UNL A   1      32.528  19.488  22.999  1.00  0.00     0.011 A 
ATOM     11  C   UNL A   1      32.740  19.820  25.369  1.00  0.00     0.046 A 
ATOM     12  C   UNL A   1      32.612  20.363  24.098  1.00  0.00     0.004 A 
ATOM     13  N   UNL A   1      32.752  20.872  26.251  1.00  0.00    -0.352 N 
ATOM     14  C   UNL A   1      32.960  22.055  25.574  1.00  0.00     0.093 A 
ATOM     15  H   UNL A   1      32.631  20.794  27.225  1.00  0.00     0.167 HD
BRANCH   7  16
ATOM     16  C   UNL A   1      33.192  16.107  24.608  1.00  0.00     0.032 C 
ATOM     17  C   UNL A   1      32.528  15.354  25.752  1.00  0.00     0.009 C 
ENDBRANCH   7  16
BRANCH  14  18
ATOM     18  C   UNL A   1      33.462  23.268  26.202  1.00  0.00     0.227 C 
ATOM     19  O   UNL A   1      34.488  23.304  26.876  1.00  0.00    -0.285 OA
BRANCH  18  20
ATOM     20  C   UNL A   1      32.621  24.490  26.162  1.00  0.00     0.113 A 
ATOM     21  C   UNL A   1      33.232  25.737  26.084  1.00  0.00     0.036 A 
ATOM     22  N   UNL A   1      31.283  24.303  26.228  1.00  0.00    -0.253 NA
ATOM     23  C   UNL A   1      32.415  26.870  26.059  1.00  0.00    -0.047 A 
ATOM     24  C   UNL A   1      30.516  25.406  26.124  1.00  0.00     0.112 A 
ATOM     25  C   UNL A   1      32.996  28.252  26.043  1.00  0.00     0.044 C 
ATOM     26  C   UNL A   1      31.028  26.693  26.047  1.00  0.00     0.023 A 
ENDBRANCH  18  20
ENDBRANCH  14  18
ENDBRANCH   5   6
ENDBRANCH   3   5
ENDBRANCH   2   3
ENDBRANCH   1   2
BRANCH   1  27
ATOM     27  C   UNL A   1      36.375  21.442  24.298  1.00  0.00     0.275 C 
BRANCH  27  28
ATOM     28  O   UNL A   1      36.903  21.607  25.624  1.00  0.00    -0.458 OA
BRANCH  28  29
ATOM     29  C   UNL A   1      38.226  21.356  25.751  1.00  0.00     0.338 C 
ATOM     30  O   UNL A   1      38.797  20.298  25.520  1.00  0.00    -0.246 OA
BRANCH  29  31
ATOM     31  C   UNL A   1      38.926  22.537  26.289  1.00  0.00     0.060 A 
ATOM     32  C   UNL A   1      38.420  23.826  26.123  1.00  0.00     0.016 A 
ATOM     33  C   UNL A   1      40.169  22.347  26.896  1.00  0.00     0.016 A 
ATOM     34  C   UNL A   1      39.195  24.930  26.484  1.00  0.00     0.010 A 
ATOM     35  C   UNL A   1      40.896  23.448  27.351  1.00  0.00     0.010 A 
ATOM     36  C   UNL A   1      40.430  24.753  27.126  1.00  0.00    -0.014 A 
BRANCH  36  37
ATOM     37  C   UNL A   1      41.227  25.919  27.592  1.00  0.00     0.031 A 
ATOM     38  C   UNL A   1      40.602  26.982  28.455  1.00  0.00     0.074 A 
ATOM     39  C   UNL A   1      42.509  26.049  27.200  1.00  0.00     0.049 A 
ATOM     40  N   UNL A   1      41.069  28.163  28.778  1.00  0.00    -0.248 NA
ATOM     41  C   UNL A   1      39.274  26.688  29.013  1.00  0.00     0.031 C 
ATOM     42  C   UNL A   1      43.248  25.084  26.384  1.00  0.00     0.029 A 
ATOM     43  N   UNL A   1      43.417  27.052  27.429  1.00  0.00    -0.354 N 
ATOM     44  C   UNL A   1      40.076  28.770  29.537  1.00  0.00     0.074 A 
ATOM     45  C   UNL A   1      38.979  27.827  29.626  1.00  0.00     0.031 C 
ATOM     46  C   UNL A   1      44.499  25.529  26.200  1.00  0.00     0.029 A 
ATOM     47  C   UNL A   1      44.628  26.843  26.816  1.00  0.00     0.049 A 
ATOM     48  H   UNL A   1      43.220  27.845  27.980  1.00  0.00     0.167 HD
ATOM     49  C   UNL A   1      40.081  30.000  30.105  1.00  0.00     0.037 A 
ATOM     50  C   UNL A   1      45.710  27.637  26.718  1.00  0.00     0.037 A 
ATOM     51  C   UNL A   1      41.191  30.917  30.057  1.00  0.00     0.049 A 
ATOM     52  C   UNL A   1      45.684  29.001  27.338  1.00  0.00     0.074 A 
ATOM     53  C   UNL A   1      41.298  32.175  30.626  1.00  0.00     0.029 A 
ATOM     54  N   UNL A   1      42.396  30.667  29.416  1.00  0.00    -0.354 N 
ATOM     55  N   UNL A   1      44.722  29.581  28.013  1.00  0.00    -0.248 NA
ATOM     56  C   UNL A   1      46.886  29.828  27.165  1.00  0.00     0.031 C 
ATOM     57  C   UNL A   1      42.557  32.697  30.305  1.00  0.00     0.029 A 
ATOM     58  C   UNL A   1      43.245  31.752  29.565  1.00  0.00     0.049 A 
ATOM     59  H   UNL A   1      42.614  29.841  28.926  1.00  0.00     0.167 HD
ATOM     60  C   UNL A   1      45.202  30.838  28.349  1.00  0.00     0.074 A 
ATOM     61  C   UNL A   1      46.549  30.930  27.821  1.00  0.00     0.031 C 
ATOM     62  C   UNL A   1      44.579  31.830  29.030  1.00  0.00     0.037 A 
BRANCH  49  63
ATOM     63  C   UNL A   1      38.837  30.445  30.814  1.00  0.00     0.057 A 
ATOM     64  C   UNL A   1      37.809  31.127  30.152  1.00  0.00     0.134 A 
ATOM     65  C   UNL A   1      38.640  30.131  32.166  1.00  0.00     0.134 A 
ATOM     66  F   UNL A   1      37.940  31.466  28.860  1.00  0.00    -0.206 F 
ATOM     67  C   UNL A   1      36.634  31.493  30.813  1.00  0.00     0.040 A 
ATOM     68  C   UNL A   1      37.462  30.475  32.831  1.00  0.00     0.040 A 
ATOM     69  F   UNL A   1      39.582  29.471  32.855  1.00  0.00    -0.206 F 
ATOM     70  C   UNL A   1      36.456  31.160  32.154  1.00  0.00     0.006 A 
ENDBRANCH  49  63
BRANCH  50  71
ATOM     71  C   UNL A   1      46.896  27.162  25.967  1.00  0.00     0.057 A 
ATOM     72  C   UNL A   1      47.043  27.436  24.604  1.00  0.00     0.134 A 
ATOM     73  C   UNL A   1      47.922  26.451  26.601  1.00  0.00     0.134 A 
ATOM     74  F   UNL A   1      46.081  28.094  23.940  1.00  0.00    -0.206 F 
ATOM     75  C   UNL A   1      48.170  27.018  23.894  1.00  0.00     0.040 A 
ATOM     76  C   UNL A   1      49.065  26.047  25.910  1.00  0.00     0.040 A 
ATOM     77  F   UNL A   1      47.839  26.163  27.908  1.00  0.00    -0.206 F 
ATOM     78  C   UNL A   1      49.188  26.329  24.551  1.00  0.00     0.006 A 
ENDBRANCH  50  71
BRANCH  62  79
ATOM     79  C   UNL A   1      45.358  33.090  29.251  1.00  0.00     0.057 A 
ATOM     80  C   UNL A   1      46.196  33.247  30.362  1.00  0.00     0.134 A 
ATOM     81  C   UNL A   1      45.276  34.149  28.341  1.00  0.00     0.134 A 
ATOM     82  F   UNL A   1      46.301  32.273  31.278  1.00  0.00    -0.206 F 
ATOM     83  C   UNL A   1      46.914  34.425  30.568  1.00  0.00     0.040 A 
ATOM     84  C   UNL A   1      46.004  35.326  28.528  1.00  0.00     0.040 A 
ATOM     85  F   UNL A   1      44.494  34.057  27.256  1.00  0.00    -0.206 F 
ATOM     86  C   UNL A   1      46.822  35.467  29.647  1.00  0.00     0.006 A 
ENDBRANCH  62  79
ENDBRANCH  36  37
ENDBRANCH  29  31
ENDBRANCH  28  29
ENDBRANCH  27  28
ENDBRANCH   1  27
TORSDOF 15
ENDMDL
MODEL 3
REMARK VINA RESULT:     -11.7      1.344      4.194
REMARK SMILES CCc1ccc2c(CC(=O)OCCOC(=O)c3ccc(-c4c5nc(c(-c6c(F)cccc6F)c6ccc([nH]6)c(-c6c(F)cccc6F)c6nc(c(-c7c(F)cccc7F)c7ccc4[nH]7)C=C6)C=C5)cc3)c(C(=O)c3cc(C)ccn3)[nH]c2c1
REMARK SMILES IDX 12 1 11 2 9 3 10 4 8 5 7 6 3 7 4 8 83 9 5 10 82 11 6 12
REMARK SMILES IDX 81 13 71 14 2 16 1 17 72 18 73 19 74 20 75 21 80 22 76 23
REMARK SMILES IDX 79 24 77 25 78 26 13 27 14 28 15 29 16 30 17 31 18 32 70 33
REMARK SMILES IDX 19 34 69 35 20 36 21 37 22 38 63 39 23 40 68 41 62 42 64 43
REMARK SMILES IDX 24 44 67 45 61 46 60 47 25 49 51 50 34 51 50 52 35 53 38 54
REMARK SMILES IDX 49 55 65 56 36 57 37 58 48 60 66 61 39 62 26 63 27 64 32 65
REMARK SMILES IDX 28 66 29 67 31 68 33 69 30 70 52 71 53 72 58 73 54 74 55 75
REMARK SMILES IDX 57 76 59 77 56 78 40 79 41 80 46 81 42 82 43 83 45 84 47 85
REMARK SMILES IDX 44 86
REMARK H PARENT 81 15 64 48 38 59
REMARK Flexibility Score: inf
ROOT
ATOM      1  C   UNL A   1      31.790  27.934  26.783  1.00  0.00     0.274 C 
ENDROOT
BRANCH   1   2
ATOM      2  O   UNL A   1      30.667  27.059  26.551  1.00  0.00    -0.462 OA
BRANCH   2   3
ATOM      3  C   UNL A   1      30.977  25.806  26.125  1.00  0.00     0.310 C 
ATOM      4  O   UNL A   1      31.455  24.931  26.846  1.00  0.00    -0.252 OA
BRANCH   3   5
ATOM      5  C   UNL A   1      30.649  25.525  24.675  1.00  0.00     0.161 C 
BRANCH   5   6
ATOM      6  C   UNL A   1      30.890  26.631  23.694  1.00  0.00     0.000 A 
ATOM      7  C   UNL A   1      28.482  29.768  22.235  1.00  0.00    -0.046 A 
ATOM      8  C   UNL A   1      27.820  28.771  22.966  1.00  0.00     0.004 A 
ATOM      9  C   UNL A   1      29.838  29.600  21.913  1.00  0.00     0.030 A 
ATOM     10  C   UNL A   1      28.492  27.636  23.437  1.00  0.00     0.011 A 
ATOM     11  C   UNL A   1      30.501  28.476  22.421  1.00  0.00     0.046 A 
ATOM     12  C   UNL A   1      29.875  27.516  23.203  1.00  0.00     0.004 A 
ATOM     13  N   UNL A   1      31.817  28.103  22.312  1.00  0.00    -0.352 N 
ATOM     14  C   UNL A   1      32.114  27.135  23.249  1.00  0.00     0.093 A 
ATOM     15  H   UNL A   1      32.457  28.472  21.661  1.00  0.00     0.167 HD
BRANCH   7  16
ATOM     16  C   UNL A   1      27.707  31.024  21.898  1.00  0.00     0.032 C 
ATOM     17  C   UNL A   1      28.478  32.336  21.937  1.00  0.00     0.009 C 
ENDBRANCH   7  16
BRANCH  14  18
ATOM     18  C   UNL A   1      33.464  26.843  23.709  1.00  0.00     0.227 C 
ATOM     19  O   UNL A   1      34.304  27.711  23.930  1.00  0.00    -0.285 OA
BRANCH  18  20
ATOM     20  C   UNL A   1      33.904  25.427  23.765  1.00  0.00     0.113 A 
ATOM     21  C   UNL A   1      34.444  24.928  24.946  1.00  0.00     0.036 A 
ATOM     22  N   UNL A   1      33.766  24.707  22.629  1.00  0.00    -0.253 NA
ATOM     23  C   UNL A   1      34.860  23.594  24.967  1.00  0.00    -0.047 A 
ATOM     24  C   UNL A   1      34.103  23.405  22.698  1.00  0.00     0.112 A 
ATOM     25  C   UNL A   1      35.513  22.998  26.177  1.00  0.00     0.044 C 
ATOM     26  C   UNL A   1      34.653  22.812  23.826  1.00  0.00     0.023 A 
ENDBRANCH  18  20
ENDBRANCH  14  18
ENDBRANCH   5   6
ENDBRANCH   3   5
ENDBRANCH   2   3
ENDBRANCH   1   2
BRANCH   1  27
ATOM     27  C   UNL A   1      31.597  29.260  26.053  1.00  0.00     0.275 C 
BRANCH  27  28
ATOM     28  O   UNL A   1      32.851  29.961  25.988  1.00  0.00    -0.458 OA
BRANCH  28  29
ATOM     29  C   UNL A   1      32.956  31.027  26.814  1.00  0.00     0.338 C 
ATOM     30  O   UNL A   1      32.188  31.977  26.888  1.00  0.00    -0.246 OA
BRANCH  29  31
ATOM     31  C   UNL A   1      34.197  30.944  27.606  1.00  0.00     0.060 A 
ATOM     32  C   UNL A   1      34.956  32.076  27.899  1.00  0.00     0.016 A 
ATOM     33  C   UNL A   1      34.654  29.679  27.985  1.00  0.00     0.016 A 
ATOM     34  C   UNL A   1      36.212  31.938  28.493  1.00  0.00     0.010 A 
ATOM     35  C   UNL A   1      35.862  29.553  28.671  1.00  0.00     0.010 A 
ATOM     36  C   UNL A   1      36.668  30.678  28.909  1.00  0.00    -0.014 A 
BRANCH  36  37
ATOM     37  C   UNL A   1      37.967  30.528  29.618  1.00  0.00     0.031 A 
ATOM     38  C   UNL A   1      39.103  29.770  28.987  1.00  0.00     0.074 A 
ATOM     39  C   UNL A   1      38.114  31.038  30.855  1.00  0.00     0.049 A 
ATOM     40  N   UNL A   1      40.222  29.357  29.529  1.00  0.00    -0.248 NA
ATOM     41  C   UNL A   1      38.958  29.416  27.567  1.00  0.00     0.031 C 
ATOM     42  C   UNL A   1      37.104  31.815  31.577  1.00  0.00     0.029 A 
ATOM     43  N   UNL A   1      39.168  30.972  31.731  1.00  0.00    -0.354 N 
ATOM     44  C   UNL A   1      40.891  28.655  28.534  1.00  0.00     0.074 A 
ATOM     45  C   UNL A   1      40.053  28.698  27.353  1.00  0.00     0.031 C 
ATOM     46  C   UNL A   1      37.595  32.172  32.773  1.00  0.00     0.029 A 
ATOM     47  C   UNL A   1      38.919  31.585  32.935  1.00  0.00     0.049 A 
ATOM     48  H   UNL A   1      40.021  30.527  31.518  1.00  0.00     0.167 HD
ATOM     49  C   UNL A   1      42.094  28.034  28.602  1.00  0.00     0.037 A 
ATOM     50  C   UNL A   1      39.650  31.634  34.063  1.00  0.00     0.037 A 
ATOM     51  C   UNL A   1      42.948  28.034  29.763  1.00  0.00     0.049 A 
ATOM     52  C   UNL A   1      40.967  30.922  34.120  1.00  0.00     0.074 A 
ATOM     53  C   UNL A   1      44.196  27.453  29.916  1.00  0.00     0.029 A 
ATOM     54  N   UNL A   1      42.650  28.661  30.964  1.00  0.00    -0.354 N 
ATOM     55  N   UNL A   1      41.568  30.223  33.188  1.00  0.00    -0.248 NA
ATOM     56  C   UNL A   1      41.699  30.988  35.392  1.00  0.00     0.031 C 
ATOM     57  C   UNL A   1      44.641  27.705  31.220  1.00  0.00     0.029 A 
ATOM     58  C   UNL A   1      43.685  28.470  31.866  1.00  0.00     0.049 A 
ATOM     59  H   UNL A   1      41.825  29.165  31.148  1.00  0.00     0.167 HD
ATOM     60  C   UNL A   1      42.748  29.769  33.757  1.00  0.00     0.074 A 
ATOM     61  C   UNL A   1      42.790  30.288  35.110  1.00  0.00     0.031 C 
ATOM     62  C   UNL A   1      43.709  28.988  33.209  1.00  0.00     0.037 A 
BRANCH  49  63
ATOM     63  C   UNL A   1      42.555  27.276  27.394  1.00  0.00     0.057 A 
ATOM     64  C   UNL A   1      43.295  27.885  26.373  1.00  0.00     0.134 A 
ATOM     65  C   UNL A   1      42.306  25.901  27.282  1.00  0.00     0.134 A 
ATOM     66  F   UNL A   1      43.558  29.200  26.416  1.00  0.00    -0.206 F 
ATOM     67  C   UNL A   1      43.760  27.156  25.276  1.00  0.00     0.040 A 
ATOM     68  C   UNL A   1      42.783  25.159  26.200  1.00  0.00     0.040 A 
ATOM     69  F   UNL A   1      41.611  25.256  28.230  1.00  0.00    -0.206 F 
ATOM     70  C   UNL A   1      43.511  25.787  25.192  1.00  0.00     0.006 A 
ENDBRANCH  49  63
BRANCH  50  71
ATOM     71  C   UNL A   1      39.123  32.360  35.242  1.00  0.00     0.057 A 
ATOM     72  C   UNL A   1      38.371  31.701  36.218  1.00  0.00     0.134 A 
ATOM     73  C   UNL A   1      39.386  33.723  35.433  1.00  0.00     0.134 A 
ATOM     74  F   UNL A   1      38.071  30.401  36.076  1.00  0.00    -0.206 F 
ATOM     75  C   UNL A   1      37.895  32.370  37.346  1.00  0.00     0.040 A 
ATOM     76  C   UNL A   1      38.936  34.399  36.567  1.00  0.00     0.040 A 
ATOM     77  F   UNL A   1      40.105  34.407  34.532  1.00  0.00    -0.206 F 
ATOM     78  C   UNL A   1      38.185  33.722  37.527  1.00  0.00     0.006 A 
ENDBRANCH  50  71
BRANCH  62  79
ATOM     79  C   UNL A   1      44.889  28.663  34.071  1.00  0.00     0.057 A 
ATOM     80  C   UNL A   1      46.013  29.497  34.120  1.00  0.00     0.134 A 
ATOM     81  C   UNL A   1      44.897  27.512  34.867  1.00  0.00     0.134 A 
ATOM     82  F   UNL A   1      46.071  30.605  33.366  1.00  0.00    -0.206 F 
ATOM     83  C   UNL A   1      47.113  29.186  34.920  1.00  0.00     0.040 A 
ATOM     84  C   UNL A   1      45.985  27.201  35.685  1.00  0.00     0.040 A 
ATOM     85  F   UNL A   1      43.849  26.675  34.867  1.00  0.00    -0.206 F 
ATOM     86  C   UNL A   1      47.099  28.037  35.708  1.00  0.00     0.006 A 
ENDBRANCH  62  79
ENDBRANCH  36  37
ENDBRANCH  29  31
ENDBRANCH  28  29
ENDBRANCH  27  28
ENDBRANCH   1  27
TORSDOF 15
ENDMDL
