MODEL 1
REMARK VINA RESULT:     -13.0      0.000      0.000
REMARK SMILES Cc1ccc(C(=O)OCCOC(=O)c2ccc(-c3c4nc(c(-c5c(F)cccc5F)c5ccc([nH]5)c(-c5c(F)cccc5F)c5nc(c(-c6c(F)cccc6F)c6ccc3[nH]6)C=C5)C=C4)cc2)c2c1N[C@H](c1ccccc1F)[C@H]1CC=C[C@@H]21
REMARK SMILES IDX 10 1 9 2 8 3 6 4 7 5 5 6 1 7 2 8 3 9 69 10 4 11 68 12 70 13
REMARK SMILES IDX 83 14 71 15 79 17 82 18 80 19 81 20 72 21 73 22 77 23 74 24
REMARK SMILES IDX 76 25 78 26 75 27 11 28 12 29 13 30 14 31 15 32 67 33 16 34
REMARK SMILES IDX 66 35 17 36 18 37 19 38 60 39 20 40 65 41 59 42 61 43 21 44
REMARK SMILES IDX 64 45 58 46 57 47 22 49 48 50 31 51 47 52 32 53 35 54 46 55
REMARK SMILES IDX 62 56 33 57 34 58 45 60 63 61 36 62 23 63 24 64 29 65 25 66
REMARK SMILES IDX 26 67 28 68 30 69 27 70 49 71 50 72 55 73 51 74 52 75 54 76
REMARK SMILES IDX 56 77 53 78 37 79 38 80 43 81 39 82 40 83 42 84 44 85 41 86
REMARK H PARENT 70 16 61 48 35 59
REMARK Flexibility Score: inf
ROOT
ATOM      1  C   UNL A   1      35.878  20.718  25.002  1.00  0.00     0.275 C 
ENDROOT
BRANCH   1   2
ATOM      2  C   UNL A   1      34.943  21.621  25.804  1.00  0.00     0.275 C 
BRANCH   2   3
ATOM      3  O   UNL A   1      34.694  22.853  25.093  1.00  0.00    -0.458 OA
BRANCH   3   4
ATOM      4  C   UNL A   1      33.635  22.859  24.238  1.00  0.00     0.338 C 
ATOM      5  O   UNL A   1      33.661  22.448  23.092  1.00  0.00    -0.246 OA
BRANCH   4   6
ATOM      6  C   UNL A   1      32.431  23.431  24.926  1.00  0.00     0.065 A 
ATOM      7  C   UNL A   1      28.852  24.732  26.960  1.00  0.00     0.046 C 
ATOM      8  C   UNL A   1      30.093  24.318  26.213  1.00  0.00    -0.028 A 
ATOM      9  C   UNL A   1      30.675  23.090  26.557  1.00  0.00     0.006 A 
ATOM     10  C   UNL A   1      30.660  25.105  25.186  1.00  0.00     0.042 A 
ATOM     11  C   UNL A   1      31.819  22.641  25.907  1.00  0.00     0.016 A 
ATOM     12  C   UNL A   1      31.890  24.707  24.605  1.00  0.00    -0.003 A 
ATOM     13  N   UNL A   1      30.008  26.253  24.746  1.00  0.00    -0.377 N 
ATOM     14  C   UNL A   1      32.554  25.608  23.589  1.00  0.00     0.050 C 
ATOM     15  C   UNL A   1      30.767  27.330  24.149  1.00  0.00     0.117 C 
ATOM     16  H   UNL A   1      29.032  26.332  24.841  1.00  0.00     0.161 HD
ATOM     17  C   UNL A   1      31.718  26.796  23.072  1.00  0.00     0.031 C 
ATOM     18  C   UNL A   1      33.815  26.301  24.030  1.00  0.00    -0.023 C 
ATOM     19  C   UNL A   1      32.737  27.889  22.690  1.00  0.00     0.034 C 
ATOM     20  C   UNL A   1      33.933  27.523  23.500  1.00  0.00    -0.030 C 
BRANCH  15  21
ATOM     21  C   UNL A   1      29.850  28.449  23.669  1.00  0.00     0.010 A 
ATOM     22  C   UNL A   1      28.646  28.112  23.023  1.00  0.00     0.009 A 
ATOM     23  C   UNL A   1      30.085  29.806  23.928  1.00  0.00     0.128 A 
ATOM     24  C   UNL A   1      27.690  29.091  22.731  1.00  0.00     0.001 A 
ATOM     25  C   UNL A   1      29.126  30.782  23.660  1.00  0.00     0.039 A 
ATOM     26  F   UNL A   1      31.240  30.212  24.468  1.00  0.00    -0.207 F 
ATOM     27  C   UNL A   1      27.919  30.422  23.072  1.00  0.00     0.003 A 
ENDBRANCH  15  21
ENDBRANCH   4   6
ENDBRANCH   3   4
ENDBRANCH   2   3
ENDBRANCH   1   2
BRANCH   1  28
ATOM     28  O   UNL A   1      37.089  21.436  24.713  1.00  0.00    -0.458 OA
BRANCH  28  29
ATOM     29  C   UNL A   1      38.210  21.038  25.360  1.00  0.00     0.338 C 
ATOM     30  O   UNL A   1      38.703  19.923  25.346  1.00  0.00    -0.246 OA
BRANCH  29  31
ATOM     31  C   UNL A   1      38.810  22.189  26.085  1.00  0.00     0.060 A 
ATOM     32  C   UNL A   1      38.245  23.456  26.006  1.00  0.00     0.016 A 
ATOM     33  C   UNL A   1      40.019  22.033  26.768  1.00  0.00     0.016 A 
ATOM     34  C   UNL A   1      38.955  24.568  26.473  1.00  0.00     0.010 A 
ATOM     35  C   UNL A   1      40.673  23.148  27.324  1.00  0.00     0.010 A 
ATOM     36  C   UNL A   1      40.196  24.456  27.120  1.00  0.00    -0.014 A 
BRANCH  36  37
ATOM     37  C   UNL A   1      41.023  25.671  27.478  1.00  0.00     0.031 A 
ATOM     38  C   UNL A   1      40.473  26.736  28.417  1.00  0.00     0.074 A 
ATOM     39  C   UNL A   1      42.301  25.836  27.062  1.00  0.00     0.049 A 
ATOM     40  N   UNL A   1      40.926  27.945  28.666  1.00  0.00    -0.248 NA
ATOM     41  C   UNL A   1      39.254  26.403  29.167  1.00  0.00     0.031 C 
ATOM     42  C   UNL A   1      43.065  24.905  26.234  1.00  0.00     0.029 A 
ATOM     43  N   UNL A   1      43.204  26.849  27.317  1.00  0.00    -0.354 N 
ATOM     44  C   UNL A   1      40.008  28.532  29.532  1.00  0.00     0.074 A 
ATOM     45  C   UNL A   1      38.975  27.548  29.775  1.00  0.00     0.031 C 
ATOM     46  C   UNL A   1      44.334  25.328  26.138  1.00  0.00     0.029 A 
ATOM     47  C   UNL A   1      44.445  26.641  26.761  1.00  0.00     0.049 A 
ATOM     48  H   UNL A   1      42.981  27.647  27.849  1.00  0.00     0.167 HD
ATOM     49  C   UNL A   1      40.017  29.770  30.088  1.00  0.00     0.037 A 
ATOM     50  C   UNL A   1      45.538  27.429  26.685  1.00  0.00     0.037 A 
ATOM     51  C   UNL A   1      41.073  30.737  29.942  1.00  0.00     0.049 A 
ATOM     52  C   UNL A   1      45.489  28.834  27.216  1.00  0.00     0.074 A 
ATOM     53  C   UNL A   1      41.146  32.022  30.459  1.00  0.00     0.029 A 
ATOM     54  N   UNL A   1      42.256  30.519  29.258  1.00  0.00    -0.354 N 
ATOM     55  N   UNL A   1      44.548  29.430  27.904  1.00  0.00    -0.248 NA
ATOM     56  C   UNL A   1      46.643  29.695  26.907  1.00  0.00     0.031 C 
ATOM     57  C   UNL A   1      42.361  32.591  30.062  1.00  0.00     0.029 A 
ATOM     58  C   UNL A   1      43.060  31.647  29.330  1.00  0.00     0.049 A 
ATOM     59  H   UNL A   1      42.492  29.686  28.788  1.00  0.00     0.167 HD
ATOM     60  C   UNL A   1      44.993  30.731  28.105  1.00  0.00     0.074 A 
ATOM     61  C   UNL A   1      46.302  30.831  27.498  1.00  0.00     0.031 C 
ATOM     62  C   UNL A   1      44.360  31.754  28.726  1.00  0.00     0.037 A 
BRANCH  49  63
ATOM     63  C   UNL A   1      38.816  30.177  30.893  1.00  0.00     0.057 A 
ATOM     64  C   UNL A   1      38.744  29.864  32.258  1.00  0.00     0.134 A 
ATOM     65  C   UNL A   1      37.715  30.824  30.319  1.00  0.00     0.134 A 
ATOM     66  F   UNL A   1      39.759  29.229  32.864  1.00  0.00    -0.206 F 
ATOM     67  C   UNL A   1      37.620  30.179  33.021  1.00  0.00     0.040 A 
ATOM     68  C   UNL A   1      36.595  31.167  31.080  1.00  0.00     0.040 A 
ATOM     69  F   UNL A   1      37.723  31.153  29.019  1.00  0.00    -0.206 F 
ATOM     70  C   UNL A   1      36.544  30.838  32.434  1.00  0.00     0.006 A 
ENDBRANCH  49  63
BRANCH  50  71
ATOM     71  C   UNL A   1      46.760  26.951  25.985  1.00  0.00     0.057 A 
ATOM     72  C   UNL A   1      46.980  27.227  24.629  1.00  0.00     0.134 A 
ATOM     73  C   UNL A   1      47.757  26.245  26.667  1.00  0.00     0.134 A 
ATOM     74  F   UNL A   1      46.072  27.915  23.921  1.00  0.00    -0.206 F 
ATOM     75  C   UNL A   1      48.130  26.793  23.970  1.00  0.00     0.040 A 
ATOM     76  C   UNL A   1      48.929  25.836  26.029  1.00  0.00     0.040 A 
ATOM     77  F   UNL A   1      47.626  25.987  27.977  1.00  0.00    -0.206 F 
ATOM     78  C   UNL A   1      49.113  26.101  24.673  1.00  0.00     0.006 A 
ENDBRANCH  50  71
BRANCH  62  79
ATOM     79  C   UNL A   1      45.084  33.067  28.800  1.00  0.00     0.057 A 
ATOM     80  C   UNL A   1      45.972  33.339  29.848  1.00  0.00     0.134 A 
ATOM     81  C   UNL A   1      44.903  34.063  27.832  1.00  0.00     0.134 A 
ATOM     82  F   UNL A   1      46.189  32.430  30.811  1.00  0.00    -0.206 F 
ATOM     83  C   UNL A   1      46.654  34.554  29.930  1.00  0.00     0.040 A 
ATOM     84  C   UNL A   1      45.596  35.273  27.891  1.00  0.00     0.040 A 
ATOM     85  F   UNL A   1      44.080  33.858  26.792  1.00  0.00    -0.206 F 
ATOM     86  C   UNL A   1      46.473  35.523  28.945  1.00  0.00     0.006 A 
ENDBRANCH  62  79
ENDBRANCH  36  37
ENDBRANCH  29  31
ENDBRANCH  28  29
ENDBRANCH   1  28
TORSDOF 12
ENDMDL
MODEL 2
REMARK VINA RESULT:     -13.0      1.002      2.312
REMARK SMILES Cc1ccc(C(=O)OCCOC(=O)c2ccc(-c3c4nc(c(-c5c(F)cccc5F)c5ccc([nH]5)c(-c5c(F)cccc5F)c5nc(c(-c6c(F)cccc6F)c6ccc3[nH]6)C=C5)C=C4)cc2)c2c1N[C@H](c1ccccc1F)[C@H]1CC=C[C@@H]21
REMARK SMILES IDX 10 1 9 2 8 3 6 4 7 5 5 6 1 7 2 8 3 9 69 10 4 11 68 12 70 13
REMARK SMILES IDX 83 14 71 15 79 17 82 18 80 19 81 20 72 21 73 22 77 23 74 24
REMARK SMILES IDX 76 25 78 26 75 27 11 28 12 29 13 30 14 31 15 32 67 33 16 34
REMARK SMILES IDX 66 35 17 36 18 37 19 38 60 39 20 40 65 41 59 42 61 43 21 44
REMARK SMILES IDX 64 45 58 46 57 47 22 49 48 50 31 51 47 52 32 53 35 54 46 55
REMARK SMILES IDX 62 56 33 57 34 58 45 60 63 61 36 62 23 63 24 64 29 65 25 66
REMARK SMILES IDX 26 67 28 68 30 69 27 70 49 71 50 72 55 73 51 74 52 75 54 76
REMARK SMILES IDX 56 77 53 78 37 79 38 80 43 81 39 82 40 83 42 84 44 85 41 86
REMARK H PARENT 70 16 61 48 35 59
REMARK Flexibility Score: inf
ROOT
ATOM      1  C   UNL A   1      35.895  20.462  25.001  1.00  0.00     0.275 C 
ENDROOT
BRANCH   1   2
ATOM      2  C   UNL A   1      35.005  21.103  26.065  1.00  0.00     0.275 C 
BRANCH   2   3
ATOM      3  O   UNL A   1      33.987  21.921  25.449  1.00  0.00    -0.458 OA
BRANCH   3   4
ATOM      4  C   UNL A   1      34.260  23.249  25.335  1.00  0.00     0.338 C 
ATOM      5  O   UNL A   1      34.863  23.911  26.161  1.00  0.00    -0.246 OA
BRANCH   4   6
ATOM      6  C   UNL A   1      33.722  23.768  24.034  1.00  0.00     0.065 A 
ATOM      7  C   UNL A   1      32.508  25.212  20.152  1.00  0.00     0.046 C 
ATOM      8  C   UNL A   1      32.903  24.750  21.530  1.00  0.00    -0.028 A 
ATOM      9  C   UNL A   1      33.922  23.792  21.623  1.00  0.00     0.006 A 
ATOM     10  C   UNL A   1      32.303  25.258  22.703  1.00  0.00     0.042 A 
ATOM     11  C   UNL A   1      34.342  23.322  22.861  1.00  0.00     0.016 A 
ATOM     12  C   UNL A   1      32.645  24.695  23.958  1.00  0.00    -0.003 A 
ATOM     13  N   UNL A   1      31.392  26.307  22.623  1.00  0.00    -0.377 N 
ATOM     14  C   UNL A   1      31.919  25.159  25.200  1.00  0.00     0.050 C 
ATOM     15  C   UNL A   1      30.386  26.470  23.649  1.00  0.00     0.117 C 
ATOM     16  H   UNL A   1      31.433  26.939  21.869  1.00  0.00     0.161 HD
ATOM     17  C   UNL A   1      31.014  26.398  25.046  1.00  0.00     0.031 C 
ATOM     18  C   UNL A   1      30.970  24.174  25.829  1.00  0.00    -0.023 C 
ATOM     19  C   UNL A   1      29.906  26.240  26.106  1.00  0.00     0.034 C 
ATOM     20  C   UNL A   1      29.900  24.772  26.363  1.00  0.00    -0.030 C 
BRANCH  15  21
ATOM     21  C   UNL A   1      29.551  27.722  23.407  1.00  0.00     0.010 A 
ATOM     22  C   UNL A   1      30.192  28.892  22.963  1.00  0.00     0.009 A 
ATOM     23  C   UNL A   1      28.152  27.749  23.501  1.00  0.00     0.128 A 
ATOM     24  C   UNL A   1      29.451  30.006  22.552  1.00  0.00     0.001 A 
ATOM     25  C   UNL A   1      27.409  28.846  23.071  1.00  0.00     0.039 A 
ATOM     26  F   UNL A   1      27.477  26.702  23.988  1.00  0.00    -0.207 F 
ATOM     27  C   UNL A   1      28.059  29.974  22.582  1.00  0.00     0.003 A 
ENDBRANCH  15  21
ENDBRANCH   4   6
ENDBRANCH   3   4
ENDBRANCH   2   3
ENDBRANCH   1   2
BRANCH   1  28
ATOM     28  O   UNL A   1      37.050  21.292  24.796  1.00  0.00    -0.458 OA
BRANCH  28  29
ATOM     29  C   UNL A   1      38.198  20.913  25.408  1.00  0.00     0.338 C 
ATOM     30  O   UNL A   1      38.710  19.807  25.376  1.00  0.00    -0.246 OA
BRANCH  29  31
ATOM     31  C   UNL A   1      38.797  22.072  26.121  1.00  0.00     0.060 A 
ATOM     32  C   UNL A   1      38.221  23.334  26.043  1.00  0.00     0.016 A 
ATOM     33  C   UNL A   1      40.016  21.929  26.789  1.00  0.00     0.016 A 
ATOM     34  C   UNL A   1      38.927  24.453  26.495  1.00  0.00     0.010 A 
ATOM     35  C   UNL A   1      40.668  23.053  27.331  1.00  0.00     0.010 A 
ATOM     36  C   UNL A   1      40.177  24.355  27.127  1.00  0.00    -0.014 A 
BRANCH  36  37
ATOM     37  C   UNL A   1      40.999  25.578  27.469  1.00  0.00     0.031 A 
ATOM     38  C   UNL A   1      40.446  26.651  28.398  1.00  0.00     0.074 A 
ATOM     39  C   UNL A   1      42.274  25.746  27.048  1.00  0.00     0.049 A 
ATOM     40  N   UNL A   1      40.892  27.865  28.632  1.00  0.00    -0.248 NA
ATOM     41  C   UNL A   1      39.231  26.320  29.156  1.00  0.00     0.031 C 
ATOM     42  C   UNL A   1      43.040  24.810  26.227  1.00  0.00     0.029 A 
ATOM     43  N   UNL A   1      43.172  26.766  27.289  1.00  0.00    -0.354 N 
ATOM     44  C   UNL A   1      39.973  28.456  29.495  1.00  0.00     0.074 A 
ATOM     45  C   UNL A   1      38.947  27.469  29.751  1.00  0.00     0.031 C 
ATOM     46  C   UNL A   1      44.307  25.239  26.123  1.00  0.00     0.029 A 
ATOM     47  C   UNL A   1      44.412  26.560  26.730  1.00  0.00     0.049 A 
ATOM     48  H   UNL A   1      42.946  27.569  27.812  1.00  0.00     0.167 HD
ATOM     49  C   UNL A   1      39.978  29.700  30.037  1.00  0.00     0.037 A 
ATOM     50  C   UNL A   1      45.501  27.353  26.643  1.00  0.00     0.037 A 
ATOM     51  C   UNL A   1      41.028  30.672  29.877  1.00  0.00     0.049 A 
ATOM     52  C   UNL A   1      45.446  28.763  27.158  1.00  0.00     0.074 A 
ATOM     53  C   UNL A   1      41.095  31.963  30.379  1.00  0.00     0.029 A 
ATOM     54  N   UNL A   1      42.209  30.453  29.191  1.00  0.00    -0.354 N 
ATOM     55  N   UNL A   1      44.504  29.361  27.842  1.00  0.00    -0.248 NA
ATOM     56  C   UNL A   1      46.594  29.627  26.836  1.00  0.00     0.031 C 
ATOM     57  C   UNL A   1      42.306  32.535  29.971  1.00  0.00     0.029 A 
ATOM     58  C   UNL A   1      43.008  31.586  29.248  1.00  0.00     0.049 A 
ATOM     59  H   UNL A   1      42.449  29.616  28.730  1.00  0.00     0.167 HD
ATOM     60  C   UNL A   1      44.942  30.667  28.028  1.00  0.00     0.074 A 
ATOM     61  C   UNL A   1      46.249  30.767  27.416  1.00  0.00     0.031 C 
ATOM     62  C   UNL A   1      44.305  31.694  28.639  1.00  0.00     0.037 A 
BRANCH  49  63
ATOM     63  C   UNL A   1      38.776  30.110  30.840  1.00  0.00     0.057 A 
ATOM     64  C   UNL A   1      37.717  30.793  30.224  1.00  0.00     0.134 A 
ATOM     65  C   UNL A   1      38.685  29.883  32.218  1.00  0.00     0.134 A 
ATOM     66  F   UNL A   1      37.752  31.057  28.909  1.00  0.00    -0.206 F 
ATOM     67  C   UNL A   1      36.613  31.236  30.952  1.00  0.00     0.040 A 
ATOM     68  C   UNL A   1      37.571  30.300  32.951  1.00  0.00     0.040 A 
ATOM     69  F   UNL A   1      39.663  29.234  32.866  1.00  0.00    -0.206 F 
ATOM     70  C   UNL A   1      36.535  30.984  32.319  1.00  0.00     0.006 A 
ENDBRANCH  49  63
BRANCH  50  71
ATOM     71  C   UNL A   1      46.723  26.874  25.944  1.00  0.00     0.057 A 
ATOM     72  C   UNL A   1      46.942  27.145  24.587  1.00  0.00     0.134 A 
ATOM     73  C   UNL A   1      47.722  26.172  26.629  1.00  0.00     0.134 A 
ATOM     74  F   UNL A   1      46.033  27.828  23.876  1.00  0.00    -0.206 F 
ATOM     75  C   UNL A   1      48.092  26.709  23.930  1.00  0.00     0.040 A 
ATOM     76  C   UNL A   1      48.894  25.762  25.992  1.00  0.00     0.040 A 
ATOM     77  F   UNL A   1      47.592  25.920  27.940  1.00  0.00    -0.206 F 
ATOM     78  C   UNL A   1      49.077  26.022  24.635  1.00  0.00     0.006 A 
ENDBRANCH  50  71
BRANCH  62  79
ATOM     79  C   UNL A   1      45.022  33.011  28.696  1.00  0.00     0.057 A 
ATOM     80  C   UNL A   1      44.787  33.999  27.732  1.00  0.00     0.134 A 
ATOM     81  C   UNL A   1      45.949  33.301  29.706  1.00  0.00     0.134 A 
ATOM     82  F   UNL A   1      43.915  33.785  26.735  1.00  0.00    -0.206 F 
ATOM     83  C   UNL A   1      45.446  35.229  27.772  1.00  0.00     0.040 A 
ATOM     84  C   UNL A   1      46.597  34.536  29.769  1.00  0.00     0.040 A 
ATOM     85  F   UNL A   1      46.207  32.404  30.670  1.00  0.00    -0.206 F 
ATOM     86  C   UNL A   1      46.348  35.503  28.797  1.00  0.00     0.006 A 
ENDBRANCH  62  79
ENDBRANCH  36  37
ENDBRANCH  29  31
ENDBRANCH  28  29
ENDBRANCH   1  28
TORSDOF 12
ENDMDL
MODEL 3
REMARK VINA RESULT:     -13.0      4.191      9.076
REMARK SMILES Cc1ccc(C(=O)OCCOC(=O)c2ccc(-c3c4nc(c(-c5c(F)cccc5F)c5ccc([nH]5)c(-c5c(F)cccc5F)c5nc(c(-c6c(F)cccc6F)c6ccc3[nH]6)C=C5)C=C4)cc2)c2c1N[C@H](c1ccccc1F)[C@H]1CC=C[C@@H]21
REMARK SMILES IDX 10 1 9 2 8 3 6 4 7 5 5 6 1 7 2 8 3 9 69 10 4 11 68 12 70 13
REMARK SMILES IDX 83 14 71 15 79 17 82 18 80 19 81 20 72 21 73 22 77 23 74 24
REMARK SMILES IDX 76 25 78 26 75 27 11 28 12 29 13 30 14 31 15 32 67 33 16 34
REMARK SMILES IDX 66 35 17 36 18 37 19 38 60 39 20 40 65 41 59 42 61 43 21 44
REMARK SMILES IDX 64 45 58 46 57 47 22 49 48 50 31 51 47 52 32 53 35 54 46 55
REMARK SMILES IDX 62 56 33 57 34 58 45 60 63 61 36 62 23 63 24 64 29 65 25 66
REMARK SMILES IDX 26 67 28 68 30 69 27 70 49 71 50 72 55 73 51 74 52 75 54 76
REMARK SMILES IDX 56 77 53 78 37 79 38 80 43 81 39 82 40 83 42 84 44 85 41 86
REMARK H PARENT 70 16 61 48 35 59
REMARK Flexibility Score: inf
ROOT
ATOM      1  C   UNL A   1      31.599  29.263  25.743  1.00  0.00     0.275 C 
ENDROOT
BRANCH   1   2
ATOM      2  C   UNL A   1      31.713  28.198  26.833  1.00  0.00     0.275 C 
BRANCH   2   3
ATOM      3  O   UNL A   1      32.304  26.992  26.303  1.00  0.00    -0.458 OA
BRANCH   3   4
ATOM      4  C   UNL A   1      31.446  25.985  25.981  1.00  0.00     0.338 C 
ATOM      5  O   UNL A   1      30.431  25.710  26.595  1.00  0.00    -0.246 OA
BRANCH   4   6
ATOM      6  C   UNL A   1      31.930  25.280  24.748  1.00  0.00     0.065 A 
ATOM      7  C   UNL A   1      33.097  23.465  21.010  1.00  0.00     0.046 C 
ATOM      8  C   UNL A   1      32.689  24.048  22.337  1.00  0.00    -0.028 A 
ATOM      9  C   UNL A   1      32.278  25.388  22.356  1.00  0.00     0.006 A 
ATOM     10  C   UNL A   1      32.690  23.293  23.531  1.00  0.00     0.042 A 
ATOM     11  C   UNL A   1      31.882  25.992  23.543  1.00  0.00     0.016 A 
ATOM     12  C   UNL A   1      32.402  23.938  24.761  1.00  0.00    -0.003 A 
ATOM     13  N   UNL A   1      32.963  21.929  23.495  1.00  0.00    -0.377 N 
ATOM     14  C   UNL A   1      32.517  23.158  26.050  1.00  0.00     0.050 C 
ATOM     15  C   UNL A   1      33.508  21.271  24.662  1.00  0.00     0.117 C 
ATOM     16  H   UNL A   1      32.784  21.413  22.676  1.00  0.00     0.161 HD
ATOM     17  C   UNL A   1      32.708  21.634  25.917  1.00  0.00     0.031 C 
ATOM     18  C   UNL A   1      33.662  23.524  26.956  1.00  0.00    -0.023 C 
ATOM     19  C   UNL A   1      33.488  21.200  27.175  1.00  0.00     0.034 C 
ATOM     20  C   UNL A   1      34.156  22.462  27.602  1.00  0.00    -0.030 C 
BRANCH  15  21
ATOM     21  C   UNL A   1      33.653  19.771  24.429  1.00  0.00     0.010 A 
ATOM     22  C   UNL A   1      32.571  19.059  23.881  1.00  0.00     0.009 A 
ATOM     23  C   UNL A   1      34.849  19.069  24.633  1.00  0.00     0.128 A 
ATOM     24  C   UNL A   1      32.717  17.727  23.479  1.00  0.00     0.001 A 
ATOM     25  C   UNL A   1      35.007  17.749  24.213  1.00  0.00     0.039 A 
ATOM     26  F   UNL A   1      35.898  19.656  25.221  1.00  0.00    -0.207 F 
ATOM     27  C   UNL A   1      33.941  17.080  23.622  1.00  0.00     0.003 A 
ENDBRANCH  15  21
ENDBRANCH   4   6
ENDBRANCH   3   4
ENDBRANCH   2   3
ENDBRANCH   1   2
BRANCH   1  28
ATOM     28  O   UNL A   1      32.817  30.025  25.703  1.00  0.00    -0.458 OA
BRANCH  28  29
ATOM     29  C   UNL A   1      33.033  30.895  26.719  1.00  0.00     0.338 C 
ATOM     30  O   UNL A   1      32.230  31.686  27.184  1.00  0.00    -0.246 OA
BRANCH  29  31
ATOM     31  C   UNL A   1      34.415  30.730  27.240  1.00  0.00     0.060 A 
ATOM     32  C   UNL A   1      35.034  29.485  27.244  1.00  0.00     0.016 A 
ATOM     33  C   UNL A   1      35.071  31.808  27.840  1.00  0.00     0.016 A 
ATOM     34  C   UNL A   1      36.216  29.294  27.965  1.00  0.00     0.010 A 
ATOM     35  C   UNL A   1      36.313  31.623  28.476  1.00  0.00     0.010 A 
ATOM     36  C   UNL A   1      36.878  30.343  28.624  1.00  0.00    -0.014 A 
BRANCH  36  37
ATOM     37  C   UNL A   1      38.066  30.097  29.528  1.00  0.00     0.031 A 
ATOM     38  C   UNL A   1      39.275  29.317  29.028  1.00  0.00     0.074 A 
ATOM     39  C   UNL A   1      38.157  30.614  30.775  1.00  0.00     0.049 A 
ATOM     40  N   UNL A   1      40.281  28.810  29.705  1.00  0.00    -0.248 NA
ATOM     41  C   UNL A   1      39.361  29.069  27.582  1.00  0.00     0.031 C 
ATOM     42  C   UNL A   1      37.165  31.466  31.430  1.00  0.00     0.029 A 
ATOM     43  N   UNL A   1      39.167  30.524  31.713  1.00  0.00    -0.354 N 
ATOM     44  C   UNL A   1      41.065  28.125  28.781  1.00  0.00     0.074 A 
ATOM     45  C   UNL A   1      40.426  28.285  27.493  1.00  0.00     0.031 C 
ATOM     46  C   UNL A   1      37.652  31.902  32.601  1.00  0.00     0.029 A 
ATOM     47  C   UNL A   1      38.923  31.238  32.863  1.00  0.00     0.049 A 
ATOM     48  H   UNL A   1      39.986  29.997  31.572  1.00  0.00     0.167 HD
ATOM     49  C   UNL A   1      42.215  27.432  28.973  1.00  0.00     0.037 A 
ATOM     50  C   UNL A   1      39.593  31.313  34.032  1.00  0.00     0.037 A 
ATOM     51  C   UNL A   1      42.925  27.331  30.221  1.00  0.00     0.049 A 
ATOM     52  C   UNL A   1      40.806  30.456  34.258  1.00  0.00     0.074 A 
ATOM     53  C   UNL A   1      44.088  26.629  30.500  1.00  0.00     0.029 A 
ATOM     54  N   UNL A   1      42.562  27.974  31.391  1.00  0.00    -0.354 N 
ATOM     55  N   UNL A   1      41.451  29.690  33.415  1.00  0.00    -0.248 NA
ATOM     56  C   UNL A   1      41.353  30.435  35.626  1.00  0.00     0.031 C 
ATOM     57  C   UNL A   1      44.412  26.825  31.847  1.00  0.00     0.029 A 
ATOM     58  C   UNL A   1      43.471  27.679  32.396  1.00  0.00     0.049 A 
ATOM     59  H   UNL A   1      41.774  28.555  31.496  1.00  0.00     0.167 HD
ATOM     60  C   UNL A   1      42.471  29.096  34.148  1.00  0.00     0.074 A 
ATOM     61  C   UNL A   1      42.384  29.614  35.495  1.00  0.00     0.031 C 
ATOM     62  C   UNL A   1      43.389  28.187  33.738  1.00  0.00     0.037 A 
BRANCH  49  63
ATOM     63  C   UNL A   1      42.776  26.682  27.798  1.00  0.00     0.057 A 
ATOM     64  C   UNL A   1      42.406  25.347  27.574  1.00  0.00     0.134 A 
ATOM     65  C   UNL A   1      43.713  27.249  26.927  1.00  0.00     0.134 A 
ATOM     66  F   UNL A   1      41.526  24.741  28.383  1.00  0.00    -0.206 F 
ATOM     67  C   UNL A   1      42.951  24.605  26.525  1.00  0.00     0.040 A 
ATOM     68  C   UNL A   1      44.245  26.523  25.858  1.00  0.00     0.040 A 
ATOM     69  F   UNL A   1      44.106  28.520  27.086  1.00  0.00    -0.206 F 
ATOM     70  C   UNL A   1      43.868  25.195  25.660  1.00  0.00     0.006 A 
ENDBRANCH  49  63
BRANCH  50  71
ATOM     71  C   UNL A   1      39.077  32.161  35.140  1.00  0.00     0.057 A 
ATOM     72  C   UNL A   1      38.285  31.624  36.163  1.00  0.00     0.134 A 
ATOM     73  C   UNL A   1      39.402  33.520  35.224  1.00  0.00     0.134 A 
ATOM     74  F   UNL A   1      37.952  30.325  36.152  1.00  0.00    -0.206 F 
ATOM     75  C   UNL A   1      37.809  32.412  37.211  1.00  0.00     0.040 A 
ATOM     76  C   UNL A   1      38.962  34.312  36.286  1.00  0.00     0.040 A 
ATOM     77  F   UNL A   1      40.193  34.084  34.299  1.00  0.00    -0.206 F 
ATOM     78  C   UNL A   1      38.154  33.759  37.279  1.00  0.00     0.006 A 
ENDBRANCH  50  71
BRANCH  62  79
ATOM     79  C   UNL A   1      44.386  27.712  34.754  1.00  0.00     0.057 A 
ATOM     80  C   UNL A   1      44.144  26.561  35.514  1.00  0.00     0.134 A 
ATOM     81  C   UNL A   1      45.588  28.395  34.980  1.00  0.00     0.134 A 
ATOM     82  F   UNL A   1      43.010  25.862  35.350  1.00  0.00    -0.206 F 
ATOM     83  C   UNL A   1      45.062  26.105  36.462  1.00  0.00     0.040 A 
ATOM     84  C   UNL A   1      46.524  27.936  35.909  1.00  0.00     0.040 A 
ATOM     85  F   UNL A   1      45.888  29.494  34.272  1.00  0.00    -0.206 F 
ATOM     86  C   UNL A   1      46.260  26.790  36.656  1.00  0.00     0.006 A 
ENDBRANCH  62  79
ENDBRANCH  36  37
ENDBRANCH  29  31
ENDBRANCH  28  29
ENDBRANCH   1  28
TORSDOF 12
ENDMDL
