MODEL 1
REMARK VINA RESULT:     -11.5      0.000      0.000
REMARK SMILES CNC(=O)[C@H](C)S(=O)(=O)c1cc(C(=O)OCCOC(=O)c2ccc(-c3c4nc(c(-c5c(F)cccc5F)c5ccc([nH]5)c(-c5c(F)cccc5F)c5nc(c(-c6c(F)cccc6F)c6ccc3[nH]6)C=C5)C=C4)cc2)c(C)cc1C
REMARK SMILES IDX 16 1 15 2 13 3 14 4 12 5 10 6 11 7 78 8 77 9 79 10 75 11
REMARK SMILES IDX 76 12 7 13 8 14 9 15 5 16 6 17 3 18 1 19 2 20 4 22 17 23
REMARK SMILES IDX 18 24 19 25 20 26 21 27 22 28 74 29 23 30 73 31 24 32 25 33
REMARK SMILES IDX 26 34 67 35 27 36 72 37 66 38 68 39 28 40 71 41 65 42 64 43
REMARK SMILES IDX 29 45 55 46 38 47 54 48 39 49 42 50 53 51 69 52 40 53 41 54
REMARK SMILES IDX 52 56 70 57 43 58 30 59 31 60 36 61 32 62 33 63 35 64 37 65
REMARK SMILES IDX 34 66 56 67 57 68 62 69 58 70 59 71 61 72 63 73 60 74 44 75
REMARK SMILES IDX 45 76 50 77 46 78 47 79 49 80 51 81 48 82
REMARK H PARENT 2 21 68 44 42 55
REMARK Flexibility Score: inf
ROOT
ATOM      1  C   UNL A   1      31.426  29.198  25.136  1.00  0.00     0.275 C 
ENDROOT
BRANCH   1   2
ATOM      2  O   UNL A   1      32.244  28.238  25.839  1.00  0.00    -0.458 OA
BRANCH   2   3
ATOM      3  C   UNL A   1      31.599  27.267  26.526  1.00  0.00     0.338 C 
ATOM      4  O   UNL A   1      30.991  27.406  27.576  1.00  0.00    -0.246 OA
BRANCH   3   5
ATOM      5  C   UNL A   1      31.606  25.979  25.778  1.00  0.00     0.064 A 
ATOM      6  C   UNL A   1      32.767  23.836  25.472  1.00  0.00     0.071 A 
ATOM      7  C   UNL A   1      32.678  25.099  26.068  1.00  0.00     0.036 A 
ATOM      8  C   UNL A   1      31.863  23.505  24.445  1.00  0.00    -0.032 A 
ATOM      9  C   UNL A   1      30.806  24.387  24.157  1.00  0.00     0.009 A 
ATOM     10  C   UNL A   1      31.961  22.251  23.612  1.00  0.00     0.046 C 
ATOM     11  C   UNL A   1      30.648  25.618  24.818  1.00  0.00    -0.036 A 
ATOM     12  C   UNL A   1      29.500  26.472  24.357  1.00  0.00     0.045 C 
BRANCH   6  13
ATOM     13  S   UNL A   1      34.002  22.628  25.964  1.00  0.00     0.190 S 
ATOM     14  O   UNL A   1      33.213  21.540  26.519  1.00  0.00    -0.223 OA
ATOM     15  O   UNL A   1      34.939  23.341  26.815  1.00  0.00    -0.223 OA
BRANCH  13  16
ATOM     16  C   UNL A   1      34.967  21.954  24.679  1.00  0.00     0.199 C 
ATOM     17  C   UNL A   1      35.644  22.916  23.726  1.00  0.00     0.036 C 
BRANCH  16  18
ATOM     18  C   UNL A   1      35.713  20.666  24.941  1.00  0.00     0.238 C 
ATOM     19  C   UNL A   1      33.960  18.823  24.594  1.00  0.00     0.142 C 
ATOM     20  N   UNL A   1      35.225  19.408  24.940  1.00  0.00    -0.358 N 
ATOM     21  H   UNL A   1      35.885  18.743  25.241  1.00  0.00     0.163 HD
ATOM     22  O   UNL A   1      36.893  20.739  25.319  1.00  0.00    -0.274 OA
ENDBRANCH  16  18
ENDBRANCH  13  16
ENDBRANCH   6  13
ENDBRANCH   3   5
ENDBRANCH   2   3
ENDBRANCH   1   2
BRANCH   1  23
ATOM     23  C   UNL A   1      31.616  30.594  25.722  1.00  0.00     0.275 C 
BRANCH  23  24
ATOM     24  O   UNL A   1      32.419  30.492  26.910  1.00  0.00    -0.458 OA
BRANCH  24  25
ATOM     25  C   UNL A   1      33.064  31.617  27.279  1.00  0.00     0.338 C 
ATOM     26  O   UNL A   1      32.604  32.731  27.449  1.00  0.00    -0.246 OA
BRANCH  25  27
ATOM     27  C   UNL A   1      34.455  31.280  27.604  1.00  0.00     0.060 A 
ATOM     28  C   UNL A   1      34.769  29.938  27.767  1.00  0.00     0.016 A 
ATOM     29  C   UNL A   1      35.381  32.270  27.941  1.00  0.00     0.016 A 
ATOM     30  C   UNL A   1      35.960  29.596  28.395  1.00  0.00     0.010 A 
ATOM     31  C   UNL A   1      36.616  31.904  28.499  1.00  0.00     0.010 A 
ATOM     32  C   UNL A   1      36.892  30.560  28.803  1.00  0.00    -0.014 A 
BRANCH  32  33
ATOM     33  C   UNL A   1      38.040  30.141  29.670  1.00  0.00     0.031 A 
ATOM     34  C   UNL A   1      39.188  29.353  29.077  1.00  0.00     0.074 A 
ATOM     35  C   UNL A   1      38.155  30.567  30.946  1.00  0.00     0.049 A 
ATOM     36  N   UNL A   1      40.212  28.797  29.676  1.00  0.00    -0.248 NA
ATOM     37  C   UNL A   1      39.171  29.150  27.620  1.00  0.00     0.031 C 
ATOM     38  C   UNL A   1      37.190  31.411  31.653  1.00  0.00     0.029 A 
ATOM     39  N   UNL A   1      39.168  30.394  31.860  1.00  0.00    -0.354 N 
ATOM     40  C   UNL A   1      40.917  28.125  28.684  1.00  0.00     0.074 A 
ATOM     41  C   UNL A   1      40.208  28.344  27.443  1.00  0.00     0.031 C 
ATOM     42  C   UNL A   1      37.701  31.762  32.844  1.00  0.00     0.029 A 
ATOM     43  C   UNL A   1      38.982  31.086  33.033  1.00  0.00     0.049 A 
ATOM     44  H   UNL A   1      39.955  29.828  31.690  1.00  0.00     0.167 HD
ATOM     45  C   UNL A   1      42.047  27.385  28.794  1.00  0.00     0.037 A 
ATOM     46  C   UNL A   1      39.736  31.155  34.147  1.00  0.00     0.037 A 
ATOM     47  C   UNL A   1      42.816  27.237  30.002  1.00  0.00     0.049 A 
ATOM     48  C   UNL A   1      40.992  30.330  34.248  1.00  0.00     0.074 A 
ATOM     49  C   UNL A   1      43.943  26.462  30.221  1.00  0.00     0.029 A 
ATOM     50  N   UNL A   1      42.566  27.920  31.181  1.00  0.00    -0.354 N 
ATOM     51  N   UNL A   1      41.558  29.568  33.347  1.00  0.00    -0.248 NA
ATOM     52  C   UNL A   1      41.691  30.348  35.543  1.00  0.00     0.031 C 
ATOM     53  C   UNL A   1      44.362  26.659  31.542  1.00  0.00     0.029 A 
ATOM     54  C   UNL A   1      43.516  27.582  32.133  1.00  0.00     0.049 A 
ATOM     55  H   UNL A   1      41.824  28.551  31.323  1.00  0.00     0.167 HD
ATOM     56  C   UNL A   1      42.676  29.019  33.961  1.00  0.00     0.074 A 
ATOM     57  C   UNL A   1      42.729  29.560  35.302  1.00  0.00     0.031 C 
ATOM     58  C   UNL A   1      43.568  28.129  33.462  1.00  0.00     0.037 A 
BRANCH  45  59
ATOM     59  C   UNL A   1      42.487  26.622  27.580  1.00  0.00     0.057 A 
ATOM     60  C   UNL A   1      43.382  27.147  26.641  1.00  0.00     0.134 A 
ATOM     61  C   UNL A   1      42.008  25.322  27.361  1.00  0.00     0.134 A 
ATOM     62  F   UNL A   1      43.860  28.393  26.779  1.00  0.00    -0.206 F 
ATOM     63  C   UNL A   1      43.767  26.416  25.515  1.00  0.00     0.040 A 
ATOM     64  C   UNL A   1      42.404  24.574  26.253  1.00  0.00     0.040 A 
ATOM     65  F   UNL A   1      41.150  24.759  28.226  1.00  0.00    -0.206 F 
ATOM     66  C   UNL A   1      43.282  25.123  25.322  1.00  0.00     0.006 A 
ENDBRANCH  45  59
BRANCH  46  67
ATOM     67  C   UNL A   1      39.313  32.005  35.291  1.00  0.00     0.057 A 
ATOM     68  C   UNL A   1      38.488  31.497  36.302  1.00  0.00     0.134 A 
ATOM     69  C   UNL A   1      39.693  33.349  35.384  1.00  0.00     0.134 A 
ATOM     70  F   UNL A   1      38.064  30.225  36.251  1.00  0.00    -0.206 F 
ATOM     71  C   UNL A   1      38.045  32.297  37.356  1.00  0.00     0.040 A 
ATOM     72  C   UNL A   1      39.282  34.153  36.449  1.00  0.00     0.040 A 
ATOM     73  F   UNL A   1      40.479  33.899  34.447  1.00  0.00    -0.206 F 
ATOM     74  C   UNL A   1      38.449  33.629  37.435  1.00  0.00     0.006 A 
ENDBRANCH  46  67
BRANCH  58  75
ATOM     75  C   UNL A   1      44.685  27.699  34.366  1.00  0.00     0.057 A 
ATOM     76  C   UNL A   1      45.898  28.397  34.419  1.00  0.00     0.134 A 
ATOM     77  C   UNL A   1      44.540  26.589  35.206  1.00  0.00     0.134 A 
ATOM     78  F   UNL A   1      46.105  29.463  33.630  1.00  0.00    -0.206 F 
ATOM     79  C   UNL A   1      46.938  27.992  35.258  1.00  0.00     0.040 A 
ATOM     80  C   UNL A   1      45.564  26.186  36.065  1.00  0.00     0.040 A 
ATOM     81  F   UNL A   1      43.401  25.881  35.210  1.00  0.00    -0.206 F 
ATOM     82  C   UNL A   1      46.770  26.885  36.088  1.00  0.00     0.006 A 
ENDBRANCH  58  75
ENDBRANCH  32  33
ENDBRANCH  25  27
ENDBRANCH  24  25
ENDBRANCH  23  24
ENDBRANCH   1  23
TORSDOF 14
ENDMDL
MODEL 2
REMARK VINA RESULT:     -11.4      3.763      8.879
REMARK SMILES CNC(=O)[C@H](C)S(=O)(=O)c1cc(C(=O)OCCOC(=O)c2ccc(-c3c4nc(c(-c5c(F)cccc5F)c5ccc([nH]5)c(-c5c(F)cccc5F)c5nc(c(-c6c(F)cccc6F)c6ccc3[nH]6)C=C5)C=C4)cc2)c(C)cc1C
REMARK SMILES IDX 16 1 15 2 13 3 14 4 12 5 10 6 11 7 78 8 77 9 79 10 75 11
REMARK SMILES IDX 76 12 7 13 8 14 9 15 5 16 6 17 3 18 1 19 2 20 4 22 17 23
REMARK SMILES IDX 18 24 19 25 20 26 21 27 22 28 74 29 23 30 73 31 24 32 25 33
REMARK SMILES IDX 26 34 67 35 27 36 72 37 66 38 68 39 28 40 71 41 65 42 64 43
REMARK SMILES IDX 29 45 55 46 38 47 54 48 39 49 42 50 53 51 69 52 40 53 41 54
REMARK SMILES IDX 52 56 70 57 43 58 30 59 31 60 36 61 32 62 33 63 35 64 37 65
REMARK SMILES IDX 34 66 56 67 57 68 62 69 58 70 59 71 61 72 63 73 60 74 44 75
REMARK SMILES IDX 45 76 50 77 46 78 47 79 49 80 51 81 48 82
REMARK H PARENT 2 21 68 44 42 55
REMARK Flexibility Score: inf
ROOT
ATOM      1  C   UNL A   1      35.186  21.149  25.130  1.00  0.00     0.275 C 
ENDROOT
BRANCH   1   2
ATOM      2  O   UNL A   1      35.380  22.575  25.008  1.00  0.00    -0.458 OA
BRANCH   2   3
ATOM      3  C   UNL A   1      34.874  23.172  23.905  1.00  0.00     0.338 C 
ATOM      4  O   UNL A   1      35.368  23.164  22.788  1.00  0.00    -0.246 OA
BRANCH   3   5
ATOM      5  C   UNL A   1      33.534  23.765  24.176  1.00  0.00     0.064 A 
ATOM      6  C   UNL A   1      32.340  25.657  25.190  1.00  0.00     0.071 A 
ATOM      7  C   UNL A   1      33.530  24.972  24.917  1.00  0.00     0.036 A 
ATOM      8  C   UNL A   1      31.115  25.045  24.861  1.00  0.00    -0.032 A 
ATOM      9  C   UNL A   1      31.127  23.843  24.133  1.00  0.00     0.009 A 
ATOM     10  C   UNL A   1      29.768  25.599  25.255  1.00  0.00     0.046 C 
ATOM     11  C   UNL A   1      32.320  23.194  23.766  1.00  0.00    -0.036 A 
ATOM     12  C   UNL A   1      32.164  21.887  23.038  1.00  0.00     0.045 C 
BRANCH   6  13
ATOM     13  S   UNL A   1      32.321  27.282  25.955  1.00  0.00     0.190 S 
ATOM     14  O   UNL A   1      33.730  27.595  26.128  1.00  0.00    -0.223 OA
ATOM     15  O   UNL A   1      31.464  27.161  27.123  1.00  0.00    -0.223 OA
BRANCH  13  16
ATOM     16  C   UNL A   1      31.627  28.567  25.005  1.00  0.00     0.199 C 
ATOM     17  C   UNL A   1      31.812  29.987  25.498  1.00  0.00     0.036 C 
BRANCH  16  18
ATOM     18  C   UNL A   1      31.573  28.402  23.504  1.00  0.00     0.238 C 
ATOM     19  C   UNL A   1      34.017  28.605  22.745  1.00  0.00     0.142 C 
ATOM     20  N   UNL A   1      32.591  28.479  22.623  1.00  0.00    -0.358 N 
ATOM     21  H   UNL A   1      32.290  28.439  21.687  1.00  0.00     0.163 HD
ATOM     22  O   UNL A   1      30.460  28.293  22.966  1.00  0.00    -0.274 OA
ENDBRANCH  16  18
ENDBRANCH  13  16
ENDBRANCH   6  13
ENDBRANCH   3   5
ENDBRANCH   2   3
ENDBRANCH   1   2
BRANCH   1  23
ATOM     23  C   UNL A   1      36.511  20.412  24.961  1.00  0.00     0.275 C 
BRANCH  23  24
ATOM     24  O   UNL A   1      37.580  21.374  24.974  1.00  0.00    -0.458 OA
BRANCH  24  25
ATOM     25  C   UNL A   1      38.674  21.025  25.683  1.00  0.00     0.338 C 
ATOM     26  O   UNL A   1      39.281  19.969  25.664  1.00  0.00    -0.246 OA
BRANCH  25  27
ATOM     27  C   UNL A   1      39.153  22.197  26.424  1.00  0.00     0.060 A 
ATOM     28  C   UNL A   1      38.568  23.422  26.133  1.00  0.00     0.016 A 
ATOM     29  C   UNL A   1      40.287  22.129  27.235  1.00  0.00     0.016 A 
ATOM     30  C   UNL A   1      39.204  24.587  26.546  1.00  0.00     0.010 A 
ATOM     31  C   UNL A   1      40.870  23.313  27.714  1.00  0.00     0.010 A 
ATOM     32  C   UNL A   1      40.377  24.565  27.311  1.00  0.00    -0.014 A 
BRANCH  32  33
ATOM     33  C   UNL A   1      41.127  25.844  27.528  1.00  0.00     0.031 A 
ATOM     34  C   UNL A   1      40.574  26.897  28.463  1.00  0.00     0.074 A 
ATOM     35  C   UNL A   1      42.365  26.031  27.021  1.00  0.00     0.049 A 
ATOM     36  N   UNL A   1      41.006  28.112  28.696  1.00  0.00    -0.248 NA
ATOM     37  C   UNL A   1      39.365  26.543  29.222  1.00  0.00     0.031 C 
ATOM     38  C   UNL A   1      43.093  25.083  26.177  1.00  0.00     0.029 A 
ATOM     39  N   UNL A   1      43.256  27.066  27.193  1.00  0.00    -0.354 N 
ATOM     40  C   UNL A   1      40.088  28.684  29.568  1.00  0.00     0.074 A 
ATOM     41  C   UNL A   1      39.075  27.685  29.828  1.00  0.00     0.031 C 
ATOM     42  C   UNL A   1      44.345  25.531  25.990  1.00  0.00     0.029 A 
ATOM     43  C   UNL A   1      44.481  26.847  26.609  1.00  0.00     0.049 A 
ATOM     44  H   UNL A   1      43.036  27.887  27.689  1.00  0.00     0.167 HD
ATOM     45  C   UNL A   1      40.080  29.931  30.101  1.00  0.00     0.037 A 
ATOM     46  C   UNL A   1      45.583  27.619  26.554  1.00  0.00     0.037 A 
ATOM     47  C   UNL A   1      41.128  30.903  29.929  1.00  0.00     0.049 A 
ATOM     48  C   UNL A   1      45.557  28.998  27.156  1.00  0.00     0.074 A 
ATOM     49  C   UNL A   1      41.180  32.210  30.383  1.00  0.00     0.029 A 
ATOM     50  N   UNL A   1      42.333  30.655  29.292  1.00  0.00    -0.354 N 
ATOM     51  N   UNL A   1      44.610  29.585  27.843  1.00  0.00    -0.248 NA
ATOM     52  C   UNL A   1      46.746  29.837  26.938  1.00  0.00     0.031 C 
ATOM     53  C   UNL A   1      42.409  32.761  30.001  1.00  0.00     0.029 A 
ATOM     54  C   UNL A   1      43.134  31.785  29.339  1.00  0.00     0.049 A 
ATOM     55  H   UNL A   1      42.583  29.802  28.867  1.00  0.00     0.167 HD
ATOM     56  C   UNL A   1      45.086  30.856  28.140  1.00  0.00     0.074 A 
ATOM     57  C   UNL A   1      46.421  30.945  27.587  1.00  0.00     0.031 C 
ATOM     58  C   UNL A   1      44.463  31.865  28.795  1.00  0.00     0.037 A 
BRANCH  45  59
ATOM     59  C   UNL A   1      38.860  30.338  30.873  1.00  0.00     0.057 A 
ATOM     60  C   UNL A   1      38.740  30.142  32.253  1.00  0.00     0.134 A 
ATOM     61  C   UNL A   1      37.789  30.956  30.211  1.00  0.00     0.134 A 
ATOM     62  F   UNL A   1      39.718  29.535  32.942  1.00  0.00    -0.206 F 
ATOM     63  C   UNL A   1      37.588  30.524  32.944  1.00  0.00     0.040 A 
ATOM     64  C   UNL A   1      36.644  31.364  30.894  1.00  0.00     0.040 A 
ATOM     65  F   UNL A   1      37.843  31.177  28.888  1.00  0.00    -0.206 F 
ATOM     66  C   UNL A   1      36.539  31.142  32.266  1.00  0.00     0.006 A 
ENDBRANCH  45  59
BRANCH  46  67
ATOM     67  C   UNL A   1      46.807  27.135  25.863  1.00  0.00     0.057 A 
ATOM     68  C   UNL A   1      47.764  26.371  26.543  1.00  0.00     0.134 A 
ATOM     69  C   UNL A   1      47.067  27.450  24.525  1.00  0.00     0.134 A 
ATOM     70  F   UNL A   1      47.588  26.063  27.836  1.00  0.00    -0.206 F 
ATOM     71  C   UNL A   1      48.940  25.949  25.920  1.00  0.00     0.040 A 
ATOM     72  C   UNL A   1      48.224  27.010  23.881  1.00  0.00     0.040 A 
ATOM     73  F   UNL A   1      46.193  28.183  23.818  1.00  0.00    -0.206 F 
ATOM     74  C   UNL A   1      49.169  26.263  24.581  1.00  0.00     0.006 A 
ENDBRANCH  46  67
BRANCH  58  75
ATOM     75  C   UNL A   1      45.225  33.146  28.964  1.00  0.00     0.057 A 
ATOM     76  C   UNL A   1      46.075  33.357  30.056  1.00  0.00     0.134 A 
ATOM     77  C   UNL A   1      45.125  34.170  28.014  1.00  0.00     0.134 A 
ATOM     78  F   UNL A   1      46.206  32.419  31.008  1.00  0.00    -0.206 F 
ATOM     79  C   UNL A   1      46.780  34.552  30.213  1.00  0.00     0.040 A 
ATOM     80  C   UNL A   1      45.841  35.361  28.149  1.00  0.00     0.040 A 
ATOM     81  F   UNL A   1      44.335  34.029  26.940  1.00  0.00    -0.206 F 
ATOM     82  C   UNL A   1      46.667  35.557  29.255  1.00  0.00     0.006 A 
ENDBRANCH  58  75
ENDBRANCH  32  33
ENDBRANCH  25  27
ENDBRANCH  24  25
ENDBRANCH  23  24
ENDBRANCH   1  23
TORSDOF 14
ENDMDL
MODEL 3
REMARK VINA RESULT:     -11.4      3.819      8.921
REMARK SMILES CNC(=O)[C@H](C)S(=O)(=O)c1cc(C(=O)OCCOC(=O)c2ccc(-c3c4nc(c(-c5c(F)cccc5F)c5ccc([nH]5)c(-c5c(F)cccc5F)c5nc(c(-c6c(F)cccc6F)c6ccc3[nH]6)C=C5)C=C4)cc2)c(C)cc1C
REMARK SMILES IDX 16 1 15 2 13 3 14 4 12 5 10 6 11 7 78 8 77 9 79 10 75 11
REMARK SMILES IDX 76 12 7 13 8 14 9 15 5 16 6 17 3 18 1 19 2 20 4 22 17 23
REMARK SMILES IDX 18 24 19 25 20 26 21 27 22 28 74 29 23 30 73 31 24 32 25 33
REMARK SMILES IDX 26 34 67 35 27 36 72 37 66 38 68 39 28 40 71 41 65 42 64 43
REMARK SMILES IDX 29 45 55 46 38 47 54 48 39 49 42 50 53 51 69 52 40 53 41 54
REMARK SMILES IDX 52 56 70 57 43 58 30 59 31 60 36 61 32 62 33 63 35 64 37 65
REMARK SMILES IDX 34 66 56 67 57 68 62 69 58 70 59 71 61 72 63 73 60 74 44 75
REMARK SMILES IDX 45 76 50 77 46 78 47 79 49 80 51 81 48 82
REMARK H PARENT 2 21 68 44 42 55
REMARK Flexibility Score: inf
ROOT
ATOM      1  C   UNL A   1      35.206  21.186  25.046  1.00  0.00     0.275 C 
ENDROOT
BRANCH   1   2
ATOM      2  O   UNL A   1      35.431  22.611  24.970  1.00  0.00    -0.458 OA
BRANCH   2   3
ATOM      3  C   UNL A   1      35.128  23.219  23.800  1.00  0.00     0.338 C 
ATOM      4  O   UNL A   1      35.773  23.156  22.764  1.00  0.00    -0.246 OA
BRANCH   3   5
ATOM      5  C   UNL A   1      33.809  23.909  23.873  1.00  0.00     0.064 A 
ATOM      6  C   UNL A   1      32.609  25.867  24.744  1.00  0.00     0.071 A 
ATOM      7  C   UNL A   1      33.774  25.098  24.642  1.00  0.00     0.036 A 
ATOM      8  C   UNL A   1      31.411  25.358  24.206  1.00  0.00    -0.032 A 
ATOM      9  C   UNL A   1      31.453  24.172  23.451  1.00  0.00     0.009 A 
ATOM     10  C   UNL A   1      30.063  26.006  24.398  1.00  0.00     0.046 C 
ATOM     11  C   UNL A   1      32.639  23.440  23.258  1.00  0.00    -0.036 A 
ATOM     12  C   UNL A   1      32.507  22.164  22.474  1.00  0.00     0.045 C 
BRANCH   6  13
ATOM     13  S   UNL A   1      32.585  27.473  25.547  1.00  0.00     0.190 S 
ATOM     14  O   UNL A   1      33.993  27.808  25.683  1.00  0.00    -0.223 OA
ATOM     15  O   UNL A   1      31.768  27.310  26.737  1.00  0.00    -0.223 OA
BRANCH  13  16
ATOM     16  C   UNL A   1      31.839  28.767  24.649  1.00  0.00     0.199 C 
ATOM     17  C   UNL A   1      31.479  30.031  25.401  1.00  0.00     0.036 C 
BRANCH  16  18
ATOM     18  C   UNL A   1      32.237  28.961  23.205  1.00  0.00     0.238 C 
ATOM     19  C   UNL A   1      30.083  29.732  22.040  1.00  0.00     0.142 C 
ATOM     20  N   UNL A   1      31.451  29.313  22.166  1.00  0.00    -0.358 N 
ATOM     21  H   UNL A   1      31.921  29.275  21.302  1.00  0.00     0.163 HD
ATOM     22  O   UNL A   1      33.395  28.662  22.870  1.00  0.00    -0.274 OA
ENDBRANCH  16  18
ENDBRANCH  13  16
ENDBRANCH   6  13
ENDBRANCH   3   5
ENDBRANCH   2   3
ENDBRANCH   1   2
BRANCH   1  23
ATOM     23  C   UNL A   1      36.530  20.431  24.990  1.00  0.00     0.275 C 
BRANCH  23  24
ATOM     24  O   UNL A   1      37.606  21.385  24.990  1.00  0.00    -0.458 OA
BRANCH  24  25
ATOM     25  C   UNL A   1      38.695  21.040  25.709  1.00  0.00     0.338 C 
ATOM     26  O   UNL A   1      39.304  19.986  25.700  1.00  0.00    -0.246 OA
BRANCH  25  27
ATOM     27  C   UNL A   1      39.163  22.216  26.451  1.00  0.00     0.060 A 
ATOM     28  C   UNL A   1      38.582  23.440  26.147  1.00  0.00     0.016 A 
ATOM     29  C   UNL A   1      40.286  22.152  27.278  1.00  0.00     0.016 A 
ATOM     30  C   UNL A   1      39.212  24.607  26.563  1.00  0.00     0.010 A 
ATOM     31  C   UNL A   1      40.863  23.338  27.759  1.00  0.00     0.010 A 
ATOM     32  C   UNL A   1      40.375  24.588  27.345  1.00  0.00    -0.014 A 
BRANCH  32  33
ATOM     33  C   UNL A   1      41.123  25.868  27.566  1.00  0.00     0.031 A 
ATOM     34  C   UNL A   1      40.564  26.919  28.499  1.00  0.00     0.074 A 
ATOM     35  C   UNL A   1      42.363  26.058  27.065  1.00  0.00     0.049 A 
ATOM     36  N   UNL A   1      40.993  28.135  28.735  1.00  0.00    -0.248 NA
ATOM     37  C   UNL A   1      39.352  26.562  29.253  1.00  0.00     0.031 C 
ATOM     38  C   UNL A   1      43.096  25.112  26.223  1.00  0.00     0.029 A 
ATOM     39  N   UNL A   1      43.250  27.094  27.241  1.00  0.00    -0.354 N 
ATOM     40  C   UNL A   1      40.070  28.705  29.604  1.00  0.00     0.074 A 
ATOM     41  C   UNL A   1      39.058  27.703  29.858  1.00  0.00     0.031 C 
ATOM     42  C   UNL A   1      44.348  25.562  26.041  1.00  0.00     0.029 A 
ATOM     43  C   UNL A   1      44.478  26.877  26.663  1.00  0.00     0.049 A 
ATOM     44  H   UNL A   1      43.028  27.914  27.736  1.00  0.00     0.167 HD
ATOM     45  C   UNL A   1      40.057  29.951  30.137  1.00  0.00     0.037 A 
ATOM     46  C   UNL A   1      45.579  27.652  26.612  1.00  0.00     0.037 A 
ATOM     47  C   UNL A   1      41.104  30.925  29.970  1.00  0.00     0.049 A 
ATOM     48  C   UNL A   1      45.549  29.030  27.216  1.00  0.00     0.074 A 
ATOM     49  C   UNL A   1      41.152  32.232  30.426  1.00  0.00     0.029 A 
ATOM     50  N   UNL A   1      42.312  30.679  29.338  1.00  0.00    -0.354 N 
ATOM     51  N   UNL A   1      44.597  29.615  27.899  1.00  0.00    -0.248 NA
ATOM     52  C   UNL A   1      46.738  29.871  27.003  1.00  0.00     0.031 C 
ATOM     53  C   UNL A   1      42.382  32.785  30.050  1.00  0.00     0.029 A 
ATOM     54  C   UNL A   1      43.112  31.810  29.390  1.00  0.00     0.049 A 
ATOM     55  H   UNL A   1      42.566  29.827  28.914  1.00  0.00     0.167 HD
ATOM     56  C   UNL A   1      45.071  30.886  28.199  1.00  0.00     0.074 A 
ATOM     57  C   UNL A   1      46.407  30.978  27.652  1.00  0.00     0.031 C 
ATOM     58  C   UNL A   1      44.443  31.894  28.852  1.00  0.00     0.037 A 
BRANCH  45  59
ATOM     59  C   UNL A   1      38.834  30.356  30.904  1.00  0.00     0.057 A 
ATOM     60  C   UNL A   1      38.709  30.161  32.284  1.00  0.00     0.134 A 
ATOM     61  C   UNL A   1      37.763  30.969  30.238  1.00  0.00     0.134 A 
ATOM     62  F   UNL A   1      39.687  29.560  32.978  1.00  0.00    -0.206 F 
ATOM     63  C   UNL A   1      37.553  30.541  32.971  1.00  0.00     0.040 A 
ATOM     64  C   UNL A   1      36.614  31.373  30.916  1.00  0.00     0.040 A 
ATOM     65  F   UNL A   1      37.821  31.187  28.915  1.00  0.00    -0.206 F 
ATOM     66  C   UNL A   1      36.504  31.154  32.288  1.00  0.00     0.006 A 
ENDBRANCH  45  59
BRANCH  46  67
ATOM     67  C   UNL A   1      46.807  27.169  25.927  1.00  0.00     0.057 A 
ATOM     68  C   UNL A   1      47.032  27.442  24.572  1.00  0.00     0.134 A 
ATOM     69  C   UNL A   1      47.765  26.398  26.596  1.00  0.00     0.134 A 
ATOM     70  F   UNL A   1      46.135  28.148  23.868  1.00  0.00    -0.206 F 
ATOM     71  C   UNL A   1      48.158  26.955  23.905  1.00  0.00     0.040 A 
ATOM     72  C   UNL A   1      48.910  25.931  25.950  1.00  0.00     0.040 A 
ATOM     73  F   UNL A   1      47.607  26.097  27.894  1.00  0.00    -0.206 F 
ATOM     74  C   UNL A   1      49.105  26.202  24.597  1.00  0.00     0.006 A 
ENDBRANCH  46  67
BRANCH  58  75
ATOM     75  C   UNL A   1      45.202  33.175  29.025  1.00  0.00     0.057 A 
ATOM     76  C   UNL A   1      45.143  34.199  28.071  1.00  0.00     0.134 A 
ATOM     77  C   UNL A   1      45.983  33.398  30.165  1.00  0.00     0.134 A 
ATOM     78  F   UNL A   1      44.422  34.044  26.950  1.00  0.00    -0.206 F 
ATOM     79  C   UNL A   1      45.854  35.390  28.233  1.00  0.00     0.040 A 
ATOM     80  C   UNL A   1      46.682  34.593  30.349  1.00  0.00     0.040 A 
ATOM     81  F   UNL A   1      46.076  32.462  31.121  1.00  0.00    -0.206 F 
ATOM     82  C   UNL A   1      46.623  35.590  29.377  1.00  0.00     0.006 A 
ENDBRANCH  58  75
ENDBRANCH  32  33
ENDBRANCH  25  27
ENDBRANCH  24  25
ENDBRANCH  23  24
ENDBRANCH   1  23
TORSDOF 14
ENDMDL
