MODEL 1
REMARK VINA RESULT:     -12.5      0.000      0.000
REMARK SMILES O=C1O[C@@H](c2ccc(O)c(O)c2)[C@H](C(=O)OCCOC(=O)c2ccc(-c3c4nc(c(-c5c(F)cccc5F)c5ccc([nH]5)c(-c5c(F)cccc5F)c5nc(c(-c6c(F)cccc6F)c6ccc3[nH]6)C=C5)C=C4)cc2)/C1=C\c1ccc(O)c(O)c1
REMARK SMILES IDX 17 1 16 2 14 3 15 4 13 5 1 6 2 7 3 8 76 9 4 10 77 11 5 12
REMARK SMILES IDX 6 13 12 14 7 15 10 16 8 17 11 18 9 20 78 22 79 23 85 24
REMARK SMILES IDX 80 25 83 26 81 27 84 28 82 30 18 32 19 33 20 34 21 35 22 36
REMARK SMILES IDX 23 37 75 38 24 39 74 40 25 41 26 42 27 43 68 44 28 45 73 46
REMARK SMILES IDX 67 47 69 48 29 49 72 50 66 51 65 52 30 54 56 55 39 56 55 57
REMARK SMILES IDX 40 58 43 59 54 60 70 61 41 62 42 63 53 65 71 66 44 67 31 68
REMARK SMILES IDX 32 69 37 70 33 71 34 72 36 73 38 74 35 75 57 76 58 77 63 78
REMARK SMILES IDX 59 79 60 80 62 81 64 82 61 83 45 84 46 85 51 86 47 87 48 88
REMARK SMILES IDX 50 89 52 90 49 91
REMARK H PARENT 11 19 9 21 84 29 82 31 69 53 43 64
REMARK Flexibility Score: inf
ROOT
ATOM      1  C   UNL A   1      30.865  24.563  25.770  1.00  0.00     0.274 C 
ENDROOT
BRANCH   1   2
ATOM      2  O   UNL A   1      31.644  23.344  25.791  1.00  0.00    -0.461 OA
BRANCH   2   3
ATOM      3  C   UNL A   1      33.000  23.495  25.810  1.00  0.00     0.318 C 
ATOM      4  O   UNL A   1      33.573  24.463  26.291  1.00  0.00    -0.251 OA
BRANCH   3   5
ATOM      5  C   UNL A   1      33.687  22.356  25.064  1.00  0.00     0.182 C 
ATOM      6  O   UNL A   1      33.675  23.666  21.782  1.00  0.00    -0.247 OA
ATOM      7  C   UNL A   1      33.502  23.019  22.785  1.00  0.00     0.335 C 
ATOM      8  O   UNL A   1      32.360  22.351  23.129  1.00  0.00    -0.453 OA
ATOM      9  C   UNL A   1      34.481  22.800  23.882  1.00  0.00     0.056 C 
ATOM     10  C   UNL A   1      32.575  21.598  24.341  1.00  0.00     0.226 C 
ATOM     11  C   UNL A   1      35.797  22.884  23.628  1.00  0.00     0.020 C 
BRANCH  10  12
ATOM     12  C   UNL A   1      32.910  20.147  24.019  1.00  0.00    -0.002 A 
ATOM     13  C   UNL A   1      33.969  19.500  24.684  1.00  0.00     0.012 A 
ATOM     14  C   UNL A   1      32.170  19.421  23.070  1.00  0.00     0.057 A 
ATOM     15  C   UNL A   1      34.326  18.187  24.365  1.00  0.00     0.050 A 
ATOM     16  C   UNL A   1      32.528  18.117  22.762  1.00  0.00     0.157 A 
ATOM     17  C   UNL A   1      33.605  17.506  23.394  1.00  0.00     0.157 A 
BRANCH  16  18
ATOM     18  O   UNL A   1      31.812  17.436  21.820  1.00  0.00    -0.504 OA
ATOM     19  H   UNL A   1      32.257  16.954  21.151  1.00  0.00     0.293 HD
ENDBRANCH  16  18
BRANCH  17  20
ATOM     20  O   UNL A   1      33.916  16.226  23.027  1.00  0.00    -0.504 OA
ATOM     21  H   UNL A   1      34.061  15.573  23.683  1.00  0.00     0.293 HD
ENDBRANCH  17  20
ENDBRANCH  10  12
BRANCH  11  22
ATOM     22  C   UNL A   1      36.890  22.648  24.579  1.00  0.00    -0.021 A 
ATOM     23  C   UNL A   1      37.539  21.419  24.721  1.00  0.00     0.012 A 
ATOM     24  C   UNL A   1      37.345  23.720  25.343  1.00  0.00     0.058 A 
ATOM     25  C   UNL A   1      38.602  21.277  25.632  1.00  0.00     0.051 A 
ATOM     26  C   UNL A   1      38.346  23.571  26.287  1.00  0.00     0.157 A 
ATOM     27  C   UNL A   1      38.989  22.357  26.421  1.00  0.00     0.157 A 
BRANCH  26  28
ATOM     28  O   UNL A   1      38.690  24.633  27.073  1.00  0.00    -0.504 OA
ATOM     29  H   UNL A   1      39.590  24.792  27.278  1.00  0.00     0.293 HD
ENDBRANCH  26  28
BRANCH  27  30
ATOM     30  O   UNL A   1      40.005  22.290  27.332  1.00  0.00    -0.504 OA
ATOM     31  H   UNL A   1      40.888  22.177  27.042  1.00  0.00     0.293 HD
ENDBRANCH  27  30
ENDBRANCH  11  22
ENDBRANCH   3   5
ENDBRANCH   2   3
ENDBRANCH   1   2
BRANCH   1  32
ATOM     32  C   UNL A   1      30.735  25.147  24.356  1.00  0.00     0.275 C 
BRANCH  32  33
ATOM     33  O   UNL A   1      30.967  26.573  24.331  1.00  0.00    -0.458 OA
BRANCH  33  34
ATOM     34  C   UNL A   1      32.279  26.890  24.311  1.00  0.00     0.338 C 
ATOM     35  O   UNL A   1      33.111  26.406  23.557  1.00  0.00    -0.246 OA
BRANCH  34  36
ATOM     36  C   UNL A   1      32.642  27.977  25.241  1.00  0.00     0.060 A 
ATOM     37  C   UNL A   1      33.439  29.004  24.737  1.00  0.00     0.016 A 
ATOM     38  C   UNL A   1      32.618  27.734  26.617  1.00  0.00     0.016 A 
ATOM     39  C   UNL A   1      34.342  29.651  25.582  1.00  0.00     0.010 A 
ATOM     40  C   UNL A   1      33.452  28.469  27.481  1.00  0.00     0.010 A 
ATOM     41  C   UNL A   1      34.380  29.391  26.968  1.00  0.00    -0.014 A 
BRANCH  41  42
ATOM     42  C   UNL A   1      35.399  30.072  27.832  1.00  0.00     0.031 A 
ATOM     43  C   UNL A   1      36.834  29.595  27.960  1.00  0.00     0.074 A 
ATOM     44  C   UNL A   1      35.046  31.200  28.479  1.00  0.00     0.049 A 
ATOM     45  N   UNL A   1      37.791  30.019  28.756  1.00  0.00    -0.248 NA
ATOM     46  C   UNL A   1      37.262  28.510  27.071  1.00  0.00     0.031 C 
ATOM     47  C   UNL A   1      33.727  31.832  28.412  1.00  0.00     0.029 A 
ATOM     48  N   UNL A   1      35.764  32.022  29.311  1.00  0.00    -0.354 N 
ATOM     49  C   UNL A   1      38.913  29.241  28.476  1.00  0.00     0.074 A 
ATOM     50  C   UNL A   1      38.525  28.319  27.431  1.00  0.00     0.031 C 
ATOM     51  C   UNL A   1      33.743  32.963  29.122  1.00  0.00     0.029 A 
ATOM     52  C   UNL A   1      35.020  33.059  29.816  1.00  0.00     0.049 A 
ATOM     53  H   UNL A   1      36.716  31.883  29.523  1.00  0.00     0.167 HD
ATOM     54  C   UNL A   1      40.145  29.281  29.045  1.00  0.00     0.037 A 
ATOM     55  C   UNL A   1      35.282  33.943  30.792  1.00  0.00     0.037 A 
ATOM     56  C   UNL A   1      40.535  30.210  30.081  1.00  0.00     0.049 A 
ATOM     57  C   UNL A   1      36.600  33.900  31.492  1.00  0.00     0.074 A 
ATOM     58  C   UNL A   1      41.759  30.330  30.721  1.00  0.00     0.029 A 
ATOM     59  N   UNL A   1      39.707  31.178  30.629  1.00  0.00    -0.354 N 
ATOM     60  N   UNL A   1      37.622  33.109  31.275  1.00  0.00    -0.248 NA
ATOM     61  C   UNL A   1      36.795  34.859  32.584  1.00  0.00     0.031 C 
ATOM     62  C   UNL A   1      41.651  31.327  31.696  1.00  0.00     0.029 A 
ATOM     63  C   UNL A   1      40.382  31.873  31.621  1.00  0.00     0.049 A 
ATOM     64  H   UNL A   1      38.777  31.347  30.353  1.00  0.00     0.167 HD
ATOM     65  C   UNL A   1      38.587  33.477  32.199  1.00  0.00     0.074 A 
ATOM     66  C   UNL A   1      38.033  34.577  32.964  1.00  0.00     0.031 C 
ATOM     67  C   UNL A   1      39.819  32.949  32.394  1.00  0.00     0.037 A 
BRANCH  54  68
ATOM     68  C   UNL A   1      41.176  28.267  28.613  1.00  0.00     0.057 A 
ATOM     69  C   UNL A   1      41.094  26.915  28.964  1.00  0.00     0.134 A 
ATOM     70  C   UNL A   1      42.202  28.638  27.730  1.00  0.00     0.134 A 
ATOM     71  F   UNL A   1      40.140  26.484  29.802  1.00  0.00    -0.206 F 
ATOM     72  C   UNL A   1      41.994  25.970  28.457  1.00  0.00     0.040 A 
ATOM     73  C   UNL A   1      43.092  27.701  27.200  1.00  0.00     0.040 A 
ATOM     74  F   UNL A   1      42.333  29.914  27.337  1.00  0.00    -0.206 F 
ATOM     75  C   UNL A   1      42.990  26.361  27.563  1.00  0.00     0.006 A 
ENDBRANCH  54  68
BRANCH  55  76
ATOM     76  C   UNL A   1      34.204  34.874  31.207  1.00  0.00     0.057 A 
ATOM     77  C   UNL A   1      33.566  34.748  32.442  1.00  0.00     0.134 A 
ATOM     78  C   UNL A   1      33.858  35.971  30.404  1.00  0.00     0.134 A 
ATOM     79  F   UNL A   1      33.837  33.707  33.241  1.00  0.00    -0.206 F 
ATOM     80  C   UNL A   1      32.632  35.692  32.874  1.00  0.00     0.040 A 
ATOM     81  C   UNL A   1      32.958  36.940  30.838  1.00  0.00     0.040 A 
ATOM     82  F   UNL A   1      34.444  36.147  29.209  1.00  0.00    -0.206 F 
ATOM     83  C   UNL A   1      32.341  36.800  32.079  1.00  0.00     0.006 A 
ENDBRANCH  55  76
BRANCH  67  84
ATOM     84  C   UNL A   1      40.655  33.582  33.466  1.00  0.00     0.057 A 
ATOM     85  C   UNL A   1      41.577  34.597  33.181  1.00  0.00     0.134 A 
ATOM     86  C   UNL A   1      40.556  33.151  34.795  1.00  0.00     0.134 A 
ATOM     87  F   UNL A   1      41.732  35.041  31.924  1.00  0.00    -0.206 F 
ATOM     88  C   UNL A   1      42.401  35.131  34.172  1.00  0.00     0.040 A 
ATOM     89  C   UNL A   1      41.356  33.698  35.799  1.00  0.00     0.040 A 
ATOM     90  F   UNL A   1      39.687  32.188  35.138  1.00  0.00    -0.206 F 
ATOM     91  C   UNL A   1      42.291  34.682  35.486  1.00  0.00     0.006 A 
ENDBRANCH  67  84
ENDBRANCH  41  42
ENDBRANCH  34  36
ENDBRANCH  33  34
ENDBRANCH  32  33
ENDBRANCH   1  32
TORSDOF 17
ENDMDL
MODEL 2
REMARK VINA RESULT:     -12.2      3.486      6.864
REMARK SMILES O=C1O[C@@H](c2ccc(O)c(O)c2)[C@H](C(=O)OCCOC(=O)c2ccc(-c3c4nc(c(-c5c(F)cccc5F)c5ccc([nH]5)c(-c5c(F)cccc5F)c5nc(c(-c6c(F)cccc6F)c6ccc3[nH]6)C=C5)C=C4)cc2)/C1=C\c1ccc(O)c(O)c1
REMARK SMILES IDX 17 1 16 2 14 3 15 4 13 5 1 6 2 7 3 8 76 9 4 10 77 11 5 12
REMARK SMILES IDX 6 13 12 14 7 15 10 16 8 17 11 18 9 20 78 22 79 23 85 24
REMARK SMILES IDX 80 25 83 26 81 27 84 28 82 30 18 32 19 33 20 34 21 35 22 36
REMARK SMILES IDX 23 37 75 38 24 39 74 40 25 41 26 42 27 43 68 44 28 45 73 46
REMARK SMILES IDX 67 47 69 48 29 49 72 50 66 51 65 52 30 54 56 55 39 56 55 57
REMARK SMILES IDX 40 58 43 59 54 60 70 61 41 62 42 63 53 65 71 66 44 67 31 68
REMARK SMILES IDX 32 69 37 70 33 71 34 72 36 73 38 74 35 75 57 76 58 77 63 78
REMARK SMILES IDX 59 79 60 80 62 81 64 82 61 83 45 84 46 85 51 86 47 87 48 88
REMARK SMILES IDX 50 89 52 90 49 91
REMARK H PARENT 11 19 9 21 84 29 82 31 69 53 43 64
REMARK Flexibility Score: inf
ROOT
ATOM      1  C   UNL A   1      31.771  30.239  25.599  1.00  0.00     0.274 C 
ENDROOT
BRANCH   1   2
ATOM      2  O   UNL A   1      31.415  29.050  26.343  1.00  0.00    -0.461 OA
BRANCH   2   3
ATOM      3  C   UNL A   1      32.224  27.966  26.174  1.00  0.00     0.318 C 
ATOM      4  O   UNL A   1      33.214  27.739  26.857  1.00  0.00    -0.251 OA
BRANCH   3   5
ATOM      5  C   UNL A   1      31.790  27.143  24.966  1.00  0.00     0.182 C 
ATOM      6  O   UNL A   1      29.592  24.859  26.529  1.00  0.00    -0.247 OA
ATOM      7  C   UNL A   1      30.498  25.398  25.944  1.00  0.00     0.335 C 
ATOM      8  O   UNL A   1      31.811  25.018  25.962  1.00  0.00    -0.453 OA
ATOM      9  C   UNL A   1      30.406  26.599  25.072  1.00  0.00     0.056 C 
ATOM     10  C   UNL A   1      32.574  25.835  25.048  1.00  0.00     0.226 C 
ATOM     11  C   UNL A   1      29.245  26.892  24.462  1.00  0.00     0.020 C 
BRANCH  10  12
ATOM     12  C   UNL A   1      32.750  25.123  23.713  1.00  0.00    -0.002 A 
ATOM     13  C   UNL A   1      32.911  23.724  23.671  1.00  0.00     0.012 A 
ATOM     14  C   UNL A   1      32.742  25.833  22.499  1.00  0.00     0.057 A 
ATOM     15  C   UNL A   1      33.128  23.058  22.461  1.00  0.00     0.050 A 
ATOM     16  C   UNL A   1      32.953  25.164  21.303  1.00  0.00     0.157 A 
ATOM     17  C   UNL A   1      33.157  23.789  21.282  1.00  0.00     0.157 A 
BRANCH  16  18
ATOM     18  O   UNL A   1      32.966  25.876  20.138  1.00  0.00    -0.504 OA
ATOM     19  H   UNL A   1      32.348  25.679  19.462  1.00  0.00     0.293 HD
ENDBRANCH  16  18
BRANCH  17  20
ATOM     20  O   UNL A   1      33.380  23.198  20.070  1.00  0.00    -0.504 OA
ATOM     21  H   UNL A   1      32.955  22.389  19.858  1.00  0.00     0.293 HD
ENDBRANCH  17  20
ENDBRANCH  10  12
BRANCH  11  22
ATOM     22  C   UNL A   1      28.998  28.004  23.536  1.00  0.00    -0.021 A 
ATOM     23  C   UNL A   1      27.735  28.557  23.313  1.00  0.00     0.012 A 
ATOM     24  C   UNL A   1      30.087  28.575  22.883  1.00  0.00     0.058 A 
ATOM     25  C   UNL A   1      27.581  29.645  22.433  1.00  0.00     0.051 A 
ATOM     26  C   UNL A   1      29.934  29.602  21.968  1.00  0.00     0.157 A 
ATOM     27  C   UNL A   1      28.686  30.151  21.754  1.00  0.00     0.157 A 
BRANCH  26  28
ATOM     28  O   UNL A   1      31.025  30.063  21.289  1.00  0.00    -0.504 OA
ATOM     29  H   UNL A   1      31.812  29.555  21.266  1.00  0.00     0.293 HD
ENDBRANCH  26  28
BRANCH  27  30
ATOM     30  O   UNL A   1      28.610  31.197  20.879  1.00  0.00    -0.504 OA
ATOM     31  H   UNL A   1      29.198  31.243  20.151  1.00  0.00     0.293 HD
ENDBRANCH  27  30
ENDBRANCH  11  22
ENDBRANCH   3   5
ENDBRANCH   2   3
ENDBRANCH   1   2
BRANCH   1  32
ATOM     32  C   UNL A   1      31.583  31.520  26.424  1.00  0.00     0.275 C 
BRANCH  32  33
ATOM     33  O   UNL A   1      32.383  31.518  27.627  1.00  0.00    -0.458 OA
BRANCH  33  34
ATOM     34  C   UNL A   1      33.297  32.512  27.649  1.00  0.00     0.338 C 
ATOM     35  O   UNL A   1      33.040  33.704  27.732  1.00  0.00    -0.246 OA
BRANCH  34  36
ATOM     36  C   UNL A   1      34.693  32.035  27.659  1.00  0.00     0.060 A 
ATOM     37  C   UNL A   1      34.897  30.669  27.843  1.00  0.00     0.016 A 
ATOM     38  C   UNL A   1      35.718  32.934  27.970  1.00  0.00     0.016 A 
ATOM     39  C   UNL A   1      36.042  30.228  28.508  1.00  0.00     0.010 A 
ATOM     40  C   UNL A   1      36.919  32.469  28.539  1.00  0.00     0.010 A 
ATOM     41  C   UNL A   1      37.072  31.115  28.883  1.00  0.00    -0.014 A 
BRANCH  41  42
ATOM     42  C   UNL A   1      38.263  30.606  29.639  1.00  0.00     0.031 A 
ATOM     43  C   UNL A   1      39.278  29.648  29.045  1.00  0.00     0.074 A 
ATOM     44  C   UNL A   1      38.481  31.070  30.886  1.00  0.00     0.049 A 
ATOM     45  N   UNL A   1      40.292  29.039  29.619  1.00  0.00    -0.248 NA
ATOM     46  C   UNL A   1      39.155  29.340  27.616  1.00  0.00     0.031 C 
ATOM     47  C   UNL A   1      37.640  32.045  31.581  1.00  0.00     0.029 A 
ATOM     48  N   UNL A   1      39.480  30.793  31.786  1.00  0.00    -0.354 N 
ATOM     49  C   UNL A   1      40.903  28.267  28.631  1.00  0.00     0.074 A 
ATOM     50  C   UNL A   1      40.152  28.487  27.415  1.00  0.00     0.031 C 
ATOM     51  C   UNL A   1      38.181  32.324  32.771  1.00  0.00     0.029 A 
ATOM     52  C   UNL A   1      39.318  31.440  32.984  1.00  0.00     0.049 A 
ATOM     53  H   UNL A   1      40.235  30.191  31.591  1.00  0.00     0.167 HD
ATOM     54  C   UNL A   1      41.978  27.444  28.731  1.00  0.00     0.037 A 
ATOM     55  C   UNL A   1      39.943  31.290  34.164  1.00  0.00     0.037 A 
ATOM     56  C   UNL A   1      42.734  27.235  29.944  1.00  0.00     0.049 A 
ATOM     57  C   UNL A   1      41.048  30.294  34.290  1.00  0.00     0.074 A 
ATOM     58  C   UNL A   1      43.839  26.422  30.147  1.00  0.00     0.029 A 
ATOM     59  N   UNL A   1      42.464  27.843  31.161  1.00  0.00    -0.354 N 
ATOM     60  N   UNL A   1      41.562  29.513  33.372  1.00  0.00    -0.248 NA
ATOM     61  C   UNL A   1      41.647  30.144  35.620  1.00  0.00     0.031 C 
ATOM     62  C   UNL A   1      44.196  26.491  31.497  1.00  0.00     0.029 A 
ATOM     63  C   UNL A   1      43.358  27.396  32.123  1.00  0.00     0.049 A 
ATOM     64  H   UNL A   1      41.744  28.496  31.317  1.00  0.00     0.167 HD
ATOM     65  C   UNL A   1      42.551  28.782  34.010  1.00  0.00     0.074 A 
ATOM     66  C   UNL A   1      42.577  29.229  35.389  1.00  0.00     0.031 C 
ATOM     67  C   UNL A   1      43.363  27.826  33.497  1.00  0.00     0.037 A 
BRANCH  54  68
ATOM     68  C   UNL A   1      42.399  26.653  27.518  1.00  0.00     0.057 A 
ATOM     69  C   UNL A   1      43.339  27.129  26.597  1.00  0.00     0.134 A 
ATOM     70  C   UNL A   1      41.938  25.338  27.340  1.00  0.00     0.134 A 
ATOM     71  F   UNL A   1      43.826  28.374  26.703  1.00  0.00    -0.206 F 
ATOM     72  C   UNL A   1      43.803  26.332  25.543  1.00  0.00     0.040 A 
ATOM     73  C   UNL A   1      42.410  24.526  26.306  1.00  0.00     0.040 A 
ATOM     74  F   UNL A   1      41.048  24.808  28.192  1.00  0.00    -0.206 F 
ATOM     75  C   UNL A   1      43.346  25.022  25.403  1.00  0.00     0.006 A 
ENDBRANCH  54  68
BRANCH  55  76
ATOM     76  C   UNL A   1      39.441  32.056  35.330  1.00  0.00     0.057 A 
ATOM     77  C   UNL A   1      39.829  33.378  35.558  1.00  0.00     0.134 A 
ATOM     78  C   UNL A   1      38.484  31.500  36.192  1.00  0.00     0.134 A 
ATOM     79  F   UNL A   1      40.759  33.953  34.782  1.00  0.00    -0.206 F 
ATOM     80  C   UNL A   1      39.268  34.129  36.592  1.00  0.00     0.040 A 
ATOM     81  C   UNL A   1      37.888  32.250  37.203  1.00  0.00     0.040 A 
ATOM     82  F   UNL A   1      38.067  30.236  36.017  1.00  0.00    -0.206 F 
ATOM     83  C   UNL A   1      38.282  33.571  37.405  1.00  0.00     0.006 A 
ENDBRANCH  55  76
BRANCH  67  84
ATOM     84  C   UNL A   1      44.363  27.223  34.437  1.00  0.00     0.057 A 
ATOM     85  C   UNL A   1      45.616  27.810  34.657  1.00  0.00     0.134 A 
ATOM     86  C   UNL A   1      44.081  26.028  35.110  1.00  0.00     0.134 A 
ATOM     87  F   UNL A   1      45.955  28.947  34.030  1.00  0.00    -0.206 F 
ATOM     88  C   UNL A   1      46.569  27.206  35.480  1.00  0.00     0.040 A 
ATOM     89  C   UNL A   1      45.015  25.429  35.956  1.00  0.00     0.040 A 
ATOM     90  F   UNL A   1      42.896  25.418  34.950  1.00  0.00    -0.206 F 
ATOM     91  C   UNL A   1      46.268  26.013  36.132  1.00  0.00     0.006 A 
ENDBRANCH  67  84
ENDBRANCH  41  42
ENDBRANCH  34  36
ENDBRANCH  33  34
ENDBRANCH  32  33
ENDBRANCH   1  32
TORSDOF 17
ENDMDL
MODEL 3
REMARK VINA RESULT:     -12.1      0.612      3.632
REMARK SMILES O=C1O[C@@H](c2ccc(O)c(O)c2)[C@H](C(=O)OCCOC(=O)c2ccc(-c3c4nc(c(-c5c(F)cccc5F)c5ccc([nH]5)c(-c5c(F)cccc5F)c5nc(c(-c6c(F)cccc6F)c6ccc3[nH]6)C=C5)C=C4)cc2)/C1=C\c1ccc(O)c(O)c1
REMARK SMILES IDX 17 1 16 2 14 3 15 4 13 5 1 6 2 7 3 8 76 9 4 10 77 11 5 12
REMARK SMILES IDX 6 13 12 14 7 15 10 16 8 17 11 18 9 20 78 22 79 23 85 24
REMARK SMILES IDX 80 25 83 26 81 27 84 28 82 30 18 32 19 33 20 34 21 35 22 36
REMARK SMILES IDX 23 37 75 38 24 39 74 40 25 41 26 42 27 43 68 44 28 45 73 46
REMARK SMILES IDX 67 47 69 48 29 49 72 50 66 51 65 52 30 54 56 55 39 56 55 57
REMARK SMILES IDX 40 58 43 59 54 60 70 61 41 62 42 63 53 65 71 66 44 67 31 68
REMARK SMILES IDX 32 69 37 70 33 71 34 72 36 73 38 74 35 75 57 76 58 77 63 78
REMARK SMILES IDX 59 79 60 80 62 81 64 82 61 83 45 84 46 85 51 86 47 87 48 88
REMARK SMILES IDX 50 89 52 90 49 91
REMARK H PARENT 11 19 9 21 84 29 82 31 69 53 43 64
REMARK Flexibility Score: inf
ROOT
ATOM      1  C   UNL A   1      33.054  25.134  21.368  1.00  0.00     0.274 C 
ENDROOT
BRANCH   1   2
ATOM      2  O   UNL A   1      33.913  24.319  22.199  1.00  0.00    -0.461 OA
BRANCH   2   3
ATOM      3  C   UNL A   1      33.315  23.283  22.853  1.00  0.00     0.318 C 
ATOM      4  O   UNL A   1      32.142  22.968  22.705  1.00  0.00    -0.251 OA
BRANCH   3   5
ATOM      5  C   UNL A   1      34.269  22.648  23.859  1.00  0.00     0.182 C 
ATOM      6  O   UNL A   1      32.528  23.304  26.865  1.00  0.00    -0.247 OA
ATOM      7  C   UNL A   1      33.320  23.260  25.956  1.00  0.00     0.335 C 
ATOM      8  O   UNL A   1      34.137  24.276  25.545  1.00  0.00    -0.453 OA
ATOM      9  C   UNL A   1      33.592  22.098  25.069  1.00  0.00     0.056 C 
ATOM     10  C   UNL A   1      35.025  23.806  24.508  1.00  0.00     0.226 C 
ATOM     11  C   UNL A   1      33.346  20.852  25.508  1.00  0.00     0.020 C 
BRANCH  10  12
ATOM     12  C   UNL A   1      36.378  23.424  25.093  1.00  0.00    -0.002 A 
ATOM     13  C   UNL A   1      36.984  22.203  24.740  1.00  0.00     0.012 A 
ATOM     14  C   UNL A   1      37.057  24.277  25.982  1.00  0.00     0.057 A 
ATOM     15  C   UNL A   1      38.199  21.809  25.307  1.00  0.00     0.050 A 
ATOM     16  C   UNL A   1      38.265  23.881  26.536  1.00  0.00     0.157 A 
ATOM     17  C   UNL A   1      38.828  22.652  26.213  1.00  0.00     0.157 A 
BRANCH  16  18
ATOM     18  O   UNL A   1      38.896  24.713  27.415  1.00  0.00    -0.504 OA
ATOM     19  H   UNL A   1      38.668  25.621  27.448  1.00  0.00     0.293 HD
ENDBRANCH  16  18
BRANCH  17  20
ATOM     20  O   UNL A   1      40.010  22.316  26.813  1.00  0.00    -0.504 OA
ATOM     21  H   UNL A   1      40.604  21.732  26.383  1.00  0.00     0.293 HD
ENDBRANCH  17  20
ENDBRANCH  10  12
BRANCH  11  22
ATOM     22  C   UNL A   1      33.603  19.601  24.784  1.00  0.00    -0.021 A 
ATOM     23  C   UNL A   1      34.751  18.826  24.964  1.00  0.00     0.012 A 
ATOM     24  C   UNL A   1      32.626  19.130  23.911  1.00  0.00     0.058 A 
ATOM     25  C   UNL A   1      34.912  17.620  24.257  1.00  0.00     0.051 A 
ATOM     26  C   UNL A   1      32.808  17.979  23.165  1.00  0.00     0.157 A 
ATOM     27  C   UNL A   1      33.940  17.212  23.348  1.00  0.00     0.157 A 
BRANCH  26  28
ATOM     28  O   UNL A   1      31.857  17.612  22.256  1.00  0.00    -0.504 OA
ATOM     29  H   UNL A   1      31.763  18.092  21.457  1.00  0.00     0.293 HD
ENDBRANCH  26  28
BRANCH  27  30
ATOM     30  O   UNL A   1      34.034  16.059  22.622  1.00  0.00    -0.504 OA
ATOM     31  H   UNL A   1      34.869  15.764  22.317  1.00  0.00     0.293 HD
ENDBRANCH  27  30
ENDBRANCH  11  22
ENDBRANCH   3   5
ENDBRANCH   2   3
ENDBRANCH   1   2
BRANCH   1  32
ATOM     32  C   UNL A   1      32.844  26.539  21.949  1.00  0.00     0.275 C 
BRANCH  32  33
ATOM     33  O   UNL A   1      33.454  26.689  23.249  1.00  0.00    -0.458 OA
BRANCH  33  34
ATOM     34  C   UNL A   1      32.548  26.792  24.245  1.00  0.00     0.338 C 
ATOM     35  O   UNL A   1      31.588  26.052  24.404  1.00  0.00    -0.246 OA
BRANCH  34  36
ATOM     36  C   UNL A   1      32.860  27.849  25.226  1.00  0.00     0.060 A 
ATOM     37  C   UNL A   1      33.553  28.964  24.760  1.00  0.00     0.016 A 
ATOM     38  C   UNL A   1      32.908  27.524  26.586  1.00  0.00     0.016 A 
ATOM     39  C   UNL A   1      34.434  29.632  25.612  1.00  0.00     0.010 A 
ATOM     40  C   UNL A   1      33.715  28.273  27.464  1.00  0.00     0.010 A 
ATOM     41  C   UNL A   1      34.546  29.295  26.977  1.00  0.00    -0.014 A 
BRANCH  41  42
ATOM     42  C   UNL A   1      35.542  30.006  27.846  1.00  0.00     0.031 A 
ATOM     43  C   UNL A   1      36.985  29.559  27.994  1.00  0.00     0.074 A 
ATOM     44  C   UNL A   1      35.158  31.132  28.478  1.00  0.00     0.049 A 
ATOM     45  N   UNL A   1      37.923  30.011  28.796  1.00  0.00    -0.248 NA
ATOM     46  C   UNL A   1      37.445  28.476  27.119  1.00  0.00     0.031 C 
ATOM     47  C   UNL A   1      33.827  31.736  28.390  1.00  0.00     0.029 A 
ATOM     48  N   UNL A   1      35.850  31.976  29.310  1.00  0.00    -0.354 N 
ATOM     49  C   UNL A   1      39.065  29.254  28.536  1.00  0.00     0.074 A 
ATOM     50  C   UNL A   1      38.708  28.315  27.495  1.00  0.00     0.031 C 
ATOM     51  C   UNL A   1      33.812  32.874  29.090  1.00  0.00     0.029 A 
ATOM     52  C   UNL A   1      35.079  33.002  29.797  1.00  0.00     0.049 A 
ATOM     53  H   UNL A   1      36.802  31.859  29.534  1.00  0.00     0.167 HD
ATOM     54  C   UNL A   1      40.290  29.325  29.118  1.00  0.00     0.037 A 
ATOM     55  C   UNL A   1      35.311  33.901  30.767  1.00  0.00     0.037 A 
ATOM     56  C   UNL A   1      40.648  30.271  30.149  1.00  0.00     0.049 A 
ATOM     57  C   UNL A   1      36.622  33.891  31.482  1.00  0.00     0.074 A 
ATOM     58  C   UNL A   1      41.862  30.422  30.801  1.00  0.00     0.029 A 
ATOM     59  N   UNL A   1      39.794  31.227  30.678  1.00  0.00    -0.354 N 
ATOM     60  N   UNL A   1      37.663  33.120  31.283  1.00  0.00    -0.248 NA
ATOM     61  C   UNL A   1      36.785  34.864  32.567  1.00  0.00     0.031 C 
ATOM     62  C   UNL A   1      41.723  31.426  31.766  1.00  0.00     0.029 A 
ATOM     63  C   UNL A   1      40.444  31.945  31.671  1.00  0.00     0.049 A 
ATOM     64  H   UNL A   1      38.864  31.373  30.391  1.00  0.00     0.167 HD
ATOM     65  C   UNL A   1      38.609  33.516  32.215  1.00  0.00     0.074 A 
ATOM     66  C   UNL A   1      38.025  34.611  32.964  1.00  0.00     0.031 C 
ATOM     67  C   UNL A   1      39.850  33.016  32.429  1.00  0.00     0.037 A 
BRANCH  54  68
ATOM     68  C   UNL A   1      41.345  28.329  28.707  1.00  0.00     0.057 A 
ATOM     69  C   UNL A   1      41.285  26.977  29.064  1.00  0.00     0.134 A 
ATOM     70  C   UNL A   1      42.377  28.715  27.836  1.00  0.00     0.134 A 
ATOM     71  F   UNL A   1      40.327  26.533  29.891  1.00  0.00    -0.206 F 
ATOM     72  C   UNL A   1      42.210  26.047  28.575  1.00  0.00     0.040 A 
ATOM     73  C   UNL A   1      43.293  27.792  27.324  1.00  0.00     0.040 A 
ATOM     74  F   UNL A   1      42.489  29.990  27.437  1.00  0.00    -0.206 F 
ATOM     75  C   UNL A   1      43.211  26.452  27.693  1.00  0.00     0.006 A 
ENDBRANCH  54  68
BRANCH  55  76
ATOM     76  C   UNL A   1      34.210  34.812  31.162  1.00  0.00     0.057 A 
ATOM     77  C   UNL A   1      33.557  34.681  32.389  1.00  0.00     0.134 A 
ATOM     78  C   UNL A   1      33.854  35.897  30.347  1.00  0.00     0.134 A 
ATOM     79  F   UNL A   1      33.838  33.650  33.198  1.00  0.00    -0.206 F 
ATOM     80  C   UNL A   1      32.600  35.609  32.802  1.00  0.00     0.040 A 
ATOM     81  C   UNL A   1      32.929  36.851  30.763  1.00  0.00     0.040 A 
ATOM     82  F   UNL A   1      34.453  36.078  29.160  1.00  0.00    -0.206 F 
ATOM     83  C   UNL A   1      32.297  36.707  31.997  1.00  0.00     0.006 A 
ENDBRANCH  55  76
BRANCH  67  84
ATOM     84  C   UNL A   1      40.661  33.675  33.504  1.00  0.00     0.057 A 
ATOM     85  C   UNL A   1      41.575  34.697  33.217  1.00  0.00     0.134 A 
ATOM     86  C   UNL A   1      40.545  33.265  34.837  1.00  0.00     0.134 A 
ATOM     87  F   UNL A   1      41.745  35.124  31.956  1.00  0.00    -0.206 F 
ATOM     88  C   UNL A   1      42.377  35.257  34.212  1.00  0.00     0.040 A 
ATOM     89  C   UNL A   1      41.322  33.837  35.846  1.00  0.00     0.040 A 
ATOM     90  F   UNL A   1      39.683  32.297  35.182  1.00  0.00    -0.206 F 
ATOM     91  C   UNL A   1      42.250  34.828  35.531  1.00  0.00     0.006 A 
ENDBRANCH  67  84
ENDBRANCH  41  42
ENDBRANCH  34  36
ENDBRANCH  33  34
ENDBRANCH  32  33
ENDBRANCH   1  32
TORSDOF 17
ENDMDL
