MODEL 1
REMARK VINA RESULT:      -9.7      0.000      0.000
REMARK SMILES CC(=O)/C=C(/C)NCC(=O)OCCOC(=O)c1ccc(-c2c3nc(c(-c4c(F)cccc4F)c4ccc([nH]4)c(-c4c(F)cccc4F)c4nc(c(-c5c(F)cccc5F)c5ccc2[nH]5)C=C4)C=C3)cc1
REMARK SMILES IDX 12 1 11 2 9 3 10 4 8 5 7 6 5 8 4 9 6 10 2 11 1 12 3 13 13 14
REMARK SMILES IDX 14 15 15 16 16 17 17 18 18 19 70 20 19 21 69 22 20 23 21 24
REMARK SMILES IDX 22 25 63 26 23 27 68 28 62 29 64 30 24 31 67 32 61 33 60 34
REMARK SMILES IDX 25 36 51 37 34 38 50 39 35 40 38 41 49 42 65 43 36 44 37 45
REMARK SMILES IDX 48 47 66 48 39 49 26 50 27 51 32 52 28 53 29 54 31 55 33 56
REMARK SMILES IDX 30 57 52 58 53 59 58 60 54 61 55 62 57 63 59 64 56 65 40 66
REMARK SMILES IDX 41 67 46 68 42 69 43 70 45 71 47 72 44 73
REMARK H PARENT 7 7 64 35 38 46
REMARK Flexibility Score: inf
ROOT
ATOM      1  C   UNL A   1      43.811  21.811  25.637  1.00  0.00     0.274 C 
ENDROOT
BRANCH   1   2
ATOM      2  O   UNL A   1      43.617  20.569  24.939  1.00  0.00    -0.461 OA
BRANCH   2   3
ATOM      3  C   UNL A   1      42.942  19.595  25.614  1.00  0.00     0.325 C 
ATOM      4  O   UNL A   1      43.123  18.390  25.476  1.00  0.00    -0.250 OA
BRANCH   3   5
ATOM      5  C   UNL A   1      42.023  20.189  26.678  1.00  0.00     0.236 C 
BRANCH   5   6
ATOM      6  N   UNL A   1      40.708  20.506  26.144  1.00  0.00    -0.378 N 
ATOM      7  H   UNL A   1      40.393  19.915  25.423  1.00  0.00     0.160 HD
BRANCH   6   8
ATOM      8  C   UNL A   1      39.842  21.514  26.502  1.00  0.00     0.012 C 
ATOM      9  C   UNL A   1      38.619  21.829  26.034  1.00  0.00     0.067 C 
ATOM     10  C   UNL A   1      40.439  22.462  27.536  1.00  0.00     0.064 C 
BRANCH   9  11
ATOM     11  C   UNL A   1      37.698  21.305  24.985  1.00  0.00     0.154 C 
ATOM     12  C   UNL A   1      36.983  22.197  24.019  1.00  0.00     0.093 C 
ATOM     13  O   UNL A   1      37.557  20.080  24.915  1.00  0.00    -0.295 OA
ENDBRANCH   9  11
ENDBRANCH   6   8
ENDBRANCH   5   6
ENDBRANCH   3   5
ENDBRANCH   2   3
ENDBRANCH   1   2
BRANCH   1  14
ATOM     14  C   UNL A   1      44.340  22.884  24.681  1.00  0.00     0.275 C 
BRANCH  14  15
ATOM     15  O   UNL A   1      43.579  24.105  24.777  1.00  0.00    -0.458 OA
BRANCH  15  16
ATOM     16  C   UNL A   1      44.282  25.193  25.167  1.00  0.00     0.338 C 
ATOM     17  O   UNL A   1      45.308  25.634  24.680  1.00  0.00    -0.246 OA
BRANCH  16  18
ATOM     18  C   UNL A   1      43.559  25.890  26.239  1.00  0.00     0.060 A 
ATOM     19  C   UNL A   1      43.872  27.225  26.502  1.00  0.00     0.016 A 
ATOM     20  C   UNL A   1      42.675  25.192  27.061  1.00  0.00     0.016 A 
ATOM     21  C   UNL A   1      43.327  27.864  27.609  1.00  0.00     0.010 A 
ATOM     22  C   UNL A   1      42.098  25.847  28.152  1.00  0.00     0.010 A 
ATOM     23  C   UNL A   1      42.433  27.182  28.442  1.00  0.00    -0.014 A 
BRANCH  23  24
ATOM     24  C   UNL A   1      41.878  27.858  29.636  1.00  0.00     0.031 A 
ATOM     25  C   UNL A   1      40.632  28.684  29.515  1.00  0.00     0.074 A 
ATOM     26  C   UNL A   1      42.480  27.710  30.831  1.00  0.00     0.049 A 
ATOM     27  N   UNL A   1      40.084  29.488  30.389  1.00  0.00    -0.248 NA
ATOM     28  C   UNL A   1      39.904  28.594  28.238  1.00  0.00     0.031 C 
ATOM     29  C   UNL A   1      43.653  26.874  31.091  1.00  0.00     0.029 A 
ATOM     30  N   UNL A   1      42.185  28.261  32.052  1.00  0.00    -0.354 N 
ATOM     31  C   UNL A   1      38.966  30.022  29.763  1.00  0.00     0.074 A 
ATOM     32  C   UNL A   1      38.914  29.456  28.431  1.00  0.00     0.031 C 
ATOM     33  C   UNL A   1      43.975  26.963  32.391  1.00  0.00     0.029 A 
ATOM     34  C   UNL A   1      43.075  27.912  33.038  1.00  0.00     0.049 A 
ATOM     35  H   UNL A   1      41.411  28.849  32.206  1.00  0.00     0.167 HD
ATOM     36  C   UNL A   1      38.068  30.906  30.256  1.00  0.00     0.037 A 
ATOM     37  C   UNL A   1      43.181  28.345  34.307  1.00  0.00     0.037 A 
ATOM     38  C   UNL A   1      38.117  31.451  31.587  1.00  0.00     0.049 A 
ATOM     39  C   UNL A   1      42.216  29.381  34.807  1.00  0.00     0.074 A 
ATOM     40  C   UNL A   1      37.277  32.381  32.174  1.00  0.00     0.029 A 
ATOM     41  N   UNL A   1      39.056  31.098  32.546  1.00  0.00    -0.354 N 
ATOM     42  N   UNL A   1      41.207  29.940  34.184  1.00  0.00    -0.248 NA
ATOM     43  C   UNL A   1      42.417  29.864  36.181  1.00  0.00     0.031 C 
ATOM     44  C   UNL A   1      37.720  32.607  33.483  1.00  0.00     0.029 A 
ATOM     45  C   UNL A   1      38.817  31.795  33.718  1.00  0.00     0.049 A 
ATOM     46  H   UNL A   1      39.782  30.449  32.412  1.00  0.00     0.167 HD
ATOM     47  C   UNL A   1      40.648  30.831  35.089  1.00  0.00     0.074 A 
ATOM     48  C   UNL A   1      41.418  30.726  36.312  1.00  0.00     0.031 C 
ATOM     49  C   UNL A   1      39.594  31.667  34.923  1.00  0.00     0.037 A 
BRANCH  36  50
ATOM     50  C   UNL A   1      36.974  31.362  29.340  1.00  0.00     0.057 A 
ATOM     51  C   UNL A   1      35.870  30.551  29.051  1.00  0.00     0.134 A 
ATOM     52  C   UNL A   1      37.010  32.640  28.768  1.00  0.00     0.134 A 
ATOM     53  F   UNL A   1      35.786  29.311  29.553  1.00  0.00    -0.206 F 
ATOM     54  C   UNL A   1      34.844  30.993  28.212  1.00  0.00     0.040 A 
ATOM     55  C   UNL A   1      35.981  33.098  27.944  1.00  0.00     0.040 A 
ATOM     56  F   UNL A   1      38.040  33.465  29.007  1.00  0.00    -0.206 F 
ATOM     57  C   UNL A   1      34.895  32.272  27.662  1.00  0.00     0.006 A 
ENDBRANCH  36  50
BRANCH  37  58
ATOM     58  C   UNL A   1      44.273  27.842  35.175  1.00  0.00     0.057 A 
ATOM     59  C   UNL A   1      44.091  26.716  35.986  1.00  0.00     0.134 A 
ATOM     60  C   UNL A   1      45.518  28.480  35.223  1.00  0.00     0.134 A 
ATOM     61  F   UNL A   1      42.912  26.078  36.000  1.00  0.00    -0.206 F 
ATOM     62  C   UNL A   1      45.107  26.248  36.820  1.00  0.00     0.040 A 
ATOM     63  C   UNL A   1      46.549  28.010  36.035  1.00  0.00     0.040 A 
ATOM     64  F   UNL A   1      45.752  29.565  34.469  1.00  0.00    -0.206 F 
ATOM     65  C   UNL A   1      46.343  26.893  36.842  1.00  0.00     0.006 A 
ENDBRANCH  37  58
BRANCH  49  66
ATOM     66  C   UNL A   1      39.206  32.508  36.098  1.00  0.00     0.057 A 
ATOM     67  C   UNL A   1      39.733  33.790  36.289  1.00  0.00     0.134 A 
ATOM     68  C   UNL A   1      38.274  32.039  37.033  1.00  0.00     0.134 A 
ATOM     69  F   UNL A   1      40.641  34.285  35.434  1.00  0.00    -0.206 F 
ATOM     70  C   UNL A   1      39.358  34.574  37.381  1.00  0.00     0.040 A 
ATOM     71  C   UNL A   1      37.878  32.821  38.118  1.00  0.00     0.040 A 
ATOM     72  F   UNL A   1      37.731  30.820  36.901  1.00  0.00    -0.206 F 
ATOM     73  C   UNL A   1      38.424  34.091  38.296  1.00  0.00     0.006 A 
ENDBRANCH  49  66
ENDBRANCH  23  24
ENDBRANCH  16  18
ENDBRANCH  15  16
ENDBRANCH  14  15
ENDBRANCH   1  14
TORSDOF 14
ENDMDL
MODEL 2
REMARK VINA RESULT:      -9.7      5.078      9.631
REMARK SMILES CC(=O)/C=C(/C)NCC(=O)OCCOC(=O)c1ccc(-c2c3nc(c(-c4c(F)cccc4F)c4ccc([nH]4)c(-c4c(F)cccc4F)c4nc(c(-c5c(F)cccc5F)c5ccc2[nH]5)C=C4)C=C3)cc1
REMARK SMILES IDX 12 1 11 2 9 3 10 4 8 5 7 6 5 8 4 9 6 10 2 11 1 12 3 13 13 14
REMARK SMILES IDX 14 15 15 16 16 17 17 18 18 19 70 20 19 21 69 22 20 23 21 24
REMARK SMILES IDX 22 25 63 26 23 27 68 28 62 29 64 30 24 31 67 32 61 33 60 34
REMARK SMILES IDX 25 36 51 37 34 38 50 39 35 40 38 41 49 42 65 43 36 44 37 45
REMARK SMILES IDX 48 47 66 48 39 49 26 50 27 51 32 52 28 53 29 54 31 55 33 56
REMARK SMILES IDX 30 57 52 58 53 59 58 60 54 61 55 62 57 63 59 64 56 65 40 66
REMARK SMILES IDX 41 67 46 68 42 69 43 70 45 71 47 72 44 73
REMARK H PARENT 7 7 64 35 38 46
REMARK Flexibility Score: inf
ROOT
ATOM      1  C   UNL A   1      33.951  35.181  28.939  1.00  0.00     0.274 C 
ENDROOT
BRANCH   1   2
ATOM      2  O   UNL A   1      33.731  33.812  28.561  1.00  0.00    -0.461 OA
BRANCH   2   3
ATOM      3  C   UNL A   1      34.571  32.889  29.111  1.00  0.00     0.325 C 
ATOM      4  O   UNL A   1      34.399  32.338  30.193  1.00  0.00    -0.250 OA
BRANCH   3   5
ATOM      5  C   UNL A   1      35.694  32.513  28.147  1.00  0.00     0.236 C 
BRANCH   5   6
ATOM      6  N   UNL A   1      35.314  31.415  27.272  1.00  0.00    -0.378 N 
ATOM      7  H   UNL A   1      35.096  31.670  26.347  1.00  0.00     0.160 HD
BRANCH   6   8
ATOM      8  C   UNL A   1      35.213  30.071  27.553  1.00  0.00     0.012 C 
ATOM      9  C   UNL A   1      34.146  29.250  27.545  1.00  0.00     0.067 C 
ATOM     10  C   UNL A   1      36.529  29.471  28.033  1.00  0.00     0.064 C 
BRANCH   9  11
ATOM     11  C   UNL A   1      32.685  29.382  27.276  1.00  0.00     0.154 C 
ATOM     12  C   UNL A   1      31.757  28.207  27.258  1.00  0.00     0.093 C 
ATOM     13  O   UNL A   1      32.243  30.520  27.091  1.00  0.00    -0.295 OA
ENDBRANCH   9  11
ENDBRANCH   6   8
ENDBRANCH   5   6
ENDBRANCH   3   5
ENDBRANCH   2   3
ENDBRANCH   1   2
BRANCH   1  14
ATOM     14  C   UNL A   1      32.749  35.720  29.717  1.00  0.00     0.275 C 
BRANCH  14  15
ATOM     15  O   UNL A   1      33.141  36.265  30.993  1.00  0.00    -0.458 OA
BRANCH  15  16
ATOM     16  C   UNL A   1      32.856  35.488  32.064  1.00  0.00     0.338 C 
ATOM     17  O   UNL A   1      31.759  35.208  32.513  1.00  0.00    -0.246 OA
BRANCH  16  18
ATOM     18  C   UNL A   1      34.094  34.893  32.585  1.00  0.00     0.060 A 
ATOM     19  C   UNL A   1      35.309  35.522  32.309  1.00  0.00     0.016 A 
ATOM     20  C   UNL A   1      34.064  33.657  33.228  1.00  0.00     0.016 A 
ATOM     21  C   UNL A   1      36.507  34.904  32.645  1.00  0.00     0.010 A 
ATOM     22  C   UNL A   1      35.268  33.053  33.600  1.00  0.00     0.010 A 
ATOM     23  C   UNL A   1      36.497  33.666  33.296  1.00  0.00    -0.014 A 
BRANCH  23  24
ATOM     24  C   UNL A   1      37.776  32.998  33.627  1.00  0.00     0.031 A 
ATOM     25  C   UNL A   1      38.341  31.964  32.699  1.00  0.00     0.074 A 
ATOM     26  C   UNL A   1      38.440  33.338  34.748  1.00  0.00     0.049 A 
ATOM     27  N   UNL A   1      39.346  31.147  32.883  1.00  0.00    -0.248 NA
ATOM     28  C   UNL A   1      37.687  31.830  31.386  1.00  0.00     0.031 C 
ATOM     29  C   UNL A   1      38.032  34.380  35.691  1.00  0.00     0.029 A 
ATOM     30  N   UNL A   1      39.600  32.839  35.283  1.00  0.00    -0.354 N 
ATOM     31  C   UNL A   1      39.429  30.383  31.727  1.00  0.00     0.074 A 
ATOM     32  C   UNL A   1      38.369  30.829  30.846  1.00  0.00     0.031 C 
ATOM     33  C   UNL A   1      38.930  34.446  36.686  1.00  0.00     0.029 A 
ATOM     34  C   UNL A   1      39.936  33.409  36.486  1.00  0.00     0.049 A 
ATOM     35  H   UNL A   1      40.139  32.140  34.847  1.00  0.00     0.167 HD
ATOM     36  C   UNL A   1      40.309  29.398  31.431  1.00  0.00     0.037 A 
ATOM     37  C   UNL A   1      40.918  33.098  37.351  1.00  0.00     0.037 A 
ATOM     38  C   UNL A   1      41.370  28.973  32.305  1.00  0.00     0.049 A 
ATOM     39  C   UNL A   1      41.837  31.953  37.033  1.00  0.00     0.074 A 
ATOM     40  C   UNL A   1      42.294  27.960  32.116  1.00  0.00     0.029 A 
ATOM     41  N   UNL A   1      41.657  29.554  33.532  1.00  0.00    -0.354 N 
ATOM     42  N   UNL A   1      41.861  31.184  35.972  1.00  0.00    -0.248 NA
ATOM     43  C   UNL A   1      42.852  31.618  38.043  1.00  0.00     0.031 C 
ATOM     44  C   UNL A   1      43.128  27.914  33.240  1.00  0.00     0.029 A 
ATOM     45  C   UNL A   1      42.741  28.917  34.113  1.00  0.00     0.049 A 
ATOM     46  H   UNL A   1      41.163  30.306  33.930  1.00  0.00     0.167 HD
ATOM     47  C   UNL A   1      42.894  30.282  36.180  1.00  0.00     0.074 A 
ATOM     48  C   UNL A   1      43.486  30.611  37.461  1.00  0.00     0.031 C 
ATOM     49  C   UNL A   1      43.314  29.268  35.385  1.00  0.00     0.037 A 
BRANCH  36  50
ATOM     50  C   UNL A   1      40.140  28.693  30.120  1.00  0.00     0.057 A 
ATOM     51  C   UNL A   1      40.809  29.116  28.965  1.00  0.00     0.134 A 
ATOM     52  C   UNL A   1      39.325  27.558  30.021  1.00  0.00     0.134 A 
ATOM     53  F   UNL A   1      41.589  30.206  28.991  1.00  0.00    -0.206 F 
ATOM     54  C   UNL A   1      40.662  28.440  27.752  1.00  0.00     0.040 A 
ATOM     55  C   UNL A   1      39.187  26.864  28.818  1.00  0.00     0.040 A 
ATOM     56  F   UNL A   1      38.659  27.103  31.092  1.00  0.00    -0.206 F 
ATOM     57  C   UNL A   1      39.854  27.306  27.678  1.00  0.00     0.006 A 
ENDBRANCH  36  50
BRANCH  37  58
ATOM     58  C   UNL A   1      41.050  33.846  38.625  1.00  0.00     0.057 A 
ATOM     59  C   UNL A   1      40.271  33.519  39.740  1.00  0.00     0.134 A 
ATOM     60  C   UNL A   1      41.951  34.911  38.753  1.00  0.00     0.134 A 
ATOM     61  F   UNL A   1      39.375  32.525  39.668  1.00  0.00    -0.206 F 
ATOM     62  C   UNL A   1      40.375  34.232  40.935  1.00  0.00     0.040 A 
ATOM     63  C   UNL A   1      42.081  35.616  39.949  1.00  0.00     0.040 A 
ATOM     64  F   UNL A   1      42.725  35.272  37.720  1.00  0.00    -0.206 F 
ATOM     65  C   UNL A   1      41.287  35.281  41.044  1.00  0.00     0.006 A 
ENDBRANCH  37  58
BRANCH  49  66
ATOM     66  C   UNL A   1      44.480  28.465  35.872  1.00  0.00     0.057 A 
ATOM     67  C   UNL A   1      44.304  27.316  36.652  1.00  0.00     0.134 A 
ATOM     68  C   UNL A   1      45.789  28.831  35.533  1.00  0.00     0.134 A 
ATOM     69  F   UNL A   1      43.075  26.927  37.020  1.00  0.00    -0.206 F 
ATOM     70  C   UNL A   1      45.394  26.565  37.093  1.00  0.00     0.040 A 
ATOM     71  C   UNL A   1      46.884  28.077  35.953  1.00  0.00     0.040 A 
ATOM     72  F   UNL A   1      46.019  29.920  34.785  1.00  0.00    -0.206 F 
ATOM     73  C   UNL A   1      46.689  26.943  36.739  1.00  0.00     0.006 A 
ENDBRANCH  49  66
ENDBRANCH  23  24
ENDBRANCH  16  18
ENDBRANCH  15  16
ENDBRANCH  14  15
ENDBRANCH   1  14
TORSDOF 14
ENDMDL
MODEL 3
REMARK VINA RESULT:      -9.7      5.091     10.456
REMARK SMILES CC(=O)/C=C(/C)NCC(=O)OCCOC(=O)c1ccc(-c2c3nc(c(-c4c(F)cccc4F)c4ccc([nH]4)c(-c4c(F)cccc4F)c4nc(c(-c5c(F)cccc5F)c5ccc2[nH]5)C=C4)C=C3)cc1
REMARK SMILES IDX 12 1 11 2 9 3 10 4 8 5 7 6 5 8 4 9 6 10 2 11 1 12 3 13 13 14
REMARK SMILES IDX 14 15 15 16 16 17 17 18 18 19 70 20 19 21 69 22 20 23 21 24
REMARK SMILES IDX 22 25 63 26 23 27 68 28 62 29 64 30 24 31 67 32 61 33 60 34
REMARK SMILES IDX 25 36 51 37 34 38 50 39 35 40 38 41 49 42 65 43 36 44 37 45
REMARK SMILES IDX 48 47 66 48 39 49 26 50 27 51 32 52 28 53 29 54 31 55 33 56
REMARK SMILES IDX 30 57 52 58 53 59 58 60 54 61 55 62 57 63 59 64 56 65 40 66
REMARK SMILES IDX 41 67 46 68 42 69 43 70 45 71 47 72 44 73
REMARK H PARENT 7 7 64 35 38 46
REMARK Flexibility Score: inf
ROOT
ATOM      1  C   UNL A   1      34.022  35.262  29.064  1.00  0.00     0.274 C 
ENDROOT
BRANCH   1   2
ATOM      2  O   UNL A   1      33.725  33.933  28.603  1.00  0.00    -0.461 OA
BRANCH   2   3
ATOM      3  C   UNL A   1      34.486  32.927  29.121  1.00  0.00     0.325 C 
ATOM      4  O   UNL A   1      34.245  32.328  30.163  1.00  0.00    -0.250 OA
BRANCH   3   5
ATOM      5  C   UNL A   1      35.612  32.534  28.169  1.00  0.00     0.236 C 
BRANCH   5   6
ATOM      6  N   UNL A   1      35.219  31.454  27.279  1.00  0.00    -0.378 N 
ATOM      7  H   UNL A   1      34.964  31.729  26.369  1.00  0.00     0.160 HD
BRANCH   6   8
ATOM      8  C   UNL A   1      35.151  30.101  27.527  1.00  0.00     0.012 C 
ATOM      9  C   UNL A   1      34.098  29.260  27.531  1.00  0.00     0.067 C 
ATOM     10  C   UNL A   1      36.492  29.513  27.949  1.00  0.00     0.064 C 
BRANCH   9  11
ATOM     11  C   UNL A   1      32.628  29.374  27.312  1.00  0.00     0.154 C 
ATOM     12  C   UNL A   1      31.693  28.218  27.495  1.00  0.00     0.093 C 
ATOM     13  O   UNL A   1      32.185  30.481  26.993  1.00  0.00    -0.295 OA
ENDBRANCH   9  11
ENDBRANCH   6   8
ENDBRANCH   5   6
ENDBRANCH   3   5
ENDBRANCH   2   3
ENDBRANCH   1   2
BRANCH   1  14
ATOM     14  C   UNL A   1      32.797  35.879  29.741  1.00  0.00     0.275 C 
BRANCH  14  15
ATOM     15  O   UNL A   1      33.142  36.523  30.984  1.00  0.00    -0.458 OA
BRANCH  15  16
ATOM     16  C   UNL A   1      32.759  35.863  32.102  1.00  0.00     0.338 C 
ATOM     17  O   UNL A   1      31.639  35.783  32.575  1.00  0.00    -0.246 OA
BRANCH  16  18
ATOM     18  C   UNL A   1      33.899  35.115  32.649  1.00  0.00     0.060 A 
ATOM     19  C   UNL A   1      35.179  35.657  32.523  1.00  0.00     0.016 A 
ATOM     20  C   UNL A   1      33.716  33.833  33.164  1.00  0.00     0.016 A 
ATOM     21  C   UNL A   1      36.292  34.906  32.881  1.00  0.00     0.010 A 
ATOM     22  C   UNL A   1      34.834  33.093  33.559  1.00  0.00     0.010 A 
ATOM     23  C   UNL A   1      36.129  33.619  33.405  1.00  0.00    -0.014 A 
BRANCH  23  24
ATOM     24  C   UNL A   1      37.319  32.812  33.759  1.00  0.00     0.031 A 
ATOM     25  C   UNL A   1      38.014  33.040  35.068  1.00  0.00     0.074 A 
ATOM     26  C   UNL A   1      37.760  31.861  32.914  1.00  0.00     0.049 A 
ATOM     27  N   UNL A   1      39.158  32.567  35.491  1.00  0.00    -0.248 NA
ATOM     28  C   UNL A   1      37.329  33.916  36.033  1.00  0.00     0.031 C 
ATOM     29  C   UNL A   1      37.126  31.495  31.646  1.00  0.00     0.029 A 
ATOM     30  N   UNL A   1      38.847  31.029  32.996  1.00  0.00    -0.354 N 
ATOM     31  C   UNL A   1      39.347  33.110  36.755  1.00  0.00     0.074 A 
ATOM     32  C   UNL A   1      38.202  33.952  37.031  1.00  0.00     0.031 C 
ATOM     33  C   UNL A   1      37.832  30.508  31.072  1.00  0.00     0.029 A 
ATOM     34  C   UNL A   1      39.002  30.222  31.897  1.00  0.00     0.049 A 
ATOM     35  H   UNL A   1      39.456  31.012  33.769  1.00  0.00     0.167 HD
ATOM     36  C   UNL A   1      40.384  32.921  37.604  1.00  0.00     0.037 A 
ATOM     37  C   UNL A   1      39.998  29.380  31.570  1.00  0.00     0.037 A 
ATOM     38  C   UNL A   1      41.510  32.068  37.329  1.00  0.00     0.049 A 
ATOM     39  C   UNL A   1      41.173  29.244  32.496  1.00  0.00     0.074 A 
ATOM     40  C   UNL A   1      42.631  31.837  38.106  1.00  0.00     0.029 A 
ATOM     41  N   UNL A   1      41.646  31.293  36.187  1.00  0.00    -0.354 N 
ATOM     42  N   UNL A   1      41.382  29.820  33.654  1.00  0.00    -0.248 NA
ATOM     43  C   UNL A   1      42.262  28.358  32.058  1.00  0.00     0.031 C 
ATOM     44  C   UNL A   1      43.457  30.935  37.425  1.00  0.00     0.029 A 
ATOM     45  C   UNL A   1      42.835  30.585  36.237  1.00  0.00     0.049 A 
ATOM     46  H   UNL A   1      40.995  31.252  35.451  1.00  0.00     0.167 HD
ATOM     47  C   UNL A   1      42.617  29.361  34.089  1.00  0.00     0.074 A 
ATOM     48  C   UNL A   1      43.104  28.444  33.078  1.00  0.00     0.031 C 
ATOM     49  C   UNL A   1      43.293  29.674  35.221  1.00  0.00     0.037 A 
BRANCH  36  50
ATOM     50  C   UNL A   1      40.361  33.676  38.898  1.00  0.00     0.057 A 
ATOM     51  C   UNL A   1      39.639  33.218  40.006  1.00  0.00     0.134 A 
ATOM     52  C   UNL A   1      41.099  34.858  39.046  1.00  0.00     0.134 A 
ATOM     53  F   UNL A   1      38.898  32.104  39.922  1.00  0.00    -0.206 F 
ATOM     54  C   UNL A   1      39.641  33.918  41.215  1.00  0.00     0.040 A 
ATOM     55  C   UNL A   1      41.124  35.554  40.255  1.00  0.00     0.040 A 
ATOM     56  F   UNL A   1      41.814  35.348  38.021  1.00  0.00    -0.206 F 
ATOM     57  C   UNL A   1      40.391  35.086  41.343  1.00  0.00     0.006 A 
ENDBRANCH  36  50
BRANCH  37  58
ATOM     58  C   UNL A   1      39.955  28.641  30.284  1.00  0.00     0.057 A 
ATOM     59  C   UNL A   1      39.288  27.416  30.175  1.00  0.00     0.134 A 
ATOM     60  C   UNL A   1      40.589  29.138  29.138  1.00  0.00     0.134 A 
ATOM     61  F   UNL A   1      38.683  26.880  31.245  1.00  0.00    -0.206 F 
ATOM     62  C   UNL A   1      39.260  26.706  28.974  1.00  0.00     0.040 A 
ATOM     63  C   UNL A   1      40.550  28.449  27.927  1.00  0.00     0.040 A 
ATOM     64  F   UNL A   1      41.246  30.306  29.180  1.00  0.00    -0.206 F 
ATOM     65  C   UNL A   1      39.889  27.226  27.844  1.00  0.00     0.006 A 
ENDBRANCH  37  58
BRANCH  49  66
ATOM     66  C   UNL A   1      44.612  28.999  35.430  1.00  0.00     0.057 A 
ATOM     67  C   UNL A   1      44.705  27.747  36.050  1.00  0.00     0.134 A 
ATOM     68  C   UNL A   1      45.797  29.596  34.982  1.00  0.00     0.134 A 
ATOM     69  F   UNL A   1      43.605  27.135  36.513  1.00  0.00    -0.206 F 
ATOM     70  C   UNL A   1      45.937  27.118  36.232  1.00  0.00     0.040 A 
ATOM     71  C   UNL A   1      47.032  28.967  35.142  1.00  0.00     0.040 A 
ATOM     72  F   UNL A   1      45.770  30.793  34.378  1.00  0.00    -0.206 F 
ATOM     73  C   UNL A   1      47.104  27.726  35.772  1.00  0.00     0.006 A 
ENDBRANCH  49  66
ENDBRANCH  23  24
ENDBRANCH  16  18
ENDBRANCH  15  16
ENDBRANCH  14  15
ENDBRANCH   1  14
TORSDOF 14
ENDMDL
