MODEL 1
REMARK VINA RESULT:      -9.3      0.000      0.000
REMARK SMILES CCC(CC)[C@@H](C)[NH2+][C@@H](C)[C@@H](C)C(=O)OCCOC(=O)c1ccc(-c2c3nc(c(-c4c(F)cccc4F)c4ccc([nH]4)c(-c4c(F)cccc4F)c4nc(c(-c5c(F)cccc5F)c5ccc2[nH]5)C=C4)C=C3)cc1
REMARK SMILES IDX 15 1 13 2 14 3 11 4 12 5 9 6 10 7 8 8 6 11 7 12 3 13 2 14
REMARK SMILES IDX 1 15 4 16 5 17 16 18 17 19 18 20 19 21 20 22 21 23 22 24
REMARK SMILES IDX 74 25 23 26 73 27 24 28 25 29 26 30 67 31 27 32 72 33 66 34
REMARK SMILES IDX 68 35 28 36 71 37 65 38 64 39 29 41 55 42 38 43 54 44 39 45
REMARK SMILES IDX 42 46 53 47 69 48 40 49 41 50 52 52 70 53 43 54 30 55 31 56
REMARK SMILES IDX 36 57 32 58 33 59 35 60 37 61 34 62 56 63 57 64 62 65 58 66
REMARK SMILES IDX 59 67 61 68 63 69 60 70 44 71 45 72 50 73 46 74 47 75 49 76
REMARK SMILES IDX 51 77 48 78
REMARK H PARENT 8 9 8 10 68 40 42 51
REMARK Flexibility Score: inf
ROOT
ATOM      1  O   UNL A   1      30.529  28.105  23.626  1.00  0.00    -0.462 OA
ENDROOT
BRANCH   1   2
ATOM      2  C   UNL A   1      30.729  26.927  22.979  1.00  0.00     0.314 C 
ATOM      3  O   UNL A   1      31.425  26.797  21.976  1.00  0.00    -0.252 OA
BRANCH   2   4
ATOM      4  C   UNL A   1      29.984  25.749  23.586  1.00  0.00     0.154 C 
ATOM      5  C   UNL A   1      28.694  26.320  24.184  1.00  0.00     0.026 C 
BRANCH   4   6
ATOM      6  C   UNL A   1      30.769  24.844  24.581  1.00  0.00     0.193 C 
ATOM      7  C   UNL A   1      30.280  25.039  26.021  1.00  0.00     0.076 C 
BRANCH   6   8
ATOM      8  N   UNL A   1      32.198  25.199  24.458  1.00  0.00    -0.341 N 
ATOM      9  H   UNL A   1      32.603  24.562  23.771  1.00  0.00     0.346 HD
ATOM     10  H   UNL A   1      32.179  26.190  24.215  1.00  0.00     0.346 HD
BRANCH   8  11
ATOM     11  C   UNL A   1      33.062  25.152  25.648  1.00  0.00     0.182 C 
ATOM     12  C   UNL A   1      33.893  26.443  25.753  1.00  0.00     0.075 C 
BRANCH  11  13
ATOM     13  C   UNL A   1      34.006  23.894  25.520  1.00  0.00     0.046 C 
BRANCH  13  14
ATOM     14  C   UNL A   1      35.275  24.196  24.676  1.00  0.00     0.006 C 
ATOM     15  C   UNL A   1      36.461  23.288  24.985  1.00  0.00     0.004 C 
ENDBRANCH  13  14
BRANCH  13  16
ATOM     16  C   UNL A   1      34.377  23.268  26.892  1.00  0.00     0.006 C 
ATOM     17  C   UNL A   1      33.251  22.515  27.585  1.00  0.00     0.004 C 
ENDBRANCH  13  16
ENDBRANCH  11  13
ENDBRANCH   8  11
ENDBRANCH   6   8
ENDBRANCH   4   6
ENDBRANCH   2   4
ENDBRANCH   1   2
BRANCH   1  18
ATOM     18  C   UNL A   1      31.731  28.856  23.904  1.00  0.00     0.274 C 
BRANCH  18  19
ATOM     19  C   UNL A   1      31.676  29.484  25.299  1.00  0.00     0.275 C 
BRANCH  19  20
ATOM     20  O   UNL A   1      32.966  30.014  25.652  1.00  0.00    -0.458 OA
BRANCH  20  21
ATOM     21  C   UNL A   1      32.972  30.921  26.654  1.00  0.00     0.338 C 
ATOM     22  O   UNL A   1      32.088  31.726  26.918  1.00  0.00    -0.246 OA
BRANCH  21  23
ATOM     23  C   UNL A   1      34.230  30.828  27.425  1.00  0.00     0.060 A 
ATOM     24  C   UNL A   1      35.026  31.950  27.681  1.00  0.00     0.016 A 
ATOM     25  C   UNL A   1      34.655  29.566  27.847  1.00  0.00     0.016 A 
ATOM     26  C   UNL A   1      36.254  31.809  28.332  1.00  0.00     0.010 A 
ATOM     27  C   UNL A   1      35.854  29.435  28.552  1.00  0.00     0.010 A 
ATOM     28  C   UNL A   1      36.671  30.552  28.789  1.00  0.00    -0.014 A 
BRANCH  28  29
ATOM     29  C   UNL A   1      37.944  30.376  29.534  1.00  0.00     0.031 A 
ATOM     30  C   UNL A   1      39.043  29.524  28.963  1.00  0.00     0.074 A 
ATOM     31  C   UNL A   1      38.086  30.921  30.758  1.00  0.00     0.049 A 
ATOM     32  N   UNL A   1      40.127  29.072  29.541  1.00  0.00    -0.248 NA
ATOM     33  C   UNL A   1      38.894  29.114  27.557  1.00  0.00     0.031 C 
ATOM     34  C   UNL A   1      37.109  31.786  31.419  1.00  0.00     0.029 A 
ATOM     35  N   UNL A   1      39.100  30.802  31.674  1.00  0.00    -0.354 N 
ATOM     36  C   UNL A   1      40.770  28.296  28.584  1.00  0.00     0.074 A 
ATOM     37  C   UNL A   1      39.952  28.333  27.390  1.00  0.00     0.031 C 
ATOM     38  C   UNL A   1      37.567  32.116  32.636  1.00  0.00     0.029 A 
ATOM     39  C   UNL A   1      38.836  31.435  32.865  1.00  0.00     0.049 A 
ATOM     40  H   UNL A   1      39.935  30.311  31.497  1.00  0.00     0.167 HD
ATOM     41  C   UNL A   1      41.936  27.614  28.697  1.00  0.00     0.037 A 
ATOM     42  C   UNL A   1      39.516  31.432  34.027  1.00  0.00     0.037 A 
ATOM     43  C   UNL A   1      42.759  27.598  29.877  1.00  0.00     0.049 A 
ATOM     44  C   UNL A   1      40.782  30.633  34.141  1.00  0.00     0.074 A 
ATOM     45  C   UNL A   1      43.973  26.961  30.076  1.00  0.00     0.029 A 
ATOM     46  N   UNL A   1      42.453  28.253  31.061  1.00  0.00    -0.354 N 
ATOM     47  N   UNL A   1      41.375  29.893  33.235  1.00  0.00    -0.248 NA
ATOM     48  C   UNL A   1      41.465  30.656  35.441  1.00  0.00     0.031 C 
ATOM     49  C   UNL A   1      44.384  27.203  31.392  1.00  0.00     0.029 A 
ATOM     50  C   UNL A   1      43.447  28.021  31.999  1.00  0.00     0.049 A 
ATOM     51  H   UNL A   1      41.651  28.801  31.213  1.00  0.00     0.167 HD
ATOM     52  C   UNL A   1      42.510  29.380  33.849  1.00  0.00     0.074 A 
ATOM     53  C   UNL A   1      42.528  29.901  35.201  1.00  0.00     0.031 C 
ATOM     54  C   UNL A   1      43.451  28.549  33.339  1.00  0.00     0.037 A 
BRANCH  41  55
ATOM     55  C   UNL A   1      42.381  26.803  27.515  1.00  0.00     0.057 A 
ATOM     56  C   UNL A   1      42.018  25.460  27.358  1.00  0.00     0.134 A 
ATOM     57  C   UNL A   1      43.146  27.388  26.499  1.00  0.00     0.134 A 
ATOM     58  F   UNL A   1      41.296  24.836  28.303  1.00  0.00    -0.206 F 
ATOM     59  C   UNL A   1      42.413  24.724  26.240  1.00  0.00     0.040 A 
ATOM     60  C   UNL A   1      43.530  26.669  25.366  1.00  0.00     0.040 A 
ATOM     61  F   UNL A   1      43.524  28.674  26.585  1.00  0.00    -0.206 F 
ATOM     62  C   UNL A   1      43.166  25.330  25.236  1.00  0.00     0.006 A 
ENDBRANCH  41  55
BRANCH  42  63
ATOM     63  C   UNL A   1      38.993  32.193  35.187  1.00  0.00     0.057 A 
ATOM     64  C   UNL A   1      38.292  31.551  36.213  1.00  0.00     0.134 A 
ATOM     65  C   UNL A   1      39.191  33.575  35.304  1.00  0.00     0.134 A 
ATOM     66  F   UNL A   1      38.053  30.233  36.144  1.00  0.00    -0.206 F 
ATOM     67  C   UNL A   1      37.799  32.257  37.312  1.00  0.00     0.040 A 
ATOM     68  C   UNL A   1      38.724  34.288  36.408  1.00  0.00     0.040 A 
ATOM     69  F   UNL A   1      39.857  34.246  34.353  1.00  0.00    -0.206 F 
ATOM     70  C   UNL A   1      38.022  33.629  37.415  1.00  0.00     0.006 A 
ENDBRANCH  42  63
BRANCH  54  71
ATOM     71  C   UNL A   1      44.594  28.183  34.237  1.00  0.00     0.057 A 
ATOM     72  C   UNL A   1      45.745  28.976  34.324  1.00  0.00     0.134 A 
ATOM     73  C   UNL A   1      44.529  27.039  35.041  1.00  0.00     0.134 A 
ATOM     74  F   UNL A   1      45.872  30.076  33.567  1.00  0.00    -0.206 F 
ATOM     75  C   UNL A   1      46.804  28.629  35.165  1.00  0.00     0.040 A 
ATOM     76  C   UNL A   1      45.572  26.694  35.902  1.00  0.00     0.040 A 
ATOM     77  F   UNL A   1      43.451  26.242  35.008  1.00  0.00    -0.206 F 
ATOM     78  C   UNL A   1      46.716  27.488  35.961  1.00  0.00     0.006 A 
ENDBRANCH  54  71
ENDBRANCH  28  29
ENDBRANCH  21  23
ENDBRANCH  20  21
ENDBRANCH  19  20
ENDBRANCH  18  19
ENDBRANCH   1  18
TORSDOF 17
ENDMDL
MODEL 2
REMARK VINA RESULT:      -9.3      4.103      8.471
REMARK SMILES CCC(CC)[C@@H](C)[NH2+][C@@H](C)[C@@H](C)C(=O)OCCOC(=O)c1ccc(-c2c3nc(c(-c4c(F)cccc4F)c4ccc([nH]4)c(-c4c(F)cccc4F)c4nc(c(-c5c(F)cccc5F)c5ccc2[nH]5)C=C4)C=C3)cc1
REMARK SMILES IDX 15 1 13 2 14 3 11 4 12 5 9 6 10 7 8 8 6 11 7 12 3 13 2 14
REMARK SMILES IDX 1 15 4 16 5 17 16 18 17 19 18 20 19 21 20 22 21 23 22 24
REMARK SMILES IDX 74 25 23 26 73 27 24 28 25 29 26 30 67 31 27 32 72 33 66 34
REMARK SMILES IDX 68 35 28 36 71 37 65 38 64 39 29 41 55 42 38 43 54 44 39 45
REMARK SMILES IDX 42 46 53 47 69 48 40 49 41 50 52 52 70 53 43 54 30 55 31 56
REMARK SMILES IDX 36 57 32 58 33 59 35 60 37 61 34 62 56 63 57 64 62 65 58 66
REMARK SMILES IDX 59 67 61 68 63 69 60 70 44 71 45 72 50 73 46 74 47 75 49 76
REMARK SMILES IDX 51 77 48 78
REMARK H PARENT 8 9 8 10 68 40 42 51
REMARK Flexibility Score: inf
ROOT
ATOM      1  O   UNL A   1      42.513  20.583  25.193  1.00  0.00    -0.462 OA
ENDROOT
BRANCH   1   2
ATOM      2  C   UNL A   1      41.786  19.584  25.760  1.00  0.00     0.314 C 
ATOM      3  O   UNL A   1      42.132  18.407  25.790  1.00  0.00    -0.252 OA
BRANCH   2   4
ATOM      4  C   UNL A   1      40.457  20.035  26.345  1.00  0.00     0.154 C 
ATOM      5  C   UNL A   1      39.371  19.488  25.413  1.00  0.00     0.026 C 
BRANCH   4   6
ATOM      6  C   UNL A   1      40.291  21.553  26.649  1.00  0.00     0.193 C 
ATOM      7  C   UNL A   1      40.792  21.901  28.055  1.00  0.00     0.076 C 
BRANCH   6   8
ATOM      8  N   UNL A   1      38.855  21.870  26.509  1.00  0.00    -0.341 N 
ATOM      9  H   UNL A   1      38.424  21.084  26.021  1.00  0.00     0.346 HD
ATOM     10  H   UNL A   1      38.552  22.042  27.467  1.00  0.00     0.346 HD
BRANCH   8  11
ATOM     11  C   UNL A   1      38.448  23.091  25.794  1.00  0.00     0.182 C 
ATOM     12  C   UNL A   1      38.606  24.319  26.708  1.00  0.00     0.075 C 
BRANCH  11  13
ATOM     13  C   UNL A   1      36.944  22.921  25.350  1.00  0.00     0.046 C 
BRANCH  13  14
ATOM     14  C   UNL A   1      36.726  23.292  23.857  1.00  0.00     0.006 C 
ATOM     15  C   UNL A   1      35.324  22.994  23.337  1.00  0.00     0.004 C 
ENDBRANCH  13  14
BRANCH  13  16
ATOM     16  C   UNL A   1      36.368  21.515  25.671  1.00  0.00     0.006 C 
ATOM     17  C   UNL A   1      35.061  21.514  26.450  1.00  0.00     0.004 C 
ENDBRANCH  13  16
ENDBRANCH  11  13
ENDBRANCH   8  11
ENDBRANCH   6   8
ENDBRANCH   4   6
ENDBRANCH   2   4
ENDBRANCH   1   2
BRANCH   1  18
ATOM     18  C   UNL A   1      43.906  20.609  25.574  1.00  0.00     0.274 C 
BRANCH  18  19
ATOM     19  C   UNL A   1      44.335  22.019  25.990  1.00  0.00     0.275 C 
BRANCH  19  20
ATOM     20  O   UNL A   1      43.382  22.984  25.511  1.00  0.00    -0.458 OA
BRANCH  20  21
ATOM     21  C   UNL A   1      43.858  24.234  25.324  1.00  0.00     0.338 C 
ATOM     22  O   UNL A   1      44.550  24.622  24.391  1.00  0.00    -0.246 OA
BRANCH  21  23
ATOM     23  C   UNL A   1      43.433  25.119  26.430  1.00  0.00     0.060 A 
ATOM     24  C   UNL A   1      42.481  24.719  27.373  1.00  0.00     0.016 A 
ATOM     25  C   UNL A   1      43.960  26.412  26.481  1.00  0.00     0.016 A 
ATOM     26  C   UNL A   1      42.036  25.615  28.349  1.00  0.00     0.010 A 
ATOM     27  C   UNL A   1      43.559  27.287  27.494  1.00  0.00     0.010 A 
ATOM     28  C   UNL A   1      42.584  26.902  28.429  1.00  0.00    -0.014 A 
BRANCH  28  29
ATOM     29  C   UNL A   1      42.174  27.860  29.487  1.00  0.00     0.031 A 
ATOM     30  C   UNL A   1      42.889  27.878  30.810  1.00  0.00     0.074 A 
ATOM     31  C   UNL A   1      41.110  28.662  29.290  1.00  0.00     0.049 A 
ATOM     32  N   UNL A   1      42.553  28.474  31.925  1.00  0.00    -0.248 NA
ATOM     33  C   UNL A   1      44.143  27.112  30.889  1.00  0.00     0.031 C 
ATOM     34  C   UNL A   1      40.342  28.760  28.048  1.00  0.00     0.029 A 
ATOM     35  N   UNL A   1      40.476  29.529  30.144  1.00  0.00    -0.354 N 
ATOM     36  C   UNL A   1      43.531  28.127  32.849  1.00  0.00     0.074 A 
ATOM     37  C   UNL A   1      44.470  27.263  32.165  1.00  0.00     0.031 C 
ATOM     38  C   UNL A   1      39.337  29.632  28.222  1.00  0.00     0.029 A 
ATOM     39  C   UNL A   1      39.352  30.104  29.602  1.00  0.00     0.049 A 
ATOM     40  H   UNL A   1      40.794  29.720  31.055  1.00  0.00     0.167 HD
ATOM     41  C   UNL A   1      43.631  28.495  34.149  1.00  0.00     0.037 A 
ATOM     42  C   UNL A   1      38.413  30.888  30.163  1.00  0.00     0.037 A 
ATOM     43  C   UNL A   1      42.709  29.374  34.820  1.00  0.00     0.049 A 
ATOM     44  C   UNL A   1      38.522  31.246  31.618  1.00  0.00     0.074 A 
ATOM     45  C   UNL A   1      42.745  29.829  36.127  1.00  0.00     0.029 A 
ATOM     46  N   UNL A   1      41.583  29.933  34.234  1.00  0.00    -0.354 N 
ATOM     47  N   UNL A   1      39.443  30.903  32.485  1.00  0.00    -0.248 NA
ATOM     48  C   UNL A   1      37.454  32.088  32.174  1.00  0.00     0.031 C 
ATOM     49  C   UNL A   1      41.622  30.637  36.341  1.00  0.00     0.029 A 
ATOM     50  C   UNL A   1      40.909  30.716  35.157  1.00  0.00     0.049 A 
ATOM     51  H   UNL A   1      41.305  29.796  33.300  1.00  0.00     0.167 HD
ATOM     52  C   UNL A   1      39.078  31.502  33.683  1.00  0.00     0.074 A 
ATOM     53  C   UNL A   1      37.857  32.240  33.428  1.00  0.00     0.031 C 
ATOM     54  C   UNL A   1      39.697  31.444  34.887  1.00  0.00     0.037 A 
BRANCH  41  55
ATOM     55  C   UNL A   1      44.769  27.927  34.945  1.00  0.00     0.057 A 
ATOM     56  C   UNL A   1      45.996  28.592  35.065  1.00  0.00     0.134 A 
ATOM     57  C   UNL A   1      44.619  26.720  35.639  1.00  0.00     0.134 A 
ATOM     58  F   UNL A   1      46.209  29.747  34.414  1.00  0.00    -0.206 F 
ATOM     59  C   UNL A   1      47.037  28.069  35.832  1.00  0.00     0.040 A 
ATOM     60  C   UNL A   1      45.645  26.197  36.428  1.00  0.00     0.040 A 
ATOM     61  F   UNL A   1      43.467  26.034  35.572  1.00  0.00    -0.206 F 
ATOM     62  C   UNL A   1      46.861  26.871  36.523  1.00  0.00     0.006 A 
ENDBRANCH  41  55
BRANCH  42  63
ATOM     63  C   UNL A   1      37.269  31.364  29.349  1.00  0.00     0.057 A 
ATOM     64  C   UNL A   1      36.146  30.555  29.141  1.00  0.00     0.134 A 
ATOM     65  C   UNL A   1      37.264  32.639  28.770  1.00  0.00     0.134 A 
ATOM     66  F   UNL A   1      36.104  29.316  29.652  1.00  0.00    -0.206 F 
ATOM     67  C   UNL A   1      35.062  30.995  28.380  1.00  0.00     0.040 A 
ATOM     68  C   UNL A   1      36.178  33.100  28.027  1.00  0.00     0.040 A 
ATOM     69  F   UNL A   1      38.311  33.461  28.936  1.00  0.00    -0.206 F 
ATOM     70  C   UNL A   1      35.073  32.274  27.827  1.00  0.00     0.006 A 
ENDBRANCH  42  63
BRANCH  54  71
ATOM     71  C   UNL A   1      39.081  32.228  36.006  1.00  0.00     0.057 A 
ATOM     72  C   UNL A   1      38.200  31.637  36.921  1.00  0.00     0.134 A 
ATOM     73  C   UNL A   1      39.392  33.581  36.184  1.00  0.00     0.134 A 
ATOM     74  F   UNL A   1      37.851  30.348  36.794  1.00  0.00    -0.206 F 
ATOM     75  C   UNL A   1      37.632  32.373  37.962  1.00  0.00     0.040 A 
ATOM     76  C   UNL A   1      38.847  34.322  37.234  1.00  0.00     0.040 A 
ATOM     77  F   UNL A   1      40.233  34.203  35.345  1.00  0.00    -0.206 F 
ATOM     78  C   UNL A   1      37.960  33.719  38.124  1.00  0.00     0.006 A 
ENDBRANCH  54  71
ENDBRANCH  28  29
ENDBRANCH  21  23
ENDBRANCH  20  21
ENDBRANCH  19  20
ENDBRANCH  18  19
ENDBRANCH   1  18
TORSDOF 17
ENDMDL
MODEL 3
REMARK VINA RESULT:      -9.3      3.822      9.297
REMARK SMILES CCC(CC)[C@@H](C)[NH2+][C@@H](C)[C@@H](C)C(=O)OCCOC(=O)c1ccc(-c2c3nc(c(-c4c(F)cccc4F)c4ccc([nH]4)c(-c4c(F)cccc4F)c4nc(c(-c5c(F)cccc5F)c5ccc2[nH]5)C=C4)C=C3)cc1
REMARK SMILES IDX 15 1 13 2 14 3 11 4 12 5 9 6 10 7 8 8 6 11 7 12 3 13 2 14
REMARK SMILES IDX 1 15 4 16 5 17 16 18 17 19 18 20 19 21 20 22 21 23 22 24
REMARK SMILES IDX 74 25 23 26 73 27 24 28 25 29 26 30 67 31 27 32 72 33 66 34
REMARK SMILES IDX 68 35 28 36 71 37 65 38 64 39 29 41 55 42 38 43 54 44 39 45
REMARK SMILES IDX 42 46 53 47 69 48 40 49 41 50 52 52 70 53 43 54 30 55 31 56
REMARK SMILES IDX 36 57 32 58 33 59 35 60 37 61 34 62 56 63 57 64 62 65 58 66
REMARK SMILES IDX 59 67 61 68 63 69 60 70 44 71 45 72 50 73 46 74 47 75 49 76
REMARK SMILES IDX 51 77 48 78
REMARK H PARENT 8 9 8 10 68 40 42 51
REMARK Flexibility Score: inf
ROOT
ATOM      1  O   UNL A   1      34.548  34.348  30.772  1.00  0.00    -0.462 OA
ENDROOT
BRANCH   1   2
ATOM      2  C   UNL A   1      34.770  33.248  31.538  1.00  0.00     0.314 C 
ATOM      3  O   UNL A   1      33.890  32.619  32.119  1.00  0.00    -0.252 OA
BRANCH   2   4
ATOM      4  C   UNL A   1      36.234  32.855  31.655  1.00  0.00     0.154 C 
ATOM      5  C   UNL A   1      36.250  31.409  32.161  1.00  0.00     0.026 C 
BRANCH   4   6
ATOM      6  C   UNL A   1      37.162  33.798  32.476  1.00  0.00     0.193 C 
ATOM      7  C   UNL A   1      38.366  34.261  31.647  1.00  0.00     0.076 C 
BRANCH   6   8
ATOM      8  N   UNL A   1      37.602  33.045  33.669  1.00  0.00    -0.341 N 
ATOM      9  H   UNL A   1      37.534  32.054  33.435  1.00  0.00     0.346 HD
ATOM     10  H   UNL A   1      38.535  33.414  33.854  1.00  0.00     0.346 HD
BRANCH   8  11
ATOM     11  C   UNL A   1      36.895  33.233  34.946  1.00  0.00     0.182 C 
ATOM     12  C   UNL A   1      35.754  34.252  34.776  1.00  0.00     0.075 C 
BRANCH  11  13
ATOM     13  C   UNL A   1      37.939  33.744  36.014  1.00  0.00     0.046 C 
BRANCH  13  14
ATOM     14  C   UNL A   1      38.377  32.619  36.991  1.00  0.00     0.006 C 
ATOM     15  C   UNL A   1      38.165  31.207  36.456  1.00  0.00     0.004 C 
ENDBRANCH  13  14
BRANCH  13  16
ATOM     16  C   UNL A   1      39.169  34.447  35.377  1.00  0.00     0.006 C 
ATOM     17  C   UNL A   1      39.690  35.655  36.141  1.00  0.00     0.004 C 
ENDBRANCH  13  16
ENDBRANCH  11  13
ENDBRANCH   8  11
ENDBRANCH   6   8
ENDBRANCH   4   6
ENDBRANCH   2   4
ENDBRANCH   1   2
BRANCH   1  18
ATOM     18  C   UNL A   1      35.160  34.308  29.464  1.00  0.00     0.274 C 
BRANCH  18  19
ATOM     19  C   UNL A   1      34.245  33.614  28.451  1.00  0.00     0.275 C 
BRANCH  19  20
ATOM     20  O   UNL A   1      35.013  32.721  27.625  1.00  0.00    -0.458 OA
BRANCH  20  21
ATOM     21  C   UNL A   1      34.856  31.404  27.884  1.00  0.00     0.338 C 
ATOM     22  O   UNL A   1      33.846  30.737  27.698  1.00  0.00    -0.246 OA
BRANCH  21  23
ATOM     23  C   UNL A   1      36.099  30.838  28.448  1.00  0.00     0.060 A 
ATOM     24  C   UNL A   1      37.322  31.513  28.372  1.00  0.00     0.016 A 
ATOM     25  C   UNL A   1      36.046  29.561  29.013  1.00  0.00     0.016 A 
ATOM     26  C   UNL A   1      38.493  30.906  28.833  1.00  0.00     0.010 A 
ATOM     27  C   UNL A   1      37.207  28.980  29.530  1.00  0.00     0.010 A 
ATOM     28  C   UNL A   1      38.443  29.641  29.433  1.00  0.00    -0.014 A 
BRANCH  28  29
ATOM     29  C   UNL A   1      39.659  28.991  29.984  1.00  0.00     0.031 A 
ATOM     30  C   UNL A   1      40.308  29.530  31.229  1.00  0.00     0.074 A 
ATOM     31  C   UNL A   1      40.228  27.963  29.325  1.00  0.00     0.049 A 
ATOM     32  N   UNL A   1      41.478  29.249  31.742  1.00  0.00    -0.248 NA
ATOM     33  C   UNL A   1      39.540  30.529  31.990  1.00  0.00     0.031 C 
ATOM     34  C   UNL A   1      39.691  27.330  28.120  1.00  0.00     0.029 A 
ATOM     35  N   UNL A   1      41.398  27.288  29.564  1.00  0.00    -0.354 N 
ATOM     36  C   UNL A   1      41.604  30.060  32.863  1.00  0.00     0.074 A 
ATOM     37  C   UNL A   1      40.393  30.849  32.952  1.00  0.00     0.031 C 
ATOM     38  C   UNL A   1      40.532  26.363  27.721  1.00  0.00     0.029 A 
ATOM     39  C   UNL A   1      41.694  26.352  28.603  1.00  0.00     0.049 A 
ATOM     40  H   UNL A   1      41.970  27.457  30.347  1.00  0.00     0.167 HD
ATOM     41  C   UNL A   1      42.639  30.140  33.735  1.00  0.00     0.037 A 
ATOM     42  C   UNL A   1      42.796  25.600  28.423  1.00  0.00     0.037 A 
ATOM     43  C   UNL A   1      43.831  29.337  33.658  1.00  0.00     0.049 A 
ATOM     44  C   UNL A   1      43.948  25.738  29.377  1.00  0.00     0.074 A 
ATOM     45  C   UNL A   1      44.921  29.324  34.513  1.00  0.00     0.029 A 
ATOM     46  N   UNL A   1      44.090  28.402  32.667  1.00  0.00    -0.354 N 
ATOM     47  N   UNL A   1      44.062  26.516  30.426  1.00  0.00    -0.248 NA
ATOM     48  C   UNL A   1      45.128  24.903  29.115  1.00  0.00     0.031 C 
ATOM     49  C   UNL A   1      45.854  28.404  34.019  1.00  0.00     0.029 A 
ATOM     50  C   UNL A   1      45.329  27.818  32.880  1.00  0.00     0.049 A 
ATOM     51  H   UNL A   1      43.484  28.184  31.923  1.00  0.00     0.167 HD
ATOM     52  C   UNL A   1      45.316  26.251  30.959  1.00  0.00     0.074 A 
ATOM     53  C   UNL A   1      45.921  25.232  30.125  1.00  0.00     0.031 C 
ATOM     54  C   UNL A   1      45.914  26.804  32.042  1.00  0.00     0.037 A 
BRANCH  41  55
ATOM     55  C   UNL A   1      42.539  31.150  34.840  1.00  0.00     0.057 A 
ATOM     56  C   UNL A   1      42.917  32.486  34.659  1.00  0.00     0.134 A 
ATOM     57  C   UNL A   1      42.015  30.790  36.087  1.00  0.00     0.134 A 
ATOM     58  F   UNL A   1      43.439  32.893  33.490  1.00  0.00    -0.206 F 
ATOM     59  C   UNL A   1      42.792  33.425  35.684  1.00  0.00     0.040 A 
ATOM     60  C   UNL A   1      41.865  31.724  37.114  1.00  0.00     0.040 A 
ATOM     61  F   UNL A   1      41.629  29.527  36.325  1.00  0.00    -0.206 F 
ATOM     62  C   UNL A   1      42.258  33.046  36.915  1.00  0.00     0.006 A 
ENDBRANCH  41  55
BRANCH  42  63
ATOM     63  C   UNL A   1      42.872  24.668  27.273  1.00  0.00     0.057 A 
ATOM     64  C   UNL A   1      43.416  25.076  26.050  1.00  0.00     0.134 A 
ATOM     65  C   UNL A   1      42.415  23.348  27.370  1.00  0.00     0.134 A 
ATOM     66  F   UNL A   1      43.849  26.335  25.891  1.00  0.00    -0.206 F 
ATOM     67  C   UNL A   1      43.496  24.206  24.961  1.00  0.00     0.040 A 
ATOM     68  C   UNL A   1      42.511  22.461  26.297  1.00  0.00     0.040 A 
ATOM     69  F   UNL A   1      41.885  22.898  28.517  1.00  0.00    -0.206 F 
ATOM     70  C   UNL A   1      43.049  22.891  25.087  1.00  0.00     0.006 A 
ENDBRANCH  42  63
BRANCH  54  71
ATOM     71  C   UNL A   1      47.277  26.292  32.402  1.00  0.00     0.057 A 
ATOM     72  C   UNL A   1      47.452  25.235  33.304  1.00  0.00     0.134 A 
ATOM     73  C   UNL A   1      48.423  26.848  31.820  1.00  0.00     0.134 A 
ATOM     74  F   UNL A   1      46.393  24.672  33.905  1.00  0.00    -0.206 F 
ATOM     75  C   UNL A   1      48.724  24.763  33.631  1.00  0.00     0.040 A 
ATOM     76  C   UNL A   1      49.698  26.370  32.124  1.00  0.00     0.040 A 
ATOM     77  F   UNL A   1      48.321  27.859  30.945  1.00  0.00    -0.206 F 
ATOM     78  C   UNL A   1      49.851  25.328  33.036  1.00  0.00     0.006 A 
ENDBRANCH  54  71
ENDBRANCH  28  29
ENDBRANCH  21  23
ENDBRANCH  20  21
ENDBRANCH  19  20
ENDBRANCH  18  19
ENDBRANCH   1  18
TORSDOF 17
ENDMDL
