MODEL 1
REMARK VINA RESULT:     -10.1      0.000      0.000
REMARK SMILES C[NH2+][C@@]1(C(=O)OCCOC(=O)c2ccc(-c3c4nc(c(-c5c(F)cccc5F)c5ccc([nH]5)c(-c5c(F)cccc5F)c5nc(c(-c6c(F)cccc6F)c6ccc3[nH]6)C=C5)C=C4)cc2)CC[C@H](SC(C)C)C1
REMARK SMILES IDX 7 1 6 2 4 3 5 4 3 5 66 6 73 7 67 8 68 9 2 10 1 11 69 14
REMARK SMILES IDX 70 15 71 16 72 17 8 18 9 19 10 20 11 21 12 22 13 23 65 24
REMARK SMILES IDX 14 25 64 26 15 27 16 28 17 29 58 30 18 31 63 32 57 33 59 34
REMARK SMILES IDX 19 35 62 36 56 37 55 38 20 40 46 41 29 42 45 43 30 44 33 45
REMARK SMILES IDX 44 46 60 47 31 48 32 49 43 51 61 52 34 53 21 54 22 55 27 56
REMARK SMILES IDX 23 57 24 58 26 59 28 60 25 61 47 62 48 63 53 64 49 65 50 66
REMARK SMILES IDX 52 67 54 68 51 69 35 70 36 71 41 72 37 73 38 74 40 75 42 76
REMARK SMILES IDX 39 77
REMARK H PARENT 2 12 2 13 59 39 33 50
REMARK Flexibility Score: inf
ROOT
ATOM      1  C   UNL A   1      31.802  28.310  26.976  1.00  0.00     0.274 C 
ENDROOT
BRANCH   1   2
ATOM      2  O   UNL A   1      31.012  27.412  26.174  1.00  0.00    -0.457 OA
BRANCH   2   3
ATOM      3  C   UNL A   1      31.655  26.681  25.229  1.00  0.00     0.368 C 
ATOM      4  O   UNL A   1      32.873  26.532  25.187  1.00  0.00    -0.245 OA
BRANCH   3   5
ATOM      5  C   UNL A   1      30.664  26.030  24.197  1.00  0.00     0.195 C 
ATOM      6  C   UNL A   1      31.397  26.002  22.847  1.00  0.00     0.082 C 
ATOM      7  C   UNL A   1      29.435  26.906  23.883  1.00  0.00     0.095 C 
ATOM      8  C   UNL A   1      31.287  27.446  22.364  1.00  0.00     0.022 C 
ATOM      9  C   UNL A   1      29.879  27.889  22.778  1.00  0.00     0.054 C 
BRANCH   5  10
ATOM     10  N   UNL A   1      30.278  24.717  24.765  1.00  0.00    -0.335 N 
ATOM     11  C   UNL A   1      31.059  23.558  24.368  1.00  0.00     0.331 C 
ATOM     12  H   UNL A   1      30.340  24.794  25.780  1.00  0.00     0.347 HD
ATOM     13  H   UNL A   1      29.344  24.539  24.397  1.00  0.00     0.347 HD
ENDBRANCH   5  10
BRANCH   9  14
ATOM     14  S   UNL A   1      29.795  29.611  23.387  1.00  0.00    -0.155 SA
BRANCH  14  15
ATOM     15  C   UNL A   1      28.215  30.235  22.696  1.00  0.00     0.040 C 
ATOM     16  C   UNL A   1      27.652  31.399  23.501  1.00  0.00     0.019 C 
ATOM     17  C   UNL A   1      28.304  30.556  21.209  1.00  0.00     0.019 C 
ENDBRANCH  14  15
ENDBRANCH   9  14
ENDBRANCH   3   5
ENDBRANCH   2   3
ENDBRANCH   1   2
BRANCH   1  18
ATOM     18  C   UNL A   1      31.788  29.697  26.347  1.00  0.00     0.275 C 
BRANCH  18  19
ATOM     19  O   UNL A   1      33.142  30.162  26.218  1.00  0.00    -0.458 OA
BRANCH  19  20
ATOM     20  C   UNL A   1      33.487  31.183  27.032  1.00  0.00     0.338 C 
ATOM     21  O   UNL A   1      32.852  32.191  27.289  1.00  0.00    -0.246 OA
BRANCH  20  22
ATOM     22  C   UNL A   1      34.791  30.894  27.641  1.00  0.00     0.060 A 
ATOM     23  C   UNL A   1      35.112  29.582  27.984  1.00  0.00     0.016 A 
ATOM     24  C   UNL A   1      35.633  31.946  28.000  1.00  0.00     0.016 A 
ATOM     25  C   UNL A   1      36.224  29.328  28.782  1.00  0.00     0.010 A 
ATOM     26  C   UNL A   1      36.805  31.674  28.710  1.00  0.00     0.010 A 
ATOM     27  C   UNL A   1      37.094  30.368  29.145  1.00  0.00    -0.014 A 
BRANCH  27  28
ATOM     28  C   UNL A   1      38.281  30.104  30.002  1.00  0.00     0.031 A 
ATOM     29  C   UNL A   1      39.426  29.277  29.478  1.00  0.00     0.074 A 
ATOM     30  C   UNL A   1      38.346  30.600  31.253  1.00  0.00     0.049 A 
ATOM     31  N   UNL A   1      40.438  28.760  30.126  1.00  0.00    -0.248 NA
ATOM     32  C   UNL A   1      39.423  28.981  28.036  1.00  0.00     0.031 C 
ATOM     33  C   UNL A   1      37.336  31.451  31.885  1.00  0.00     0.029 A 
ATOM     34  N   UNL A   1      39.314  30.465  32.217  1.00  0.00    -0.354 N 
ATOM     35  C   UNL A   1      41.149  28.019  29.190  1.00  0.00     0.074 A 
ATOM     36  C   UNL A   1      40.465  28.169  27.923  1.00  0.00     0.031 C 
ATOM     37  C   UNL A   1      37.758  31.800  33.110  1.00  0.00     0.029 A 
ATOM     38  C   UNL A   1      39.026  31.131  33.382  1.00  0.00     0.049 A 
ATOM     39  H   UNL A   1      40.136  29.940  32.086  1.00  0.00     0.167 HD
ATOM     40  C   UNL A   1      42.264  27.273  29.374  1.00  0.00     0.037 A 
ATOM     41  C   UNL A   1      39.685  31.172  34.555  1.00  0.00     0.037 A 
ATOM     42  C   UNL A   1      42.986  27.179  30.617  1.00  0.00     0.049 A 
ATOM     43  C   UNL A   1      40.932  30.359  34.730  1.00  0.00     0.074 A 
ATOM     44  C   UNL A   1      44.126  26.448  30.902  1.00  0.00     0.029 A 
ATOM     45  N   UNL A   1      42.652  27.867  31.773  1.00  0.00    -0.354 N 
ATOM     46  N   UNL A   1      41.537  29.582  33.866  1.00  0.00    -0.248 NA
ATOM     47  C   UNL A   1      41.569  30.402  36.054  1.00  0.00     0.031 C 
ATOM     48  C   UNL A   1      44.476  26.684  32.236  1.00  0.00     0.029 A 
ATOM     49  C   UNL A   1      43.566  27.581  32.773  1.00  0.00     0.049 A 
ATOM     50  H   UNL A   1      41.879  28.469  31.869  1.00  0.00     0.167 HD
ATOM     51  C   UNL A   1      42.617  29.035  34.541  1.00  0.00     0.074 A 
ATOM     52  C   UNL A   1      42.603  29.590  35.880  1.00  0.00     0.031 C 
ATOM     53  C   UNL A   1      43.531  28.139  34.098  1.00  0.00     0.037 A 
BRANCH  40  54
ATOM     54  C   UNL A   1      42.756  26.467  28.211  1.00  0.00     0.057 A 
ATOM     55  C   UNL A   1      42.271  25.183  27.938  1.00  0.00     0.134 A 
ATOM     56  C   UNL A   1      43.706  27.003  27.333  1.00  0.00     0.134 A 
ATOM     57  F   UNL A   1      41.372  24.608  28.751  1.00  0.00    -0.206 F 
ATOM     58  C   UNL A   1      42.725  24.454  26.837  1.00  0.00     0.040 A 
ATOM     59  C   UNL A   1      44.154  26.292  26.220  1.00  0.00     0.040 A 
ATOM     60  F   UNL A   1      44.208  28.230  27.540  1.00  0.00    -0.206 F 
ATOM     61  C   UNL A   1      43.666  25.012  25.970  1.00  0.00     0.006 A 
ENDBRANCH  40  54
BRANCH  41  62
ATOM     62  C   UNL A   1      39.147  31.990  35.668  1.00  0.00     0.057 A 
ATOM     63  C   UNL A   1      38.266  31.439  36.604  1.00  0.00     0.134 A 
ATOM     64  C   UNL A   1      39.522  33.328  35.838  1.00  0.00     0.134 A 
ATOM     65  F   UNL A   1      37.856  30.169  36.478  1.00  0.00    -0.206 F 
ATOM     66  C   UNL A   1      37.776  32.190  37.672  1.00  0.00     0.040 A 
ATOM     67  C   UNL A   1      39.056  34.085  36.913  1.00  0.00     0.040 A 
ATOM     68  F   UNL A   1      40.366  33.910  34.972  1.00  0.00    -0.206 F 
ATOM     69  C   UNL A   1      38.177  33.516  37.833  1.00  0.00     0.006 A 
ENDBRANCH  41  62
BRANCH  53  70
ATOM     70  C   UNL A   1      44.585  27.711  35.070  1.00  0.00     0.057 A 
ATOM     71  C   UNL A   1      44.411  26.582  35.880  1.00  0.00     0.134 A 
ATOM     72  C   UNL A   1      45.787  28.419  35.182  1.00  0.00     0.134 A 
ATOM     73  F   UNL A   1      43.274  25.874  35.824  1.00  0.00    -0.206 F 
ATOM     74  C   UNL A   1      45.395  26.179  36.782  1.00  0.00     0.040 A 
ATOM     75  C   UNL A   1      46.784  28.017  36.072  1.00  0.00     0.040 A 
ATOM     76  F   UNL A   1      46.010  29.507  34.432  1.00  0.00    -0.206 F 
ATOM     77  C   UNL A   1      46.587  26.894  36.877  1.00  0.00     0.006 A 
ENDBRANCH  53  70
ENDBRANCH  27  28
ENDBRANCH  20  22
ENDBRANCH  19  20
ENDBRANCH  18  19
ENDBRANCH   1  18
TORSDOF 14
ENDMDL
MODEL 2
REMARK VINA RESULT:     -10.0      4.296      8.885
REMARK SMILES C[NH2+][C@@]1(C(=O)OCCOC(=O)c2ccc(-c3c4nc(c(-c5c(F)cccc5F)c5ccc([nH]5)c(-c5c(F)cccc5F)c5nc(c(-c6c(F)cccc6F)c6ccc3[nH]6)C=C5)C=C4)cc2)CC[C@H](SC(C)C)C1
REMARK SMILES IDX 7 1 6 2 4 3 5 4 3 5 66 6 73 7 67 8 68 9 2 10 1 11 69 14
REMARK SMILES IDX 70 15 71 16 72 17 8 18 9 19 10 20 11 21 12 22 13 23 65 24
REMARK SMILES IDX 14 25 64 26 15 27 16 28 17 29 58 30 18 31 63 32 57 33 59 34
REMARK SMILES IDX 19 35 62 36 56 37 55 38 20 40 46 41 29 42 45 43 30 44 33 45
REMARK SMILES IDX 44 46 60 47 31 48 32 49 43 51 61 52 34 53 21 54 22 55 27 56
REMARK SMILES IDX 23 57 24 58 26 59 28 60 25 61 47 62 48 63 53 64 49 65 50 66
REMARK SMILES IDX 52 67 54 68 51 69 35 70 36 71 41 72 37 73 38 74 40 75 42 76
REMARK SMILES IDX 39 77
REMARK H PARENT 2 12 2 13 59 39 33 50
REMARK Flexibility Score: inf
ROOT
ATOM      1  C   UNL A   1      35.412  21.421  26.144  1.00  0.00     0.274 C 
ENDROOT
BRANCH   1   2
ATOM      2  O   UNL A   1      34.030  21.459  25.741  1.00  0.00    -0.457 OA
BRANCH   2   3
ATOM      3  C   UNL A   1      33.426  22.673  25.674  1.00  0.00     0.368 C 
ATOM      4  O   UNL A   1      33.924  23.711  26.099  1.00  0.00    -0.245 OA
BRANCH   3   5
ATOM      5  C   UNL A   1      32.019  22.605  24.978  1.00  0.00     0.195 C 
ATOM      6  C   UNL A   1      32.199  21.749  23.715  1.00  0.00     0.082 C 
ATOM      7  C   UNL A   1      31.552  23.953  24.395  1.00  0.00     0.095 C 
ATOM      8  C   UNL A   1      32.872  22.711  22.738  1.00  0.00     0.022 C 
ATOM      9  C   UNL A   1      32.196  24.063  22.995  1.00  0.00     0.054 C 
BRANCH   5  10
ATOM     10  N   UNL A   1      31.077  22.086  25.997  1.00  0.00    -0.335 N 
ATOM     11  C   UNL A   1      30.273  23.054  26.723  1.00  0.00     0.331 C 
ATOM     12  H   UNL A   1      30.436  21.449  25.524  1.00  0.00     0.347 HD
ATOM     13  H   UNL A   1      31.672  21.659  26.707  1.00  0.00     0.347 HD
ENDBRANCH   5  10
BRANCH   9  14
ATOM     14  S   UNL A   1      33.343  25.486  22.932  1.00  0.00    -0.155 SA
BRANCH  14  15
ATOM     15  C   UNL A   1      32.253  26.930  23.233  1.00  0.00     0.040 C 
ATOM     16  C   UNL A   1      33.032  28.236  23.307  1.00  0.00     0.019 C 
ATOM     17  C   UNL A   1      31.091  27.011  22.250  1.00  0.00     0.019 C 
ENDBRANCH  14  15
ENDBRANCH   9  14
ENDBRANCH   3   5
ENDBRANCH   2   3
ENDBRANCH   1   2
BRANCH   1  18
ATOM     18  C   UNL A   1      36.233  20.715  25.073  1.00  0.00     0.275 C 
BRANCH  18  19
ATOM     19  O   UNL A   1      37.447  21.454  24.855  1.00  0.00    -0.458 OA
BRANCH  19  20
ATOM     20  C   UNL A   1      38.515  21.041  25.571  1.00  0.00     0.338 C 
ATOM     21  O   UNL A   1      38.962  19.913  25.678  1.00  0.00    -0.246 OA
BRANCH  20  22
ATOM     22  C   UNL A   1      39.139  22.202  26.219  1.00  0.00     0.060 A 
ATOM     23  C   UNL A   1      38.568  23.463  26.062  1.00  0.00     0.016 A 
ATOM     24  C   UNL A   1      40.367  22.056  26.862  1.00  0.00     0.016 A 
ATOM     25  C   UNL A   1      39.275  24.597  26.454  1.00  0.00     0.010 A 
ATOM     26  C   UNL A   1      41.025  23.188  27.350  1.00  0.00     0.010 A 
ATOM     27  C   UNL A   1      40.507  24.474  27.115  1.00  0.00    -0.014 A 
BRANCH  27  28
ATOM     28  C   UNL A   1      41.271  25.682  27.531  1.00  0.00     0.031 A 
ATOM     29  C   UNL A   1      40.638  26.705  28.437  1.00  0.00     0.074 A 
ATOM     30  C   UNL A   1      42.535  25.873  27.104  1.00  0.00     0.049 A 
ATOM     31  N   UNL A   1      41.048  27.911  28.738  1.00  0.00    -0.248 NA
ATOM     32  C   UNL A   1      39.368  26.327  29.077  1.00  0.00     0.031 C 
ATOM     33  C   UNL A   1      43.296  24.953  26.257  1.00  0.00     0.029 A 
ATOM     34  N   UNL A   1      43.407  26.908  27.334  1.00  0.00    -0.354 N 
ATOM     35  C   UNL A   1      40.054  28.460  29.539  1.00  0.00     0.074 A 
ATOM     36  C   UNL A   1      39.029  27.450  29.695  1.00  0.00     0.031 C 
ATOM     37  C   UNL A   1      44.534  25.439  26.080  1.00  0.00     0.029 A 
ATOM     38  C   UNL A   1      44.627  26.743  26.726  1.00  0.00     0.049 A 
ATOM     39  H   UNL A   1      43.179  27.693  27.881  1.00  0.00     0.167 HD
ATOM     40  C   UNL A   1      39.998  29.698  30.085  1.00  0.00     0.037 A 
ATOM     41  C   UNL A   1      45.692  27.563  26.661  1.00  0.00     0.037 A 
ATOM     42  C   UNL A   1      41.048  30.679  29.990  1.00  0.00     0.049 A 
ATOM     43  C   UNL A   1      45.619  28.921  27.294  1.00  0.00     0.074 A 
ATOM     44  C   UNL A   1      41.083  31.962  30.508  1.00  0.00     0.029 A 
ATOM     45  N   UNL A   1      42.263  30.469  29.358  1.00  0.00    -0.354 N 
ATOM     46  N   UNL A   1      44.632  29.466  27.962  1.00  0.00    -0.248 NA
ATOM     47  C   UNL A   1      46.794  29.789  27.135  1.00  0.00     0.031 C 
ATOM     48  C   UNL A   1      42.317  32.534  30.180  1.00  0.00     0.029 A 
ATOM     49  C   UNL A   1      43.058  31.597  29.477  1.00  0.00     0.049 A 
ATOM     50  H   UNL A   1      42.524  29.642  28.893  1.00  0.00     0.167 HD
ATOM     51  C   UNL A   1      45.061  30.742  28.294  1.00  0.00     0.074 A 
ATOM     52  C   UNL A   1      46.408  30.882  27.779  1.00  0.00     0.031 C 
ATOM     53  C   UNL A   1      44.392  31.718  28.953  1.00  0.00     0.037 A 
BRANCH  40  54
ATOM     54  C   UNL A   1      38.741  30.078  30.807  1.00  0.00     0.057 A 
ATOM     55  C   UNL A   1      38.578  29.862  32.180  1.00  0.00     0.134 A 
ATOM     56  C   UNL A   1      37.693  30.703  30.118  1.00  0.00     0.134 A 
ATOM     57  F   UNL A   1      39.539  29.253  32.891  1.00  0.00    -0.206 F 
ATOM     58  C   UNL A   1      37.409  30.242  32.841  1.00  0.00     0.040 A 
ATOM     59  C   UNL A   1      36.528  31.103  30.771  1.00  0.00     0.040 A 
ATOM     60  F   UNL A   1      37.790  30.940  28.801  1.00  0.00    -0.206 F 
ATOM     61  C   UNL A   1      36.381  30.870  32.137  1.00  0.00     0.006 A 
ENDBRANCH  40  54
BRANCH  41  62
ATOM     62  C   UNL A   1      46.908  27.128  25.933  1.00  0.00     0.057 A 
ATOM     63  C   UNL A   1      47.920  26.417  26.585  1.00  0.00     0.134 A 
ATOM     64  C   UNL A   1      47.072  27.389  24.568  1.00  0.00     0.134 A 
ATOM     65  F   UNL A   1      47.825  26.159  27.897  1.00  0.00    -0.206 F 
ATOM     66  C   UNL A   1      49.055  25.978  25.904  1.00  0.00     0.040 A 
ATOM     67  C   UNL A   1      48.192  26.938  23.870  1.00  0.00     0.040 A 
ATOM     68  F   UNL A   1      46.133  28.065  23.889  1.00  0.00    -0.206 F 
ATOM     69  C   UNL A   1      49.189  26.231  24.540  1.00  0.00     0.006 A 
ENDBRANCH  41  62
BRANCH  53  70
ATOM     70  C   UNL A   1      45.110  33.015  29.151  1.00  0.00     0.057 A 
ATOM     71  C   UNL A   1      44.961  34.074  28.246  1.00  0.00     0.134 A 
ATOM     72  C   UNL A   1      45.940  33.214  30.260  1.00  0.00     0.134 A 
ATOM     73  F   UNL A   1      44.190  33.935  27.158  1.00  0.00    -0.206 F 
ATOM     74  C   UNL A   1      45.626  35.286  28.432  1.00  0.00     0.040 A 
ATOM     75  C   UNL A   1      46.599  34.427  30.463  1.00  0.00     0.040 A 
ATOM     76  F   UNL A   1      46.120  32.237  31.160  1.00  0.00    -0.206 F 
ATOM     77  C   UNL A   1      46.445  35.466  29.546  1.00  0.00     0.006 A 
ENDBRANCH  53  70
ENDBRANCH  27  28
ENDBRANCH  20  22
ENDBRANCH  19  20
ENDBRANCH  18  19
ENDBRANCH   1  18
TORSDOF 14
ENDMDL
MODEL 3
REMARK VINA RESULT:      -9.8      1.221      2.910
REMARK SMILES C[NH2+][C@@]1(C(=O)OCCOC(=O)c2ccc(-c3c4nc(c(-c5c(F)cccc5F)c5ccc([nH]5)c(-c5c(F)cccc5F)c5nc(c(-c6c(F)cccc6F)c6ccc3[nH]6)C=C5)C=C4)cc2)CC[C@H](SC(C)C)C1
REMARK SMILES IDX 7 1 6 2 4 3 5 4 3 5 66 6 73 7 67 8 68 9 2 10 1 11 69 14
REMARK SMILES IDX 70 15 71 16 72 17 8 18 9 19 10 20 11 21 12 22 13 23 65 24
REMARK SMILES IDX 14 25 64 26 15 27 16 28 17 29 58 30 18 31 63 32 57 33 59 34
REMARK SMILES IDX 19 35 62 36 56 37 55 38 20 40 46 41 29 42 45 43 30 44 33 45
REMARK SMILES IDX 44 46 60 47 31 48 32 49 43 51 61 52 34 53 21 54 22 55 27 56
REMARK SMILES IDX 23 57 24 58 26 59 28 60 25 61 47 62 48 63 53 64 49 65 50 66
REMARK SMILES IDX 52 67 54 68 51 69 35 70 36 71 41 72 37 73 38 74 40 75 42 76
REMARK SMILES IDX 39 77
REMARK H PARENT 2 12 2 13 59 39 33 50
REMARK Flexibility Score: inf
ROOT
ATOM      1  C   UNL A   1      31.787  28.734  27.028  1.00  0.00     0.274 C 
ENDROOT
BRANCH   1   2
ATOM      2  O   UNL A   1      31.148  27.888  26.053  1.00  0.00    -0.457 OA
BRANCH   2   3
ATOM      3  C   UNL A   1      31.738  27.774  24.836  1.00  0.00     0.368 C 
ATOM      4  O   UNL A   1      32.951  27.813  24.655  1.00  0.00    -0.245 OA
BRANCH   3   5
ATOM      5  C   UNL A   1      30.692  27.572  23.680  1.00  0.00     0.195 C 
ATOM      6  C   UNL A   1      29.790  26.405  24.108  1.00  0.00     0.082 C 
ATOM      7  C   UNL A   1      31.312  27.045  22.371  1.00  0.00     0.095 C 
ATOM      8  C   UNL A   1      30.655  25.178  23.826  1.00  0.00     0.022 C 
ATOM      9  C   UNL A   1      31.386  25.509  22.519  1.00  0.00     0.054 C 
BRANCH   5  10
ATOM     10  N   UNL A   1      30.028  28.883  23.490  1.00  0.00    -0.335 N 
ATOM     11  C   UNL A   1      30.136  29.507  22.183  1.00  0.00     0.331 C 
ATOM     12  H   UNL A   1      29.035  28.753  23.686  1.00  0.00     0.347 HD
ATOM     13  H   UNL A   1      30.517  29.517  24.121  1.00  0.00     0.347 HD
ENDBRANCH   5  10
BRANCH   9  14
ATOM     14  S   UNL A   1      33.126  24.950  22.483  1.00  0.00    -0.155 SA
BRANCH  14  15
ATOM     15  C   UNL A   1      33.311  24.022  24.055  1.00  0.00     0.040 C 
ATOM     16  C   UNL A   1      33.514  22.530  23.825  1.00  0.00     0.019 C 
ATOM     17  C   UNL A   1      34.378  24.611  24.969  1.00  0.00     0.019 C 
ENDBRANCH  14  15
ENDBRANCH   9  14
ENDBRANCH   3   5
ENDBRANCH   2   3
ENDBRANCH   1   2
BRANCH   1  18
ATOM     18  C   UNL A   1      31.575  30.194  26.648  1.00  0.00     0.275 C 
BRANCH  18  19
ATOM     19  O   UNL A   1      32.845  30.772  26.301  1.00  0.00    -0.458 OA
BRANCH  19  20
ATOM     20  C   UNL A   1      33.288  31.743  27.128  1.00  0.00     0.338 C 
ATOM     21  O   UNL A   1      32.720  32.769  27.460  1.00  0.00    -0.246 OA
BRANCH  20  22
ATOM     22  C   UNL A   1      34.611  31.370  27.645  1.00  0.00     0.060 A 
ATOM     23  C   UNL A   1      34.873  30.038  27.959  1.00  0.00     0.016 A 
ATOM     24  C   UNL A   1      35.538  32.366  27.949  1.00  0.00     0.016 A 
ATOM     25  C   UNL A   1      36.020  29.710  28.677  1.00  0.00     0.010 A 
ATOM     26  C   UNL A   1      36.737  32.017  28.576  1.00  0.00     0.010 A 
ATOM     27  C   UNL A   1      36.974  30.692  28.984  1.00  0.00    -0.014 A 
BRANCH  27  28
ATOM     28  C   UNL A   1      38.199  30.348  29.757  1.00  0.00     0.031 A 
ATOM     29  C   UNL A   1      39.269  29.489  29.137  1.00  0.00     0.074 A 
ATOM     30  C   UNL A   1      38.364  30.802  31.015  1.00  0.00     0.049 A 
ATOM     31  N   UNL A   1      40.295  28.907  29.705  1.00  0.00    -0.248 NA
ATOM     32  C   UNL A   1      39.164  29.239  27.691  1.00  0.00     0.031 C 
ATOM     33  C   UNL A   1      37.435  31.676  31.734  1.00  0.00     0.029 A 
ATOM     34  N   UNL A   1      39.383  30.593  31.911  1.00  0.00    -0.354 N 
ATOM     35  C   UNL A   1      40.912  28.165  28.705  1.00  0.00     0.074 A 
ATOM     36  C   UNL A   1      40.158  28.385  27.489  1.00  0.00     0.031 C 
ATOM     37  C   UNL A   1      37.949  31.967  32.939  1.00  0.00     0.029 A 
ATOM     38  C   UNL A   1      39.198  31.235  33.111  1.00  0.00     0.049 A 
ATOM     39  H   UNL A   1      40.170  30.037  31.713  1.00  0.00     0.167 HD
ATOM     40  C   UNL A   1      42.000  27.365  28.796  1.00  0.00     0.037 A 
ATOM     41  C   UNL A   1      39.930  31.209  34.240  1.00  0.00     0.037 A 
ATOM     42  C   UNL A   1      42.792  27.201  29.988  1.00  0.00     0.049 A 
ATOM     43  C   UNL A   1      41.147  30.336  34.313  1.00  0.00     0.074 A 
ATOM     44  C   UNL A   1      43.913  26.410  30.179  1.00  0.00     0.029 A 
ATOM     45  N   UNL A   1      42.563  27.865  31.182  1.00  0.00    -0.354 N 
ATOM     46  N   UNL A   1      41.660  29.561  33.390  1.00  0.00    -0.248 NA
ATOM     47  C   UNL A   1      41.865  30.309  35.594  1.00  0.00     0.031 C 
ATOM     48  C   UNL A   1      44.356  26.589  31.494  1.00  0.00     0.029 A 
ATOM     49  C   UNL A   1      43.523  27.508  32.113  1.00  0.00     0.049 A 
ATOM     50  H   UNL A   1      41.826  28.498  31.344  1.00  0.00     0.167 HD
ATOM     51  C   UNL A   1      42.754  28.946  33.979  1.00  0.00     0.074 A 
ATOM     52  C   UNL A   1      42.848  29.459  35.332  1.00  0.00     0.031 C 
ATOM     53  C   UNL A   1      43.597  28.025  33.453  1.00  0.00     0.037 A 
BRANCH  40  54
ATOM     54  C   UNL A   1      42.381  26.575  27.582  1.00  0.00     0.057 A 
ATOM     55  C   UNL A   1      43.264  27.074  26.617  1.00  0.00     0.134 A 
ATOM     56  C   UNL A   1      41.880  25.281  27.396  1.00  0.00     0.134 A 
ATOM     57  F   UNL A   1      43.765  28.313  26.730  1.00  0.00    -0.206 F 
ATOM     58  C   UNL A   1      43.625  26.316  25.502  1.00  0.00     0.040 A 
ATOM     59  C   UNL A   1      42.247  24.507  26.295  1.00  0.00     0.040 A 
ATOM     60  F   UNL A   1      41.031  24.745  28.287  1.00  0.00    -0.206 F 
ATOM     61  C   UNL A   1      43.120  25.025  25.342  1.00  0.00     0.006 A 
ENDBRANCH  40  54
BRANCH  41  62
ATOM     62  C   UNL A   1      39.501  32.015  35.408  1.00  0.00     0.057 A 
ATOM     63  C   UNL A   1      39.966  33.321  35.590  1.00  0.00     0.134 A 
ATOM     64  C   UNL A   1      38.599  31.510  36.351  1.00  0.00     0.134 A 
ATOM     65  F   UNL A   1      40.850  33.848  34.730  1.00  0.00    -0.206 F 
ATOM     66  C   UNL A   1      39.548  34.099  36.669  1.00  0.00     0.040 A 
ATOM     67  C   UNL A   1      38.156  32.284  37.424  1.00  0.00     0.040 A 
ATOM     68  F   UNL A   1      38.116  30.264  36.228  1.00  0.00    -0.206 F 
ATOM     69  C   UNL A   1      38.634  33.583  37.586  1.00  0.00     0.006 A 
ENDBRANCH  41  62
BRANCH  53  70
ATOM     70  C   UNL A   1      44.687  27.520  34.344  1.00  0.00     0.057 A 
ATOM     71  C   UNL A   1      45.920  28.179  34.428  1.00  0.00     0.134 A 
ATOM     72  C   UNL A   1      44.499  26.382  35.135  1.00  0.00     0.134 A 
ATOM     73  F   UNL A   1      46.161  29.267  33.682  1.00  0.00    -0.206 F 
ATOM     74  C   UNL A   1      46.936  27.713  35.262  1.00  0.00     0.040 A 
ATOM     75  C   UNL A   1      45.503  25.914  35.983  1.00  0.00     0.040 A 
ATOM     76  F   UNL A   1      43.340  25.710  35.097  1.00  0.00    -0.206 F 
ATOM     77  C   UNL A   1      46.728  26.580  36.046  1.00  0.00     0.006 A 
ENDBRANCH  53  70
ENDBRANCH  27  28
ENDBRANCH  20  22
ENDBRANCH  19  20
ENDBRANCH  18  19
ENDBRANCH   1  18
TORSDOF 14
ENDMDL
