MODEL 1
REMARK VINA RESULT:      -9.8      0.000      0.000
REMARK SMILES COC(=O)[C@H]1CC[C@]2(C)[C@H](CC[C@]3(C)[C@H]2CC=C2[C@H]4CC(C)(C)CC[C@]4(C(=O)OCCOC(=O)c4ccc(-c5c6nc(c(-c7c(F)cccc7F)c7ccc([nH]7)c(-c7c(F)cccc7F)c7nc(c(-c8c(F)cccc8F)c8ccc5[nH]8)C=C7)C=C6)cc4)CC[C@@]23C)C1(C)C
REMARK SMILES IDX 30 1 29 2 27 3 28 4 26 5 5 6 6 7 93 8 7 9 10 10 94 11 95 12
REMARK SMILES IDX 8 13 11 14 15 15 9 16 12 17 16 18 13 19 17 20 91 21 14 22
REMARK SMILES IDX 18 23 90 24 92 25 19 26 89 27 20 28 21 29 25 30 24 31 22 32
REMARK SMILES IDX 23 33 3 34 4 35 2 36 1 37 31 38 32 39 33 40 34 41 35 42
REMARK SMILES IDX 36 43 88 44 37 45 87 46 38 47 39 48 40 49 81 50 41 51 86 52
REMARK SMILES IDX 80 53 82 54 42 55 85 56 79 57 78 58 43 60 69 61 52 62 68 63
REMARK SMILES IDX 53 64 56 65 67 66 83 67 54 68 55 69 66 71 84 72 57 73 44 74
REMARK SMILES IDX 45 75 50 76 46 77 47 78 49 79 51 80 48 81 70 82 71 83 76 84
REMARK SMILES IDX 72 85 73 86 75 87 77 88 74 89 58 90 59 91 64 92 60 93 61 94
REMARK SMILES IDX 63 95 65 96 62 97
REMARK H PARENT 82 59 56 70
REMARK Flexibility Score: inf
ROOT
ATOM      1  C   UNL A   1      36.897  30.026  27.597  1.00  0.00     0.274 C 
ENDROOT
BRANCH   1   2
ATOM      2  O   UNL A   1      38.326  30.256  27.803  1.00  0.00    -0.462 OA
BRANCH   2   3
ATOM      3  C   UNL A   1      39.310  29.363  27.508  1.00  0.00     0.312 C 
ATOM      4  O   UNL A   1      39.734  29.221  26.367  1.00  0.00    -0.252 OA
BRANCH   3   5
ATOM      5  C   UNL A   1      39.702  28.424  28.750  1.00  0.00     0.075 C 
ATOM      6  C   UNL A   1      46.993  26.374  26.895  1.00  0.00     0.105 C 
ATOM      7  C   UNL A   1      46.367  26.229  25.485  1.00  0.00     0.016 C 
ATOM      8  C   UNL A   1      46.020  26.485  28.138  1.00  0.00    -0.019 C 
ATOM      9  C   UNL A   1      45.071  25.398  25.424  1.00  0.00     0.008 C 
ATOM     10  C   UNL A   1      44.738  25.594  27.899  1.00  0.00     0.002 C 
ATOM     11  C   UNL A   1      45.724  27.971  28.475  1.00  0.00     0.012 C 
ATOM     12  C   UNL A   1      46.735  26.010  29.441  1.00  0.00     0.012 C 
ATOM     13  C   UNL A   1      44.048  25.813  26.521  1.00  0.00    -0.026 C 
ATOM     14  C   UNL A   1      43.748  25.574  29.077  1.00  0.00     0.005 C 
ATOM     15  C   UNL A   1      42.717  24.888  26.395  1.00  0.00     0.006 C 
ATOM     16  C   UNL A   1      43.814  27.303  26.153  1.00  0.00     0.012 C 
ATOM     17  C   UNL A   1      42.727  24.450  28.974  1.00  0.00     0.008 C 
ATOM     18  C   UNL A   1      41.769  25.528  25.376  1.00  0.00     0.032 C 
ATOM     19  C   UNL A   1      41.822  24.477  27.733  1.00  0.00    -0.020 C 
ATOM     20  C   UNL A   1      41.143  26.737  26.065  1.00  0.00    -0.027 C 
ATOM     21  C   UNL A   1      40.489  25.427  27.910  1.00  0.00    -0.006 C 
ATOM     22  C   UNL A   1      41.380  22.993  27.505  1.00  0.00     0.012 C 
ATOM     23  C   UNL A   1      41.009  26.765  27.408  1.00  0.00    -0.063 C 
ATOM     24  C   UNL A   1      39.765  25.772  29.253  1.00  0.00     0.013 C 
ATOM     25  C   UNL A   1      39.270  24.823  27.088  1.00  0.00     0.017 C 
ATOM     26  C   UNL A   1      41.127  27.951  28.466  1.00  0.00     0.033 C 
ATOM     27  C   UNL A   1      38.888  27.116  29.120  1.00  0.00     0.020 C 
ATOM     28  C   UNL A   1      42.083  29.191  28.394  1.00  0.00     0.015 C 
ATOM     29  C   UNL A   1      42.066  30.123  29.651  1.00  0.00    -0.035 C 
ATOM     30  C   UNL A   1      39.648  29.311  30.029  1.00  0.00     0.020 C 
ATOM     31  C   UNL A   1      40.640  30.464  30.102  1.00  0.00     0.007 C 
ATOM     32  C   UNL A   1      42.778  31.454  29.315  1.00  0.00     0.011 C 
ATOM     33  C   UNL A   1      42.852  29.488  30.823  1.00  0.00     0.011 C 
BRANCH   6  34
ATOM     34  C   UNL A   1      47.966  25.223  27.084  1.00  0.00     0.309 C 
ATOM     35  O   UNL A   1      47.668  24.045  26.941  1.00  0.00    -0.252 OA
BRANCH  34  36
ATOM     36  O   UNL A   1      49.221  25.706  27.272  1.00  0.00    -0.469 OA
ATOM     37  C   UNL A   1      49.405  27.083  26.970  1.00  0.00     0.282 C 
ENDBRANCH  34  36
ENDBRANCH   6  34
ENDBRANCH   3   5
ENDBRANCH   2   3
ENDBRANCH   1   2
BRANCH   1  38
ATOM     38  C   UNL A   1      36.036  30.851  28.597  1.00  0.00     0.275 C 
BRANCH  38  39
ATOM     39  O   UNL A   1      36.872  31.406  29.619  1.00  0.00    -0.458 OA
BRANCH  39  40
ATOM     40  C   UNL A   1      36.535  32.630  30.097  1.00  0.00     0.338 C 
ATOM     41  O   UNL A   1      35.728  33.431  29.660  1.00  0.00    -0.246 OA
BRANCH  40  42
ATOM     42  C   UNL A   1      37.078  32.601  31.459  1.00  0.00     0.060 A 
ATOM     43  C   UNL A   1      36.400  31.802  32.383  1.00  0.00     0.016 A 
ATOM     44  C   UNL A   1      38.386  33.006  31.675  1.00  0.00     0.016 A 
ATOM     45  C   UNL A   1      37.083  31.231  33.447  1.00  0.00     0.010 A 
ATOM     46  C   UNL A   1      39.056  32.485  32.767  1.00  0.00     0.010 A 
ATOM     47  C   UNL A   1      38.427  31.553  33.616  1.00  0.00    -0.014 A 
BRANCH  47  48
ATOM     48  C   UNL A   1      39.213  31.068  34.755  1.00  0.00     0.031 A 
ATOM     49  C   UNL A   1      39.296  31.987  35.918  1.00  0.00     0.074 A 
ATOM     50  C   UNL A   1      40.001  29.988  34.623  1.00  0.00     0.049 A 
ATOM     51  N   UNL A   1      40.253  32.138  36.786  1.00  0.00    -0.248 NA
ATOM     52  C   UNL A   1      38.162  32.914  36.077  1.00  0.00     0.031 C 
ATOM     53  C   UNL A   1      39.925  29.000  33.548  1.00  0.00     0.029 A 
ATOM     54  N   UNL A   1      41.080  29.594  35.372  1.00  0.00    -0.354 N 
ATOM     55  C   UNL A   1      39.867  33.220  37.560  1.00  0.00     0.074 A 
ATOM     56  C   UNL A   1      38.592  33.684  37.062  1.00  0.00     0.031 C 
ATOM     57  C   UNL A   1      40.956  28.144  33.670  1.00  0.00     0.029 A 
ATOM     58  C   UNL A   1      41.793  28.574  34.787  1.00  0.00     0.049 A 
ATOM     59  H   UNL A   1      41.319  29.999  36.237  1.00  0.00     0.167 HD
ATOM     60  C   UNL A   1      40.549  33.783  38.580  1.00  0.00     0.037 A 
ATOM     61  C   UNL A   1      43.021  28.106  35.089  1.00  0.00     0.037 A 
ATOM     62  C   UNL A   1      41.825  33.298  39.022  1.00  0.00     0.049 A 
ATOM     63  C   UNL A   1      43.790  28.783  36.196  1.00  0.00     0.074 A 
ATOM     64  C   UNL A   1      42.622  33.766  40.048  1.00  0.00     0.029 A 
ATOM     65  N   UNL A   1      42.493  32.222  38.446  1.00  0.00    -0.354 N 
ATOM     66  N   UNL A   1      43.447  29.816  36.932  1.00  0.00    -0.248 NA
ATOM     67  C   UNL A   1      45.124  28.248  36.500  1.00  0.00     0.031 C 
ATOM     68  C   UNL A   1      43.791  32.998  40.067  1.00  0.00     0.029 A 
ATOM     69  C   UNL A   1      43.700  32.020  39.086  1.00  0.00     0.049 A 
ATOM     70  H   UNL A   1      42.156  31.686  37.693  1.00  0.00     0.167 HD
ATOM     71  C   UNL A   1      44.505  30.037  37.804  1.00  0.00     0.074 A 
ATOM     72  C   UNL A   1      45.501  29.025  37.507  1.00  0.00     0.031 C 
ATOM     73  C   UNL A   1      44.651  30.985  38.763  1.00  0.00     0.037 A 
BRANCH  60  74
ATOM     74  C   UNL A   1      39.940  34.992  39.218  1.00  0.00     0.057 A 
ATOM     75  C   UNL A   1      40.160  36.283  38.722  1.00  0.00     0.134 A 
ATOM     76  C   UNL A   1      39.153  34.867  40.370  1.00  0.00     0.134 A 
ATOM     77  F   UNL A   1      40.934  36.474  37.642  1.00  0.00    -0.206 F 
ATOM     78  C   UNL A   1      39.643  37.410  39.362  1.00  0.00     0.040 A 
ATOM     79  C   UNL A   1      38.606  35.984  41.003  1.00  0.00     0.040 A 
ATOM     80  F   UNL A   1      38.917  33.661  40.907  1.00  0.00    -0.206 F 
ATOM     81  C   UNL A   1      38.857  37.260  40.504  1.00  0.00     0.006 A 
ENDBRANCH  60  74
BRANCH  61  82
ATOM     82  C   UNL A   1      43.613  26.979  34.322  1.00  0.00     0.057 A 
ATOM     83  C   UNL A   1      44.538  27.220  33.299  1.00  0.00     0.134 A 
ATOM     84  C   UNL A   1      43.271  25.644  34.574  1.00  0.00     0.134 A 
ATOM     85  F   UNL A   1      44.887  28.477  32.989  1.00  0.00    -0.206 F 
ATOM     86  C   UNL A   1      45.091  26.181  32.547  1.00  0.00     0.040 A 
ATOM     87  C   UNL A   1      43.835  24.592  33.846  1.00  0.00     0.040 A 
ATOM     88  F   UNL A   1      42.389  25.339  35.536  1.00  0.00    -0.206 F 
ATOM     89  C   UNL A   1      44.744  24.861  32.824  1.00  0.00     0.006 A 
ENDBRANCH  61  82
BRANCH  73  90
ATOM     90  C   UNL A   1      45.902  30.936  39.587  1.00  0.00     0.057 A 
ATOM     91  C   UNL A   1      47.065  31.615  39.207  1.00  0.00     0.134 A 
ATOM     92  C   UNL A   1      45.912  30.262  40.814  1.00  0.00     0.134 A 
ATOM     93  F   UNL A   1      47.119  32.270  38.037  1.00  0.00    -0.206 F 
ATOM     94  C   UNL A   1      48.201  31.614  40.015  1.00  0.00     0.040 A 
ATOM     95  C   UNL A   1      47.032  30.277  41.644  1.00  0.00     0.040 A 
ATOM     96  F   UNL A   1      44.822  29.604  41.239  1.00  0.00    -0.206 F 
ATOM     97  C   UNL A   1      48.183  30.951  41.242  1.00  0.00     0.006 A 
ENDBRANCH  73  90
ENDBRANCH  47  48
ENDBRANCH  40  42
ENDBRANCH  39  40
ENDBRANCH  38  39
ENDBRANCH   1  38
TORSDOF 13
ENDMDL
MODEL 2
REMARK VINA RESULT:      -9.7      4.973     12.199
REMARK SMILES COC(=O)[C@H]1CC[C@]2(C)[C@H](CC[C@]3(C)[C@H]2CC=C2[C@H]4CC(C)(C)CC[C@]4(C(=O)OCCOC(=O)c4ccc(-c5c6nc(c(-c7c(F)cccc7F)c7ccc([nH]7)c(-c7c(F)cccc7F)c7nc(c(-c8c(F)cccc8F)c8ccc5[nH]8)C=C7)C=C6)cc4)CC[C@@]23C)C1(C)C
REMARK SMILES IDX 30 1 29 2 27 3 28 4 26 5 5 6 6 7 93 8 7 9 10 10 94 11 95 12
REMARK SMILES IDX 8 13 11 14 15 15 9 16 12 17 16 18 13 19 17 20 91 21 14 22
REMARK SMILES IDX 18 23 90 24 92 25 19 26 89 27 20 28 21 29 25 30 24 31 22 32
REMARK SMILES IDX 23 33 3 34 4 35 2 36 1 37 31 38 32 39 33 40 34 41 35 42
REMARK SMILES IDX 36 43 88 44 37 45 87 46 38 47 39 48 40 49 81 50 41 51 86 52
REMARK SMILES IDX 80 53 82 54 42 55 85 56 79 57 78 58 43 60 69 61 52 62 68 63
REMARK SMILES IDX 53 64 56 65 67 66 83 67 54 68 55 69 66 71 84 72 57 73 44 74
REMARK SMILES IDX 45 75 50 76 46 77 47 78 49 79 51 80 48 81 70 82 71 83 76 84
REMARK SMILES IDX 72 85 73 86 75 87 77 88 74 89 58 90 59 91 64 92 60 93 61 94
REMARK SMILES IDX 63 95 65 96 62 97
REMARK H PARENT 82 59 56 70
REMARK Flexibility Score: inf
ROOT
ATOM      1  C   UNL A   1      39.754  24.450  27.818  1.00  0.00     0.274 C 
ENDROOT
BRANCH   1   2
ATOM      2  O   UNL A   1      40.356  25.404  28.749  1.00  0.00    -0.462 OA
BRANCH   2   3
ATOM      3  C   UNL A   1      39.723  26.491  29.269  1.00  0.00     0.312 C 
ATOM      4  O   UNL A   1      38.782  26.381  30.045  1.00  0.00    -0.252 OA
BRANCH   3   5
ATOM      5  C   UNL A   1      40.218  27.875  28.624  1.00  0.00     0.075 C 
ATOM      6  C   UNL A   1      38.996  32.839  34.513  1.00  0.00     0.105 C 
ATOM      7  C   UNL A   1      37.685  32.027  34.646  1.00  0.00     0.016 C 
ATOM      8  C   UNL A   1      39.843  32.684  33.185  1.00  0.00    -0.019 C 
ATOM      9  C   UNL A   1      36.890  31.845  33.338  1.00  0.00     0.008 C 
ATOM     10  C   UNL A   1      38.876  32.483  31.952  1.00  0.00     0.002 C 
ATOM     11  C   UNL A   1      40.925  31.584  33.347  1.00  0.00     0.012 C 
ATOM     12  C   UNL A   1      40.723  33.949  32.942  1.00  0.00     0.012 C 
ATOM     13  C   UNL A   1      37.791  31.386  32.155  1.00  0.00    -0.026 C 
ATOM     14  C   UNL A   1      39.591  32.385  30.592  1.00  0.00     0.005 C 
ATOM     15  C   UNL A   1      36.883  31.225  30.816  1.00  0.00     0.006 C 
ATOM     16  C   UNL A   1      38.337  30.042  32.709  1.00  0.00     0.012 C 
ATOM     17  C   UNL A   1      38.644  32.555  29.412  1.00  0.00     0.008 C 
ATOM     18  C   UNL A   1      36.277  29.818  30.800  1.00  0.00     0.032 C 
ATOM     19  C   UNL A   1      37.511  31.524  29.307  1.00  0.00    -0.020 C 
ATOM     20  C   UNL A   1      37.405  28.862  30.427  1.00  0.00    -0.027 C 
ATOM     21  C   UNL A   1      37.947  30.143  28.525  1.00  0.00    -0.006 C 
ATOM     22  C   UNL A   1      36.369  32.238  28.510  1.00  0.00     0.012 C 
ATOM     23  C   UNL A   1      38.447  29.292  29.682  1.00  0.00    -0.063 C 
ATOM     24  C   UNL A   1      39.059  30.003  27.434  1.00  0.00     0.013 C 
ATOM     25  C   UNL A   1      36.706  29.544  27.732  1.00  0.00     0.017 C 
ATOM     26  C   UNL A   1      39.998  28.928  29.711  1.00  0.00     0.033 C 
ATOM     27  C   UNL A   1      39.574  28.483  27.310  1.00  0.00     0.020 C 
ATOM     28  C   UNL A   1      40.863  28.568  30.967  1.00  0.00     0.015 C 
ATOM     29  C   UNL A   1      42.394  28.387  30.697  1.00  0.00    -0.035 C 
ATOM     30  C   UNL A   1      41.732  27.713  28.297  1.00  0.00     0.020 C 
ATOM     31  C   UNL A   1      42.666  27.494  29.480  1.00  0.00     0.007 C 
ATOM     32  C   UNL A   1      43.058  27.717  31.923  1.00  0.00     0.011 C 
ATOM     33  C   UNL A   1      43.091  29.756  30.513  1.00  0.00     0.011 C 
BRANCH   6  34
ATOM     34  C   UNL A   1      38.657  34.300  34.758  1.00  0.00     0.309 C 
ATOM     35  O   UNL A   1      37.898  34.952  34.055  1.00  0.00    -0.252 OA
BRANCH  34  36
ATOM     36  O   UNL A   1      39.190  34.705  35.940  1.00  0.00    -0.469 OA
ATOM     37  C   UNL A   1      40.028  35.852  35.878  1.00  0.00     0.282 C 
ENDBRANCH  34  36
ENDBRANCH   6  34
ENDBRANCH   3   5
ENDBRANCH   2   3
ENDBRANCH   1   2
BRANCH   1  38
ATOM     38  C   UNL A   1      40.650  23.190  27.633  1.00  0.00     0.275 C 
BRANCH  38  39
ATOM     39  O   UNL A   1      41.391  23.294  26.412  1.00  0.00    -0.458 OA
BRANCH  39  40
ATOM     40  C   UNL A   1      42.742  23.196  26.499  1.00  0.00     0.338 C 
ATOM     41  O   UNL A   1      43.463  22.248  26.244  1.00  0.00    -0.246 OA
BRANCH  40  42
ATOM     42  C   UNL A   1      43.157  24.598  26.597  1.00  0.00     0.060 A 
ATOM     43  C   UNL A   1      44.126  24.896  27.559  1.00  0.00     0.016 A 
ATOM     44  C   UNL A   1      42.902  25.456  25.538  1.00  0.00     0.016 A 
ATOM     45  C   UNL A   1      44.993  25.962  27.370  1.00  0.00     0.010 A 
ATOM     46  C   UNL A   1      43.727  26.554  25.376  1.00  0.00     0.010 A 
ATOM     47  C   UNL A   1      44.808  26.773  26.254  1.00  0.00    -0.014 A 
BRANCH  47  48
ATOM     48  C   UNL A   1      45.619  27.971  26.009  1.00  0.00     0.031 A 
ATOM     49  C   UNL A   1      47.056  27.728  25.727  1.00  0.00     0.074 A 
ATOM     50  C   UNL A   1      45.127  29.190  26.286  1.00  0.00     0.049 A 
ATOM     51  N   UNL A   1      48.087  28.476  25.990  1.00  0.00    -0.248 NA
ATOM     52  C   UNL A   1      47.373  26.421  25.126  1.00  0.00     0.031 C 
ATOM     53  C   UNL A   1      43.717  29.515  26.498  1.00  0.00     0.029 A 
ATOM     54  N   UNL A   1      45.787  30.370  26.514  1.00  0.00    -0.354 N 
ATOM     55  C   UNL A   1      49.185  27.706  25.642  1.00  0.00     0.074 A 
ATOM     56  C   UNL A   1      48.696  26.438  25.150  1.00  0.00     0.031 C 
ATOM     57  C   UNL A   1      43.622  30.800  26.887  1.00  0.00     0.029 A 
ATOM     58  C   UNL A   1      44.967  31.352  27.017  1.00  0.00     0.049 A 
ATOM     59  H   UNL A   1      46.747  30.499  26.337  1.00  0.00     0.167 HD
ATOM     60  C   UNL A   1      50.489  28.036  25.759  1.00  0.00     0.037 A 
ATOM     61  C   UNL A   1      45.293  32.531  27.585  1.00  0.00     0.037 A 
ATOM     62  C   UNL A   1      50.925  29.302  26.277  1.00  0.00     0.049 A 
ATOM     63  C   UNL A   1      46.756  32.859  27.757  1.00  0.00     0.074 A 
ATOM     64  C   UNL A   1      52.213  29.772  26.442  1.00  0.00     0.029 A 
ATOM     65  N   UNL A   1      50.066  30.301  26.721  1.00  0.00    -0.354 N 
ATOM     66  N   UNL A   1      47.809  32.138  27.446  1.00  0.00    -0.248 NA
ATOM     67  C   UNL A   1      47.077  34.151  28.379  1.00  0.00     0.031 C 
ATOM     68  C   UNL A   1      52.132  31.043  27.024  1.00  0.00     0.029 A 
ATOM     69  C   UNL A   1      50.795  31.383  27.174  1.00  0.00     0.049 A 
ATOM     70  H   UNL A   1      49.083  30.245  26.715  1.00  0.00     0.167 HD
ATOM     71  C   UNL A   1      48.915  32.897  27.805  1.00  0.00     0.074 A 
ATOM     72  C   UNL A   1      48.403  34.138  28.354  1.00  0.00     0.031 C 
ATOM     73  C   UNL A   1      50.236  32.605  27.697  1.00  0.00     0.037 A 
BRANCH  60  74
ATOM     74  C   UNL A   1      51.492  26.995  25.370  1.00  0.00     0.057 A 
ATOM     75  C   UNL A   1      52.071  26.964  24.096  1.00  0.00     0.134 A 
ATOM     76  C   UNL A   1      51.855  25.987  26.271  1.00  0.00     0.134 A 
ATOM     77  F   UNL A   1      51.738  27.882  23.174  1.00  0.00    -0.206 F 
ATOM     78  C   UNL A   1      52.955  25.952  23.720  1.00  0.00     0.040 A 
ATOM     79  C   UNL A   1      52.760  24.986  25.917  1.00  0.00     0.040 A 
ATOM     80  F   UNL A   1      51.325  25.948  27.503  1.00  0.00    -0.206 F 
ATOM     81  C   UNL A   1      53.306  24.962  24.636  1.00  0.00     0.006 A 
ENDBRANCH  60  74
BRANCH  61  82
ATOM     82  C   UNL A   1      44.237  33.460  28.065  1.00  0.00     0.057 A 
ATOM     83  C   UNL A   1      43.816  33.434  29.400  1.00  0.00     0.134 A 
ATOM     84  C   UNL A   1      43.614  34.384  27.216  1.00  0.00     0.134 A 
ATOM     85  F   UNL A   1      44.353  32.554  30.258  1.00  0.00    -0.206 F 
ATOM     86  C   UNL A   1      42.809  34.279  29.871  1.00  0.00     0.040 A 
ATOM     87  C   UNL A   1      42.622  35.253  27.679  1.00  0.00     0.040 A 
ATOM     88  F   UNL A   1      43.965  34.462  25.924  1.00  0.00    -0.206 F 
ATOM     89  C   UNL A   1      42.212  35.197  29.009  1.00  0.00     0.006 A 
ENDBRANCH  61  82
BRANCH  73  90
ATOM     90  C   UNL A   1      51.207  33.661  28.131  1.00  0.00     0.057 A 
ATOM     91  C   UNL A   1      51.653  34.659  27.258  1.00  0.00     0.134 A 
ATOM     92  C   UNL A   1      51.637  33.718  29.462  1.00  0.00     0.134 A 
ATOM     93  F   UNL A   1      51.284  34.650  25.968  1.00  0.00    -0.206 F 
ATOM     94  C   UNL A   1      52.507  35.673  27.693  1.00  0.00     0.040 A 
ATOM     95  C   UNL A   1      52.467  34.742  29.915  1.00  0.00     0.040 A 
ATOM     96  F   UNL A   1      51.232  32.796  30.350  1.00  0.00    -0.206 F 
ATOM     97  C   UNL A   1      52.907  35.721  29.028  1.00  0.00     0.006 A 
ENDBRANCH  73  90
ENDBRANCH  47  48
ENDBRANCH  40  42
ENDBRANCH  39  40
ENDBRANCH  38  39
ENDBRANCH   1  38
TORSDOF 13
ENDMDL
MODEL 3
REMARK VINA RESULT:      -9.5     10.985     16.178
REMARK SMILES COC(=O)[C@H]1CC[C@]2(C)[C@H](CC[C@]3(C)[C@H]2CC=C2[C@H]4CC(C)(C)CC[C@]4(C(=O)OCCOC(=O)c4ccc(-c5c6nc(c(-c7c(F)cccc7F)c7ccc([nH]7)c(-c7c(F)cccc7F)c7nc(c(-c8c(F)cccc8F)c8ccc5[nH]8)C=C7)C=C6)cc4)CC[C@@]23C)C1(C)C
REMARK SMILES IDX 30 1 29 2 27 3 28 4 26 5 5 6 6 7 93 8 7 9 10 10 94 11 95 12
REMARK SMILES IDX 8 13 11 14 15 15 9 16 12 17 16 18 13 19 17 20 91 21 14 22
REMARK SMILES IDX 18 23 90 24 92 25 19 26 89 27 20 28 21 29 25 30 24 31 22 32
REMARK SMILES IDX 23 33 3 34 4 35 2 36 1 37 31 38 32 39 33 40 34 41 35 42
REMARK SMILES IDX 36 43 88 44 37 45 87 46 38 47 39 48 40 49 81 50 41 51 86 52
REMARK SMILES IDX 80 53 82 54 42 55 85 56 79 57 78 58 43 60 69 61 52 62 68 63
REMARK SMILES IDX 53 64 56 65 67 66 83 67 54 68 55 69 66 71 84 72 57 73 44 74
REMARK SMILES IDX 45 75 50 76 46 77 47 78 49 79 51 80 48 81 70 82 71 83 76 84
REMARK SMILES IDX 72 85 73 86 75 87 77 88 74 89 58 90 59 91 64 92 60 93 61 94
REMARK SMILES IDX 63 95 65 96 62 97
REMARK H PARENT 82 59 56 70
REMARK Flexibility Score: inf
ROOT
ATOM      1  C   UNL A   1      46.025  39.642  25.434  1.00  0.00     0.274 C 
ENDROOT
BRANCH   1   2
ATOM      2  O   UNL A   1      46.951  40.601  24.834  1.00  0.00    -0.462 OA
BRANCH   2   3
ATOM      3  C   UNL A   1      46.654  41.425  23.791  1.00  0.00     0.312 C 
ATOM      4  O   UNL A   1      46.687  41.036  22.630  1.00  0.00    -0.252 OA
BRANCH   3   5
ATOM      5  C   UNL A   1      46.446  42.953  24.237  1.00  0.00     0.075 C 
ATOM      6  C   UNL A   1      45.490  46.452  17.334  1.00  0.00     0.105 C 
ATOM      7  C   UNL A   1      46.652  45.510  16.934  1.00  0.00     0.016 C 
ATOM      8  C   UNL A   1      45.186  46.655  18.873  1.00  0.00    -0.019 C 
ATOM      9  C   UNL A   1      47.868  45.529  17.881  1.00  0.00     0.008 C 
ATOM     10  C   UNL A   1      46.534  46.625  19.696  1.00  0.00     0.002 C 
ATOM     11  C   UNL A   1      44.106  45.653  19.360  1.00  0.00     0.012 C 
ATOM     12  C   UNL A   1      44.471  48.021  19.119  1.00  0.00     0.012 C 
ATOM     13  C   UNL A   1      47.456  45.412  19.378  1.00  0.00    -0.026 C 
ATOM     14  C   UNL A   1      46.365  46.878  21.205  1.00  0.00     0.005 C 
ATOM     15  C   UNL A   1      48.789  45.447  20.308  1.00  0.00     0.006 C 
ATOM     16  C   UNL A   1      46.730  44.040  19.373  1.00  0.00     0.012 C 
ATOM     17  C   UNL A   1      47.680  47.199  21.902  1.00  0.00     0.008 C 
ATOM     18  C   UNL A   1      49.342  44.023  20.427  1.00  0.00     0.032 C 
ATOM     19  C   UNL A   1      48.760  46.110  21.832  1.00  0.00    -0.020 C 
ATOM     20  C   UNL A   1      48.416  43.276  21.382  1.00  0.00    -0.027 C 
ATOM     21  C   UNL A   1      48.623  44.968  23.009  1.00  0.00    -0.006 C 
ATOM     22  C   UNL A   1      50.124  46.862  21.989  1.00  0.00     0.012 C 
ATOM     23  C   UNL A   1      47.725  43.946  22.329  1.00  0.00    -0.063 C 
ATOM     24  C   UNL A   1      47.986  45.162  24.424  1.00  0.00     0.013 C 
ATOM     25  C   UNL A   1      50.061  44.432  23.425  1.00  0.00     0.017 C 
ATOM     26  C   UNL A   1      46.266  43.732  22.934  1.00  0.00     0.033 C 
ATOM     27  C   UNL A   1      47.533  43.756  25.063  1.00  0.00     0.020 C 
ATOM     28  C   UNL A   1      44.997  43.203  22.182  1.00  0.00     0.015 C 
ATOM     29  C   UNL A   1      43.669  43.227  23.009  1.00  0.00    -0.035 C 
ATOM     30  C   UNL A   1      45.155  43.005  25.106  1.00  0.00     0.020 C 
ATOM     31  C   UNL A   1      43.850  42.634  24.413  1.00  0.00     0.007 C 
ATOM     32  C   UNL A   1      42.595  42.383  22.284  1.00  0.00     0.011 C 
ATOM     33  C   UNL A   1      43.105  44.664  23.112  1.00  0.00     0.011 C 
BRANCH   6  34
ATOM     34  C   UNL A   1      45.734  47.792  16.660  1.00  0.00     0.309 C 
ATOM     35  O   UNL A   1      44.844  48.559  16.322  1.00  0.00    -0.252 OA
BRANCH  34  36
ATOM     36  O   UNL A   1      47.065  48.063  16.641  1.00  0.00    -0.469 OA
ATOM     37  C   UNL A   1      47.455  49.286  17.252  1.00  0.00     0.282 C 
ENDBRANCH  34  36
ENDBRANCH   6  34
ENDBRANCH   3   5
ENDBRANCH   2   3
ENDBRANCH   1   2
BRANCH   1  38
ATOM     38  C   UNL A   1      46.760  38.662  26.394  1.00  0.00     0.275 C 
BRANCH  38  39
ATOM     39  O   UNL A   1      46.260  37.332  26.210  1.00  0.00    -0.458 OA
BRANCH  39  40
ATOM     40  C   UNL A   1      45.153  36.985  26.915  1.00  0.00     0.338 C 
ATOM     41  O   UNL A   1      44.136  37.624  27.115  1.00  0.00    -0.246 OA
BRANCH  40  42
ATOM     42  C   UNL A   1      45.305  35.533  27.050  1.00  0.00     0.060 A 
ATOM     43  C   UNL A   1      45.995  35.080  28.177  1.00  0.00     0.016 A 
ATOM     44  C   UNL A   1      44.469  34.694  26.329  1.00  0.00     0.016 A 
ATOM     45  C   UNL A   1      45.708  33.836  28.719  1.00  0.00     0.010 A 
ATOM     46  C   UNL A   1      44.223  33.430  26.833  1.00  0.00     0.010 A 
ATOM     47  C   UNL A   1      44.793  33.024  28.056  1.00  0.00    -0.014 A 
BRANCH  47  48
ATOM     48  C   UNL A   1      44.484  31.661  28.503  1.00  0.00     0.031 A 
ATOM     49  C   UNL A   1      45.299  30.583  27.888  1.00  0.00     0.074 A 
ATOM     50  C   UNL A   1      43.372  31.416  29.215  1.00  0.00     0.049 A 
ATOM     51  N   UNL A   1      44.979  29.348  27.634  1.00  0.00    -0.248 NA
ATOM     52  C   UNL A   1      46.643  30.982  27.433  1.00  0.00     0.031 C 
ATOM     53  C   UNL A   1      42.565  32.418  29.912  1.00  0.00     0.029 A 
ATOM     54  N   UNL A   1      42.689  30.241  29.397  1.00  0.00    -0.354 N 
ATOM     55  C   UNL A   1      46.058  28.836  26.933  1.00  0.00     0.074 A 
ATOM     56  C   UNL A   1      47.040  29.889  26.804  1.00  0.00     0.031 C 
ATOM     57  C   UNL A   1      41.459  31.824  30.395  1.00  0.00     0.029 A 
ATOM     58  C   UNL A   1      41.456  30.424  29.977  1.00  0.00     0.049 A 
ATOM     59  H   UNL A   1      43.044  29.360  29.139  1.00  0.00     0.167 HD
ATOM     60  C   UNL A   1      46.189  27.593  26.421  1.00  0.00     0.037 A 
ATOM     61  C   UNL A   1      40.423  29.565  30.081  1.00  0.00     0.037 A 
ATOM     62  C   UNL A   1      45.173  26.588  26.555  1.00  0.00     0.049 A 
ATOM     63  C   UNL A   1      40.567  28.199  29.455  1.00  0.00     0.074 A 
ATOM     64  C   UNL A   1      45.177  25.286  26.095  1.00  0.00     0.029 A 
ATOM     65  N   UNL A   1      43.959  26.787  27.204  1.00  0.00    -0.354 N 
ATOM     66  N   UNL A   1      41.575  27.700  28.778  1.00  0.00    -0.248 NA
ATOM     67  C   UNL A   1      39.423  27.286  29.587  1.00  0.00     0.031 C 
ATOM     68  C   UNL A   1      43.947  24.710  26.431  1.00  0.00     0.029 A 
ATOM     69  C   UNL A   1      43.198  25.637  27.144  1.00  0.00     0.049 A 
ATOM     70  H   UNL A   1      43.683  27.625  27.639  1.00  0.00     0.167 HD
ATOM     71  C   UNL A   1      41.203  26.408  28.427  1.00  0.00     0.074 A 
ATOM     72  C   UNL A   1      39.875  26.200  28.973  1.00  0.00     0.031 C 
ATOM     73  C   UNL A   1      41.886  25.474  27.720  1.00  0.00     0.037 A 
BRANCH  60  74
ATOM     74  C   UNL A   1      47.436  27.305  25.644  1.00  0.00     0.057 A 
ATOM     75  C   UNL A   1      47.514  27.518  24.263  1.00  0.00     0.134 A 
ATOM     76  C   UNL A   1      48.562  26.771  26.282  1.00  0.00     0.134 A 
ATOM     77  F   UNL A   1      46.458  27.995  23.586  1.00  0.00    -0.206 F 
ATOM     78  C   UNL A   1      48.659  27.185  23.536  1.00  0.00     0.040 A 
ATOM     79  C   UNL A   1      49.722  26.461  25.572  1.00  0.00     0.040 A 
ATOM     80  F   UNL A   1      48.548  26.528  27.601  1.00  0.00    -0.206 F 
ATOM     81  C   UNL A   1      49.770  26.660  24.194  1.00  0.00     0.006 A 
ENDBRANCH  60  74
BRANCH  61  82
ATOM     82  C   UNL A   1      39.163  29.969  30.758  1.00  0.00     0.057 A 
ATOM     83  C   UNL A   1      38.968  29.708  32.120  1.00  0.00     0.134 A 
ATOM     84  C   UNL A   1      38.122  30.611  30.075  1.00  0.00     0.134 A 
ATOM     85  F   UNL A   1      39.915  29.071  32.825  1.00  0.00    -0.206 F 
ATOM     86  C   UNL A   1      37.785  30.055  32.774  1.00  0.00     0.040 A 
ATOM     87  C   UNL A   1      36.942  30.987  30.722  1.00  0.00     0.040 A 
ATOM     88  F   UNL A   1      38.238  30.890  28.769  1.00  0.00    -0.206 F 
ATOM     89  C   UNL A   1      36.768  30.703  32.076  1.00  0.00     0.006 A 
ENDBRANCH  61  82
BRANCH  73  90
ATOM     90  C   UNL A   1      41.233  24.137  27.545  1.00  0.00     0.057 A 
ATOM     91  C   UNL A   1      40.223  23.925  26.600  1.00  0.00     0.134 A 
ATOM     92  C   UNL A   1      41.678  23.033  28.283  1.00  0.00     0.134 A 
ATOM     93  F   UNL A   1      39.747  24.946  25.872  1.00  0.00    -0.206 F 
ATOM     94  C   UNL A   1      39.669  22.660  26.403  1.00  0.00     0.040 A 
ATOM     95  C   UNL A   1      41.152  21.759  28.076  1.00  0.00     0.040 A 
ATOM     96  F   UNL A   1      42.653  23.171  29.194  1.00  0.00    -0.206 F 
ATOM     97  C   UNL A   1      40.141  21.571  27.136  1.00  0.00     0.006 A 
ENDBRANCH  73  90
ENDBRANCH  47  48
ENDBRANCH  40  42
ENDBRANCH  39  40
ENDBRANCH  38  39
ENDBRANCH   1  38
TORSDOF 13
ENDMDL
