MODEL 1
REMARK VINA RESULT:     -12.7      0.000      0.000
REMARK SMILES CC1(C)C[C@@H]([NH2+]C[C@@H]2CCCC[C@@H]2C(=O)OCCOC(=O)c2ccc(-c3c4nc(c(-c5c(F)cccc5F)c5ccc([nH]5)c(-c5c(F)cccc5F)c5nc(c(-c6c(F)cccc6F)c6ccc3[nH]6)C=C5)C=C4)cc2)C(C)(C)O1
REMARK SMILES IDX 17 1 16 2 14 3 15 4 13 5 8 6 9 7 10 8 12 9 11 10 7 11 6 12
REMARK SMILES IDX 5 15 1 16 2 17 3 18 4 19 79 20 76 21 77 22 78 23 18 24 19 25
REMARK SMILES IDX 20 26 21 27 22 28 23 29 75 30 24 31 74 32 25 33 26 34 27 35
REMARK SMILES IDX 68 36 28 37 73 38 67 39 69 40 29 41 72 42 66 43 65 44 30 46
REMARK SMILES IDX 56 47 39 48 55 49 40 50 43 51 54 52 70 53 41 54 42 55 53 57
REMARK SMILES IDX 71 58 44 59 31 60 32 61 37 62 33 63 34 64 36 65 38 66 35 67
REMARK SMILES IDX 57 68 58 69 63 70 59 71 60 72 62 73 64 74 61 75 45 76 46 77
REMARK SMILES IDX 51 78 47 79 48 80 50 81 52 82 49 83
REMARK H PARENT 6 13 6 14 69 45 43 56
REMARK Flexibility Score: inf
ROOT
ATOM      1  C   UNL A   1      36.651  22.629  23.911  1.00  0.00     0.274 C 
ENDROOT
BRANCH   1   2
ATOM      2  O   UNL A   1      35.466  23.611  23.937  1.00  0.00    -0.462 OA
BRANCH   2   3
ATOM      3  C   UNL A   1      34.286  23.219  23.334  1.00  0.00     0.309 C 
ATOM      4  O   UNL A   1      34.135  23.337  22.114  1.00  0.00    -0.252 OA
BRANCH   3   5
ATOM      5  C   UNL A   1      33.084  22.597  24.244  1.00  0.00     0.108 C 
ATOM      6  C   UNL A   1      31.568  23.062  24.412  1.00  0.00     0.058 C 
ATOM      7  C   UNL A   1      30.991  23.453  25.811  1.00  0.00     0.010 C 
ATOM      8  C   UNL A   1      31.764  23.166  27.076  1.00  0.00     0.001 C 
ATOM      9  C   UNL A   1      33.619  22.149  25.664  1.00  0.00     0.016 C 
ATOM     10  C   UNL A   1      33.254  22.990  26.889  1.00  0.00     0.001 C 
BRANCH   6  11
ATOM     11  C   UNL A   1      30.891  23.942  23.333  1.00  0.00     0.265 C 
BRANCH  11  12
ATOM     12  N   UNL A   1      31.718  24.998  22.678  1.00  0.00    -0.341 N 
ATOM     13  H   UNL A   1      32.665  24.641  22.544  1.00  0.00     0.346 HD
ATOM     14  H   UNL A   1      31.291  25.233  21.783  1.00  0.00     0.346 HD
BRANCH  12  15
ATOM     15  C   UNL A   1      31.777  26.204  23.492  1.00  0.00     0.217 C 
ATOM     16  C   UNL A   1      32.183  28.169  27.625  1.00  0.00     0.042 C 
ATOM     17  C   UNL A   1      32.598  28.076  26.093  1.00  0.00     0.069 C 
ATOM     18  C   UNL A   1      33.803  29.091  26.132  1.00  0.00     0.042 C 
ATOM     19  C   UNL A   1      33.110  26.385  25.031  1.00  0.00     0.103 C 
ATOM     20  O   UNL A   1      31.037  28.756  25.163  1.00  0.00    -0.363 OA
ATOM     21  C   UNL A   1      30.515  27.720  23.636  1.00  0.00     0.115 C 
ATOM     22  C   UNL A   1      29.085  27.081  23.503  1.00  0.00     0.048 C 
ATOM     23  C   UNL A   1      30.451  28.734  22.423  1.00  0.00     0.048 C 
ENDBRANCH  12  15
ENDBRANCH  11  12
ENDBRANCH   6  11
ENDBRANCH   3   5
ENDBRANCH   2   3
ENDBRANCH   1   2
BRANCH   1  24
ATOM     24  C   UNL A   1      37.304  21.998  25.349  1.00  0.00     0.275 C 
BRANCH  24  25
ATOM     25  O   UNL A   1      38.813  21.515  25.456  1.00  0.00    -0.458 OA
BRANCH  25  26
ATOM     26  C   UNL A   1      39.645  22.457  26.170  1.00  0.00     0.338 C 
ATOM     27  O   UNL A   1      40.635  21.702  26.162  1.00  0.00    -0.246 OA
BRANCH  26  28
ATOM     28  C   UNL A   1      39.586  24.469  26.906  1.00  0.00     0.060 A 
ATOM     29  C   UNL A   1      39.075  24.924  28.301  1.00  0.00     0.016 A 
ATOM     30  C   UNL A   1      40.288  25.747  26.610  1.00  0.00     0.016 A 
ATOM     31  C   UNL A   1      38.930  26.086  29.042  1.00  0.00     0.010 A 
ATOM     32  C   UNL A   1      40.322  27.006  27.427  1.00  0.00     0.010 A 
ATOM     33  C   UNL A   1      39.693  27.135  28.681  1.00  0.00    -0.014 A 
BRANCH  33  34
ATOM     34  C   UNL A   1      39.657  28.228  29.695  1.00  0.00     0.031 A 
ATOM     35  C   UNL A   1      40.840  28.350  30.595  1.00  0.00     0.074 A 
ATOM     36  C   UNL A   1      38.810  29.292  29.595  1.00  0.00     0.049 A 
ATOM     37  N   UNL A   1      41.047  29.160  31.593  1.00  0.00    -0.248 NA
ATOM     38  C   UNL A   1      41.954  27.435  30.303  1.00  0.00     0.031 C 
ATOM     39  C   UNL A   1      37.780  29.481  28.560  1.00  0.00     0.029 A 
ATOM     40  N   UNL A   1      38.727  30.464  30.322  1.00  0.00    -0.354 N 
ATOM     41  C   UNL A   1      42.277  28.789  32.111  1.00  0.00     0.074 A 
ATOM     42  C   UNL A   1      42.778  27.703  31.300  1.00  0.00     0.031 C 
ATOM     43  C   UNL A   1      37.209  30.690  28.699  1.00  0.00     0.029 A 
ATOM     44  C   UNL A   1      37.731  31.324  29.901  1.00  0.00     0.049 A 
ATOM     45  H   UNL A   1      39.326  30.669  31.075  1.00  0.00     0.167 HD
ATOM     46  C   UNL A   1      42.909  29.301  33.190  1.00  0.00     0.037 A 
ATOM     47  C   UNL A   1      37.249  32.460  30.456  1.00  0.00     0.037 A 
ATOM     48  C   UNL A   1      42.403  30.411  33.949  1.00  0.00     0.049 A 
ATOM     49  C   UNL A   1      37.863  32.915  31.755  1.00  0.00     0.074 A 
ATOM     50  C   UNL A   1      42.903  30.957  35.115  1.00  0.00     0.029 A 
ATOM     51  N   UNL A   1      41.282  31.155  33.603  1.00  0.00    -0.354 N 
ATOM     52  N   UNL A   1      38.921  32.446  32.374  1.00  0.00    -0.248 NA
ATOM     53  C   UNL A   1      37.204  34.027  32.456  1.00  0.00     0.031 C 
ATOM     54  C   UNL A   1      42.047  31.988  35.511  1.00  0.00     0.029 A 
ATOM     55  C   UNL A   1      41.062  32.142  34.547  1.00  0.00     0.049 A 
ATOM     56  H   UNL A   1      40.726  31.002  32.805  1.00  0.00     0.167 HD
ATOM     57  C   UNL A   1      39.070  33.218  33.517  1.00  0.00     0.074 A 
ATOM     58  C   UNL A   1      38.005  34.200  33.497  1.00  0.00     0.031 C 
ATOM     59  C   UNL A   1      40.004  33.121  34.497  1.00  0.00     0.037 A 
BRANCH  46  60
ATOM     60  C   UNL A   1      44.125  28.564  33.662  1.00  0.00     0.057 A 
ATOM     61  C   UNL A   1      44.067  27.500  34.570  1.00  0.00     0.134 A 
ATOM     62  C   UNL A   1      45.393  28.991  33.246  1.00  0.00     0.134 A 
ATOM     63  F   UNL A   1      42.887  27.070  35.042  1.00  0.00    -0.206 F 
ATOM     64  C   UNL A   1      45.228  26.915  35.079  1.00  0.00     0.040 A 
ATOM     65  C   UNL A   1      46.558  28.388  33.715  1.00  0.00     0.040 A 
ATOM     66  F   UNL A   1      45.521  30.016  32.388  1.00  0.00    -0.206 F 
ATOM     67  C   UNL A   1      46.478  27.357  34.646  1.00  0.00     0.006 A 
ENDBRANCH  46  60
BRANCH  47  68
ATOM     68  C   UNL A   1      36.068  33.182  29.885  1.00  0.00     0.057 A 
ATOM     69  C   UNL A   1      34.774  33.017  30.401  1.00  0.00     0.134 A 
ATOM     70  C   UNL A   1      36.189  33.996  28.748  1.00  0.00     0.134 A 
ATOM     71  F   UNL A   1      34.566  32.222  31.461  1.00  0.00    -0.206 F 
ATOM     72  C   UNL A   1      33.657  33.618  29.808  1.00  0.00     0.040 A 
ATOM     73  C   UNL A   1      35.087  34.631  28.167  1.00  0.00     0.040 A 
ATOM     74  F   UNL A   1      37.386  34.185  28.174  1.00  0.00    -0.206 F 
ATOM     75  C   UNL A   1      33.813  34.435  28.691  1.00  0.00     0.006 A 
ENDBRANCH  47  68
BRANCH  59  76
ATOM     76  C   UNL A   1      39.961  34.147  35.591  1.00  0.00     0.057 A 
ATOM     77  C   UNL A   1      40.582  35.396  35.474  1.00  0.00     0.134 A 
ATOM     78  C   UNL A   1      39.237  33.892  36.763  1.00  0.00     0.134 A 
ATOM     79  F   UNL A   1      41.300  35.700  34.382  1.00  0.00    -0.206 F 
ATOM     80  C   UNL A   1      40.507  36.344  36.495  1.00  0.00     0.040 A 
ATOM     81  C   UNL A   1      39.122  34.845  37.773  1.00  0.00     0.040 A 
ATOM     82  F   UNL A   1      38.607  32.720  36.934  1.00  0.00    -0.206 F 
ATOM     83  C   UNL A   1      39.767  36.073  37.644  1.00  0.00     0.006 A 
ENDBRANCH  59  76
ENDBRANCH  33  34
ENDBRANCH  26  28
ENDBRANCH  25  26
ENDBRANCH  24  25
ENDBRANCH   1  24
TORSDOF 14
ENDMDL
MODEL 2
REMARK VINA RESULT:     -12.7      1.023      1.975
REMARK SMILES CC1(C)C[C@@H]([NH2+]C[C@@H]2CCCC[C@@H]2C(=O)OCCOC(=O)c2ccc(-c3c4nc(c(-c5c(F)cccc5F)c5ccc([nH]5)c(-c5c(F)cccc5F)c5nc(c(-c6c(F)cccc6F)c6ccc3[nH]6)C=C5)C=C4)cc2)C(C)(C)O1
REMARK SMILES IDX 17 1 16 2 14 3 15 4 13 5 8 6 9 7 10 8 12 9 11 10 7 11 6 12
REMARK SMILES IDX 5 15 1 16 2 17 3 18 4 19 79 20 76 21 77 22 78 23 18 24 19 25
REMARK SMILES IDX 20 26 21 27 22 28 23 29 75 30 24 31 74 32 25 33 26 34 27 35
REMARK SMILES IDX 68 36 28 37 73 38 67 39 69 40 29 41 72 42 66 43 65 44 30 46
REMARK SMILES IDX 56 47 39 48 55 49 40 50 43 51 54 52 70 53 41 54 42 55 53 57
REMARK SMILES IDX 71 58 44 59 31 60 32 61 37 62 33 63 34 64 36 65 38 66 35 67
REMARK SMILES IDX 57 68 58 69 63 70 59 71 60 72 62 73 64 74 61 75 45 76 46 77
REMARK SMILES IDX 51 78 47 79 48 80 50 81 52 82 49 83
REMARK H PARENT 6 13 6 14 69 45 43 56
REMARK Flexibility Score: inf
ROOT
ATOM      1  C   UNL A   1      36.159  21.143  25.159  1.00  0.00     0.274 C 
ENDROOT
BRANCH   1   2
ATOM      2  O   UNL A   1      35.205  22.037  25.971  1.00  0.00    -0.462 OA
BRANCH   2   3
ATOM      3  C   UNL A   1      35.132  23.376  25.636  1.00  0.00     0.309 C 
ATOM      4  O   UNL A   1      35.964  24.179  26.072  1.00  0.00    -0.252 OA
BRANCH   3   5
ATOM      5  C   UNL A   1      33.934  23.899  24.661  1.00  0.00     0.108 C 
ATOM      6  C   UNL A   1      32.414  24.253  24.988  1.00  0.00     0.058 C 
ATOM      7  C   UNL A   1      31.237  23.516  24.271  1.00  0.00     0.010 C 
ATOM      8  C   UNL A   1      31.492  22.631  23.073  1.00  0.00     0.001 C 
ATOM      9  C   UNL A   1      33.973  23.158  23.264  1.00  0.00     0.016 C 
ATOM     10  C   UNL A   1      32.905  22.106  22.956  1.00  0.00     0.001 C 
BRANCH   6  11
ATOM     11  C   UNL A   1      31.979  24.589  26.436  1.00  0.00     0.265 C 
BRANCH  11  12
ATOM     12  N   UNL A   1      30.951  25.655  26.622  1.00  0.00    -0.341 N 
ATOM     13  H   UNL A   1      30.138  25.436  26.046  1.00  0.00     0.346 HD
ATOM     14  H   UNL A   1      30.697  25.689  27.608  1.00  0.00     0.346 HD
BRANCH  12  15
ATOM     15  C   UNL A   1      31.467  26.961  26.235  1.00  0.00     0.217 C 
ATOM     16  C   UNL A   1      31.403  31.532  26.695  1.00  0.00     0.042 C 
ATOM     17  C   UNL A   1      32.208  30.164  26.602  1.00  0.00     0.069 C 
ATOM     18  C   UNL A   1      33.634  30.726  26.969  1.00  0.00     0.042 C 
ATOM     19  C   UNL A   1      31.834  28.415  27.626  1.00  0.00     0.103 C 
ATOM     20  O   UNL A   1      32.025  29.663  24.737  1.00  0.00    -0.363 OA
ATOM     21  C   UNL A   1      31.606  27.812  24.455  1.00  0.00     0.115 C 
ATOM     22  C   UNL A   1      30.322  27.351  23.675  1.00  0.00     0.048 C 
ATOM     23  C   UNL A   1      32.713  27.261  23.467  1.00  0.00     0.048 C 
ENDBRANCH  12  15
ENDBRANCH  11  12
ENDBRANCH   6  11
ENDBRANCH   3   5
ENDBRANCH   2   3
ENDBRANCH   1   2
BRANCH   1  24
ATOM     24  C   UNL A   1      37.769  21.608  24.871  1.00  0.00     0.275 C 
BRANCH  24  25
ATOM     25  O   UNL A   1      38.966  21.151  25.809  1.00  0.00    -0.458 OA
BRANCH  25  26
ATOM     26  C   UNL A   1      39.831  22.251  26.175  1.00  0.00     0.338 C 
ATOM     27  O   UNL A   1      40.864  21.653  25.821  1.00  0.00    -0.246 OA
BRANCH  26  28
ATOM     28  C   UNL A   1      39.708  24.274  26.872  1.00  0.00     0.060 A 
ATOM     29  C   UNL A   1      39.240  24.736  28.279  1.00  0.00     0.016 A 
ATOM     30  C   UNL A   1      40.332  25.577  26.517  1.00  0.00     0.016 A 
ATOM     31  C   UNL A   1      39.073  25.906  29.003  1.00  0.00     0.010 A 
ATOM     32  C   UNL A   1      40.342  26.854  27.305  1.00  0.00     0.010 A 
ATOM     33  C   UNL A   1      39.766  26.982  28.585  1.00  0.00    -0.014 A 
BRANCH  33  34
ATOM     34  C   UNL A   1      39.723  28.095  29.575  1.00  0.00     0.031 A 
ATOM     35  C   UNL A   1      40.911  28.250  30.464  1.00  0.00     0.074 A 
ATOM     36  C   UNL A   1      38.862  29.146  29.461  1.00  0.00     0.049 A 
ATOM     37  N   UNL A   1      41.115  29.084  31.444  1.00  0.00    -0.248 NA
ATOM     38  C   UNL A   1      42.035  27.343  30.183  1.00  0.00     0.031 C 
ATOM     39  C   UNL A   1      37.823  29.301  28.429  1.00  0.00     0.029 A 
ATOM     40  N   UNL A   1      38.769  30.332  30.163  1.00  0.00    -0.354 N 
ATOM     41  C   UNL A   1      42.353  28.738  31.960  1.00  0.00     0.074 A 
ATOM     42  C   UNL A   1      42.863  27.642  31.169  1.00  0.00     0.031 C 
ATOM     43  C   UNL A   1      37.237  30.506  28.548  1.00  0.00     0.029 A 
ATOM     44  C   UNL A   1      37.759  31.171  29.733  1.00  0.00     0.049 A 
ATOM     45  H   UNL A   1      39.372  30.559  30.908  1.00  0.00     0.167 HD
ATOM     46  C   UNL A   1      42.986  29.280  33.024  1.00  0.00     0.037 A 
ATOM     47  C   UNL A   1      37.268  32.311  30.268  1.00  0.00     0.037 A 
ATOM     48  C   UNL A   1      42.472  30.399  33.764  1.00  0.00     0.049 A 
ATOM     49  C   UNL A   1      37.885  32.800  31.553  1.00  0.00     0.074 A 
ATOM     50  C   UNL A   1      42.973  30.975  34.915  1.00  0.00     0.029 A 
ATOM     51  N   UNL A   1      41.339  31.121  33.411  1.00  0.00    -0.354 N 
ATOM     52  N   UNL A   1      38.953  32.357  32.174  1.00  0.00    -0.248 NA
ATOM     53  C   UNL A   1      37.217  33.918  32.236  1.00  0.00     0.031 C 
ATOM     54  C   UNL A   1      42.107  32.003  35.296  1.00  0.00     0.029 A 
ATOM     55  C   UNL A   1      41.113  32.125  34.337  1.00  0.00     0.049 A 
ATOM     56  H   UNL A   1      40.779  30.945  32.621  1.00  0.00     0.167 HD
ATOM     57  C   UNL A   1      39.101  33.154  33.300  1.00  0.00     0.074 A 
ATOM     58  C   UNL A   1      38.023  34.123  33.268  1.00  0.00     0.031 C 
ATOM     59  C   UNL A   1      40.042  33.090  34.274  1.00  0.00     0.037 A 
BRANCH  46  60
ATOM     60  C   UNL A   1      44.214  28.568  33.503  1.00  0.00     0.057 A 
ATOM     61  C   UNL A   1      45.506  28.913  33.088  1.00  0.00     0.134 A 
ATOM     62  C   UNL A   1      44.080  27.457  34.347  1.00  0.00     0.134 A 
ATOM     63  F   UNL A   1      45.701  29.938  32.245  1.00  0.00    -0.206 F 
ATOM     64  C   UNL A   1      46.617  28.152  33.461  1.00  0.00     0.040 A 
ATOM     65  C   UNL A   1      45.185  26.715  34.760  1.00  0.00     0.040 A 
ATOM     66  F   UNL A   1      42.869  27.064  34.770  1.00  0.00    -0.206 F 
ATOM     67  C   UNL A   1      46.456  27.053  34.304  1.00  0.00     0.006 A 
ENDBRANCH  46  60
BRANCH  47  68
ATOM     68  C   UNL A   1      36.073  33.006  29.691  1.00  0.00     0.057 A 
ATOM     69  C   UNL A   1      34.780  32.803  30.192  1.00  0.00     0.134 A 
ATOM     70  C   UNL A   1      36.184  33.834  28.563  1.00  0.00     0.134 A 
ATOM     71  F   UNL A   1      34.582  31.992  31.242  1.00  0.00    -0.206 F 
ATOM     72  C   UNL A   1      33.652  33.379  29.592  1.00  0.00     0.040 A 
ATOM     73  C   UNL A   1      35.072  34.445  27.976  1.00  0.00     0.040 A 
ATOM     74  F   UNL A   1      37.382  34.061  28.004  1.00  0.00    -0.206 F 
ATOM     75  C   UNL A   1      33.798  34.210  28.485  1.00  0.00     0.006 A 
ENDBRANCH  47  68
BRANCH  59  76
ATOM     76  C   UNL A   1      39.994  34.137  35.347  1.00  0.00     0.057 A 
ATOM     77  C   UNL A   1      39.316  33.943  36.557  1.00  0.00     0.134 A 
ATOM     78  C   UNL A   1      40.689  35.343  35.182  1.00  0.00     0.134 A 
ATOM     79  F   UNL A   1      38.623  32.815  36.775  1.00  0.00    -0.206 F 
ATOM     80  C   UNL A   1      39.307  34.922  37.551  1.00  0.00     0.040 A 
ATOM     81  C   UNL A   1      40.720  36.312  36.183  1.00  0.00     0.040 A 
ATOM     82  F   UNL A   1      41.370  35.588  34.052  1.00  0.00    -0.206 F 
ATOM     83  C   UNL A   1      40.019  36.106  37.369  1.00  0.00     0.006 A 
ENDBRANCH  59  76
ENDBRANCH  33  34
ENDBRANCH  26  28
ENDBRANCH  25  26
ENDBRANCH  24  25
ENDBRANCH   1  24
TORSDOF 14
ENDMDL
MODEL 3
REMARK VINA RESULT:     -12.6      1.444      2.367
REMARK SMILES CC1(C)C[C@@H]([NH2+]C[C@@H]2CCCC[C@@H]2C(=O)OCCOC(=O)c2ccc(-c3c4nc(c(-c5c(F)cccc5F)c5ccc([nH]5)c(-c5c(F)cccc5F)c5nc(c(-c6c(F)cccc6F)c6ccc3[nH]6)C=C5)C=C4)cc2)C(C)(C)O1
REMARK SMILES IDX 17 1 16 2 14 3 15 4 13 5 8 6 9 7 10 8 12 9 11 10 7 11 6 12
REMARK SMILES IDX 5 15 1 16 2 17 3 18 4 19 79 20 76 21 77 22 78 23 18 24 19 25
REMARK SMILES IDX 20 26 21 27 22 28 23 29 75 30 24 31 74 32 25 33 26 34 27 35
REMARK SMILES IDX 68 36 28 37 73 38 67 39 69 40 29 41 72 42 66 43 65 44 30 46
REMARK SMILES IDX 56 47 39 48 55 49 40 50 43 51 54 52 70 53 41 54 42 55 53 57
REMARK SMILES IDX 71 58 44 59 31 60 32 61 37 62 33 63 34 64 36 65 38 66 35 67
REMARK SMILES IDX 57 68 58 69 63 70 59 71 60 72 62 73 64 74 61 75 45 76 46 77
REMARK SMILES IDX 51 78 47 79 48 80 50 81 52 82 49 83
REMARK H PARENT 6 13 6 14 69 45 43 56
REMARK Flexibility Score: inf
ROOT
ATOM      1  C   UNL A   1      38.464  21.203  25.467  1.00  0.00     0.274 C 
ENDROOT
BRANCH   1   2
ATOM      2  O   UNL A   1      37.798  22.588  25.386  1.00  0.00    -0.462 OA
BRANCH   2   3
ATOM      3  C   UNL A   1      36.421  22.651  25.501  1.00  0.00     0.309 C 
ATOM      4  O   UNL A   1      35.897  23.272  26.431  1.00  0.00    -0.252 OA
BRANCH   3   5
ATOM      5  C   UNL A   1      35.485  21.896  24.400  1.00  0.00     0.108 C 
ATOM      6  C   UNL A   1      34.322  22.462  23.468  1.00  0.00     0.058 C 
ATOM      7  C   UNL A   1      32.874  21.878  23.534  1.00  0.00     0.010 C 
ATOM      8  C   UNL A   1      32.586  20.603  24.290  1.00  0.00     0.001 C 
ATOM      9  C   UNL A   1      35.049  20.463  24.912  1.00  0.00     0.016 C 
ATOM     10  C   UNL A   1      33.600  20.248  25.355  1.00  0.00     0.001 C 
BRANCH   6  11
ATOM     11  C   UNL A   1      34.233  23.976  23.155  1.00  0.00     0.265 C 
BRANCH  11  12
ATOM     12  N   UNL A   1      34.681  24.931  24.210  1.00  0.00    -0.341 N 
ATOM     13  H   UNL A   1      35.057  24.402  24.998  1.00  0.00     0.346 HD
ATOM     14  H   UNL A   1      35.394  25.541  23.811  1.00  0.00     0.346 HD
BRANCH  12  15
ATOM     15  C   UNL A   1      33.578  25.758  24.678  1.00  0.00     0.217 C 
ATOM     16  C   UNL A   1      32.075  29.270  27.232  1.00  0.00     0.042 C 
ATOM     17  C   UNL A   1      32.107  28.479  25.853  1.00  0.00     0.069 C 
ATOM     18  C   UNL A   1      31.324  29.531  24.980  1.00  0.00     0.042 C 
ATOM     19  C   UNL A   1      33.764  27.788  24.839  1.00  0.00     0.103 C 
ATOM     20  O   UNL A   1      31.090  26.873  26.234  1.00  0.00    -0.363 OA
ATOM     21  C   UNL A   1      31.884  25.259  25.569  1.00  0.00     0.115 C 
ATOM     22  C   UNL A   1      32.251  24.053  26.508  1.00  0.00     0.048 C 
ATOM     23  C   UNL A   1      30.774  24.559  24.684  1.00  0.00     0.048 C 
ENDBRANCH  12  15
ENDBRANCH  11  12
ENDBRANCH   6  11
ENDBRANCH   3   5
ENDBRANCH   2   3
ENDBRANCH   1   2
BRANCH   1  24
ATOM     24  C   UNL A   1      39.958  20.989  26.251  1.00  0.00     0.275 C 
BRANCH  24  25
ATOM     25  O   UNL A   1      41.344  21.126  25.489  1.00  0.00    -0.458 OA
BRANCH  25  26
ATOM     26  C   UNL A   1      41.948  22.427  25.673  1.00  0.00     0.338 C 
ATOM     27  O   UNL A   1      42.955  22.137  25.000  1.00  0.00    -0.246 OA
BRANCH  26  28
ATOM     28  C   UNL A   1      41.491  24.344  26.516  1.00  0.00     0.060 A 
ATOM     29  C   UNL A   1      40.789  24.607  27.876  1.00  0.00     0.016 A 
ATOM     30  C   UNL A   1      41.996  25.736  26.367  1.00  0.00     0.016 A 
ATOM     31  C   UNL A   1      40.389  25.674  28.667  1.00  0.00     0.010 A 
ATOM     32  C   UNL A   1      41.748  26.920  27.256  1.00  0.00     0.010 A 
ATOM     33  C   UNL A   1      40.997  26.855  28.446  1.00  0.00    -0.014 A 
BRANCH  33  34
ATOM     34  C   UNL A   1      40.690  27.850  29.513  1.00  0.00     0.031 A 
ATOM     35  C   UNL A   1      41.708  28.016  30.590  1.00  0.00     0.074 A 
ATOM     36  C   UNL A   1      39.751  28.826  29.356  1.00  0.00     0.049 A 
ATOM     37  N   UNL A   1      41.675  28.758  31.660  1.00  0.00    -0.248 NA
ATOM     38  C   UNL A   1      42.950  27.247  30.412  1.00  0.00     0.031 C 
ATOM     39  C   UNL A   1      38.868  28.995  28.190  1.00  0.00     0.029 A 
ATOM     40  N   UNL A   1      39.431  29.919  30.138  1.00  0.00    -0.354 N 
ATOM     41  C   UNL A   1      42.851  28.472  32.335  1.00  0.00     0.074 A 
ATOM     42  C   UNL A   1      43.584  27.514  31.540  1.00  0.00     0.031 C 
ATOM     43  C   UNL A   1      38.150  30.124  28.320  1.00  0.00     0.029 A 
ATOM     44  C   UNL A   1      38.416  30.705  29.628  1.00  0.00     0.049 A 
ATOM     45  H   UNL A   1      39.888  30.120  30.986  1.00  0.00     0.167 HD
ATOM     46  C   UNL A   1      43.257  28.954  33.530  1.00  0.00     0.037 A 
ATOM     47  C   UNL A   1      37.733  31.736  30.177  1.00  0.00     0.037 A 
ATOM     48  C   UNL A   1      42.523  29.939  34.275  1.00  0.00     0.049 A 
ATOM     49  C   UNL A   1      38.096  32.141  31.583  1.00  0.00     0.074 A 
ATOM     50  C   UNL A   1      42.783  30.434  35.538  1.00  0.00     0.029 A 
ATOM     51  N   UNL A   1      41.387  30.591  33.812  1.00  0.00    -0.354 N 
ATOM     52  N   UNL A   1      39.099  31.732  32.324  1.00  0.00    -0.248 NA
ATOM     53  C   UNL A   1      37.220  33.117  32.247  1.00  0.00     0.031 C 
ATOM     54  C   UNL A   1      41.767  31.336  35.866  1.00  0.00     0.029 A 
ATOM     55  C   UNL A   1      40.922  31.468  34.775  1.00  0.00     0.049 A 
ATOM     56  H   UNL A   1      40.974  30.449  32.929  1.00  0.00     0.167 HD
ATOM     57  C   UNL A   1      38.992  32.418  33.526  1.00  0.00     0.074 A 
ATOM     58  C   UNL A   1      37.836  33.284  33.409  1.00  0.00     0.031 C 
ATOM     59  C   UNL A   1      39.778  32.335  34.628  1.00  0.00     0.037 A 
BRANCH  46  60
ATOM     60  C   UNL A   1      44.466  28.309  34.133  1.00  0.00     0.057 A 
ATOM     61  C   UNL A   1      45.764  28.805  33.958  1.00  0.00     0.134 A 
ATOM     62  C   UNL A   1      44.323  27.111  34.847  1.00  0.00     0.134 A 
ATOM     63  F   UNL A   1      45.976  29.923  33.248  1.00  0.00    -0.206 F 
ATOM     64  C   UNL A   1      46.878  28.111  34.435  1.00  0.00     0.040 A 
ATOM     65  C   UNL A   1      45.423  26.431  35.364  1.00  0.00     0.040 A 
ATOM     66  F   UNL A   1      43.108  26.572  35.039  1.00  0.00    -0.206 F 
ATOM     67  C   UNL A   1      46.707  26.923  35.145  1.00  0.00     0.006 A 
ENDBRANCH  46  60
BRANCH  47  68
ATOM     68  C   UNL A   1      36.573  32.378  29.482  1.00  0.00     0.057 A 
ATOM     69  C   UNL A   1      35.373  31.691  29.246  1.00  0.00     0.134 A 
ATOM     70  C   UNL A   1      36.664  33.677  28.957  1.00  0.00     0.134 A 
ATOM     71  F   UNL A   1      35.220  30.431  29.677  1.00  0.00    -0.206 F 
ATOM     72  C   UNL A   1      34.324  32.261  28.512  1.00  0.00     0.040 A 
ATOM     73  C   UNL A   1      35.612  34.271  28.254  1.00  0.00     0.040 A 
ATOM     74  F   UNL A   1      37.787  34.394  29.114  1.00  0.00    -0.206 F 
ATOM     75  C   UNL A   1      34.440  33.558  28.021  1.00  0.00     0.006 A 
ENDBRANCH  47  68
BRANCH  59  76
ATOM     76  C   UNL A   1      39.461  33.257  35.769  1.00  0.00     0.057 A 
ATOM     77  C   UNL A   1      38.654  32.869  36.846  1.00  0.00     0.134 A 
ATOM     78  C   UNL A   1      40.020  34.541  35.810  1.00  0.00     0.134 A 
ATOM     79  F   UNL A   1      38.079  31.657  36.864  1.00  0.00    -0.206 F 
ATOM     80  C   UNL A   1      38.394  33.735  37.909  1.00  0.00     0.040 A 
ATOM     81  C   UNL A   1      39.800  35.401  36.885  1.00  0.00     0.040 A 
ATOM     82  F   UNL A   1      40.813  34.971  34.817  1.00  0.00    -0.206 F 
ATOM     83  C   UNL A   1      38.977  35.001  37.935  1.00  0.00     0.006 A 
ENDBRANCH  59  76
ENDBRANCH  33  34
ENDBRANCH  26  28
ENDBRANCH  25  26
ENDBRANCH  24  25
ENDBRANCH   1  24
TORSDOF 14
ENDMDL
