MODEL 1
REMARK VINA RESULT:     -12.3      0.000      0.000
REMARK SMILES O=C(OCCOC(=O)[C@H]1CCCCN1c1cc(-c2ccccc2)nc(-c2cccc(Cl)c2)n1)c1ccc(-c2c3nc(c(-c4c(F)cccc4F)c4ccc([nH]4)c(-c4c(F)cccc4F)c4nc(c(-c5c(F)cccc5F)c5ccc2[nH]5)C=C4)C=C3)cc1
REMARK SMILES IDX 4 1 3 2 2 3 1 4 34 5 35 6 87 7 36 8 86 9 37 10 38 11 39 12
REMARK SMILES IDX 80 13 40 14 85 15 79 16 81 17 41 18 84 19 78 20 77 21 42 23
REMARK SMILES IDX 68 24 51 25 67 26 52 27 55 28 66 29 82 30 53 31 54 32 65 34
REMARK SMILES IDX 83 35 56 36 43 37 44 38 49 39 45 40 46 41 48 42 50 43 47 44
REMARK SMILES IDX 69 45 70 46 75 47 71 48 72 49 74 50 76 51 73 52 57 53 58 54
REMARK SMILES IDX 63 55 59 56 60 57 62 58 64 59 61 60 5 61 6 62 7 63 8 64 9 65
REMARK SMILES IDX 10 66 14 67 11 68 13 69 12 70 15 71 16 72 33 73 17 74 25 75
REMARK SMILES IDX 24 76 18 77 19 78 23 79 20 80 22 81 21 82 26 83 27 84 32 85
REMARK SMILES IDX 28 86 30 87 29 88 31 89
REMARK H PARENT 81 22 55 33
REMARK Flexibility Score: inf
ROOT
ATOM      1  C   UNL A   1      45.945  23.486  38.309  1.00  0.00     0.275 C 
ENDROOT
BRANCH   1   2
ATOM      2  O   UNL A   1      46.056  24.936  38.198  1.00  0.00    -0.458 OA
BRANCH   2   3
ATOM      3  C   UNL A   1      45.172  25.819  38.791  1.00  0.00     0.338 C 
ATOM      4  O   UNL A   1      44.633  25.595  39.865  1.00  0.00    -0.246 OA
BRANCH   3   5
ATOM      5  C   UNL A   1      44.562  26.801  37.830  1.00  0.00     0.060 A 
ATOM      6  C   UNL A   1      45.711  27.779  37.134  1.00  0.00     0.016 A 
ATOM      7  C   UNL A   1      43.144  26.305  36.949  1.00  0.00     0.016 A 
ATOM      8  C   UNL A   1      45.558  28.236  35.461  1.00  0.00     0.010 A 
ATOM      9  C   UNL A   1      42.809  26.737  35.289  1.00  0.00     0.010 A 
ATOM     10  C   UNL A   1      43.977  27.765  34.407  1.00  0.00    -0.014 A 
BRANCH  10  11
ATOM     11  C   UNL A   1      42.913  28.623  33.388  1.00  0.00     0.031 A 
ATOM     12  C   UNL A   1      42.596  28.243  31.894  1.00  0.00     0.074 A 
ATOM     13  C   UNL A   1      42.178  29.667  33.809  1.00  0.00     0.049 A 
ATOM     14  N   UNL A   1      41.506  28.520  31.193  1.00  0.00    -0.248 NA
ATOM     15  C   UNL A   1      43.575  27.505  31.080  1.00  0.00     0.031 C 
ATOM     16  C   UNL A   1      42.469  30.338  35.032  1.00  0.00     0.029 A 
ATOM     17  N   UNL A   1      41.002  30.254  33.390  1.00  0.00    -0.354 N 
ATOM     18  C   UNL A   1      41.678  27.952  29.926  1.00  0.00     0.074 A 
ATOM     19  C   UNL A   1      42.943  27.277  29.945  1.00  0.00     0.031 C 
ATOM     20  C   UNL A   1      41.381  30.981  35.467  1.00  0.00     0.029 A 
ATOM     21  C   UNL A   1      40.396  30.993  34.395  1.00  0.00     0.049 A 
ATOM     22  H   UNL A   1      40.635  30.157  32.482  1.00  0.00     0.167 HD
ATOM     23  C   UNL A   1      40.931  28.032  28.795  1.00  0.00     0.037 A 
ATOM     24  C   UNL A   1      39.213  31.642  34.463  1.00  0.00     0.037 A 
ATOM     25  C   UNL A   1      39.777  28.872  28.641  1.00  0.00     0.049 A 
ATOM     26  C   UNL A   1      38.390  31.732  33.215  1.00  0.00     0.074 A 
ATOM     27  C   UNL A   1      39.026  29.102  27.501  1.00  0.00     0.029 A 
ATOM     28  N   UNL A   1      39.256  29.680  29.637  1.00  0.00    -0.354 N 
ATOM     29  N   UNL A   1      38.567  31.114  32.073  1.00  0.00    -0.248 NA
ATOM     30  C   UNL A   1      37.262  32.674  33.223  1.00  0.00     0.031 C 
ATOM     31  C   UNL A   1      38.100  30.109  27.788  1.00  0.00     0.029 A 
ATOM     32  C   UNL A   1      38.220  30.443  29.127  1.00  0.00     0.049 A 
ATOM     33  H   UNL A   1      39.574  29.706  30.568  1.00  0.00     0.167 HD
ATOM     34  C   UNL A   1      37.614  31.635  31.211  1.00  0.00     0.074 A 
ATOM     35  C   UNL A   1      36.817  32.568  31.979  1.00  0.00     0.031 C 
ATOM     36  C   UNL A   1      37.446  31.386  29.890  1.00  0.00     0.037 A 
BRANCH  23  37
ATOM     37  C   UNL A   1      41.436  27.287  27.581  1.00  0.00     0.057 A 
ATOM     38  C   UNL A   1      41.159  25.928  27.372  1.00  0.00     0.134 A 
ATOM     39  C   UNL A   1      42.238  27.930  26.628  1.00  0.00     0.134 A 
ATOM     40  F   UNL A   1      40.418  25.242  28.255  1.00  0.00    -0.206 F 
ATOM     41  C   UNL A   1      41.683  25.233  26.278  1.00  0.00     0.040 A 
ATOM     42  C   UNL A   1      42.750  27.252  25.519  1.00  0.00     0.040 A 
ATOM     43  F   UNL A   1      42.550  29.228  26.765  1.00  0.00    -0.206 F 
ATOM     44  C   UNL A   1      42.481  25.896  25.346  1.00  0.00     0.006 A 
ENDBRANCH  23  37
BRANCH  24  45
ATOM     45  C   UNL A   1      38.801  32.345  35.718  1.00  0.00     0.057 A 
ATOM     46  C   UNL A   1      38.129  31.682  36.753  1.00  0.00     0.134 A 
ATOM     47  C   UNL A   1      39.107  33.698  35.932  1.00  0.00     0.134 A 
ATOM     48  F   UNL A   1      37.753  30.402  36.608  1.00  0.00    -0.206 F 
ATOM     49  C   UNL A   1      37.810  32.325  37.955  1.00  0.00     0.040 A 
ATOM     50  C   UNL A   1      38.850  34.334  37.147  1.00  0.00     0.040 A 
ATOM     51  F   UNL A   1      39.714  34.414  34.974  1.00  0.00    -0.206 F 
ATOM     52  C   UNL A   1      38.196  33.648  38.164  1.00  0.00     0.006 A 
ENDBRANCH  24  45
BRANCH  36  53
ATOM     53  C   UNL A   1      36.365  32.139  29.180  1.00  0.00     0.057 A 
ATOM     54  C   UNL A   1      35.159  31.527  28.814  1.00  0.00     0.134 A 
ATOM     55  C   UNL A   1      36.510  33.504  28.911  1.00  0.00     0.134 A 
ATOM     56  F   UNL A   1      34.963  30.219  29.040  1.00  0.00    -0.206 F 
ATOM     57  C   UNL A   1      34.141  32.245  28.185  1.00  0.00     0.040 A 
ATOM     58  C   UNL A   1      35.490  34.240  28.307  1.00  0.00     0.040 A 
ATOM     59  F   UNL A   1      37.636  34.149  29.249  1.00  0.00    -0.206 F 
ATOM     60  C   UNL A   1      34.303  33.608  27.938  1.00  0.00     0.006 A 
ENDBRANCH  36  53
ENDBRANCH  10  11
ENDBRANCH   3   5
ENDBRANCH   2   3
ENDBRANCH   1   2
BRANCH   1  61
ATOM     61  C   UNL A   1      47.265  22.732  38.740  1.00  0.00     0.274 C 
BRANCH  61  62
ATOM     62  O   UNL A   1      47.226  21.967  39.986  1.00  0.00    -0.461 OA
BRANCH  62  63
ATOM     63  C   UNL A   1      46.398  20.877  40.085  1.00  0.00     0.328 C 
ATOM     64  O   UNL A   1      45.266  20.968  40.552  1.00  0.00    -0.250 OA
BRANCH  63  65
ATOM     65  C   UNL A   1      46.910  19.585  39.306  1.00  0.00     0.193 C 
ATOM     66  C   UNL A   1      47.214  18.302  40.615  1.00  0.00     0.037 C 
ATOM     67  N   UNL A   1      46.055  19.079  37.939  1.00  0.00    -0.343 N 
ATOM     68  C   UNL A   1      45.869  16.569  40.821  1.00  0.00     0.005 C 
ATOM     69  C   UNL A   1      44.946  17.682  37.776  1.00  0.00     0.119 C 
ATOM     70  C   UNL A   1      44.688  16.386  39.207  1.00  0.00     0.022 C 
BRANCH  67  71
ATOM     71  C   UNL A   1      46.570  19.804  36.850  1.00  0.00     0.134 A 
ATOM     72  C   UNL A   1      45.791  20.626  36.082  1.00  0.00     0.076 A 
ATOM     73  N   UNL A   1      47.915  19.821  36.675  1.00  0.00    -0.211 NA
ATOM     74  C   UNL A   1      46.453  21.430  35.153  1.00  0.00     0.076 A 
ATOM     75  C   UNL A   1      48.467  20.525  35.670  1.00  0.00     0.162 A 
ATOM     76  N   UNL A   1      47.779  21.363  34.895  1.00  0.00    -0.228 NA
BRANCH  74  77
ATOM     77  C   UNL A   1      45.743  22.498  34.447  1.00  0.00     0.000 A 
ATOM     78  C   UNL A   1      46.385  23.690  34.084  1.00  0.00     0.010 A 
ATOM     79  C   UNL A   1      44.386  22.338  34.113  1.00  0.00     0.010 A 
ATOM     80  C   UNL A   1      45.706  24.666  33.348  1.00  0.00     0.001 A 
ATOM     81  C   UNL A   1      43.707  23.314  33.386  1.00  0.00     0.001 A 
ATOM     82  C   UNL A   1      44.374  24.470  32.989  1.00  0.00     0.000 A 
ENDBRANCH  74  77
BRANCH  75  83
ATOM     83  C   UNL A   1      49.898  20.302  35.372  1.00  0.00     0.021 A 
ATOM     84  C   UNL A   1      50.733  19.604  36.270  1.00  0.00     0.012 A 
ATOM     85  C   UNL A   1      50.491  20.759  34.183  1.00  0.00     0.032 A 
ATOM     86  C   UNL A   1      52.090  19.374  36.010  1.00  0.00     0.002 A 
ATOM     87  C   UNL A   1      51.853  20.540  33.927  1.00  0.00     0.041 A 
ATOM     88  C   UNL A   1      52.654  19.849  34.834  1.00  0.00     0.020 A 
ATOM     89  Cl  UNL A   1      52.559  21.135  32.472  1.00  0.00    -0.084 Cl
ENDBRANCH  75  83
ENDBRANCH  67  71
ENDBRANCH  63  65
ENDBRANCH  62  63
ENDBRANCH  61  62
ENDBRANCH   1  61
TORSDOF 14
ENDMDL
MODEL 2
REMARK VINA RESULT:     -12.0      0.918      2.980
REMARK SMILES O=C(OCCOC(=O)[C@H]1CCCCN1c1cc(-c2ccccc2)nc(-c2cccc(Cl)c2)n1)c1ccc(-c2c3nc(c(-c4c(F)cccc4F)c4ccc([nH]4)c(-c4c(F)cccc4F)c4nc(c(-c5c(F)cccc5F)c5ccc2[nH]5)C=C4)C=C3)cc1
REMARK SMILES IDX 4 1 3 2 2 3 1 4 34 5 35 6 87 7 36 8 86 9 37 10 38 11 39 12
REMARK SMILES IDX 80 13 40 14 85 15 79 16 81 17 41 18 84 19 78 20 77 21 42 23
REMARK SMILES IDX 68 24 51 25 67 26 52 27 55 28 66 29 82 30 53 31 54 32 65 34
REMARK SMILES IDX 83 35 56 36 43 37 44 38 49 39 45 40 46 41 48 42 50 43 47 44
REMARK SMILES IDX 69 45 70 46 75 47 71 48 72 49 74 50 76 51 73 52 57 53 58 54
REMARK SMILES IDX 63 55 59 56 60 57 62 58 64 59 61 60 5 61 6 62 7 63 8 64 9 65
REMARK SMILES IDX 10 66 14 67 11 68 13 69 12 70 15 71 16 72 33 73 17 74 25 75
REMARK SMILES IDX 24 76 18 77 19 78 23 79 20 80 22 81 21 82 26 83 27 84 32 85
REMARK SMILES IDX 28 86 30 87 29 88 31 89
REMARK H PARENT 81 22 55 33
REMARK Flexibility Score: inf
ROOT
ATOM      1  C   UNL A   1      45.969  23.576  38.306  1.00  0.00     0.275 C 
ENDROOT
BRANCH   1   2
ATOM      2  O   UNL A   1      46.062  25.028  38.218  1.00  0.00    -0.458 OA
BRANCH   2   3
ATOM      3  C   UNL A   1      45.161  25.892  38.814  1.00  0.00     0.338 C 
ATOM      4  O   UNL A   1      44.619  25.648  39.881  1.00  0.00    -0.246 OA
BRANCH   3   5
ATOM      5  C   UNL A   1      44.542  26.874  37.859  1.00  0.00     0.060 A 
ATOM      6  C   UNL A   1      45.681  27.871  37.174  1.00  0.00     0.016 A 
ATOM      7  C   UNL A   1      43.132  26.369  36.970  1.00  0.00     0.016 A 
ATOM      8  C   UNL A   1      45.528  28.340  35.504  1.00  0.00     0.010 A 
ATOM      9  C   UNL A   1      42.796  26.812  35.313  1.00  0.00     0.010 A 
ATOM     10  C   UNL A   1      43.955  27.859  34.443  1.00  0.00    -0.014 A 
BRANCH  10  11
ATOM     11  C   UNL A   1      42.885  28.714  33.428  1.00  0.00     0.031 A 
ATOM     12  C   UNL A   1      42.572  28.339  31.931  1.00  0.00     0.074 A 
ATOM     13  C   UNL A   1      42.140  29.749  33.854  1.00  0.00     0.049 A 
ATOM     14  N   UNL A   1      41.480  28.610  31.231  1.00  0.00    -0.248 NA
ATOM     15  C   UNL A   1      43.558  27.615  31.114  1.00  0.00     0.031 C 
ATOM     16  C   UNL A   1      42.423  30.415  35.081  1.00  0.00     0.029 A 
ATOM     17  N   UNL A   1      40.959  30.327  33.438  1.00  0.00    -0.354 N 
ATOM     18  C   UNL A   1      41.658  28.051  29.961  1.00  0.00     0.074 A 
ATOM     19  C   UNL A   1      42.929  27.387  29.977  1.00  0.00     0.031 C 
ATOM     20  C   UNL A   1      41.329  31.046  35.519  1.00  0.00     0.029 A 
ATOM     21  C   UNL A   1      40.345  31.055  34.446  1.00  0.00     0.049 A 
ATOM     22  H   UNL A   1      40.593  30.232  32.529  1.00  0.00     0.167 HD
ATOM     23  C   UNL A   1      40.910  28.130  28.830  1.00  0.00     0.037 A 
ATOM     24  C   UNL A   1      39.156  31.693  34.516  1.00  0.00     0.037 A 
ATOM     25  C   UNL A   1      39.750  28.960  28.679  1.00  0.00     0.049 A 
ATOM     26  C   UNL A   1      38.333  31.782  33.268  1.00  0.00     0.074 A 
ATOM     27  C   UNL A   1      38.997  29.190  27.540  1.00  0.00     0.029 A 
ATOM     28  N   UNL A   1      39.220  29.758  29.679  1.00  0.00    -0.354 N 
ATOM     29  N   UNL A   1      38.516  31.172  32.123  1.00  0.00    -0.248 NA
ATOM     30  C   UNL A   1      37.197  32.714  33.281  1.00  0.00     0.031 C 
ATOM     31  C   UNL A   1      38.062  30.188  27.832  1.00  0.00     0.029 A 
ATOM     32  C   UNL A   1      38.178  30.515  29.174  1.00  0.00     0.049 A 
ATOM     33  H   UNL A   1      39.538  29.782  30.611  1.00  0.00     0.167 HD
ATOM     34  C   UNL A   1      37.560  31.689  31.263  1.00  0.00     0.074 A 
ATOM     35  C   UNL A   1      36.753  32.611  32.036  1.00  0.00     0.031 C 
ATOM     36  C   UNL A   1      37.395  31.447  29.941  1.00  0.00     0.037 A 
BRANCH  23  37
ATOM     37  C   UNL A   1      41.423  27.397  27.612  1.00  0.00     0.057 A 
ATOM     38  C   UNL A   1      41.118  26.049  27.370  1.00  0.00     0.134 A 
ATOM     39  C   UNL A   1      42.261  28.039  26.689  1.00  0.00     0.134 A 
ATOM     40  F   UNL A   1      40.342  25.365  28.223  1.00  0.00    -0.206 F 
ATOM     41  C   UNL A   1      41.649  25.363  26.273  1.00  0.00     0.040 A 
ATOM     42  C   UNL A   1      42.780  27.369  25.578  1.00  0.00     0.040 A 
ATOM     43  F   UNL A   1      42.601  29.325  26.858  1.00  0.00    -0.206 F 
ATOM     44  C   UNL A   1      42.482  26.024  25.372  1.00  0.00     0.006 A 
ENDBRANCH  23  37
BRANCH  24  45
ATOM     45  C   UNL A   1      38.737  32.385  35.776  1.00  0.00     0.057 A 
ATOM     46  C   UNL A   1      38.075  31.709  36.808  1.00  0.00     0.134 A 
ATOM     47  C   UNL A   1      39.026  33.740  35.995  1.00  0.00     0.134 A 
ATOM     48  F   UNL A   1      37.715  30.425  36.658  1.00  0.00    -0.206 F 
ATOM     49  C   UNL A   1      37.750  32.342  38.014  1.00  0.00     0.040 A 
ATOM     50  C   UNL A   1      38.762  34.369  37.213  1.00  0.00     0.040 A 
ATOM     51  F   UNL A   1      39.622  34.469  35.039  1.00  0.00    -0.206 F 
ATOM     52  C   UNL A   1      38.118  33.669  38.228  1.00  0.00     0.006 A 
ENDBRANCH  24  45
BRANCH  36  53
ATOM     53  C   UNL A   1      36.307  32.194  29.234  1.00  0.00     0.057 A 
ATOM     54  C   UNL A   1      35.110  31.571  28.858  1.00  0.00     0.134 A 
ATOM     55  C   UNL A   1      36.437  33.563  28.979  1.00  0.00     0.134 A 
ATOM     56  F   UNL A   1      34.928  30.259  29.071  1.00  0.00    -0.206 F 
ATOM     57  C   UNL A   1      34.086  32.283  28.233  1.00  0.00     0.040 A 
ATOM     58  C   UNL A   1      35.411  34.292  28.378  1.00  0.00     0.040 A 
ATOM     59  F   UNL A   1      37.555  34.218  29.327  1.00  0.00    -0.206 F 
ATOM     60  C   UNL A   1      34.233  33.650  28.000  1.00  0.00     0.006 A 
ENDBRANCH  36  53
ENDBRANCH  10  11
ENDBRANCH   3   5
ENDBRANCH   2   3
ENDBRANCH   1   2
BRANCH   1  61
ATOM     61  C   UNL A   1      47.274  22.837  38.802  1.00  0.00     0.274 C 
BRANCH  61  62
ATOM     62  O   UNL A   1      47.177  22.052  40.032  1.00  0.00    -0.461 OA
BRANCH  62  63
ATOM     63  C   UNL A   1      46.341  20.965  40.075  1.00  0.00     0.328 C 
ATOM     64  O   UNL A   1      45.196  21.049  40.511  1.00  0.00    -0.250 OA
BRANCH  63  65
ATOM     65  C   UNL A   1      46.870  19.691  39.277  1.00  0.00     0.193 C 
ATOM     66  C   UNL A   1      46.899  18.304  40.513  1.00  0.00     0.037 C 
ATOM     67  N   UNL A   1      46.186  19.345  37.771  1.00  0.00    -0.343 N 
ATOM     68  C   UNL A   1      45.426  16.671  40.400  1.00  0.00     0.005 C 
ATOM     69  C   UNL A   1      45.020  18.052  37.351  1.00  0.00     0.119 C 
ATOM     70  C   UNL A   1      44.476  16.687  38.631  1.00  0.00     0.022 C 
BRANCH  67  71
ATOM     71  C   UNL A   1      46.898  20.099  36.821  1.00  0.00     0.134 A 
ATOM     72  C   UNL A   1      48.235  19.918  36.596  1.00  0.00     0.076 A 
ATOM     73  N   UNL A   1      46.192  20.899  35.984  1.00  0.00    -0.211 NA
ATOM     74  C   UNL A   1      48.784  20.590  35.504  1.00  0.00     0.076 A 
ATOM     75  C   UNL A   1      46.818  21.618  35.033  1.00  0.00     0.162 A 
ATOM     76  N   UNL A   1      48.110  21.481  34.740  1.00  0.00    -0.228 NA
BRANCH  74  77
ATOM     77  C   UNL A   1      50.142  20.291  35.045  1.00  0.00     0.000 A 
ATOM     78  C   UNL A   1      50.561  20.605  33.745  1.00  0.00     0.010 A 
ATOM     79  C   UNL A   1      51.059  19.680  35.918  1.00  0.00     0.010 A 
ATOM     80  C   UNL A   1      51.883  20.374  33.351  1.00  0.00     0.001 A 
ATOM     81  C   UNL A   1      52.375  19.443  35.523  1.00  0.00     0.001 A 
ATOM     82  C   UNL A   1      52.790  19.807  34.245  1.00  0.00     0.000 A 
ENDBRANCH  74  77
BRANCH  75  83
ATOM     83  C   UNL A   1      46.039  22.658  34.327  1.00  0.00     0.021 A 
ATOM     84  C   UNL A   1      44.663  22.491  34.063  1.00  0.00     0.012 A 
ATOM     85  C   UNL A   1      46.623  23.862  33.898  1.00  0.00     0.032 A 
ATOM     86  C   UNL A   1      43.902  23.463  33.403  1.00  0.00     0.002 A 
ATOM     87  C   UNL A   1      45.865  24.831  33.225  1.00  0.00     0.041 A 
ATOM     88  C   UNL A   1      44.507  24.637  32.977  1.00  0.00     0.020 A 
ATOM     89  Cl  UNL A   1      46.614  26.286  32.687  1.00  0.00    -0.084 Cl
ENDBRANCH  75  83
ENDBRANCH  67  71
ENDBRANCH  63  65
ENDBRANCH  62  63
ENDBRANCH  61  62
ENDBRANCH   1  61
TORSDOF 14
ENDMDL
MODEL 3
REMARK VINA RESULT:     -11.9      6.389     12.005
REMARK SMILES O=C(OCCOC(=O)[C@H]1CCCCN1c1cc(-c2ccccc2)nc(-c2cccc(Cl)c2)n1)c1ccc(-c2c3nc(c(-c4c(F)cccc4F)c4ccc([nH]4)c(-c4c(F)cccc4F)c4nc(c(-c5c(F)cccc5F)c5ccc2[nH]5)C=C4)C=C3)cc1
REMARK SMILES IDX 4 1 3 2 2 3 1 4 34 5 35 6 87 7 36 8 86 9 37 10 38 11 39 12
REMARK SMILES IDX 80 13 40 14 85 15 79 16 81 17 41 18 84 19 78 20 77 21 42 23
REMARK SMILES IDX 68 24 51 25 67 26 52 27 55 28 66 29 82 30 53 31 54 32 65 34
REMARK SMILES IDX 83 35 56 36 43 37 44 38 49 39 45 40 46 41 48 42 50 43 47 44
REMARK SMILES IDX 69 45 70 46 75 47 71 48 72 49 74 50 76 51 73 52 57 53 58 54
REMARK SMILES IDX 63 55 59 56 60 57 62 58 64 59 61 60 5 61 6 62 7 63 8 64 9 65
REMARK SMILES IDX 10 66 14 67 11 68 13 69 12 70 15 71 16 72 33 73 17 74 25 75
REMARK SMILES IDX 24 76 18 77 19 78 23 79 20 80 22 81 21 82 26 83 27 84 32 85
REMARK SMILES IDX 28 86 30 87 29 88 31 89
REMARK H PARENT 81 22 55 33
REMARK Flexibility Score: inf
ROOT
ATOM      1  C   UNL A   1      43.402  37.441  33.358  1.00  0.00     0.275 C 
ENDROOT
BRANCH   1   2
ATOM      2  O   UNL A   1      44.844  37.284  33.207  1.00  0.00    -0.458 OA
BRANCH   2   3
ATOM      3  C   UNL A   1      45.451  36.866  32.036  1.00  0.00     0.338 C 
ATOM      4  O   UNL A   1      46.071  37.624  31.306  1.00  0.00    -0.246 OA
BRANCH   3   5
ATOM      5  C   UNL A   1      44.895  35.579  31.493  1.00  0.00     0.060 A 
ATOM      6  C   UNL A   1      44.806  35.596  29.834  1.00  0.00     0.016 A 
ATOM      7  C   UNL A   1      45.239  34.111  32.365  1.00  0.00     0.016 A 
ATOM      8  C   UNL A   1      45.167  34.149  28.934  1.00  0.00     0.010 A 
ATOM      9  C   UNL A   1      45.552  32.564  31.613  1.00  0.00     0.010 A 
ATOM     10  C   UNL A   1      45.517  32.444  29.829  1.00  0.00    -0.014 A 
BRANCH  10  11
ATOM     11  C   UNL A   1      44.938  30.851  29.646  1.00  0.00     0.031 A 
ATOM     12  C   UNL A   1      43.419  30.454  29.517  1.00  0.00     0.074 A 
ATOM     13  C   UNL A   1      45.749  29.787  29.511  1.00  0.00     0.049 A 
ATOM     14  N   UNL A   1      42.900  29.385  28.931  1.00  0.00    -0.248 NA
ATOM     15  C   UNL A   1      42.368  31.300  30.103  1.00  0.00     0.031 C 
ATOM     16  C   UNL A   1      47.134  29.861  29.834  1.00  0.00     0.029 A 
ATOM     17  N   UNL A   1      45.613  28.531  28.958  1.00  0.00    -0.354 N 
ATOM     18  C   UNL A   1      41.510  29.487  29.050  1.00  0.00     0.074 A 
ATOM     19  C   UNL A   1      41.243  30.728  29.717  1.00  0.00     0.031 C 
ATOM     20  C   UNL A   1      47.803  28.898  29.193  1.00  0.00     0.029 A 
ATOM     21  C   UNL A   1      46.836  27.963  28.635  1.00  0.00     0.049 A 
ATOM     22  H   UNL A   1      44.747  28.089  28.808  1.00  0.00     0.167 HD
ATOM     23  C   UNL A   1      40.514  28.620  28.735  1.00  0.00     0.037 A 
ATOM     24  C   UNL A   1      47.171  26.818  28.001  1.00  0.00     0.037 A 
ATOM     25  C   UNL A   1      40.721  27.276  28.277  1.00  0.00     0.049 A 
ATOM     26  C   UNL A   1      46.073  25.860  27.654  1.00  0.00     0.074 A 
ATOM     27  C   UNL A   1      39.777  26.291  28.040  1.00  0.00     0.029 A 
ATOM     28  N   UNL A   1      41.963  26.703  28.061  1.00  0.00    -0.354 N 
ATOM     29  N   UNL A   1      44.777  26.044  27.723  1.00  0.00    -0.248 NA
ATOM     30  C   UNL A   1      46.469  24.509  27.236  1.00  0.00     0.031 C 
ATOM     31  C   UNL A   1      40.453  25.100  27.759  1.00  0.00     0.029 A 
ATOM     32  C   UNL A   1      41.813  25.366  27.737  1.00  0.00     0.049 A 
ATOM     33  H   UNL A   1      42.823  27.176  28.128  1.00  0.00     0.167 HD
ATOM     34  C   UNL A   1      44.206  24.819  27.416  1.00  0.00     0.074 A 
ATOM     35  C   UNL A   1      45.292  23.917  27.093  1.00  0.00     0.031 C 
ATOM     36  C   UNL A   1      42.898  24.469  27.440  1.00  0.00     0.037 A 
BRANCH  23  37
ATOM     37  C   UNL A   1      39.098  29.064  29.019  1.00  0.00     0.057 A 
ATOM     38  C   UNL A   1      38.524  28.952  30.294  1.00  0.00     0.134 A 
ATOM     39  C   UNL A   1      38.289  29.578  27.996  1.00  0.00     0.134 A 
ATOM     40  F   UNL A   1      39.230  28.446  31.315  1.00  0.00    -0.206 F 
ATOM     41  C   UNL A   1      37.192  29.308  30.532  1.00  0.00     0.040 A 
ATOM     42  C   UNL A   1      36.964  29.957  28.227  1.00  0.00     0.040 A 
ATOM     43  F   UNL A   1      38.768  29.709  26.750  1.00  0.00    -0.206 F 
ATOM     44  C   UNL A   1      36.408  29.814  29.496  1.00  0.00     0.006 A 
ENDBRANCH  23  37
BRANCH  24  45
ATOM     45  C   UNL A   1      48.608  26.473  27.761  1.00  0.00     0.057 A 
ATOM     46  C   UNL A   1      49.384  25.817  28.725  1.00  0.00     0.134 A 
ATOM     47  C   UNL A   1      49.233  26.757  26.538  1.00  0.00     0.134 A 
ATOM     48  F   UNL A   1      48.879  25.555  29.941  1.00  0.00    -0.206 F 
ATOM     49  C   UNL A   1      50.706  25.431  28.469  1.00  0.00     0.040 A 
ATOM     50  C   UNL A   1      50.528  26.327  26.247  1.00  0.00     0.040 A 
ATOM     51  F   UNL A   1      48.570  27.419  25.577  1.00  0.00    -0.206 F 
ATOM     52  C   UNL A   1      51.271  25.662  27.217  1.00  0.00     0.006 A 
ENDBRANCH  24  45
BRANCH  36  53
ATOM     53  C   UNL A   1      42.560  23.046  27.117  1.00  0.00     0.057 A 
ATOM     54  C   UNL A   1      42.600  22.559  25.804  1.00  0.00     0.134 A 
ATOM     55  C   UNL A   1      42.248  22.142  28.138  1.00  0.00     0.134 A 
ATOM     56  F   UNL A   1      42.887  23.379  24.781  1.00  0.00    -0.206 F 
ATOM     57  C   UNL A   1      42.319  21.223  25.517  1.00  0.00     0.040 A 
ATOM     58  C   UNL A   1      41.991  20.798  27.867  1.00  0.00     0.040 A 
ATOM     59  F   UNL A   1      42.206  22.546  29.417  1.00  0.00    -0.206 F 
ATOM     60  C   UNL A   1      42.022  20.337  26.551  1.00  0.00     0.006 A 
ENDBRANCH  36  53
ENDBRANCH  10  11
ENDBRANCH   3   5
ENDBRANCH   2   3
ENDBRANCH   1   2
BRANCH   1  61
ATOM     61  C   UNL A   1      42.769  36.744  34.627  1.00  0.00     0.274 C 
BRANCH  61  62
ATOM     62  O   UNL A   1      41.493  36.051  34.447  1.00  0.00    -0.461 OA
BRANCH  62  63
ATOM     63  C   UNL A   1      40.635  35.930  35.511  1.00  0.00     0.328 C 
ATOM     64  O   UNL A   1      39.767  36.768  35.739  1.00  0.00    -0.250 OA
BRANCH  63  65
ATOM     65  C   UNL A   1      40.678  34.511  36.236  1.00  0.00     0.193 C 
ATOM     66  C   UNL A   1      41.466  34.819  37.890  1.00  0.00     0.037 C 
ATOM     67  N   UNL A   1      39.277  33.565  36.233  1.00  0.00    -0.343 N 
ATOM     68  C   UNL A   1      40.265  34.746  39.735  1.00  0.00     0.005 C 
ATOM     69  C   UNL A   1      38.140  33.259  37.582  1.00  0.00     0.119 C 
ATOM     70  C   UNL A   1      38.480  33.891  39.393  1.00  0.00     0.022 C 
BRANCH  67  71
ATOM     71  C   UNL A   1      39.290  32.830  35.034  1.00  0.00     0.134 A 
ATOM     72  C   UNL A   1      38.479  33.138  33.977  1.00  0.00     0.076 A 
ATOM     73  N   UNL A   1      40.265  31.902  34.866  1.00  0.00    -0.211 NA
ATOM     74  C   UNL A   1      38.717  32.455  32.783  1.00  0.00     0.076 A 
ATOM     75  C   UNL A   1      40.347  31.192  33.726  1.00  0.00     0.162 A 
ATOM     76  N   UNL A   1      39.609  31.447  32.647  1.00  0.00    -0.228 NA
BRANCH  74  77
ATOM     77  C   UNL A   1      38.061  32.867  31.541  1.00  0.00     0.000 A 
ATOM     78  C   UNL A   1      38.784  33.037  30.352  1.00  0.00     0.010 A 
ATOM     79  C   UNL A   1      36.674  33.097  31.522  1.00  0.00     0.010 A 
ATOM     80  C   UNL A   1      38.126  33.362  29.162  1.00  0.00     0.001 A 
ATOM     81  C   UNL A   1      36.019  33.429  30.337  1.00  0.00     0.001 A 
ATOM     82  C   UNL A   1      36.744  33.544  29.154  1.00  0.00     0.000 A 
ENDBRANCH  74  77
BRANCH  75  83
ATOM     83  C   UNL A   1      41.259  30.027  33.699  1.00  0.00     0.021 A 
ATOM     84  C   UNL A   1      40.799  28.730  34.010  1.00  0.00     0.012 A 
ATOM     85  C   UNL A   1      42.615  30.151  33.353  1.00  0.00     0.032 A 
ATOM     86  C   UNL A   1      41.639  27.610  33.986  1.00  0.00     0.002 A 
ATOM     87  C   UNL A   1      43.460  29.032  33.340  1.00  0.00     0.041 A 
ATOM     88  C   UNL A   1      42.978  27.763  33.654  1.00  0.00     0.020 A 
ATOM     89  Cl  UNL A   1      45.124  29.219  32.937  1.00  0.00    -0.084 Cl
ENDBRANCH  75  83
ENDBRANCH  67  71
ENDBRANCH  63  65
ENDBRANCH  62  63
ENDBRANCH  61  62
ENDBRANCH   1  61
TORSDOF 14
ENDMDL
