MODEL 1
REMARK VINA RESULT:     -11.6      0.000      0.000
REMARK SMILES C=CCc1cccc(-c2ccc([C@@H](C)C(=O)OCCOC(=O)c3ccc(-c4c5nc(c(-c6c(F)cccc6F)c6ccc([nH]6)c(-c6c(F)cccc6F)c6nc(c(-c7c(F)cccc7F)c7ccc4[nH]7)C=C6)C=C5)cc3)cc2)c1
REMARK SMILES IDX 18 1 17 2 15 3 16 4 13 5 14 6 12 7 9 8 10 9 78 10 11 11
REMARK SMILES IDX 77 12 8 13 4 14 5 15 79 16 6 17 7 18 3 19 2 20 1 21 19 22
REMARK SMILES IDX 20 23 21 24 22 25 23 26 24 27 76 28 25 29 75 30 26 31 27 32
REMARK SMILES IDX 28 33 69 34 29 35 74 36 68 37 70 38 30 39 73 40 67 41 66 42
REMARK SMILES IDX 31 44 57 45 40 46 56 47 41 48 44 49 55 50 71 51 42 52 43 53
REMARK SMILES IDX 54 55 72 56 45 57 32 58 33 59 38 60 34 61 35 62 37 63 39 64
REMARK SMILES IDX 36 65 58 66 59 67 64 68 60 69 61 70 63 71 65 72 62 73 46 74
REMARK SMILES IDX 47 75 52 76 48 77 49 78 51 79 53 80 50 81
REMARK H PARENT 70 43 44 54
REMARK Flexibility Score: inf
ROOT
ATOM      1  C   UNL A   1      43.047  21.168  26.132  1.00  0.00     0.274 C 
ENDROOT
BRANCH   1   2
ATOM      2  O   UNL A   1      41.688  21.351  25.695  1.00  0.00    -0.462 OA
BRANCH   2   3
ATOM      3  C   UNL A   1      40.775  21.677  26.647  1.00  0.00     0.313 C 
ATOM      4  O   UNL A   1      40.801  21.257  27.801  1.00  0.00    -0.252 OA
BRANCH   3   5
ATOM      5  C   UNL A   1      39.662  22.586  26.144  1.00  0.00     0.126 C 
ATOM      6  C   UNL A   1      39.486  23.768  27.095  1.00  0.00     0.025 C 
BRANCH   5   7
ATOM      7  C   UNL A   1      38.344  21.904  25.811  1.00  0.00    -0.034 A 
ATOM      8  C   UNL A   1      35.912  20.614  25.090  1.00  0.00    -0.018 A 
ATOM      9  C   UNL A   1      35.919  21.921  25.601  1.00  0.00     0.009 A 
ATOM     10  C   UNL A   1      37.143  19.954  24.973  1.00  0.00     0.009 A 
ATOM     11  C   UNL A   1      37.115  22.557  25.953  1.00  0.00     0.005 A 
ATOM     12  C   UNL A   1      38.340  20.588  25.326  1.00  0.00     0.005 A 
BRANCH   8  13
ATOM     13  C   UNL A   1      34.659  19.975  24.649  1.00  0.00    -0.018 A 
ATOM     14  C   UNL A   1      33.379  17.981  24.015  1.00  0.00    -0.044 A 
ATOM     15  C   UNL A   1      32.271  18.788  23.729  1.00  0.00     0.004 A 
ATOM     16  C   UNL A   1      34.565  18.584  24.472  1.00  0.00     0.012 A 
ATOM     17  C   UNL A   1      32.343  20.167  23.906  1.00  0.00     0.001 A 
ATOM     18  C   UNL A   1      33.525  20.753  24.360  1.00  0.00     0.009 A 
BRANCH  14  19
ATOM     19  C   UNL A   1      33.318  16.488  23.795  1.00  0.00     0.062 C 
BRANCH  19  20
ATOM     20  C   UNL A   1      33.519  15.720  25.072  1.00  0.00    -0.030 C 
ATOM     21  C   UNL A   1      32.685  14.776  25.528  1.00  0.00     0.004 C 
ENDBRANCH  19  20
ENDBRANCH  14  19
ENDBRANCH   8  13
ENDBRANCH   5   7
ENDBRANCH   3   5
ENDBRANCH   2   3
ENDBRANCH   1   2
BRANCH   1  22
ATOM     22  C   UNL A   1      44.009  22.031  25.316  1.00  0.00     0.275 C 
BRANCH  22  23
ATOM     23  O   UNL A   1      43.416  23.306  25.004  1.00  0.00    -0.458 OA
BRANCH  23  24
ATOM     24  C   UNL A   1      44.206  24.381  25.228  1.00  0.00     0.338 C 
ATOM     25  O   UNL A   1      45.234  24.688  24.654  1.00  0.00    -0.246 OA
BRANCH  24  26
ATOM     26  C   UNL A   1      43.582  25.229  26.254  1.00  0.00     0.060 A 
ATOM     27  C   UNL A   1      43.827  26.604  26.216  1.00  0.00     0.016 A 
ATOM     28  C   UNL A   1      42.840  24.664  27.289  1.00  0.00     0.016 A 
ATOM     29  C   UNL A   1      43.336  27.426  27.227  1.00  0.00     0.010 A 
ATOM     30  C   UNL A   1      42.338  25.492  28.299  1.00  0.00     0.010 A 
ATOM     31  C   UNL A   1      42.595  26.875  28.280  1.00  0.00    -0.014 A 
BRANCH  31  32
ATOM     32  C   UNL A   1      42.121  27.743  29.383  1.00  0.00     0.031 A 
ATOM     33  C   UNL A   1      42.848  27.747  30.697  1.00  0.00     0.074 A 
ATOM     34  C   UNL A   1      41.043  28.528  29.203  1.00  0.00     0.049 A 
ATOM     35  N   UNL A   1      42.542  28.363  31.810  1.00  0.00    -0.248 NA
ATOM     36  C   UNL A   1      44.083  26.951  30.769  1.00  0.00     0.031 C 
ATOM     37  C   UNL A   1      40.278  28.641  27.961  1.00  0.00     0.029 A 
ATOM     38  N   UNL A   1      40.402  29.377  30.070  1.00  0.00    -0.354 N 
ATOM     39  C   UNL A   1      43.527  28.010  32.722  1.00  0.00     0.074 A 
ATOM     40  C   UNL A   1      44.441  27.121  32.035  1.00  0.00     0.031 C 
ATOM     41  C   UNL A   1      39.270  29.509  28.146  1.00  0.00     0.029 A 
ATOM     42  C   UNL A   1      39.293  29.978  29.528  1.00  0.00     0.049 A 
ATOM     43  H   UNL A   1      40.710  29.539  30.991  1.00  0.00     0.167 HD
ATOM     44  C   UNL A   1      43.656  28.394  34.013  1.00  0.00     0.037 A 
ATOM     45  C   UNL A   1      38.382  30.793  30.094  1.00  0.00     0.037 A 
ATOM     46  C   UNL A   1      42.765  29.304  34.685  1.00  0.00     0.049 A 
ATOM     47  C   UNL A   1      38.525  31.163  31.544  1.00  0.00     0.074 A 
ATOM     48  C   UNL A   1      42.838  29.782  35.981  1.00  0.00     0.029 A 
ATOM     49  N   UNL A   1      41.637  29.869  34.111  1.00  0.00    -0.354 N 
ATOM     50  N   UNL A   1      39.466  30.831  32.394  1.00  0.00    -0.248 NA
ATOM     51  C   UNL A   1      37.471  32.013  32.117  1.00  0.00     0.031 C 
ATOM     52  C   UNL A   1      41.733  30.612  36.204  1.00  0.00     0.029 A 
ATOM     53  C   UNL A   1      40.993  30.675  35.035  1.00  0.00     0.049 A 
ATOM     54  H   UNL A   1      41.338  29.720  33.185  1.00  0.00     0.167 HD
ATOM     55  C   UNL A   1      39.132  31.447  33.592  1.00  0.00     0.074 A 
ATOM     56  C   UNL A   1      37.906  32.182  33.357  1.00  0.00     0.031 C 
ATOM     57  C   UNL A   1      39.780  31.407  34.781  1.00  0.00     0.037 A 
BRANCH  44  58
ATOM     58  C   UNL A   1      44.791  27.814  34.800  1.00  0.00     0.057 A 
ATOM     59  C   UNL A   1      46.032  28.455  34.893  1.00  0.00     0.134 A 
ATOM     60  C   UNL A   1      44.618  26.624  35.518  1.00  0.00     0.134 A 
ATOM     61  F   UNL A   1      46.263  29.591  34.219  1.00  0.00    -0.206 F 
ATOM     62  C   UNL A   1      47.068  27.924  35.666  1.00  0.00     0.040 A 
ATOM     63  C   UNL A   1      45.640  26.094  36.308  1.00  0.00     0.040 A 
ATOM     64  F   UNL A   1      43.451  25.964  35.472  1.00  0.00    -0.206 F 
ATOM     65  C   UNL A   1      46.870  26.744  36.382  1.00  0.00     0.006 A 
ENDBRANCH  44  58
BRANCH  45  66
ATOM     66  C   UNL A   1      37.237  31.297  29.298  1.00  0.00     0.057 A 
ATOM     67  C   UNL A   1      37.244  32.590  28.762  1.00  0.00     0.134 A 
ATOM     68  C   UNL A   1      36.100  30.512  29.079  1.00  0.00     0.134 A 
ATOM     69  F   UNL A   1      38.296  33.398  28.961  1.00  0.00    -0.206 F 
ATOM     70  C   UNL A   1      36.153  33.090  28.049  1.00  0.00     0.040 A 
ATOM     71  C   UNL A   1      35.012  30.990  28.348  1.00  0.00     0.040 A 
ATOM     72  F   UNL A   1      36.032  29.266  29.569  1.00  0.00    -0.206 F 
ATOM     73  C   UNL A   1      35.034  32.287  27.838  1.00  0.00     0.006 A 
ENDBRANCH  45  66
BRANCH  57  74
ATOM     74  C   UNL A   1      39.194  32.205  35.905  1.00  0.00     0.057 A 
ATOM     75  C   UNL A   1      39.538  33.547  36.112  1.00  0.00     0.134 A 
ATOM     76  C   UNL A   1      38.253  31.633  36.770  1.00  0.00     0.134 A 
ATOM     77  F   UNL A   1      40.445  34.145  35.326  1.00  0.00    -0.206 F 
ATOM     78  C   UNL A   1      38.977  34.288  37.153  1.00  0.00     0.040 A 
ATOM     79  C   UNL A   1      37.670  32.371  37.801  1.00  0.00     0.040 A 
ATOM     80  F   UNL A   1      37.878  30.355  36.620  1.00  0.00    -0.206 F 
ATOM     81  C   UNL A   1      38.036  33.702  37.997  1.00  0.00     0.006 A 
ENDBRANCH  57  74
ENDBRANCH  31  32
ENDBRANCH  24  26
ENDBRANCH  23  24
ENDBRANCH  22  23
ENDBRANCH   1  22
TORSDOF 15
ENDMDL
MODEL 2
REMARK VINA RESULT:     -11.6      0.854      6.506
REMARK SMILES C=CCc1cccc(-c2ccc([C@@H](C)C(=O)OCCOC(=O)c3ccc(-c4c5nc(c(-c6c(F)cccc6F)c6ccc([nH]6)c(-c6c(F)cccc6F)c6nc(c(-c7c(F)cccc7F)c7ccc4[nH]7)C=C6)C=C5)cc3)cc2)c1
REMARK SMILES IDX 18 1 17 2 15 3 16 4 13 5 14 6 12 7 9 8 10 9 78 10 11 11
REMARK SMILES IDX 77 12 8 13 4 14 5 15 79 16 6 17 7 18 3 19 2 20 1 21 19 22
REMARK SMILES IDX 20 23 21 24 22 25 23 26 24 27 76 28 25 29 75 30 26 31 27 32
REMARK SMILES IDX 28 33 69 34 29 35 74 36 68 37 70 38 30 39 73 40 67 41 66 42
REMARK SMILES IDX 31 44 57 45 40 46 56 47 41 48 44 49 55 50 71 51 42 52 43 53
REMARK SMILES IDX 54 55 72 56 45 57 32 58 33 59 38 60 34 61 35 62 37 63 39 64
REMARK SMILES IDX 36 65 58 66 59 67 64 68 60 69 61 70 63 71 65 72 62 73 46 74
REMARK SMILES IDX 47 75 52 76 48 77 49 78 51 79 53 80 50 81
REMARK H PARENT 70 43 44 54
REMARK Flexibility Score: inf
ROOT
ATOM      1  C   UNL A   1      44.044  21.583  25.472  1.00  0.00     0.274 C 
ENDROOT
BRANCH   1   2
ATOM      2  O   UNL A   1      42.870  20.769  25.293  1.00  0.00    -0.462 OA
BRANCH   2   3
ATOM      3  C   UNL A   1      42.122  20.519  26.399  1.00  0.00     0.313 C 
ATOM      4  O   UNL A   1      42.140  19.459  27.019  1.00  0.00    -0.252 OA
BRANCH   3   5
ATOM      5  C   UNL A   1      41.200  21.666  26.788  1.00  0.00     0.126 C 
ATOM      6  C   UNL A   1      41.189  21.833  28.306  1.00  0.00     0.025 C 
BRANCH   5   7
ATOM      7  C   UNL A   1      39.799  21.626  26.196  1.00  0.00    -0.034 A 
ATOM      8  C   UNL A   1      37.141  21.584  25.182  1.00  0.00    -0.018 A 
ATOM      9  C   UNL A   1      37.942  20.432  25.172  1.00  0.00     0.009 A 
ATOM     10  C   UNL A   1      37.706  22.765  25.682  1.00  0.00     0.009 A 
ATOM     11  C   UNL A   1      39.248  20.450  25.674  1.00  0.00     0.005 A 
ATOM     12  C   UNL A   1      39.013  22.787  26.182  1.00  0.00     0.005 A 
BRANCH   8  13
ATOM     13  C   UNL A   1      35.741  21.543  24.723  1.00  0.00    -0.018 A 
ATOM     14  C   UNL A   1      33.584  20.392  24.526  1.00  0.00    -0.044 A 
ATOM     15  C   UNL A   1      33.089  21.458  23.764  1.00  0.00     0.004 A 
ATOM     16  C   UNL A   1      34.908  20.445  24.998  1.00  0.00     0.012 A 
ATOM     17  C   UNL A   1      33.897  22.557  23.488  1.00  0.00     0.001 A 
ATOM     18  C   UNL A   1      35.209  22.597  23.961  1.00  0.00     0.009 A 
BRANCH  14  19
ATOM     19  C   UNL A   1      32.723  19.183  24.803  1.00  0.00     0.062 C 
BRANCH  19  20
ATOM     20  C   UNL A   1      32.529  18.334  23.578  1.00  0.00    -0.030 C 
ATOM     21  C   UNL A   1      33.425  17.450  23.118  1.00  0.00     0.004 C 
ENDBRANCH  19  20
ENDBRANCH  14  19
ENDBRANCH   8  13
ENDBRANCH   5   7
ENDBRANCH   3   5
ENDBRANCH   2   3
ENDBRANCH   1   2
BRANCH   1  22
ATOM     22  C   UNL A   1      44.139  22.658  24.389  1.00  0.00     0.275 C 
BRANCH  22  23
ATOM     23  O   UNL A   1      43.408  23.838  24.772  1.00  0.00    -0.458 OA
BRANCH  23  24
ATOM     24  C   UNL A   1      44.167  24.898  25.132  1.00  0.00     0.338 C 
ATOM     25  O   UNL A   1      45.205  25.283  24.626  1.00  0.00    -0.246 OA
BRANCH  24  26
ATOM     26  C   UNL A   1      43.496  25.621  26.221  1.00  0.00     0.060 A 
ATOM     27  C   UNL A   1      43.913  26.922  26.509  1.00  0.00     0.016 A 
ATOM     28  C   UNL A   1      42.531  24.991  27.005  1.00  0.00     0.016 A 
ATOM     29  C   UNL A   1      43.371  27.603  27.597  1.00  0.00     0.010 A 
ATOM     30  C   UNL A   1      41.979  25.678  28.091  1.00  0.00     0.010 A 
ATOM     31  C   UNL A   1      42.406  26.983  28.400  1.00  0.00    -0.014 A 
BRANCH  31  32
ATOM     32  C   UNL A   1      41.871  27.686  29.589  1.00  0.00     0.031 A 
ATOM     33  C   UNL A   1      40.641  28.538  29.465  1.00  0.00     0.074 A 
ATOM     34  C   UNL A   1      42.488  27.556  30.778  1.00  0.00     0.049 A 
ATOM     35  N   UNL A   1      40.070  29.302  30.360  1.00  0.00    -0.248 NA
ATOM     36  C   UNL A   1      39.963  28.530  28.159  1.00  0.00     0.031 C 
ATOM     37  C   UNL A   1      43.666  26.726  31.033  1.00  0.00     0.029 A 
ATOM     38  N   UNL A   1      42.210  28.126  31.995  1.00  0.00    -0.354 N 
ATOM     39  C   UNL A   1      38.984  29.887  29.722  1.00  0.00     0.074 A 
ATOM     40  C   UNL A   1      38.977  29.393  28.361  1.00  0.00     0.031 C 
ATOM     41  C   UNL A   1      44.010  26.842  32.326  1.00  0.00     0.029 A 
ATOM     42  C   UNL A   1      43.105  27.785  32.977  1.00  0.00     0.049 A 
ATOM     43  H   UNL A   1      41.440  28.722  32.148  1.00  0.00     0.167 HD
ATOM     44  C   UNL A   1      38.078  30.755  30.228  1.00  0.00     0.037 A 
ATOM     45  C   UNL A   1      43.201  28.209  34.252  1.00  0.00     0.037 A 
ATOM     46  C   UNL A   1      38.069  31.220  31.590  1.00  0.00     0.049 A 
ATOM     47  C   UNL A   1      42.209  29.212  34.772  1.00  0.00     0.074 A 
ATOM     48  C   UNL A   1      37.166  32.071  32.205  1.00  0.00     0.029 A 
ATOM     49  N   UNL A   1      39.009  30.874  32.548  1.00  0.00    -0.354 N 
ATOM     50  N   UNL A   1      41.181  29.750  34.162  1.00  0.00    -0.248 NA
ATOM     51  C   UNL A   1      42.398  29.674  36.154  1.00  0.00     0.031 C 
ATOM     52  C   UNL A   1      37.580  32.267  33.527  1.00  0.00     0.029 A 
ATOM     53  C   UNL A   1      38.721  31.511  33.743  1.00  0.00     0.049 A 
ATOM     54  H   UNL A   1      39.769  30.265  32.400  1.00  0.00     0.167 HD
ATOM     55  C   UNL A   1      40.588  30.595  35.090  1.00  0.00     0.074 A 
ATOM     56  C   UNL A   1      41.365  30.491  36.308  1.00  0.00     0.031 C 
ATOM     57  C   UNL A   1      39.499  31.388  34.947  1.00  0.00     0.037 A 
BRANCH  44  58
ATOM     58  C   UNL A   1      37.030  31.284  29.298  1.00  0.00     0.057 A 
ATOM     59  C   UNL A   1      35.912  30.524  28.932  1.00  0.00     0.134 A 
ATOM     60  C   UNL A   1      37.114  32.593  28.808  1.00  0.00     0.134 A 
ATOM     61  F   UNL A   1      35.781  29.260  29.359  1.00  0.00    -0.206 F 
ATOM     62  C   UNL A   1      34.920  31.045  28.099  1.00  0.00     0.040 A 
ATOM     63  C   UNL A   1      36.119  33.131  27.990  1.00  0.00     0.040 A 
ATOM     64  F   UNL A   1      38.157  33.374  29.125  1.00  0.00    -0.206 F 
ATOM     65  C   UNL A   1      35.019  32.355  27.631  1.00  0.00     0.006 A 
ENDBRANCH  44  58
BRANCH  45  66
ATOM     66  C   UNL A   1      44.292  27.709  35.124  1.00  0.00     0.057 A 
ATOM     67  C   UNL A   1      44.108  26.586  35.938  1.00  0.00     0.134 A 
ATOM     68  C   UNL A   1      45.531  28.357  35.185  1.00  0.00     0.134 A 
ATOM     69  F   UNL A   1      42.934  25.938  35.940  1.00  0.00    -0.206 F 
ATOM     70  C   UNL A   1      45.113  26.134  36.795  1.00  0.00     0.040 A 
ATOM     71  C   UNL A   1      46.552  27.902  36.020  1.00  0.00     0.040 A 
ATOM     72  F   UNL A   1      45.767  29.441  34.431  1.00  0.00    -0.206 F 
ATOM     73  C   UNL A   1      46.341  26.791  36.834  1.00  0.00     0.006 A 
ENDBRANCH  45  66
BRANCH  57  74
ATOM     74  C   UNL A   1      39.067  32.177  36.145  1.00  0.00     0.057 A 
ATOM     75  C   UNL A   1      38.154  31.663  37.074  1.00  0.00     0.134 A 
ATOM     76  C   UNL A   1      39.594  33.452  36.388  1.00  0.00     0.134 A 
ATOM     77  F   UNL A   1      37.603  30.454  36.888  1.00  0.00    -0.206 F 
ATOM     78  C   UNL A   1      37.767  32.398  38.196  1.00  0.00     0.040 A 
ATOM     79  C   UNL A   1      39.230  34.186  37.516  1.00  0.00     0.040 A 
ATOM     80  F   UNL A   1      40.478  33.996  35.539  1.00  0.00    -0.206 F 
ATOM     81  C   UNL A   1      38.310  33.661  38.422  1.00  0.00     0.006 A 
ENDBRANCH  57  74
ENDBRANCH  31  32
ENDBRANCH  24  26
ENDBRANCH  23  24
ENDBRANCH  22  23
ENDBRANCH   1  22
TORSDOF 15
ENDMDL
MODEL 3
REMARK VINA RESULT:     -11.6      2.030      2.958
REMARK SMILES C=CCc1cccc(-c2ccc([C@@H](C)C(=O)OCCOC(=O)c3ccc(-c4c5nc(c(-c6c(F)cccc6F)c6ccc([nH]6)c(-c6c(F)cccc6F)c6nc(c(-c7c(F)cccc7F)c7ccc4[nH]7)C=C6)C=C5)cc3)cc2)c1
REMARK SMILES IDX 18 1 17 2 15 3 16 4 13 5 14 6 12 7 9 8 10 9 78 10 11 11
REMARK SMILES IDX 77 12 8 13 4 14 5 15 79 16 6 17 7 18 3 19 2 20 1 21 19 22
REMARK SMILES IDX 20 23 21 24 22 25 23 26 24 27 76 28 25 29 75 30 26 31 27 32
REMARK SMILES IDX 28 33 69 34 29 35 74 36 68 37 70 38 30 39 73 40 67 41 66 42
REMARK SMILES IDX 31 44 57 45 40 46 56 47 41 48 44 49 55 50 71 51 42 52 43 53
REMARK SMILES IDX 54 55 72 56 45 57 32 58 33 59 38 60 34 61 35 62 37 63 39 64
REMARK SMILES IDX 36 65 58 66 59 67 64 68 60 69 61 70 63 71 65 72 62 73 46 74
REMARK SMILES IDX 47 75 52 76 48 77 49 78 51 79 53 80 50 81
REMARK H PARENT 70 43 44 54
REMARK Flexibility Score: inf
ROOT
ATOM      1  C   UNL A   1      43.913  21.626  25.512  1.00  0.00     0.274 C 
ENDROOT
BRANCH   1   2
ATOM      2  O   UNL A   1      42.690  20.882  25.361  1.00  0.00    -0.462 OA
BRANCH   2   3
ATOM      3  C   UNL A   1      41.930  20.716  26.475  1.00  0.00     0.313 C 
ATOM      4  O   UNL A   1      41.670  19.626  26.977  1.00  0.00    -0.252 OA
BRANCH   3   5
ATOM      5  C   UNL A   1      41.372  22.017  27.036  1.00  0.00     0.126 C 
ATOM      6  C   UNL A   1      41.473  22.012  28.560  1.00  0.00     0.025 C 
BRANCH   5   7
ATOM      7  C   UNL A   1      39.988  22.415  26.545  1.00  0.00    -0.034 A 
ATOM      8  C   UNL A   1      37.433  23.144  25.526  1.00  0.00    -0.018 A 
ATOM      9  C   UNL A   1      38.185  24.033  26.310  1.00  0.00     0.009 A 
ATOM     10  C   UNL A   1      37.972  21.872  25.287  1.00  0.00     0.009 A 
ATOM     11  C   UNL A   1      39.443  23.677  26.808  1.00  0.00     0.005 A 
ATOM     12  C   UNL A   1      39.229  21.513  25.785  1.00  0.00     0.005 A 
BRANCH   8  13
ATOM     13  C   UNL A   1      36.143  23.548  24.940  1.00  0.00    -0.018 A 
ATOM     14  C   UNL A   1      34.050  24.824  25.040  1.00  0.00    -0.044 A 
ATOM     15  C   UNL A   1      33.643  24.244  23.833  1.00  0.00     0.004 A 
ATOM     16  C   UNL A   1      35.298  24.469  25.583  1.00  0.00     0.012 A 
ATOM     17  C   UNL A   1      34.470  23.335  23.177  1.00  0.00     0.001 A 
ATOM     18  C   UNL A   1      35.705  22.991  23.727  1.00  0.00     0.009 A 
BRANCH  14  19
ATOM     19  C   UNL A   1      33.145  25.787  25.772  1.00  0.00     0.062 C 
BRANCH  19  20
ATOM     20  C   UNL A   1      33.804  27.118  26.001  1.00  0.00    -0.030 C 
ATOM     21  C   UNL A   1      33.204  28.172  26.572  1.00  0.00     0.004 C 
ENDBRANCH  19  20
ENDBRANCH  14  19
ENDBRANCH   8  13
ENDBRANCH   5   7
ENDBRANCH   3   5
ENDBRANCH   2   3
ENDBRANCH   1   2
BRANCH   1  22
ATOM     22  C   UNL A   1      44.099  22.619  24.364  1.00  0.00     0.275 C 
BRANCH  22  23
ATOM     23  O   UNL A   1      43.517  23.895  24.691  1.00  0.00    -0.458 OA
BRANCH  23  24
ATOM     24  C   UNL A   1      44.389  24.835  25.120  1.00  0.00     0.338 C 
ATOM     25  O   UNL A   1      45.511  25.061  24.707  1.00  0.00    -0.246 OA
BRANCH  24  26
ATOM     26  C   UNL A   1      43.740  25.656  26.152  1.00  0.00     0.060 A 
ATOM     27  C   UNL A   1      44.128  26.991  26.279  1.00  0.00     0.016 A 
ATOM     28  C   UNL A   1      42.826  25.091  27.039  1.00  0.00     0.016 A 
ATOM     29  C   UNL A   1      43.610  27.773  27.308  1.00  0.00     0.010 A 
ATOM     30  C   UNL A   1      42.296  25.880  28.067  1.00  0.00     0.010 A 
ATOM     31  C   UNL A   1      42.695  27.221  28.214  1.00  0.00    -0.014 A 
BRANCH  31  32
ATOM     32  C   UNL A   1      42.187  28.037  29.340  1.00  0.00     0.031 A 
ATOM     33  C   UNL A   1      42.913  28.034  30.654  1.00  0.00     0.074 A 
ATOM     34  C   UNL A   1      41.078  28.782  29.181  1.00  0.00     0.049 A 
ATOM     35  N   UNL A   1      42.582  28.606  31.784  1.00  0.00    -0.248 NA
ATOM     36  C   UNL A   1      44.180  27.287  30.706  1.00  0.00     0.031 C 
ATOM     37  C   UNL A   1      40.309  28.899  27.941  1.00  0.00     0.029 A 
ATOM     38  N   UNL A   1      40.403  29.580  30.070  1.00  0.00    -0.354 N 
ATOM     39  C   UNL A   1      43.581  28.267  32.687  1.00  0.00     0.074 A 
ATOM     40  C   UNL A   1      44.530  27.435  31.977  1.00  0.00     0.031 C 
ATOM     41  C   UNL A   1      39.267  29.720  28.150  1.00  0.00     0.029 A 
ATOM     42  C   UNL A   1      39.271  30.151  29.545  1.00  0.00     0.049 A 
ATOM     43  H   UNL A   1      40.704  29.729  30.996  1.00  0.00     0.167 HD
ATOM     44  C   UNL A   1      43.694  28.619  33.988  1.00  0.00     0.037 A 
ATOM     45  C   UNL A   1      38.328  30.912  30.132  1.00  0.00     0.037 A 
ATOM     46  C   UNL A   1      42.766  29.473  34.684  1.00  0.00     0.049 A 
ATOM     47  C   UNL A   1      38.455  31.246  31.592  1.00  0.00     0.074 A 
ATOM     48  C   UNL A   1      42.820  29.917  35.994  1.00  0.00     0.029 A 
ATOM     49  N   UNL A   1      41.617  30.008  34.126  1.00  0.00    -0.354 N 
ATOM     50  N   UNL A   1      39.408  30.929  32.433  1.00  0.00    -0.248 NA
ATOM     51  C   UNL A   1      37.368  32.037  32.187  1.00  0.00     0.031 C 
ATOM     52  C   UNL A   1      41.682  30.695  36.238  1.00  0.00     0.029 A 
ATOM     53  C   UNL A   1      40.940  30.760  35.071  1.00  0.00     0.049 A 
ATOM     54  H   UNL A   1      41.324  29.873  33.195  1.00  0.00     0.167 HD
ATOM     55  C   UNL A   1      39.050  31.497  33.648  1.00  0.00     0.074 A 
ATOM     56  C   UNL A   1      37.795  32.189  33.432  1.00  0.00     0.031 C 
ATOM     57  C   UNL A   1      39.699  31.450  34.836  1.00  0.00     0.037 A 
BRANCH  44  58
ATOM     58  C   UNL A   1      44.851  28.063  34.760  1.00  0.00     0.057 A 
ATOM     59  C   UNL A   1      46.058  28.761  34.891  1.00  0.00     0.134 A 
ATOM     60  C   UNL A   1      44.734  26.837  35.426  1.00  0.00     0.134 A 
ATOM     61  F   UNL A   1      46.236  29.934  34.267  1.00  0.00    -0.206 F 
ATOM     62  C   UNL A   1      47.114  28.250  35.650  1.00  0.00     0.040 A 
ATOM     63  C   UNL A   1      45.775  26.326  36.202  1.00  0.00     0.040 A 
ATOM     64  F   UNL A   1      43.602  26.122  35.343  1.00  0.00    -0.206 F 
ATOM     65  C   UNL A   1      46.971  27.033  36.314  1.00  0.00     0.006 A 
ENDBRANCH  44  58
BRANCH  45  66
ATOM     66  C   UNL A   1      37.163  31.392  29.349  1.00  0.00     0.057 A 
ATOM     67  C   UNL A   1      36.062  30.561  29.111  1.00  0.00     0.134 A 
ATOM     68  C   UNL A   1      37.135  32.678  28.797  1.00  0.00     0.134 A 
ATOM     69  F   UNL A   1      36.044  29.310  29.593  1.00  0.00    -0.206 F 
ATOM     70  C   UNL A   1      34.981  30.987  28.338  1.00  0.00     0.040 A 
ATOM     71  C   UNL A   1      36.050  33.124  28.042  1.00  0.00     0.040 A 
ATOM     72  F   UNL A   1      38.162  33.519  28.987  1.00  0.00    -0.206 F 
ATOM     73  C   UNL A   1      34.972  32.274  27.804  1.00  0.00     0.006 A 
ENDBRANCH  45  66
BRANCH  57  74
ATOM     74  C   UNL A   1      39.081  32.192  35.982  1.00  0.00     0.057 A 
ATOM     75  C   UNL A   1      39.346  33.548  36.209  1.00  0.00     0.134 A 
ATOM     76  C   UNL A   1      38.187  31.549  36.848  1.00  0.00     0.134 A 
ATOM     77  F   UNL A   1      40.205  34.213  35.422  1.00  0.00    -0.206 F 
ATOM     78  C   UNL A   1      38.756  34.236  37.269  1.00  0.00     0.040 A 
ATOM     79  C   UNL A   1      37.575  32.233  37.899  1.00  0.00     0.040 A 
ATOM     80  F   UNL A   1      37.888  30.253  36.679  1.00  0.00    -0.206 F 
ATOM     81  C   UNL A   1      37.863  33.579  38.114  1.00  0.00     0.006 A 
ENDBRANCH  57  74
ENDBRANCH  31  32
ENDBRANCH  24  26
ENDBRANCH  23  24
ENDBRANCH  22  23
ENDBRANCH   1  22
TORSDOF 15
ENDMDL
