MODEL 1
REMARK VINA RESULT:     -11.7      0.000      0.000
REMARK SMILES Cc1ccccc1OCC(=O)N1C[C@H](O)C[C@H]1C(=O)OCCOC(=O)c1ccc(-c2c3nc(c(-c4c(F)cccc4F)c4ccc([nH]4)c(-c4c(F)cccc4F)c4nc(c(-c5c(F)cccc5F)c5ccc2[nH]5)C=C4)C=C3)cc1
REMARK SMILES IDX 21 1 20 2 18 3 19 4 17 5 12 6 13 7 14 8 16 9 10 10 11 11
REMARK SMILES IDX 9 12 8 13 7 14 1 15 2 16 3 17 4 18 6 19 5 20 15 21 22 23
REMARK SMILES IDX 23 24 24 25 25 26 26 27 27 28 79 29 28 30 78 31 29 32 30 33
REMARK SMILES IDX 31 34 72 35 32 36 77 37 71 38 73 39 33 40 76 41 70 42 69 43
REMARK SMILES IDX 34 45 60 46 43 47 59 48 44 49 47 50 58 51 74 52 45 53 46 54
REMARK SMILES IDX 57 56 75 57 48 58 35 59 36 60 41 61 37 62 38 63 40 64 42 65
REMARK SMILES IDX 39 66 61 67 62 68 67 69 63 70 64 71 66 72 68 73 65 74 49 75
REMARK SMILES IDX 50 76 55 77 51 78 52 79 54 80 56 81 53 82
REMARK H PARENT 15 22 73 44 47 55
REMARK Flexibility Score: inf
ROOT
ATOM      1  C   UNL A   1      33.597  28.651  27.178  1.00  0.00     0.274 C 
ENDROOT
BRANCH   1   2
ATOM      2  O   UNL A   1      33.625  27.995  25.912  1.00  0.00    -0.461 OA
BRANCH   2   3
ATOM      3  C   UNL A   1      32.406  27.671  25.387  1.00  0.00     0.329 C 
ATOM      4  O   UNL A   1      31.584  26.987  25.955  1.00  0.00    -0.250 OA
BRANCH   3   5
ATOM      5  C   UNL A   1      32.179  28.420  24.052  1.00  0.00     0.198 C 
ATOM      6  N   UNL A   1      32.060  27.499  22.924  1.00  0.00    -0.323 N 
ATOM      7  C   UNL A   1      30.736  27.583  22.330  1.00  0.00     0.152 C 
ATOM      8  C   UNL A   1      30.338  29.029  22.625  1.00  0.00     0.136 C 
ATOM      9  C   UNL A   1      30.892  29.256  24.027  1.00  0.00     0.070 C 
BRANCH   6  10
ATOM     10  C   UNL A   1      33.165  26.878  22.394  1.00  0.00     0.261 C 
ATOM     11  O   UNL A   1      34.022  27.522  21.784  1.00  0.00    -0.271 OA
BRANCH  10  12
ATOM     12  C   UNL A   1      33.281  25.354  22.505  1.00  0.00     0.329 C 
BRANCH  12  13
ATOM     13  O   UNL A   1      32.773  24.617  23.596  1.00  0.00    -0.484 OA
BRANCH  13  14
ATOM     14  C   UNL A   1      33.582  24.160  24.594  1.00  0.00     0.122 A 
ATOM     15  C   UNL A   1      31.850  23.568  26.414  1.00  0.00     0.048 C 
ATOM     16  C   UNL A   1      33.237  23.654  25.853  1.00  0.00    -0.009 A 
ATOM     17  C   UNL A   1      34.276  23.209  26.704  1.00  0.00     0.007 A 
ATOM     18  C   UNL A   1      35.619  23.327  26.348  1.00  0.00     0.001 A 
ATOM     19  C   UNL A   1      34.941  24.304  24.265  1.00  0.00     0.047 A 
ATOM     20  C   UNL A   1      35.954  23.893  25.129  1.00  0.00     0.004 A 
ENDBRANCH  13  14
ENDBRANCH  12  13
ENDBRANCH  10  12
ENDBRANCH   6  10
BRANCH   8  21
ATOM     21  O   UNL A   1      30.970  29.922  21.706  1.00  0.00    -0.391 OA
ATOM     22  H   UNL A   1      30.398  30.691  21.558  1.00  0.00     0.211 HD
ENDBRANCH   8  21
ENDBRANCH   3   5
ENDBRANCH   2   3
ENDBRANCH   1   2
BRANCH   1  23
ATOM     23  C   UNL A   1      33.828  30.167  27.039  1.00  0.00     0.275 C 
BRANCH  23  24
ATOM     24  O   UNL A   1      35.169  30.711  27.241  1.00  0.00    -0.458 OA
BRANCH  24  25
ATOM     25  C   UNL A   1      35.956  30.741  28.348  1.00  0.00     0.338 C 
ATOM     26  O   UNL A   1      35.740  31.473  29.303  1.00  0.00    -0.246 OA
BRANCH  25  27
ATOM     27  C   UNL A   1      37.108  29.836  28.372  1.00  0.00     0.060 A 
ATOM     28  C   UNL A   1      38.016  29.819  27.300  1.00  0.00     0.016 A 
ATOM     29  C   UNL A   1      37.318  29.067  29.504  1.00  0.00     0.016 A 
ATOM     30  C   UNL A   1      39.225  29.132  27.426  1.00  0.00     0.010 A 
ATOM     31  C   UNL A   1      38.551  28.492  29.676  1.00  0.00     0.010 A 
ATOM     32  C   UNL A   1      39.504  28.504  28.638  1.00  0.00    -0.014 A 
BRANCH  32  33
ATOM     33  C   UNL A   1      40.660  27.657  28.907  1.00  0.00     0.031 A 
ATOM     34  C   UNL A   1      40.715  26.208  28.637  1.00  0.00     0.074 A 
ATOM     35  C   UNL A   1      41.754  28.375  29.232  1.00  0.00     0.049 A 
ATOM     36  N   UNL A   1      41.727  25.458  28.904  1.00  0.00    -0.248 NA
ATOM     37  C   UNL A   1      39.608  25.452  28.079  1.00  0.00     0.031 C 
ATOM     38  C   UNL A   1      43.162  28.030  29.192  1.00  0.00     0.029 A 
ATOM     39  N   UNL A   1      41.721  29.630  29.856  1.00  0.00    -0.354 N 
ATOM     40  C   UNL A   1      41.523  24.220  28.327  1.00  0.00     0.074 A 
ATOM     41  C   UNL A   1      40.145  24.237  27.914  1.00  0.00     0.031 C 
ATOM     42  C   UNL A   1      43.824  28.875  30.006  1.00  0.00     0.029 A 
ATOM     43  C   UNL A   1      42.814  29.645  30.725  1.00  0.00     0.049 A 
ATOM     44  H   UNL A   1      41.065  30.350  29.712  1.00  0.00     0.167 HD
ATOM     45  C   UNL A   1      42.599  23.396  28.171  1.00  0.00     0.037 A 
ATOM     46  C   UNL A   1      42.572  29.551  32.068  1.00  0.00     0.037 A 
ATOM     47  C   UNL A   1      43.713  23.912  28.969  1.00  0.00     0.049 A 
ATOM     48  C   UNL A   1      43.208  28.313  32.645  1.00  0.00     0.074 A 
ATOM     49  C   UNL A   1      44.802  24.703  28.651  1.00  0.00     0.029 A 
ATOM     50  N   UNL A   1      43.590  23.935  30.356  1.00  0.00    -0.354 N 
ATOM     51  N   UNL A   1      43.304  27.169  32.021  1.00  0.00    -0.248 NA
ATOM     52  C   UNL A   1      43.872  28.319  33.942  1.00  0.00     0.031 C 
ATOM     53  C   UNL A   1      45.242  25.322  29.852  1.00  0.00     0.029 A 
ATOM     54  C   UNL A   1      44.457  24.861  30.899  1.00  0.00     0.049 A 
ATOM     55  H   UNL A   1      42.972  23.371  30.875  1.00  0.00     0.167 HD
ATOM     56  C   UNL A   1      44.096  26.331  32.761  1.00  0.00     0.074 A 
ATOM     57  C   UNL A   1      44.402  27.087  33.965  1.00  0.00     0.031 C 
ATOM     58  C   UNL A   1      44.497  25.097  32.334  1.00  0.00     0.037 A 
BRANCH  45  59
ATOM     59  C   UNL A   1      42.764  22.284  27.145  1.00  0.00     0.057 A 
ATOM     60  C   UNL A   1      41.983  21.109  27.251  1.00  0.00     0.134 A 
ATOM     61  C   UNL A   1      43.728  22.225  26.120  1.00  0.00     0.134 A 
ATOM     62  F   UNL A   1      40.990  21.004  28.145  1.00  0.00    -0.206 F 
ATOM     63  C   UNL A   1      42.192  19.965  26.461  1.00  0.00     0.040 A 
ATOM     64  C   UNL A   1      43.938  21.092  25.315  1.00  0.00     0.040 A 
ATOM     65  F   UNL A   1      44.536  23.247  25.834  1.00  0.00    -0.206 F 
ATOM     66  C   UNL A   1      43.182  19.948  25.494  1.00  0.00     0.006 A 
ENDBRANCH  45  59
BRANCH  46  67
ATOM     67  C   UNL A   1      41.248  30.121  32.482  1.00  0.00     0.057 A 
ATOM     68  C   UNL A   1      40.188  29.236  32.776  1.00  0.00     0.134 A 
ATOM     69  C   UNL A   1      41.093  31.442  32.920  1.00  0.00     0.134 A 
ATOM     70  F   UNL A   1      40.259  27.951  32.392  1.00  0.00    -0.206 F 
ATOM     71  C   UNL A   1      39.094  29.611  33.563  1.00  0.00     0.040 A 
ATOM     72  C   UNL A   1      39.987  31.835  33.691  1.00  0.00     0.040 A 
ATOM     73  F   UNL A   1      42.042  32.357  32.686  1.00  0.00    -0.206 F 
ATOM     74  C   UNL A   1      39.005  30.912  34.046  1.00  0.00     0.006 A 
ENDBRANCH  46  67
BRANCH  58  75
ATOM     75  C   UNL A   1      45.081  24.034  33.228  1.00  0.00     0.057 A 
ATOM     76  C   UNL A   1      46.380  24.092  33.755  1.00  0.00     0.134 A 
ATOM     77  C   UNL A   1      44.277  22.985  33.726  1.00  0.00     0.134 A 
ATOM     78  F   UNL A   1      47.208  25.106  33.474  1.00  0.00    -0.206 F 
ATOM     79  C   UNL A   1      46.870  23.135  34.650  1.00  0.00     0.040 A 
ATOM     80  C   UNL A   1      44.738  22.061  34.667  1.00  0.00     0.040 A 
ATOM     81  F   UNL A   1      43.000  22.830  33.350  1.00  0.00    -0.206 F 
ATOM     82  C   UNL A   1      46.046  22.121  35.118  1.00  0.00     0.006 A 
ENDBRANCH  58  75
ENDBRANCH  32  33
ENDBRANCH  25  27
ENDBRANCH  24  25
ENDBRANCH  23  24
ENDBRANCH   1  23
TORSDOF 16
ENDMDL
MODEL 2
REMARK VINA RESULT:     -11.5      1.173      1.586
REMARK SMILES Cc1ccccc1OCC(=O)N1C[C@H](O)C[C@H]1C(=O)OCCOC(=O)c1ccc(-c2c3nc(c(-c4c(F)cccc4F)c4ccc([nH]4)c(-c4c(F)cccc4F)c4nc(c(-c5c(F)cccc5F)c5ccc2[nH]5)C=C4)C=C3)cc1
REMARK SMILES IDX 21 1 20 2 18 3 19 4 17 5 12 6 13 7 14 8 16 9 10 10 11 11
REMARK SMILES IDX 9 12 8 13 7 14 1 15 2 16 3 17 4 18 6 19 5 20 15 21 22 23
REMARK SMILES IDX 23 24 24 25 25 26 26 27 27 28 79 29 28 30 78 31 29 32 30 33
REMARK SMILES IDX 31 34 72 35 32 36 77 37 71 38 73 39 33 40 76 41 70 42 69 43
REMARK SMILES IDX 34 45 60 46 43 47 59 48 44 49 47 50 58 51 74 52 45 53 46 54
REMARK SMILES IDX 57 56 75 57 48 58 35 59 36 60 41 61 37 62 38 63 40 64 42 65
REMARK SMILES IDX 39 66 61 67 62 68 67 69 63 70 64 71 66 72 68 73 65 74 49 75
REMARK SMILES IDX 50 76 55 77 51 78 52 79 54 80 56 81 53 82
REMARK H PARENT 15 22 73 44 47 55
REMARK Flexibility Score: inf
ROOT
ATOM      1  C   UNL A   1      32.901  30.212  26.262  1.00  0.00     0.274 C 
ENDROOT
BRANCH   1   2
ATOM      2  O   UNL A   1      31.627  29.615  26.489  1.00  0.00    -0.461 OA
BRANCH   2   3
ATOM      3  C   UNL A   1      31.640  28.275  26.757  1.00  0.00     0.329 C 
ATOM      4  O   UNL A   1      31.550  27.807  27.870  1.00  0.00    -0.250 OA
BRANCH   3   5
ATOM      5  C   UNL A   1      31.633  27.463  25.440  1.00  0.00     0.198 C 
ATOM      6  N   UNL A   1      31.074  26.127  25.628  1.00  0.00    -0.323 N 
ATOM      7  C   UNL A   1      29.852  25.967  24.855  1.00  0.00     0.152 C 
ATOM      8  C   UNL A   1      30.086  26.913  23.679  1.00  0.00     0.136 C 
ATOM      9  C   UNL A   1      30.787  28.101  24.329  1.00  0.00     0.070 C 
BRANCH   6  10
ATOM     10  C   UNL A   1      31.797  25.133  26.243  1.00  0.00     0.261 C 
ATOM     11  O   UNL A   1      31.323  24.495  27.185  1.00  0.00    -0.271 OA
BRANCH  10  12
ATOM     12  C   UNL A   1      33.238  24.878  25.786  1.00  0.00     0.329 C 
BRANCH  12  13
ATOM     13  O   UNL A   1      34.163  24.118  26.532  1.00  0.00    -0.484 OA
BRANCH  13  14
ATOM     14  C   UNL A   1      35.034  23.256  25.934  1.00  0.00     0.122 A 
ATOM     15  C   UNL A   1      33.589  21.125  25.757  1.00  0.00     0.048 C 
ATOM     16  C   UNL A   1      34.835  21.928  25.538  1.00  0.00    -0.009 A 
ATOM     17  C   UNL A   1      35.902  21.252  24.900  1.00  0.00     0.007 A 
ATOM     18  C   UNL A   1      37.150  21.848  24.727  1.00  0.00     0.001 A 
ATOM     19  C   UNL A   1      36.308  23.830  25.783  1.00  0.00     0.047 A 
ATOM     20  C   UNL A   1      37.359  23.139  25.185  1.00  0.00     0.004 A 
ENDBRANCH  13  14
ENDBRANCH  12  13
ENDBRANCH  10  12
ENDBRANCH   6  10
BRANCH   8  21
ATOM     21  O   UNL A   1      30.951  26.312  22.714  1.00  0.00    -0.391 OA
ATOM     22  H   UNL A   1      31.780  26.050  23.143  1.00  0.00     0.211 HD
ENDBRANCH   8  21
ENDBRANCH   3   5
ENDBRANCH   2   3
ENDBRANCH   1   2
BRANCH   1  23
ATOM     23  C   UNL A   1      33.563  30.658  27.580  1.00  0.00     0.275 C 
BRANCH  23  24
ATOM     24  O   UNL A   1      34.854  30.091  27.964  1.00  0.00    -0.458 OA
BRANCH  24  25
ATOM     25  C   UNL A   1      36.088  30.657  28.024  1.00  0.00     0.338 C 
ATOM     26  O   UNL A   1      36.270  31.866  28.034  1.00  0.00    -0.246 OA
BRANCH  25  27
ATOM     27  C   UNL A   1      37.236  29.748  28.083  1.00  0.00     0.060 A 
ATOM     28  C   UNL A   1      38.191  29.747  27.053  1.00  0.00     0.016 A 
ATOM     29  C   UNL A   1      37.393  28.959  29.210  1.00  0.00     0.016 A 
ATOM     30  C   UNL A   1      39.392  29.055  27.222  1.00  0.00     0.010 A 
ATOM     31  C   UNL A   1      38.617  28.378  29.427  1.00  0.00     0.010 A 
ATOM     32  C   UNL A   1      39.615  28.405  28.434  1.00  0.00    -0.014 A 
BRANCH  32  33
ATOM     33  C   UNL A   1      40.756  27.550  28.739  1.00  0.00     0.031 A 
ATOM     34  C   UNL A   1      40.798  26.096  28.499  1.00  0.00     0.074 A 
ATOM     35  C   UNL A   1      41.853  28.262  29.068  1.00  0.00     0.049 A 
ATOM     36  N   UNL A   1      41.797  25.339  28.798  1.00  0.00    -0.248 NA
ATOM     37  C   UNL A   1      39.692  25.341  27.938  1.00  0.00     0.031 C 
ATOM     38  C   UNL A   1      43.257  27.899  29.060  1.00  0.00     0.029 A 
ATOM     39  N   UNL A   1      41.825  29.529  29.667  1.00  0.00    -0.354 N 
ATOM     40  C   UNL A   1      41.587  24.092  28.242  1.00  0.00     0.074 A 
ATOM     41  C   UNL A   1      40.217  24.117  27.805  1.00  0.00     0.031 C 
ATOM     42  C   UNL A   1      43.915  28.753  29.868  1.00  0.00     0.029 A 
ATOM     43  C   UNL A   1      42.902  29.549  30.554  1.00  0.00     0.049 A 
ATOM     44  H   UNL A   1      41.180  30.253  29.497  1.00  0.00     0.167 HD
ATOM     45  C   UNL A   1      42.656  23.253  28.122  1.00  0.00     0.037 A 
ATOM     46  C   UNL A   1      42.637  29.485  31.894  1.00  0.00     0.037 A 
ATOM     47  C   UNL A   1      43.762  23.771  28.928  1.00  0.00     0.049 A 
ATOM     48  C   UNL A   1      43.247  28.252  32.507  1.00  0.00     0.074 A 
ATOM     49  C   UNL A   1      44.866  24.543  28.614  1.00  0.00     0.029 A 
ATOM     50  N   UNL A   1      43.616  23.824  30.312  1.00  0.00    -0.354 N 
ATOM     51  N   UNL A   1      43.341  27.094  31.907  1.00  0.00    -0.248 NA
ATOM     52  C   UNL A   1      43.889  28.276  33.815  1.00  0.00     0.031 C 
ATOM     53  C   UNL A   1      45.293  25.181  29.810  1.00  0.00     0.029 A 
ATOM     54  C   UNL A   1      44.485  24.751  30.851  1.00  0.00     0.049 A 
ATOM     55  H   UNL A   1      42.983  23.278  30.832  1.00  0.00     0.167 HD
ATOM     56  C   UNL A   1      44.110  26.262  32.678  1.00  0.00     0.074 A 
ATOM     57  C   UNL A   1      44.405  27.038  33.871  1.00  0.00     0.031 C 
ATOM     58  C   UNL A   1      44.504  25.015  32.282  1.00  0.00     0.037 A 
BRANCH  45  59
ATOM     59  C   UNL A   1      42.825  22.118  27.121  1.00  0.00     0.057 A 
ATOM     60  C   UNL A   1      42.036  20.950  27.243  1.00  0.00     0.134 A 
ATOM     61  C   UNL A   1      43.800  22.032  26.108  1.00  0.00     0.134 A 
ATOM     62  F   UNL A   1      41.032  20.870  28.129  1.00  0.00    -0.206 F 
ATOM     63  C   UNL A   1      42.246  19.789  26.480  1.00  0.00     0.040 A 
ATOM     64  C   UNL A   1      44.012  20.882  25.329  1.00  0.00     0.040 A 
ATOM     65  F   UNL A   1      44.617  23.043  25.809  1.00  0.00    -0.206 F 
ATOM     66  C   UNL A   1      43.246  19.746  25.524  1.00  0.00     0.006 A 
ENDBRANCH  45  59
BRANCH  46  67
ATOM     67  C   UNL A   1      41.312  30.079  32.274  1.00  0.00     0.057 A 
ATOM     68  C   UNL A   1      40.238  29.212  32.568  1.00  0.00     0.134 A 
ATOM     69  C   UNL A   1      41.166  31.410  32.682  1.00  0.00     0.134 A 
ATOM     70  F   UNL A   1      40.300  27.918  32.213  1.00  0.00    -0.206 F 
ATOM     71  C   UNL A   1      39.135  29.616  33.329  1.00  0.00     0.040 A 
ATOM     72  C   UNL A   1      40.052  31.832  33.426  1.00  0.00     0.040 A 
ATOM     73  F   UNL A   1      42.130  32.309  32.444  1.00  0.00    -0.206 F 
ATOM     74  C   UNL A   1      39.054  30.927  33.783  1.00  0.00     0.006 A 
ENDBRANCH  46  67
BRANCH  58  75
ATOM     75  C   UNL A   1      45.059  23.963  33.207  1.00  0.00     0.057 A 
ATOM     76  C   UNL A   1      46.351  24.015  33.753  1.00  0.00     0.134 A 
ATOM     77  C   UNL A   1      44.234  22.936  33.715  1.00  0.00     0.134 A 
ATOM     78  F   UNL A   1      47.197  25.012  33.463  1.00  0.00    -0.206 F 
ATOM     79  C   UNL A   1      46.815  23.071  34.675  1.00  0.00     0.040 A 
ATOM     80  C   UNL A   1      44.668  22.026  34.681  1.00  0.00     0.040 A 
ATOM     81  F   UNL A   1      42.960  22.791  33.322  1.00  0.00    -0.206 F 
ATOM     82  C   UNL A   1      45.969  22.078  35.151  1.00  0.00     0.006 A 
ENDBRANCH  58  75
ENDBRANCH  32  33
ENDBRANCH  25  27
ENDBRANCH  24  25
ENDBRANCH  23  24
ENDBRANCH   1  23
TORSDOF 16
ENDMDL
MODEL 3
REMARK VINA RESULT:     -11.4      1.436      2.292
REMARK SMILES Cc1ccccc1OCC(=O)N1C[C@H](O)C[C@H]1C(=O)OCCOC(=O)c1ccc(-c2c3nc(c(-c4c(F)cccc4F)c4ccc([nH]4)c(-c4c(F)cccc4F)c4nc(c(-c5c(F)cccc5F)c5ccc2[nH]5)C=C4)C=C3)cc1
REMARK SMILES IDX 21 1 20 2 18 3 19 4 17 5 12 6 13 7 14 8 16 9 10 10 11 11
REMARK SMILES IDX 9 12 8 13 7 14 1 15 2 16 3 17 4 18 6 19 5 20 15 21 22 23
REMARK SMILES IDX 23 24 24 25 25 26 26 27 27 28 79 29 28 30 78 31 29 32 30 33
REMARK SMILES IDX 31 34 72 35 32 36 77 37 71 38 73 39 33 40 76 41 70 42 69 43
REMARK SMILES IDX 34 45 60 46 43 47 59 48 44 49 47 50 58 51 74 52 45 53 46 54
REMARK SMILES IDX 57 56 75 57 48 58 35 59 36 60 41 61 37 62 38 63 40 64 42 65
REMARK SMILES IDX 39 66 61 67 62 68 67 69 63 70 64 71 66 72 68 73 65 74 49 75
REMARK SMILES IDX 50 76 55 77 51 78 52 79 54 80 56 81 53 82
REMARK H PARENT 15 22 73 44 47 55
REMARK Flexibility Score: inf
ROOT
ATOM      1  C   UNL A   1      32.581  29.676  25.605  1.00  0.00     0.274 C 
ENDROOT
BRANCH   1   2
ATOM      2  O   UNL A   1      31.770  28.508  25.706  1.00  0.00    -0.461 OA
BRANCH   2   3
ATOM      3  C   UNL A   1      30.973  28.244  24.628  1.00  0.00     0.329 C 
ATOM      4  O   UNL A   1      30.543  29.095  23.881  1.00  0.00    -0.250 OA
BRANCH   3   5
ATOM      5  C   UNL A   1      30.834  26.717  24.423  1.00  0.00     0.198 C 
ATOM      6  N   UNL A   1      32.132  26.047  24.426  1.00  0.00    -0.323 N 
ATOM      7  C   UNL A   1      32.234  25.129  25.549  1.00  0.00     0.152 C 
ATOM      8  C   UNL A   1      30.778  24.722  25.770  1.00  0.00     0.136 C 
ATOM      9  C   UNL A   1      30.019  26.020  25.521  1.00  0.00     0.070 C 
BRANCH   6  10
ATOM     10  C   UNL A   1      32.973  26.121  23.341  1.00  0.00     0.261 C 
ATOM     11  O   UNL A   1      33.874  26.962  23.295  1.00  0.00    -0.271 OA
BRANCH  10  12
ATOM     12  C   UNL A   1      32.727  25.189  22.150  1.00  0.00     0.329 C 
BRANCH  12  13
ATOM     13  O   UNL A   1      33.511  24.047  21.886  1.00  0.00    -0.484 OA
BRANCH  13  14
ATOM     14  C   UNL A   1      33.585  23.006  22.763  1.00  0.00     0.122 A 
ATOM     15  C   UNL A   1      35.870  23.449  23.879  1.00  0.00     0.048 C 
ATOM     16  C   UNL A   1      34.586  22.698  23.693  1.00  0.00    -0.009 A 
ATOM     17  C   UNL A   1      34.408  21.564  24.519  1.00  0.00     0.007 A 
ATOM     18  C   UNL A   1      33.307  20.719  24.380  1.00  0.00     0.001 A 
ATOM     19  C   UNL A   1      32.500  22.125  22.611  1.00  0.00     0.047 A 
ATOM     20  C   UNL A   1      32.356  20.992  23.409  1.00  0.00     0.004 A 
ENDBRANCH  13  14
ENDBRANCH  12  13
ENDBRANCH  10  12
ENDBRANCH   6  10
BRANCH   8  21
ATOM     21  O   UNL A   1      30.380  23.740  24.811  1.00  0.00    -0.391 OA
ATOM     22  H   UNL A   1      29.494  23.954  24.480  1.00  0.00     0.211 HD
ENDBRANCH   8  21
ENDBRANCH   3   5
ENDBRANCH   2   3
ENDBRANCH   1   2
BRANCH   1  23
ATOM     23  C   UNL A   1      33.072  30.150  26.985  1.00  0.00     0.275 C 
BRANCH  23  24
ATOM     24  O   UNL A   1      34.453  29.889  27.386  1.00  0.00    -0.458 OA
BRANCH  24  25
ATOM     25  C   UNL A   1      35.438  30.739  27.776  1.00  0.00     0.338 C 
ATOM     26  O   UNL A   1      35.316  31.956  27.764  1.00  0.00    -0.246 OA
BRANCH  25  27
ATOM     27  C   UNL A   1      36.694  30.139  28.235  1.00  0.00     0.060 A 
ATOM     28  C   UNL A   1      36.722  29.369  29.409  1.00  0.00     0.016 A 
ATOM     29  C   UNL A   1      37.820  30.283  27.442  1.00  0.00     0.016 A 
ATOM     30  C   UNL A   1      37.856  28.616  29.717  1.00  0.00     0.010 A 
ATOM     31  C   UNL A   1      38.887  29.455  27.678  1.00  0.00     0.010 A 
ATOM     32  C   UNL A   1      38.922  28.631  28.821  1.00  0.00    -0.014 A 
BRANCH  32  33
ATOM     33  C   UNL A   1      40.217  27.995  29.033  1.00  0.00     0.031 A 
ATOM     34  C   UNL A   1      40.582  26.655  28.538  1.00  0.00     0.074 A 
ATOM     35  C   UNL A   1      41.125  28.849  29.549  1.00  0.00     0.049 A 
ATOM     36  N   UNL A   1      41.716  26.085  28.754  1.00  0.00    -0.248 NA
ATOM     37  C   UNL A   1      39.678  25.803  27.786  1.00  0.00     0.031 C 
ATOM     38  C   UNL A   1      42.575  28.800  29.558  1.00  0.00     0.029 A 
ATOM     39  N   UNL A   1      40.809  29.945  30.363  1.00  0.00    -0.354 N 
ATOM     40  C   UNL A   1      41.795  24.950  27.970  1.00  0.00     0.074 A 
ATOM     41  C   UNL A   1      40.461  24.766  27.466  1.00  0.00     0.031 C 
ATOM     42  C   UNL A   1      43.016  29.606  30.543  1.00  0.00     0.029 A 
ATOM     43  C   UNL A   1      41.841  30.025  31.301  1.00  0.00     0.049 A 
ATOM     44  H   UNL A   1      40.025  30.534  30.290  1.00  0.00     0.167 HD
ATOM     45  C   UNL A   1      43.025  24.395  27.763  1.00  0.00     0.037 A 
ATOM     46  C   UNL A   1      41.572  29.654  32.590  1.00  0.00     0.037 A 
ATOM     47  C   UNL A   1      43.975  24.974  28.713  1.00  0.00     0.049 A 
ATOM     48  C   UNL A   1      42.427  28.486  33.005  1.00  0.00     0.074 A 
ATOM     49  C   UNL A   1      44.888  26.008  28.608  1.00  0.00     0.029 A 
ATOM     50  N   UNL A   1      43.796  24.732  30.073  1.00  0.00    -0.354 N 
ATOM     51  N   UNL A   1      42.782  27.509  32.213  1.00  0.00    -0.248 NA
ATOM     52  C   UNL A   1      43.024  28.398  34.331  1.00  0.00     0.031 C 
ATOM     53  C   UNL A   1      45.144  26.484  29.922  1.00  0.00     0.029 A 
ATOM     54  C   UNL A   1      44.431  25.704  30.820  1.00  0.00     0.049 A 
ATOM     55  H   UNL A   1      43.290  23.977  30.448  1.00  0.00     0.167 HD
ATOM     56  C   UNL A   1      43.701  26.728  32.864  1.00  0.00     0.074 A 
ATOM     57  C   UNL A   1      43.798  27.310  34.193  1.00  0.00     0.031 C 
ATOM     58  C   UNL A   1      44.366  25.691  32.274  1.00  0.00     0.037 A 
BRANCH  45  59
ATOM     59  C   UNL A   1      43.455  23.531  26.586  1.00  0.00     0.057 A 
ATOM     60  C   UNL A   1      43.200  22.140  26.603  1.00  0.00     0.134 A 
ATOM     61  C   UNL A   1      44.221  23.946  25.479  1.00  0.00     0.134 A 
ATOM     62  F   UNL A   1      42.451  21.576  27.562  1.00  0.00    -0.206 F 
ATOM     63  C   UNL A   1      43.715  21.245  25.651  1.00  0.00     0.040 A 
ATOM     64  C   UNL A   1      44.732  23.062  24.513  1.00  0.00     0.040 A 
ATOM     65  F   UNL A   1      44.535  25.224  25.260  1.00  0.00    -0.206 F 
ATOM     66  C   UNL A   1      44.496  21.702  24.604  1.00  0.00     0.006 A 
ENDBRANCH  45  59
BRANCH  46  67
ATOM     67  C   UNL A   1      40.143  29.871  32.993  1.00  0.00     0.057 A 
ATOM     68  C   UNL A   1      39.667  31.192  33.128  1.00  0.00     0.134 A 
ATOM     69  C   UNL A   1      39.171  28.866  32.913  1.00  0.00     0.134 A 
ATOM     70  F   UNL A   1      40.534  32.215  33.209  1.00  0.00    -0.206 F 
ATOM     71  C   UNL A   1      38.306  31.509  33.066  1.00  0.00     0.040 A 
ATOM     72  C   UNL A   1      37.801  29.171  32.873  1.00  0.00     0.040 A 
ATOM     73  F   UNL A   1      39.524  27.580  32.787  1.00  0.00    -0.206 F 
ATOM     74  C   UNL A   1      37.367  30.495  32.911  1.00  0.00     0.006 A 
ENDBRANCH  46  67
BRANCH  58  75
ATOM     75  C   UNL A   1      45.122  24.626  33.025  1.00  0.00     0.057 A 
ATOM     76  C   UNL A   1      46.395  24.825  33.581  1.00  0.00     0.134 A 
ATOM     77  C   UNL A   1      44.507  23.399  33.358  1.00  0.00     0.134 A 
ATOM     78  F   UNL A   1      47.041  25.992  33.457  1.00  0.00    -0.206 F 
ATOM     79  C   UNL A   1      47.041  23.848  34.345  1.00  0.00     0.040 A 
ATOM     80  C   UNL A   1      45.118  22.443  34.172  1.00  0.00     0.040 A 
ATOM     81  F   UNL A   1      43.272  23.089  32.939  1.00  0.00    -0.206 F 
ATOM     82  C   UNL A   1      46.400  22.656  34.653  1.00  0.00     0.006 A 
ENDBRANCH  58  75
ENDBRANCH  32  33
ENDBRANCH  25  27
ENDBRANCH  24  25
ENDBRANCH  23  24
ENDBRANCH   1  23
TORSDOF 16
ENDMDL
