MODEL 1
REMARK VINA RESULT:     -11.6      0.000      0.000
REMARK SMILES Cc1nn(CC(=O)OCCOC(=O)c2ccc(-c3c4nc(c(-c5c(F)cccc5F)c5ccc([nH]5)c(-c5c(F)cccc5F)c5nc(c(-c6c(F)cccc6F)c6ccc3[nH]6)C=C5)C=C4)cc2)c(C)c1NS(=O)(=O)c1cccc2cccnc12
REMARK SMILES IDX 9 1 8 2 6 3 7 4 5 5 4 6 1 7 2 8 3 9 70 10 68 11 69 12 71 13
REMARK SMILES IDX 72 15 73 16 74 17 75 18 76 19 84 20 77 21 79 22 83 23 78 24
REMARK SMILES IDX 80 25 82 26 81 27 10 28 11 29 12 30 13 31 14 32 15 33 67 34
REMARK SMILES IDX 16 35 66 36 17 37 18 38 19 39 60 40 20 41 65 42 59 43 61 44
REMARK SMILES IDX 21 45 64 46 58 47 57 48 22 50 48 51 31 52 47 53 32 54 35 55
REMARK SMILES IDX 46 56 62 57 33 58 34 59 45 61 63 62 36 63 23 64 24 65 29 66
REMARK SMILES IDX 25 67 26 68 28 69 30 70 27 71 49 72 50 73 55 74 51 75 52 76
REMARK SMILES IDX 54 77 56 78 53 79 37 80 38 81 43 82 39 83 40 84 42 85 44 86
REMARK SMILES IDX 41 87
REMARK H PARENT 71 14 61 49 35 60
REMARK Flexibility Score: inf
ROOT
ATOM      1  C   UNL A   1      42.553  20.355  26.244  1.00  0.00     0.274 C 
ENDROOT
BRANCH   1   2
ATOM      2  O   UNL A   1      41.351  20.982  25.723  1.00  0.00    -0.461 OA
BRANCH   2   3
ATOM      3  C   UNL A   1      40.382  21.284  26.630  1.00  0.00     0.327 C 
ATOM      4  O   UNL A   1      40.410  20.881  27.794  1.00  0.00    -0.250 OA
BRANCH   3   5
ATOM      5  C   UNL A   1      39.271  22.198  26.171  1.00  0.00     0.267 C 
BRANCH   5   6
ATOM      6  N   UNL A   1      38.098  21.579  25.583  1.00  0.00    -0.256 N 
ATOM      7  C   UNL A   1      36.382  18.622  24.714  1.00  0.00     0.071 C 
ATOM      8  C   UNL A   1      36.810  20.012  25.009  1.00  0.00     0.084 A 
ATOM      9  N   UNL A   1      38.086  20.257  25.339  1.00  0.00    -0.175 NA
ATOM     10  C   UNL A   1      36.052  21.219  24.971  1.00  0.00     0.093 A 
ATOM     11  C   UNL A   1      37.023  22.200  24.988  1.00  0.00     0.060 A 
ATOM     12  C   UNL A   1      37.050  23.609  24.532  1.00  0.00     0.069 C 
BRANCH  10  13
ATOM     13  N   UNL A   1      34.663  21.310  24.871  1.00  0.00    -0.276 N 
ATOM     14  H   UNL A   1      34.235  20.816  24.134  1.00  0.00     0.180 HD
BRANCH  13  15
ATOM     15  S   UNL A   1      33.641  22.191  25.901  1.00  0.00     0.264 S 
ATOM     16  O   UNL A   1      32.353  21.537  25.824  1.00  0.00    -0.201 OA
ATOM     17  O   UNL A   1      34.367  22.263  27.153  1.00  0.00    -0.201 OA
BRANCH  15  18
ATOM     18  C   UNL A   1      33.578  23.860  25.283  1.00  0.00     0.114 A 
ATOM     19  C   UNL A   1      33.704  24.913  26.207  1.00  0.00     0.024 A 
ATOM     20  C   UNL A   1      33.406  24.102  23.913  1.00  0.00     0.091 A 
ATOM     21  C   UNL A   1      33.723  26.227  25.760  1.00  0.00     0.002 A 
ATOM     22  C   UNL A   1      33.411  25.456  23.492  1.00  0.00     0.002 A 
ATOM     23  N   UNL A   1      33.246  23.125  22.996  1.00  0.00    -0.255 NA
ATOM     24  C   UNL A   1      33.593  26.500  24.407  1.00  0.00     0.010 A 
ATOM     25  C   UNL A   1      33.220  25.755  22.136  1.00  0.00     0.012 A 
ATOM     26  C   UNL A   1      33.077  23.440  21.693  1.00  0.00     0.112 A 
ATOM     27  C   UNL A   1      33.046  24.733  21.219  1.00  0.00     0.021 A 
ENDBRANCH  15  18
ENDBRANCH  13  15
ENDBRANCH  10  13
ENDBRANCH   5   6
ENDBRANCH   3   5
ENDBRANCH   2   3
ENDBRANCH   1   2
BRANCH   1  28
ATOM     28  C   UNL A   1      43.041  19.182  25.397  1.00  0.00     0.275 C 
BRANCH  28  29
ATOM     29  O   UNL A   1      44.423  19.322  25.087  1.00  0.00    -0.458 OA
BRANCH  29  30
ATOM     30  C   UNL A   1      44.602  20.034  23.954  1.00  0.00     0.338 C 
ATOM     31  O   UNL A   1      44.525  19.622  22.810  1.00  0.00    -0.246 OA
BRANCH  30  32
ATOM     32  C   UNL A   1      45.070  21.376  24.251  1.00  0.00     0.060 A 
ATOM     33  C   UNL A   1      46.001  21.488  25.289  1.00  0.00     0.016 A 
ATOM     34  C   UNL A   1      44.265  22.436  23.828  1.00  0.00     0.016 A 
ATOM     35  C   UNL A   1      45.972  22.624  26.060  1.00  0.00     0.010 A 
ATOM     36  C   UNL A   1      44.217  23.555  24.617  1.00  0.00     0.010 A 
ATOM     37  C   UNL A   1      45.007  23.589  25.768  1.00  0.00    -0.014 A 
BRANCH  37  38
ATOM     38  C   UNL A   1      44.852  24.685  26.695  1.00  0.00     0.031 A 
ATOM     39  C   UNL A   1      45.998  25.617  26.696  1.00  0.00     0.074 A 
ATOM     40  C   UNL A   1      43.695  24.884  27.352  1.00  0.00     0.049 A 
ATOM     41  N   UNL A   1      46.779  25.925  27.675  1.00  0.00    -0.248 NA
ATOM     42  C   UNL A   1      46.411  26.170  25.393  1.00  0.00     0.031 C 
ATOM     43  C   UNL A   1      42.418  24.189  27.167  1.00  0.00     0.029 A 
ATOM     44  N   UNL A   1      43.385  25.859  28.242  1.00  0.00    -0.354 N 
ATOM     45  C   UNL A   1      47.663  26.865  27.156  1.00  0.00     0.074 A 
ATOM     46  C   UNL A   1      47.515  26.834  25.726  1.00  0.00     0.031 C 
ATOM     47  C   UNL A   1      41.432  24.922  27.731  1.00  0.00     0.029 A 
ATOM     48  C   UNL A   1      42.024  26.066  28.406  1.00  0.00     0.049 A 
ATOM     49  H   UNL A   1      44.066  26.376  28.730  1.00  0.00     0.167 HD
ATOM     50  C   UNL A   1      48.257  27.792  27.952  1.00  0.00     0.037 A 
ATOM     51  C   UNL A   1      41.451  27.161  28.963  1.00  0.00     0.037 A 
ATOM     52  C   UNL A   1      48.242  27.395  29.334  1.00  0.00     0.049 A 
ATOM     53  C   UNL A   1      42.509  27.887  29.718  1.00  0.00     0.074 A 
ATOM     54  C   UNL A   1      48.719  26.301  30.031  1.00  0.00     0.029 A 
ATOM     55  N   UNL A   1      47.340  28.004  30.174  1.00  0.00    -0.354 N 
ATOM     56  N   UNL A   1      43.051  27.451  30.820  1.00  0.00    -0.248 NA
ATOM     57  C   UNL A   1      43.286  28.887  28.997  1.00  0.00     0.031 C 
ATOM     58  C   UNL A   1      47.734  26.037  31.028  1.00  0.00     0.029 A 
ATOM     59  C   UNL A   1      46.744  27.011  30.909  1.00  0.00     0.049 A 
ATOM     60  H   UNL A   1      47.157  28.969  30.235  1.00  0.00     0.167 HD
ATOM     61  C   UNL A   1      44.394  27.788  30.714  1.00  0.00     0.074 A 
ATOM     62  C   UNL A   1      44.462  28.748  29.615  1.00  0.00     0.031 C 
ATOM     63  C   UNL A   1      45.362  27.043  31.325  1.00  0.00     0.037 A 
BRANCH  50  64
ATOM     64  C   UNL A   1      48.498  29.211  27.510  1.00  0.00     0.057 A 
ATOM     65  C   UNL A   1      49.769  29.777  27.690  1.00  0.00     0.134 A 
ATOM     66  C   UNL A   1      47.471  30.123  27.184  1.00  0.00     0.134 A 
ATOM     67  F   UNL A   1      50.820  29.014  28.029  1.00  0.00    -0.206 F 
ATOM     68  C   UNL A   1      49.989  31.157  27.611  1.00  0.00     0.040 A 
ATOM     69  C   UNL A   1      47.691  31.494  27.045  1.00  0.00     0.040 A 
ATOM     70  F   UNL A   1      46.187  29.759  27.085  1.00  0.00    -0.206 F 
ATOM     71  C   UNL A   1      48.948  32.021  27.291  1.00  0.00     0.006 A 
ENDBRANCH  50  64
BRANCH  51  72
ATOM     72  C   UNL A   1      40.154  27.791  28.628  1.00  0.00     0.057 A 
ATOM     73  C   UNL A   1      39.120  27.860  29.572  1.00  0.00     0.134 A 
ATOM     74  C   UNL A   1      39.981  28.570  27.469  1.00  0.00     0.134 A 
ATOM     75  F   UNL A   1      39.210  27.188  30.729  1.00  0.00    -0.206 F 
ATOM     76  C   UNL A   1      37.992  28.669  29.385  1.00  0.00     0.040 A 
ATOM     77  C   UNL A   1      38.854  29.372  27.264  1.00  0.00     0.040 A 
ATOM     78  F   UNL A   1      40.938  28.649  26.533  1.00  0.00    -0.206 F 
ATOM     79  C   UNL A   1      37.860  29.436  28.232  1.00  0.00     0.006 A 
ENDBRANCH  51  72
BRANCH  63  80
ATOM     80  C   UNL A   1      44.924  25.994  32.308  1.00  0.00     0.057 A 
ATOM     81  C   UNL A   1      44.582  24.680  31.951  1.00  0.00     0.134 A 
ATOM     82  C   UNL A   1      44.990  26.279  33.676  1.00  0.00     0.134 A 
ATOM     83  F   UNL A   1      44.601  24.281  30.674  1.00  0.00    -0.206 F 
ATOM     84  C   UNL A   1      44.267  23.713  32.909  1.00  0.00     0.040 A 
ATOM     85  C   UNL A   1      44.711  25.312  34.645  1.00  0.00     0.040 A 
ATOM     86  F   UNL A   1      45.370  27.496  34.096  1.00  0.00    -0.206 F 
ATOM     87  C   UNL A   1      44.335  24.027  34.263  1.00  0.00     0.006 A 
ENDBRANCH  63  80
ENDBRANCH  37  38
ENDBRANCH  30  32
ENDBRANCH  29  30
ENDBRANCH  28  29
ENDBRANCH   1  28
TORSDOF 15
ENDMDL
MODEL 2
REMARK VINA RESULT:     -11.3      2.406      6.491
REMARK SMILES Cc1nn(CC(=O)OCCOC(=O)c2ccc(-c3c4nc(c(-c5c(F)cccc5F)c5ccc([nH]5)c(-c5c(F)cccc5F)c5nc(c(-c6c(F)cccc6F)c6ccc3[nH]6)C=C5)C=C4)cc2)c(C)c1NS(=O)(=O)c1cccc2cccnc12
REMARK SMILES IDX 9 1 8 2 6 3 7 4 5 5 4 6 1 7 2 8 3 9 70 10 68 11 69 12 71 13
REMARK SMILES IDX 72 15 73 16 74 17 75 18 76 19 84 20 77 21 79 22 83 23 78 24
REMARK SMILES IDX 80 25 82 26 81 27 10 28 11 29 12 30 13 31 14 32 15 33 67 34
REMARK SMILES IDX 16 35 66 36 17 37 18 38 19 39 60 40 20 41 65 42 59 43 61 44
REMARK SMILES IDX 21 45 64 46 58 47 57 48 22 50 48 51 31 52 47 53 32 54 35 55
REMARK SMILES IDX 46 56 62 57 33 58 34 59 45 61 63 62 36 63 23 64 24 65 29 66
REMARK SMILES IDX 25 67 26 68 28 69 30 70 27 71 49 72 50 73 55 74 51 75 52 76
REMARK SMILES IDX 54 77 56 78 53 79 37 80 38 81 43 82 39 83 40 84 42 85 44 86
REMARK SMILES IDX 41 87
REMARK H PARENT 71 14 61 49 35 60
REMARK Flexibility Score: inf
ROOT
ATOM      1  C   UNL A   1      36.931  20.932  24.709  1.00  0.00     0.274 C 
ENDROOT
BRANCH   1   2
ATOM      2  O   UNL A   1      37.279  22.247  24.198  1.00  0.00    -0.461 OA
BRANCH   2   3
ATOM      3  C   UNL A   1      36.477  23.277  24.581  1.00  0.00     0.327 C 
ATOM      4  O   UNL A   1      36.606  23.856  25.661  1.00  0.00    -0.250 OA
BRANCH   3   5
ATOM      5  C   UNL A   1      35.432  23.741  23.593  1.00  0.00     0.267 C 
BRANCH   5   6
ATOM      6  N   UNL A   1      34.045  23.449  23.904  1.00  0.00    -0.256 N 
ATOM      7  C   UNL A   1      31.686  21.231  25.305  1.00  0.00     0.071 C 
ATOM      8  C   UNL A   1      32.420  22.378  24.714  1.00  0.00     0.084 A 
ATOM      9  N   UNL A   1      33.695  22.223  24.332  1.00  0.00    -0.175 NA
ATOM     10  C   UNL A   1      31.960  23.699  24.435  1.00  0.00     0.093 A 
ATOM     11  C   UNL A   1      32.934  24.198  23.593  1.00  0.00     0.060 A 
ATOM     12  C   UNL A   1      32.937  25.269  22.569  1.00  0.00     0.069 C 
BRANCH  10  13
ATOM     13  N   UNL A   1      30.767  24.262  24.888  1.00  0.00    -0.276 N 
ATOM     14  H   UNL A   1      29.981  24.174  24.301  1.00  0.00     0.180 HD
BRANCH  13  15
ATOM     15  S   UNL A   1      30.541  25.085  26.356  1.00  0.00     0.264 S 
ATOM     16  O   UNL A   1      29.124  25.002  26.635  1.00  0.00    -0.201 OA
ATOM     17  O   UNL A   1      31.514  24.494  27.253  1.00  0.00    -0.201 OA
BRANCH  15  18
ATOM     18  C   UNL A   1      31.073  26.766  26.107  1.00  0.00     0.114 A 
ATOM     19  C   UNL A   1      31.807  27.387  27.134  1.00  0.00     0.024 A 
ATOM     20  C   UNL A   1      30.761  27.440  24.918  1.00  0.00     0.091 A 
ATOM     21  C   UNL A   1      32.294  28.674  26.956  1.00  0.00     0.002 A 
ATOM     22  C   UNL A   1      31.257  28.761  24.776  1.00  0.00     0.002 A 
ATOM     23  N   UNL A   1      30.029  26.897  23.923  1.00  0.00    -0.255 NA
ATOM     24  C   UNL A   1      32.035  29.355  25.776  1.00  0.00     0.010 A 
ATOM     25  C   UNL A   1      30.954  29.487  23.617  1.00  0.00     0.012 A 
ATOM     26  C   UNL A   1      29.763  27.615  22.809  1.00  0.00     0.112 A 
ATOM     27  C   UNL A   1      30.191  28.909  22.615  1.00  0.00     0.021 A 
ENDBRANCH  15  18
ENDBRANCH  13  15
ENDBRANCH  10  13
ENDBRANCH   5   6
ENDBRANCH   3   5
ENDBRANCH   2   3
ENDBRANCH   1   2
BRANCH   1  28
ATOM     28  C   UNL A   1      38.146  20.048  24.983  1.00  0.00     0.275 C 
BRANCH  28  29
ATOM     29  O   UNL A   1      39.110  20.742  25.767  1.00  0.00    -0.458 OA
BRANCH  29  30
ATOM     30  C   UNL A   1      40.263  20.046  25.856  1.00  0.00     0.338 C 
ATOM     31  O   UNL A   1      40.432  18.870  25.585  1.00  0.00    -0.246 OA
BRANCH  30  32
ATOM     32  C   UNL A   1      41.303  20.840  26.486  1.00  0.00     0.060 A 
ATOM     33  C   UNL A   1      41.345  20.804  27.884  1.00  0.00     0.016 A 
ATOM     34  C   UNL A   1      41.852  21.879  25.730  1.00  0.00     0.016 A 
ATOM     35  C   UNL A   1      41.754  21.935  28.545  1.00  0.00     0.010 A 
ATOM     36  C   UNL A   1      42.230  23.018  26.393  1.00  0.00     0.010 A 
ATOM     37  C   UNL A   1      42.090  23.055  27.781  1.00  0.00    -0.014 A 
BRANCH  37  38
ATOM     38  C   UNL A   1      42.328  24.296  28.479  1.00  0.00     0.031 A 
ATOM     39  C   UNL A   1      41.274  25.306  28.252  1.00  0.00     0.074 A 
ATOM     40  C   UNL A   1      43.334  24.417  29.363  1.00  0.00     0.049 A 
ATOM     41  N   UNL A   1      41.390  26.481  27.732  1.00  0.00    -0.248 NA
ATOM     42  C   UNL A   1      39.883  24.891  28.509  1.00  0.00     0.031 C 
ATOM     43  C   UNL A   1      44.223  23.369  29.872  1.00  0.00     0.029 A 
ATOM     44  N   UNL A   1      43.686  25.499  30.102  1.00  0.00    -0.354 N 
ATOM     45  C   UNL A   1      40.113  27.030  27.780  1.00  0.00     0.074 A 
ATOM     46  C   UNL A   1      39.207  25.956  28.084  1.00  0.00     0.031 C 
ATOM     47  C   UNL A   1      44.828  23.813  30.997  1.00  0.00     0.029 A 
ATOM     48  C   UNL A   1      44.456  25.201  31.215  1.00  0.00     0.049 A 
ATOM     49  H   UNL A   1      43.418  26.417  29.868  1.00  0.00     0.167 HD
ATOM     50  C   UNL A   1      39.923  28.374  27.835  1.00  0.00     0.037 A 
ATOM     51  C   UNL A   1      44.665  26.020  32.275  1.00  0.00     0.037 A 
ATOM     52  C   UNL A   1      41.080  29.095  27.376  1.00  0.00     0.049 A 
ATOM     53  C   UNL A   1      44.281  27.398  31.862  1.00  0.00     0.074 A 
ATOM     54  C   UNL A   1      41.802  29.114  26.198  1.00  0.00     0.029 A 
ATOM     55  N   UNL A   1      41.888  29.689  28.316  1.00  0.00    -0.354 N 
ATOM     56  N   UNL A   1      44.953  28.119  31.010  1.00  0.00    -0.248 NA
ATOM     57  C   UNL A   1      42.894  27.799  32.059  1.00  0.00     0.031 C 
ATOM     58  C   UNL A   1      43.162  29.263  26.598  1.00  0.00     0.029 A 
ATOM     59  C   UNL A   1      43.182  29.373  27.988  1.00  0.00     0.049 A 
ATOM     60  H   UNL A   1      41.593  30.237  29.078  1.00  0.00     0.167 HD
ATOM     61  C   UNL A   1      43.986  28.775  30.259  1.00  0.00     0.074 A 
ATOM     62  C   UNL A   1      42.743  28.610  31.009  1.00  0.00     0.031 C 
ATOM     63  C   UNL A   1      44.220  29.137  28.963  1.00  0.00     0.037 A 
BRANCH  50  64
ATOM     64  C   UNL A   1      38.836  29.010  28.661  1.00  0.00     0.057 A 
ATOM     65  C   UNL A   1      38.741  28.696  30.025  1.00  0.00     0.134 A 
ATOM     66  C   UNL A   1      37.722  29.684  28.117  1.00  0.00     0.134 A 
ATOM     67  F   UNL A   1      39.726  28.032  30.649  1.00  0.00    -0.206 F 
ATOM     68  C   UNL A   1      37.595  28.979  30.777  1.00  0.00     0.040 A 
ATOM     69  C   UNL A   1      36.598  30.023  28.872  1.00  0.00     0.040 A 
ATOM     70  F   UNL A   1      37.611  29.958  26.811  1.00  0.00    -0.206 F 
ATOM     71  C   UNL A   1      36.518  29.642  30.200  1.00  0.00     0.006 A 
ENDBRANCH  50  64
BRANCH  51  72
ATOM     72  C   UNL A   1      44.858  25.652  33.696  1.00  0.00     0.057 A 
ATOM     73  C   UNL A   1      45.900  26.208  34.450  1.00  0.00     0.134 A 
ATOM     74  C   UNL A   1      43.880  24.949  34.424  1.00  0.00     0.134 A 
ATOM     75  F   UNL A   1      46.858  26.933  33.855  1.00  0.00    -0.206 F 
ATOM     76  C   UNL A   1      45.957  26.092  35.845  1.00  0.00     0.040 A 
ATOM     77  C   UNL A   1      43.930  24.814  35.815  1.00  0.00     0.040 A 
ATOM     78  F   UNL A   1      42.793  24.443  33.822  1.00  0.00    -0.206 F 
ATOM     79  C   UNL A   1      44.964  25.401  36.533  1.00  0.00     0.006 A 
ENDBRANCH  51  72
BRANCH  63  80
ATOM     80  C   UNL A   1      45.626  29.023  28.445  1.00  0.00     0.057 A 
ATOM     81  C   UNL A   1      46.173  27.842  27.920  1.00  0.00     0.134 A 
ATOM     82  C   UNL A   1      46.405  30.180  28.340  1.00  0.00     0.134 A 
ATOM     83  F   UNL A   1      45.463  26.709  27.873  1.00  0.00    -0.206 F 
ATOM     84  C   UNL A   1      47.456  27.804  27.367  1.00  0.00     0.040 A 
ATOM     85  C   UNL A   1      47.675  30.164  27.758  1.00  0.00     0.040 A 
ATOM     86  F   UNL A   1      45.924  31.360  28.764  1.00  0.00    -0.206 F 
ATOM     87  C   UNL A   1      48.210  28.970  27.281  1.00  0.00     0.006 A 
ENDBRANCH  63  80
ENDBRANCH  37  38
ENDBRANCH  30  32
ENDBRANCH  29  30
ENDBRANCH  28  29
ENDBRANCH   1  28
TORSDOF 15
ENDMDL
MODEL 3
REMARK VINA RESULT:     -11.2      3.277      7.586
REMARK SMILES Cc1nn(CC(=O)OCCOC(=O)c2ccc(-c3c4nc(c(-c5c(F)cccc5F)c5ccc([nH]5)c(-c5c(F)cccc5F)c5nc(c(-c6c(F)cccc6F)c6ccc3[nH]6)C=C5)C=C4)cc2)c(C)c1NS(=O)(=O)c1cccc2cccnc12
REMARK SMILES IDX 9 1 8 2 6 3 7 4 5 5 4 6 1 7 2 8 3 9 70 10 68 11 69 12 71 13
REMARK SMILES IDX 72 15 73 16 74 17 75 18 76 19 84 20 77 21 79 22 83 23 78 24
REMARK SMILES IDX 80 25 82 26 81 27 10 28 11 29 12 30 13 31 14 32 15 33 67 34
REMARK SMILES IDX 16 35 66 36 17 37 18 38 19 39 60 40 20 41 65 42 59 43 61 44
REMARK SMILES IDX 21 45 64 46 58 47 57 48 22 50 48 51 31 52 47 53 32 54 35 55
REMARK SMILES IDX 46 56 62 57 33 58 34 59 45 61 63 62 36 63 23 64 24 65 29 66
REMARK SMILES IDX 25 67 26 68 28 69 30 70 27 71 49 72 50 73 55 74 51 75 52 76
REMARK SMILES IDX 54 77 56 78 53 79 37 80 38 81 43 82 39 83 40 84 42 85 44 86
REMARK SMILES IDX 41 87
REMARK H PARENT 71 14 61 49 35 60
REMARK Flexibility Score: inf
ROOT
ATOM      1  C   UNL A   1      33.702  31.587  27.613  1.00  0.00     0.274 C 
ENDROOT
BRANCH   1   2
ATOM      2  O   UNL A   1      33.643  30.490  26.663  1.00  0.00    -0.461 OA
BRANCH   2   3
ATOM      3  C   UNL A   1      32.406  29.997  26.383  1.00  0.00     0.327 C 
ATOM      4  O   UNL A   1      31.449  30.124  27.148  1.00  0.00    -0.250 OA
BRANCH   3   5
ATOM      5  C   UNL A   1      32.221  29.320  25.045  1.00  0.00     0.267 C 
BRANCH   5   6
ATOM      6  N   UNL A   1      32.885  28.045  24.846  1.00  0.00    -0.256 N 
ATOM      7  C   UNL A   1      33.729  24.868  26.127  1.00  0.00     0.071 C 
ATOM      8  C   UNL A   1      33.484  26.075  25.298  1.00  0.00     0.084 A 
ATOM      9  N   UNL A   1      33.041  27.199  25.879  1.00  0.00    -0.175 NA
ATOM     10  C   UNL A   1      33.681  26.267  23.899  1.00  0.00     0.093 A 
ATOM     11  C   UNL A   1      33.628  27.640  23.761  1.00  0.00     0.060 A 
ATOM     12  C   UNL A   1      34.171  28.580  22.753  1.00  0.00     0.069 C 
BRANCH  10  13
ATOM     13  N   UNL A   1      33.930  25.263  22.963  1.00  0.00    -0.276 N 
ATOM     14  H   UNL A   1      34.811  25.271  22.523  1.00  0.00     0.180 HD
BRANCH  13  15
ATOM     15  S   UNL A   1      32.856  24.028  22.510  1.00  0.00     0.264 S 
ATOM     16  O   UNL A   1      31.531  24.558  22.750  1.00  0.00    -0.201 OA
ATOM     17  O   UNL A   1      33.280  23.654  21.175  1.00  0.00    -0.201 OA
BRANCH  15  18
ATOM     18  C   UNL A   1      33.205  22.619  23.540  1.00  0.00     0.114 A 
ATOM     19  C   UNL A   1      32.119  21.867  24.025  1.00  0.00     0.024 A 
ATOM     20  C   UNL A   1      34.529  22.279  23.852  1.00  0.00     0.091 A 
ATOM     21  C   UNL A   1      32.349  20.725  24.779  1.00  0.00     0.002 A 
ATOM     22  C   UNL A   1      34.729  21.118  24.640  1.00  0.00     0.002 A 
ATOM     23  N   UNL A   1      35.599  22.990  23.439  1.00  0.00    -0.255 NA
ATOM     24  C   UNL A   1      33.648  20.340  25.073  1.00  0.00     0.010 A 
ATOM     25  C   UNL A   1      36.031  20.746  25.000  1.00  0.00     0.012 A 
ATOM     26  C   UNL A   1      36.846  22.602  23.789  1.00  0.00     0.112 A 
ATOM     27  C   UNL A   1      37.110  21.501  24.572  1.00  0.00     0.021 A 
ENDBRANCH  15  18
ENDBRANCH  13  15
ENDBRANCH  10  13
ENDBRANCH   5   6
ENDBRANCH   3   5
ENDBRANCH   2   3
ENDBRANCH   1   2
BRANCH   1  28
ATOM     28  C   UNL A   1      35.121  31.907  28.081  1.00  0.00     0.275 C 
BRANCH  28  29
ATOM     29  O   UNL A   1      36.015  30.854  27.740  1.00  0.00    -0.458 OA
BRANCH  29  30
ATOM     30  C   UNL A   1      36.695  30.418  28.823  1.00  0.00     0.338 C 
ATOM     31  O   UNL A   1      36.689  30.908  29.938  1.00  0.00    -0.246 OA
BRANCH  30  32
ATOM     32  C   UNL A   1      37.601  29.339  28.468  1.00  0.00     0.060 A 
ATOM     33  C   UNL A   1      38.000  28.501  29.515  1.00  0.00     0.016 A 
ATOM     34  C   UNL A   1      38.328  29.486  27.285  1.00  0.00     0.016 A 
ATOM     35  C   UNL A   1      39.263  27.965  29.463  1.00  0.00     0.010 A 
ATOM     36  C   UNL A   1      39.599  28.974  27.250  1.00  0.00     0.010 A 
ATOM     37  C   UNL A   1      40.073  28.300  28.377  1.00  0.00    -0.014 A 
BRANCH  37  38
ATOM     38  C   UNL A   1      41.459  27.897  28.424  1.00  0.00     0.031 A 
ATOM     39  C   UNL A   1      41.713  26.602  27.758  1.00  0.00     0.074 A 
ATOM     40  C   UNL A   1      42.411  28.724  28.892  1.00  0.00     0.049 A 
ATOM     41  N   UNL A   1      42.192  25.519  28.270  1.00  0.00    -0.248 NA
ATOM     42  C   UNL A   1      41.236  26.458  26.371  1.00  0.00     0.031 C 
ATOM     43  C   UNL A   1      42.278  30.132  29.274  1.00  0.00     0.029 A 
ATOM     44  N   UNL A   1      43.745  28.505  28.995  1.00  0.00    -0.354 N 
ATOM     45  C   UNL A   1      42.261  24.615  27.216  1.00  0.00     0.074 A 
ATOM     46  C   UNL A   1      41.494  25.174  26.136  1.00  0.00     0.031 C 
ATOM     47  C   UNL A   1      43.508  30.693  29.324  1.00  0.00     0.029 A 
ATOM     48  C   UNL A   1      44.505  29.661  29.091  1.00  0.00     0.049 A 
ATOM     49  H   UNL A   1      44.141  27.603  29.002  1.00  0.00     0.167 HD
ATOM     50  C   UNL A   1      43.165  23.602  27.212  1.00  0.00     0.037 A 
ATOM     51  C   UNL A   1      45.841  29.750  28.879  1.00  0.00     0.037 A 
ATOM     52  C   UNL A   1      43.651  23.316  28.536  1.00  0.00     0.049 A 
ATOM     53  C   UNL A   1      46.398  28.370  28.936  1.00  0.00     0.074 A 
ATOM     54  C   UNL A   1      43.053  22.952  29.727  1.00  0.00     0.029 A 
ATOM     55  N   UNL A   1      44.911  23.750  28.871  1.00  0.00    -0.354 N 
ATOM     56  N   UNL A   1      46.488  27.661  30.026  1.00  0.00    -0.248 NA
ATOM     57  C   UNL A   1      46.438  27.608  27.694  1.00  0.00     0.031 C 
ATOM     58  C   UNL A   1      43.788  23.639  30.737  1.00  0.00     0.029 A 
ATOM     59  C   UNL A   1      44.815  24.340  30.106  1.00  0.00     0.049 A 
ATOM     60  H   UNL A   1      45.726  23.657  28.328  1.00  0.00     0.167 HD
ATOM     61  C   UNL A   1      46.168  26.368  29.637  1.00  0.00     0.074 A 
ATOM     62  C   UNL A   1      46.236  26.379  28.177  1.00  0.00     0.031 C 
ATOM     63  C   UNL A   1      45.594  25.487  30.508  1.00  0.00     0.037 A 
BRANCH  50  64
ATOM     64  C   UNL A   1      43.873  23.146  25.964  1.00  0.00     0.057 A 
ATOM     65  C   UNL A   1      43.878  21.781  25.639  1.00  0.00     0.134 A 
ATOM     66  C   UNL A   1      44.779  23.945  25.233  1.00  0.00     0.134 A 
ATOM     67  F   UNL A   1      43.080  20.918  26.285  1.00  0.00    -0.206 F 
ATOM     68  C   UNL A   1      44.764  21.242  24.700  1.00  0.00     0.040 A 
ATOM     69  C   UNL A   1      45.625  23.426  24.252  1.00  0.00     0.040 A 
ATOM     70  F   UNL A   1      44.972  25.243  25.496  1.00  0.00    -0.206 F 
ATOM     71  C   UNL A   1      45.644  22.064  24.005  1.00  0.00     0.006 A 
ENDBRANCH  50  64
BRANCH  51  72
ATOM     72  C   UNL A   1      46.609  30.884  28.317  1.00  0.00     0.057 A 
ATOM     73  C   UNL A   1      46.429  31.288  26.988  1.00  0.00     0.134 A 
ATOM     74  C   UNL A   1      47.346  31.762  29.133  1.00  0.00     0.134 A 
ATOM     75  F   UNL A   1      45.705  30.541  26.142  1.00  0.00    -0.206 F 
ATOM     76  C   UNL A   1      46.932  32.502  26.502  1.00  0.00     0.040 A 
ATOM     77  C   UNL A   1      47.865  32.970  28.658  1.00  0.00     0.040 A 
ATOM     78  F   UNL A   1      47.515  31.522  30.441  1.00  0.00    -0.206 F 
ATOM     79  C   UNL A   1      47.645  33.352  27.341  1.00  0.00     0.006 A 
ENDBRANCH  51  72
BRANCH  63  80
ATOM     80  C   UNL A   1      45.536  25.872  31.960  1.00  0.00     0.057 A 
ATOM     81  C   UNL A   1      46.595  25.685  32.863  1.00  0.00     0.134 A 
ATOM     82  C   UNL A   1      44.428  26.587  32.427  1.00  0.00     0.134 A 
ATOM     83  F   UNL A   1      47.741  25.112  32.478  1.00  0.00    -0.206 F 
ATOM     84  C   UNL A   1      46.529  26.140  34.182  1.00  0.00     0.040 A 
ATOM     85  C   UNL A   1      44.364  27.078  33.733  1.00  0.00     0.040 A 
ATOM     86  F   UNL A   1      43.403  26.860  31.603  1.00  0.00    -0.206 F 
ATOM     87  C   UNL A   1      45.412  26.844  34.620  1.00  0.00     0.006 A 
ENDBRANCH  63  80
ENDBRANCH  37  38
ENDBRANCH  30  32
ENDBRANCH  29  30
ENDBRANCH  28  29
ENDBRANCH   1  28
TORSDOF 15
ENDMDL
