MODEL 1
REMARK VINA RESULT:     -10.5      0.000      0.000
REMARK SMILES CC[C@H]1CCC[C@H](O[C@@H]2CC[C@]([NH2+]C(C)C)(C(=O)OCCOC(=O)c3ccc(-c4c5nc(c(-c6c(F)cccc6F)c6ccc([nH]6)c(-c6c(F)cccc6F)c6nc(c(-c7c(F)cccc7F)c7ccc4[nH]7)C=C6)C=C5)cc3)C2)C1
REMARK SMILES IDX 20 1 19 2 17 3 18 4 12 5 9 6 10 7 79 8 11 9 8 10 7 11 3 12
REMARK SMILES IDX 4 13 80 14 5 15 6 16 2 17 1 18 13 19 14 22 15 23 16 24 21 25
REMARK SMILES IDX 22 26 23 27 24 28 25 29 26 30 78 31 27 32 77 33 28 34 29 35
REMARK SMILES IDX 30 36 71 37 31 38 76 39 70 40 72 41 32 42 75 43 69 44 68 45
REMARK SMILES IDX 33 47 59 48 42 49 58 50 43 51 46 52 57 53 73 54 44 55 45 56
REMARK SMILES IDX 56 58 74 59 47 60 34 61 35 62 40 63 36 64 37 65 39 66 41 67
REMARK SMILES IDX 38 68 60 69 61 70 66 71 62 72 63 73 65 74 67 75 64 76 48 77
REMARK SMILES IDX 49 78 54 79 50 80 51 81 53 82 55 83 52 84
REMARK H PARENT 13 20 13 21 72 46 46 57
REMARK Flexibility Score: inf
ROOT
ATOM      1  C   UNL A   1      32.441  28.614  27.448  1.00  0.00     0.274 C 
ENDROOT
BRANCH   1   2
ATOM      2  O   UNL A   1      32.813  27.398  26.759  1.00  0.00    -0.457 OA
BRANCH   2   3
ATOM      3  C   UNL A   1      31.779  26.705  26.205  1.00  0.00     0.368 C 
ATOM      4  O   UNL A   1      30.832  26.307  26.879  1.00  0.00    -0.245 OA
BRANCH   3   5
ATOM      5  C   UNL A   1      31.865  26.484  24.651  1.00  0.00     0.197 C 
ATOM      6  C   UNL A   1      32.827  24.792  23.113  1.00  0.00     0.125 C 
ATOM      7  C   UNL A   1      33.669  26.064  22.998  1.00  0.00     0.039 C 
ATOM      8  C   UNL A   1      31.942  24.977  24.334  1.00  0.00     0.113 C 
ATOM      9  C   UNL A   1      33.246  26.973  24.160  1.00  0.00     0.084 C 
BRANCH   6  10
ATOM     10  O   UNL A   1      33.540  23.560  23.008  1.00  0.00    -0.375 OA
BRANCH  10  11
ATOM     11  C   UNL A   1      34.398  23.086  24.061  1.00  0.00     0.118 C 
ATOM     12  C   UNL A   1      36.935  22.406  24.421  1.00  0.00    -0.009 C 
ATOM     13  C   UNL A   1      36.374  21.011  24.719  1.00  0.00     0.004 C 
ATOM     14  C   UNL A   1      35.897  23.359  23.772  1.00  0.00     0.035 C 
ATOM     15  C   UNL A   1      35.049  21.072  25.458  1.00  0.00     0.003 C 
ATOM     16  C   UNL A   1      34.014  21.690  24.545  1.00  0.00     0.032 C 
BRANCH  12  17
ATOM     17  C   UNL A   1      37.586  23.067  25.653  1.00  0.00     0.000 C 
ATOM     18  C   UNL A   1      38.817  22.330  26.170  1.00  0.00     0.004 C 
ENDBRANCH  12  17
ENDBRANCH  10  11
ENDBRANCH   6  10
BRANCH   5  19
ATOM     19  N   UNL A   1      30.828  27.134  23.816  1.00  0.00    -0.330 N 
ATOM     20  H   UNL A   1      29.961  27.122  24.352  1.00  0.00     0.347 HD
ATOM     21  H   UNL A   1      30.829  26.593  22.951  1.00  0.00     0.347 HD
BRANCH  19  22
ATOM     22  C   UNL A   1      31.049  28.511  23.379  1.00  0.00     0.176 C 
ATOM     23  C   UNL A   1      30.185  28.734  22.128  1.00  0.00     0.075 C 
ATOM     24  C   UNL A   1      30.829  29.594  24.453  1.00  0.00     0.075 C 
ENDBRANCH  19  22
ENDBRANCH   5  19
ENDBRANCH   3   5
ENDBRANCH   2   3
ENDBRANCH   1   2
BRANCH   1  25
ATOM     25  C   UNL A   1      33.475  29.724  27.192  1.00  0.00     0.275 C 
BRANCH  25  26
ATOM     26  O   UNL A   1      34.770  29.318  27.681  1.00  0.00    -0.458 OA
BRANCH  26  27
ATOM     27  C   UNL A   1      35.450  30.223  28.445  1.00  0.00     0.338 C 
ATOM     28  O   UNL A   1      34.999  31.228  28.957  1.00  0.00    -0.246 OA
BRANCH  27  29
ATOM     29  C   UNL A   1      36.864  29.767  28.572  1.00  0.00     0.060 A 
ATOM     30  C   UNL A   1      37.656  29.816  27.434  1.00  0.00     0.016 A 
ATOM     31  C   UNL A   1      37.422  29.257  29.740  1.00  0.00     0.016 A 
ATOM     32  C   UNL A   1      39.010  29.521  27.443  1.00  0.00     0.010 A 
ATOM     33  C   UNL A   1      38.782  28.878  29.755  1.00  0.00     0.010 A 
ATOM     34  C   UNL A   1      39.585  29.030  28.609  1.00  0.00    -0.014 A 
BRANCH  34  35
ATOM     35  C   UNL A   1      40.965  28.503  28.510  1.00  0.00     0.031 A 
ATOM     36  C   UNL A   1      42.096  29.406  28.901  1.00  0.00     0.074 A 
ATOM     37  C   UNL A   1      41.207  27.198  28.285  1.00  0.00     0.049 A 
ATOM     38  N   UNL A   1      43.384  29.227  28.776  1.00  0.00    -0.248 NA
ATOM     39  C   UNL A   1      41.720  30.667  29.561  1.00  0.00     0.031 C 
ATOM     40  C   UNL A   1      40.187  26.158  28.155  1.00  0.00     0.029 A 
ATOM     41  N   UNL A   1      42.395  26.521  28.159  1.00  0.00    -0.354 N 
ATOM     42  C   UNL A   1      43.970  30.371  29.302  1.00  0.00     0.074 A 
ATOM     43  C   UNL A   1      42.903  31.215  29.791  1.00  0.00     0.031 C 
ATOM     44  C   UNL A   1      40.795  24.973  27.966  1.00  0.00     0.029 A 
ATOM     45  C   UNL A   1      42.238  25.186  27.875  1.00  0.00     0.049 A 
ATOM     46  H   UNL A   1      43.274  26.951  28.263  1.00  0.00     0.167 HD
ATOM     47  C   UNL A   1      45.281  30.699  29.333  1.00  0.00     0.037 A 
ATOM     48  C   UNL A   1      43.156  24.263  27.521  1.00  0.00     0.037 A 
ATOM     49  C   UNL A   1      46.323  29.851  28.823  1.00  0.00     0.049 A 
ATOM     50  C   UNL A   1      44.593  24.695  27.385  1.00  0.00     0.074 A 
ATOM     51  C   UNL A   1      47.668  30.125  28.660  1.00  0.00     0.029 A 
ATOM     52  N   UNL A   1      46.122  28.547  28.397  1.00  0.00    -0.354 N 
ATOM     53  N   UNL A   1      45.141  25.848  27.693  1.00  0.00    -0.248 NA
ATOM     54  C   UNL A   1      45.531  23.722  26.808  1.00  0.00     0.031 C 
ATOM     55  C   UNL A   1      48.274  28.995  28.095  1.00  0.00     0.029 A 
ATOM     56  C   UNL A   1      47.313  28.005  27.949  1.00  0.00     0.049 A 
ATOM     57  H   UNL A   1      45.258  28.075  28.410  1.00  0.00     0.167 HD
ATOM     58  C   UNL A   1      46.482  25.740  27.345  1.00  0.00     0.074 A 
ATOM     59  C   UNL A   1      46.671  24.400  26.827  1.00  0.00     0.031 C 
ATOM     60  C   UNL A   1      47.467  26.668  27.434  1.00  0.00     0.037 A 
BRANCH  47  61
ATOM     61  C   UNL A   1      45.616  32.077  29.816  1.00  0.00     0.057 A 
ATOM     62  C   UNL A   1      45.925  32.353  31.152  1.00  0.00     0.134 A 
ATOM     63  C   UNL A   1      45.565  33.157  28.924  1.00  0.00     0.134 A 
ATOM     64  F   UNL A   1      45.954  31.367  32.061  1.00  0.00    -0.206 F 
ATOM     65  C   UNL A   1      46.149  33.659  31.591  1.00  0.00     0.040 A 
ATOM     66  C   UNL A   1      45.805  34.464  29.347  1.00  0.00     0.040 A 
ATOM     67  F   UNL A   1      45.260  32.960  27.634  1.00  0.00    -0.206 F 
ATOM     68  C   UNL A   1      46.090  34.720  30.687  1.00  0.00     0.006 A 
ENDBRANCH  47  61
BRANCH  48  69
ATOM     69  C   UNL A   1      42.735  22.881  27.161  1.00  0.00     0.057 A 
ATOM     70  C   UNL A   1      42.623  22.471  25.828  1.00  0.00     0.134 A 
ATOM     71  C   UNL A   1      42.412  21.940  28.149  1.00  0.00     0.134 A 
ATOM     72  F   UNL A   1      42.879  23.331  24.832  1.00  0.00    -0.206 F 
ATOM     73  C   UNL A   1      42.211  21.177  25.492  1.00  0.00     0.040 A 
ATOM     74  C   UNL A   1      42.028  20.638  27.829  1.00  0.00     0.040 A 
ATOM     75  F   UNL A   1      42.477  22.272  29.448  1.00  0.00    -0.206 F 
ATOM     76  C   UNL A   1      41.923  20.253  26.495  1.00  0.00     0.006 A 
ENDBRANCH  48  69
BRANCH  60  77
ATOM     77  C   UNL A   1      48.831  26.260  26.970  1.00  0.00     0.057 A 
ATOM     78  C   UNL A   1      49.249  26.475  25.651  1.00  0.00     0.134 A 
ATOM     79  C   UNL A   1      49.751  25.697  27.862  1.00  0.00     0.134 A 
ATOM     80  F   UNL A   1      48.408  27.002  24.748  1.00  0.00    -0.206 F 
ATOM     81  C   UNL A   1      50.534  26.128  25.231  1.00  0.00     0.040 A 
ATOM     82  C   UNL A   1      51.043  25.364  27.459  1.00  0.00     0.040 A 
ATOM     83  F   UNL A   1      49.411  25.475  29.141  1.00  0.00    -0.206 F 
ATOM     84  C   UNL A   1      51.437  25.577  26.139  1.00  0.00     0.006 A 
ENDBRANCH  60  77
ENDBRANCH  34  35
ENDBRANCH  27  29
ENDBRANCH  26  27
ENDBRANCH  25  26
ENDBRANCH   1  25
TORSDOF 16
ENDMDL
MODEL 2
REMARK VINA RESULT:     -10.4      4.040      7.684
REMARK SMILES CC[C@H]1CCC[C@H](O[C@@H]2CC[C@]([NH2+]C(C)C)(C(=O)OCCOC(=O)c3ccc(-c4c5nc(c(-c6c(F)cccc6F)c6ccc([nH]6)c(-c6c(F)cccc6F)c6nc(c(-c7c(F)cccc7F)c7ccc4[nH]7)C=C6)C=C5)cc3)C2)C1
REMARK SMILES IDX 20 1 19 2 17 3 18 4 12 5 9 6 10 7 79 8 11 9 8 10 7 11 3 12
REMARK SMILES IDX 4 13 80 14 5 15 6 16 2 17 1 18 13 19 14 22 15 23 16 24 21 25
REMARK SMILES IDX 22 26 23 27 24 28 25 29 26 30 78 31 27 32 77 33 28 34 29 35
REMARK SMILES IDX 30 36 71 37 31 38 76 39 70 40 72 41 32 42 75 43 69 44 68 45
REMARK SMILES IDX 33 47 59 48 42 49 58 50 43 51 46 52 57 53 73 54 44 55 45 56
REMARK SMILES IDX 56 58 74 59 47 60 34 61 35 62 40 63 36 64 37 65 39 66 41 67
REMARK SMILES IDX 38 68 60 69 61 70 66 71 62 72 63 73 65 74 67 75 64 76 48 77
REMARK SMILES IDX 49 78 54 79 50 80 51 81 53 82 55 83 52 84
REMARK H PARENT 13 20 13 21 72 46 46 57
REMARK Flexibility Score: inf
ROOT
ATOM      1  C   UNL A   1      33.926  28.875  23.973  1.00  0.00     0.274 C 
ENDROOT
BRANCH   1   2
ATOM      2  O   UNL A   1      34.028  27.446  24.165  1.00  0.00    -0.457 OA
BRANCH   2   3
ATOM      3  C   UNL A   1      33.615  26.686  23.112  1.00  0.00     0.368 C 
ATOM      4  O   UNL A   1      33.968  26.931  21.961  1.00  0.00    -0.245 OA
BRANCH   3   5
ATOM      5  C   UNL A   1      32.694  25.465  23.475  1.00  0.00     0.197 C 
ATOM      6  C   UNL A   1      32.701  23.624  25.137  1.00  0.00     0.125 C 
ATOM      7  C   UNL A   1      32.995  23.018  23.765  1.00  0.00     0.039 C 
ATOM      8  C   UNL A   1      32.827  25.129  24.975  1.00  0.00     0.113 C 
ATOM      9  C   UNL A   1      33.282  24.194  22.821  1.00  0.00     0.084 C 
BRANCH   6  10
ATOM     10  O   UNL A   1      33.383  23.030  26.241  1.00  0.00    -0.375 OA
BRANCH  10  11
ATOM     11  C   UNL A   1      34.735  22.550  26.129  1.00  0.00     0.118 C 
ATOM     12  C   UNL A   1      37.025  23.266  25.000  1.00  0.00    -0.009 C 
ATOM     13  C   UNL A   1      36.865  21.978  24.184  1.00  0.00     0.004 C 
ATOM     14  C   UNL A   1      35.735  23.675  25.758  1.00  0.00     0.035 C 
ATOM     15  C   UNL A   1      36.248  20.856  25.000  1.00  0.00     0.003 C 
ATOM     16  C   UNL A   1      34.828  21.238  25.352  1.00  0.00     0.032 C 
BRANCH  12  17
ATOM     17  C   UNL A   1      38.231  23.222  25.961  1.00  0.00     0.000 C 
ATOM     18  C   UNL A   1      38.353  24.452  26.853  1.00  0.00     0.004 C 
ENDBRANCH  12  17
ENDBRANCH  10  11
ENDBRANCH   6  10
BRANCH   5  19
ATOM     19  N   UNL A   1      31.266  25.556  23.093  1.00  0.00    -0.330 N 
ATOM     20  H   UNL A   1      30.854  24.638  23.252  1.00  0.00     0.347 HD
ATOM     21  H   UNL A   1      31.286  25.878  22.125  1.00  0.00     0.347 HD
BRANCH  19  22
ATOM     22  C   UNL A   1      30.423  26.534  23.778  1.00  0.00     0.176 C 
ATOM     23  C   UNL A   1      30.054  27.616  22.750  1.00  0.00     0.075 C 
ATOM     24  C   UNL A   1      29.191  25.960  24.504  1.00  0.00     0.075 C 
ENDBRANCH  19  22
ENDBRANCH   5  19
ENDBRANCH   3   5
ENDBRANCH   2   3
ENDBRANCH   1   2
BRANCH   1  25
ATOM     25  C   UNL A   1      32.639  29.422  24.615  1.00  0.00     0.275 C 
BRANCH  25  26
ATOM     26  O   UNL A   1      32.758  29.410  26.053  1.00  0.00    -0.458 OA
BRANCH  26  27
ATOM     27  C   UNL A   1      32.953  30.617  26.663  1.00  0.00     0.338 C 
ATOM     28  O   UNL A   1      32.210  31.578  26.631  1.00  0.00    -0.246 OA
BRANCH  27  29
ATOM     29  C   UNL A   1      34.244  30.567  27.408  1.00  0.00     0.060 A 
ATOM     30  C   UNL A   1      34.715  29.318  27.787  1.00  0.00     0.016 A 
ATOM     31  C   UNL A   1      34.975  31.689  27.785  1.00  0.00     0.016 A 
ATOM     32  C   UNL A   1      35.948  29.128  28.390  1.00  0.00     0.010 A 
ATOM     33  C   UNL A   1      36.200  31.524  28.468  1.00  0.00     0.010 A 
ATOM     34  C   UNL A   1      36.699  30.239  28.753  1.00  0.00    -0.014 A 
BRANCH  34  35
ATOM     35  C   UNL A   1      37.887  30.001  29.604  1.00  0.00     0.031 A 
ATOM     36  C   UNL A   1      39.025  29.214  29.027  1.00  0.00     0.074 A 
ATOM     37  C   UNL A   1      38.051  30.637  30.779  1.00  0.00     0.049 A 
ATOM     38  N   UNL A   1      40.103  28.762  29.608  1.00  0.00    -0.248 NA
ATOM     39  C   UNL A   1      38.953  28.936  27.582  1.00  0.00     0.031 C 
ATOM     40  C   UNL A   1      37.142  31.639  31.333  1.00  0.00     0.029 A 
ATOM     41  N   UNL A   1      39.064  30.555  31.703  1.00  0.00    -0.354 N 
ATOM     42  C   UNL A   1      40.816  28.109  28.612  1.00  0.00     0.074 A 
ATOM     43  C   UNL A   1      40.076  28.264  27.380  1.00  0.00     0.031 C 
ATOM     44  C   UNL A   1      37.639  32.078  32.504  1.00  0.00     0.029 A 
ATOM     45  C   UNL A   1      38.852  31.327  32.820  1.00  0.00     0.049 A 
ATOM     46  H   UNL A   1      39.866  29.998  31.576  1.00  0.00     0.167 HD
ATOM     47  C   UNL A   1      41.967  27.408  28.731  1.00  0.00     0.037 A 
ATOM     48  C   UNL A   1      39.529  31.367  33.985  1.00  0.00     0.037 A 
ATOM     49  C   UNL A   1      42.676  27.251  29.970  1.00  0.00     0.049 A 
ATOM     50  C   UNL A   1      40.706  30.441  34.164  1.00  0.00     0.074 A 
ATOM     51  C   UNL A   1      43.765  26.450  30.256  1.00  0.00     0.029 A 
ATOM     52  N   UNL A   1      42.355  27.928  31.138  1.00  0.00    -0.354 N 
ATOM     53  N   UNL A   1      41.281  29.658  33.281  1.00  0.00    -0.248 NA
ATOM     54  C   UNL A   1      41.298  30.366  35.507  1.00  0.00     0.031 C 
ATOM     55  C   UNL A   1      44.078  26.614  31.612  1.00  0.00     0.029 A 
ATOM     56  C   UNL A   1      43.211  27.549  32.156  1.00  0.00     0.049 A 
ATOM     57  H   UNL A   1      41.625  28.583  31.229  1.00  0.00     0.167 HD
ATOM     58  C   UNL A   1      42.297  28.996  33.960  1.00  0.00     0.074 A 
ATOM     59  C   UNL A   1      42.276  29.489  35.323  1.00  0.00     0.031 C 
ATOM     60  C   UNL A   1      43.161  28.056  33.504  1.00  0.00     0.037 A 
BRANCH  47  61
ATOM     61  C   UNL A   1      42.429  26.667  27.513  1.00  0.00     0.057 A 
ATOM     62  C   UNL A   1      43.227  27.258  26.529  1.00  0.00     0.134 A 
ATOM     63  C   UNL A   1      42.006  25.348  27.301  1.00  0.00     0.134 A 
ATOM     64  F   UNL A   1      43.633  28.531  26.656  1.00  0.00    -0.206 F 
ATOM     65  C   UNL A   1      43.571  26.571  25.362  1.00  0.00     0.040 A 
ATOM     66  C   UNL A   1      42.359  24.645  26.149  1.00  0.00     0.040 A 
ATOM     67  F   UNL A   1      41.228  24.730  28.201  1.00  0.00    -0.206 F 
ATOM     68  C   UNL A   1      43.138  25.260  25.171  1.00  0.00     0.006 A 
ENDBRANCH  47  61
BRANCH  48  69
ATOM     69  C   UNL A   1      39.052  32.221  35.106  1.00  0.00     0.057 A 
ATOM     70  C   UNL A   1      38.204  31.723  36.101  1.00  0.00     0.134 A 
ATOM     71  C   UNL A   1      39.416  33.572  35.196  1.00  0.00     0.134 A 
ATOM     72  F   UNL A   1      37.785  30.450  36.057  1.00  0.00    -0.206 F 
ATOM     73  C   UNL A   1      37.742  32.532  37.144  1.00  0.00     0.040 A 
ATOM     74  C   UNL A   1      38.987  34.384  36.246  1.00  0.00     0.040 A 
ATOM     75  F   UNL A   1      40.210  34.123  34.264  1.00  0.00    -0.206 F 
ATOM     76  C   UNL A   1      38.143  33.864  37.224  1.00  0.00     0.006 A 
ENDBRANCH  48  69
BRANCH  60  77
ATOM     77  C   UNL A   1      44.155  27.511  34.483  1.00  0.00     0.057 A 
ATOM     78  C   UNL A   1      43.899  26.342  35.210  1.00  0.00     0.134 A 
ATOM     79  C   UNL A   1      45.397  28.131  34.660  1.00  0.00     0.134 A 
ATOM     80  F   UNL A   1      42.722  25.710  35.090  1.00  0.00    -0.206 F 
ATOM     81  C   UNL A   1      44.842  25.816  36.094  1.00  0.00     0.040 A 
ATOM     82  C   UNL A   1      46.354  27.605  35.526  1.00  0.00     0.040 A 
ATOM     83  F   UNL A   1      45.702  29.249  33.985  1.00  0.00    -0.206 F 
ATOM     84  C   UNL A   1      46.077  26.445  36.248  1.00  0.00     0.006 A 
ENDBRANCH  60  77
ENDBRANCH  34  35
ENDBRANCH  27  29
ENDBRANCH  26  27
ENDBRANCH  25  26
ENDBRANCH   1  25
TORSDOF 16
ENDMDL
MODEL 3
REMARK VINA RESULT:     -10.4      2.436      7.311
REMARK SMILES CC[C@H]1CCC[C@H](O[C@@H]2CC[C@]([NH2+]C(C)C)(C(=O)OCCOC(=O)c3ccc(-c4c5nc(c(-c6c(F)cccc6F)c6ccc([nH]6)c(-c6c(F)cccc6F)c6nc(c(-c7c(F)cccc7F)c7ccc4[nH]7)C=C6)C=C5)cc3)C2)C1
REMARK SMILES IDX 20 1 19 2 17 3 18 4 12 5 9 6 10 7 79 8 11 9 8 10 7 11 3 12
REMARK SMILES IDX 4 13 80 14 5 15 6 16 2 17 1 18 13 19 14 22 15 23 16 24 21 25
REMARK SMILES IDX 22 26 23 27 24 28 25 29 26 30 78 31 27 32 77 33 28 34 29 35
REMARK SMILES IDX 30 36 71 37 31 38 76 39 70 40 72 41 32 42 75 43 69 44 68 45
REMARK SMILES IDX 33 47 59 48 42 49 58 50 43 51 46 52 57 53 73 54 44 55 45 56
REMARK SMILES IDX 56 58 74 59 47 60 34 61 35 62 40 63 36 64 37 65 39 66 41 67
REMARK SMILES IDX 38 68 60 69 61 70 66 71 62 72 63 73 65 74 67 75 64 76 48 77
REMARK SMILES IDX 49 78 54 79 50 80 51 81 53 82 55 83 52 84
REMARK H PARENT 13 20 13 21 72 46 46 57
REMARK Flexibility Score: inf
ROOT
ATOM      1  C   UNL A   1      35.661  20.675  25.361  1.00  0.00     0.274 C 
ENDROOT
BRANCH   1   2
ATOM      2  O   UNL A   1      35.347  21.857  26.133  1.00  0.00    -0.457 OA
BRANCH   2   3
ATOM      3  C   UNL A   1      34.062  21.935  26.580  1.00  0.00     0.368 C 
ATOM      4  O   UNL A   1      33.700  21.372  27.611  1.00  0.00    -0.245 OA
BRANCH   3   5
ATOM      5  C   UNL A   1      33.094  22.820  25.713  1.00  0.00     0.197 C 
ATOM      6  C   UNL A   1      31.719  24.857  26.045  1.00  0.00     0.125 C 
ATOM      7  C   UNL A   1      30.769  23.664  25.922  1.00  0.00     0.039 C 
ATOM      8  C   UNL A   1      33.112  24.276  26.220  1.00  0.00     0.113 C 
ATOM      9  C   UNL A   1      31.638  22.403  26.021  1.00  0.00     0.084 C 
BRANCH   6  10
ATOM     10  O   UNL A   1      31.321  25.879  26.958  1.00  0.00    -0.375 OA
BRANCH  10  11
ATOM     11  C   UNL A   1      31.117  27.239  26.535  1.00  0.00     0.118 C 
ATOM     12  C   UNL A   1      31.747  28.815  24.499  1.00  0.00    -0.009 C 
ATOM     13  C   UNL A   1      32.527  29.621  25.544  1.00  0.00     0.004 C 
ATOM     14  C   UNL A   1      31.305  27.418  25.006  1.00  0.00     0.035 C 
ATOM     15  C   UNL A   1      31.822  29.649  26.888  1.00  0.00     0.003 C 
ATOM     16  C   UNL A   1      31.802  28.247  27.454  1.00  0.00     0.032 C 
BRANCH  12  17
ATOM     17  C   UNL A   1      30.545  29.589  23.919  1.00  0.00     0.000 C 
ATOM     18  C   UNL A   1      29.491  28.697  23.273  1.00  0.00     0.004 C 
ENDBRANCH  12  17
ENDBRANCH  10  11
ENDBRANCH   6  10
BRANCH   5  19
ATOM     19  N   UNL A   1      33.278  22.784  24.244  1.00  0.00    -0.330 N 
ATOM     20  H   UNL A   1      32.350  22.706  23.827  1.00  0.00     0.347 HD
ATOM     21  H   UNL A   1      33.907  21.996  24.089  1.00  0.00     0.347 HD
BRANCH  19  22
ATOM     22  C   UNL A   1      33.948  23.911  23.598  1.00  0.00     0.176 C 
ATOM     23  C   UNL A   1      35.312  23.404  23.100  1.00  0.00     0.075 C 
ATOM     24  C   UNL A   1      33.142  24.624  22.496  1.00  0.00     0.075 C 
ENDBRANCH  19  22
ENDBRANCH   5  19
ENDBRANCH   3   5
ENDBRANCH   2   3
ENDBRANCH   1   2
BRANCH   1  25
ATOM     25  C   UNL A   1      37.144  20.670  24.951  1.00  0.00     0.275 C 
BRANCH  25  26
ATOM     26  O   UNL A   1      37.885  21.608  25.758  1.00  0.00    -0.458 OA
BRANCH  26  27
ATOM     27  C   UNL A   1      39.140  21.230  26.143  1.00  0.00     0.338 C 
ATOM     28  O   UNL A   1      39.618  20.115  26.076  1.00  0.00    -0.246 OA
BRANCH  27  29
ATOM     29  C   UNL A   1      39.860  22.432  26.654  1.00  0.00     0.060 A 
ATOM     30  C   UNL A   1      39.553  23.655  26.074  1.00  0.00     0.016 A 
ATOM     31  C   UNL A   1      40.846  22.397  27.634  1.00  0.00     0.016 A 
ATOM     32  C   UNL A   1      40.073  24.857  26.529  1.00  0.00     0.010 A 
ATOM     33  C   UNL A   1      41.446  23.602  28.062  1.00  0.00     0.010 A 
ATOM     34  C   UNL A   1      41.043  24.838  27.523  1.00  0.00    -0.014 A 
BRANCH  34  35
ATOM     35  C   UNL A   1      41.741  26.113  27.807  1.00  0.00     0.031 A 
ATOM     36  C   UNL A   1      41.053  27.116  28.683  1.00  0.00     0.074 A 
ATOM     37  C   UNL A   1      43.033  26.297  27.478  1.00  0.00     0.049 A 
ATOM     38  N   UNL A   1      41.393  28.345  28.965  1.00  0.00    -0.248 NA
ATOM     39  C   UNL A   1      39.834  26.652  29.366  1.00  0.00     0.031 C 
ATOM     40  C   UNL A   1      43.901  25.295  26.861  1.00  0.00     0.029 A 
ATOM     41  N   UNL A   1      43.850  27.388  27.650  1.00  0.00    -0.354 N 
ATOM     42  C   UNL A   1      40.408  28.815  29.823  1.00  0.00     0.074 A 
ATOM     43  C   UNL A   1      39.485  27.727  30.055  1.00  0.00     0.031 C 
ATOM     44  C   UNL A   1      45.130  25.820  26.705  1.00  0.00     0.029 A 
ATOM     45  C   UNL A   1      45.110  27.218  27.130  1.00  0.00     0.049 A 
ATOM     46  H   UNL A   1      43.560  28.212  28.103  1.00  0.00     0.167 HD
ATOM     47  C   UNL A   1      40.270  30.058  30.336  1.00  0.00     0.037 A 
ATOM     48  C   UNL A   1      46.105  28.113  26.962  1.00  0.00     0.037 A 
ATOM     49  C   UNL A   1      41.190  31.130  30.076  1.00  0.00     0.049 A 
ATOM     50  C   UNL A   1      45.863  29.541  27.377  1.00  0.00     0.074 A 
ATOM     51  C   UNL A   1      41.088  32.467  30.411  1.00  0.00     0.029 A 
ATOM     52  N   UNL A   1      42.398  30.971  29.413  1.00  0.00    -0.354 N 
ATOM     53  N   UNL A   1      44.839  30.051  28.021  1.00  0.00    -0.248 NA
ATOM     54  C   UNL A   1      46.886  30.528  27.001  1.00  0.00     0.031 C 
ATOM     55  C   UNL A   1      42.221  33.125  29.912  1.00  0.00     0.029 A 
ATOM     56  C   UNL A   1      43.045  32.189  29.307  1.00  0.00     0.049 A 
ATOM     57  H   UNL A   1      42.745  30.116  29.068  1.00  0.00     0.167 HD
ATOM     58  C   UNL A   1      45.091  31.414  28.124  1.00  0.00     0.074 A 
ATOM     59  C   UNL A   1      46.378  31.648  27.500  1.00  0.00     0.031 C 
ATOM     60  C   UNL A   1      44.324  32.388  28.675  1.00  0.00     0.037 A 
BRANCH  47  61
ATOM     61  C   UNL A   1      39.014  30.330  31.107  1.00  0.00     0.057 A 
ATOM     62  C   UNL A   1      38.924  30.142  32.490  1.00  0.00     0.134 A 
ATOM     63  C   UNL A   1      37.855  30.730  30.429  1.00  0.00     0.134 A 
ATOM     64  F   UNL A   1      39.989  29.725  33.191  1.00  0.00    -0.206 F 
ATOM     65  C   UNL A   1      37.717  30.320  33.171  1.00  0.00     0.040 A 
ATOM     66  C   UNL A   1      36.649  30.929  31.100  1.00  0.00     0.040 A 
ATOM     67  F   UNL A   1      37.873  30.913  29.101  1.00  0.00    -0.206 F 
ATOM     68  C   UNL A   1      36.575  30.716  32.475  1.00  0.00     0.006 A 
ENDBRANCH  47  61
BRANCH  48  69
ATOM     69  C   UNL A   1      47.366  27.718  26.277  1.00  0.00     0.057 A 
ATOM     70  C   UNL A   1      47.479  27.727  24.883  1.00  0.00     0.134 A 
ATOM     71  C   UNL A   1      48.488  27.299  27.006  1.00  0.00     0.134 A 
ATOM     72  F   UNL A   1      46.432  28.080  24.122  1.00  0.00    -0.206 F 
ATOM     73  C   UNL A   1      48.659  27.340  24.240  1.00  0.00     0.040 A 
ATOM     74  C   UNL A   1      49.681  26.938  26.379  1.00  0.00     0.040 A 
ATOM     75  F   UNL A   1      48.444  27.246  28.346  1.00  0.00    -0.206 F 
ATOM     76  C   UNL A   1      49.768  26.954  24.990  1.00  0.00     0.006 A 
ENDBRANCH  48  69
BRANCH  60  77
ATOM     77  C   UNL A   1      44.862  33.785  28.631  1.00  0.00     0.057 A 
ATOM     78  C   UNL A   1      44.550  34.656  27.580  1.00  0.00     0.134 A 
ATOM     79  C   UNL A   1      45.654  34.279  29.674  1.00  0.00     0.134 A 
ATOM     80  F   UNL A   1      43.805  34.236  26.548  1.00  0.00    -0.206 F 
ATOM     81  C   UNL A   1      45.023  35.969  27.561  1.00  0.00     0.040 A 
ATOM     82  C   UNL A   1      46.116  35.594  29.676  1.00  0.00     0.040 A 
ATOM     83  F   UNL A   1      45.979  33.494  30.713  1.00  0.00    -0.206 F 
ATOM     84  C   UNL A   1      45.802  36.443  28.615  1.00  0.00     0.006 A 
ENDBRANCH  60  77
ENDBRANCH  34  35
ENDBRANCH  27  29
ENDBRANCH  26  27
ENDBRANCH  25  26
ENDBRANCH   1  25
TORSDOF 16
ENDMDL
