MODEL 1
REMARK VINA RESULT:     -11.7      0.000      0.000
REMARK SMILES CN(c1ccccc1C(=O)OCCOC(=O)c1ccc(-c2c3nc(c(-c4c(F)cccc4F)c4ccc([nH]4)c(-c4c(F)cccc4F)c4nc(c(-c5c(F)cccc5F)c5ccc2[nH]5)C=C4)C=C3)cc1)S(=O)(=O)c1ccc(I)cc1
REMARK SMILES IDX 12 1 11 2 9 3 10 4 8 5 3 6 4 7 5 8 7 9 6 10 2 11 1 12 71 13
REMARK SMILES IDX 72 14 73 15 74 16 75 17 80 18 76 19 79 20 77 21 78 22 13 23
REMARK SMILES IDX 14 24 15 25 16 26 17 27 18 28 70 29 19 30 69 31 20 32 21 33
REMARK SMILES IDX 22 34 63 35 23 36 68 37 62 38 64 39 24 40 67 41 61 42 60 43
REMARK SMILES IDX 25 45 51 46 34 47 50 48 35 49 38 50 49 51 65 52 36 53 37 54
REMARK SMILES IDX 48 56 66 57 39 58 26 59 27 60 32 61 28 62 29 63 31 64 33 65
REMARK SMILES IDX 30 66 52 67 53 68 58 69 54 70 55 71 57 72 59 73 56 74 40 75
REMARK SMILES IDX 41 76 46 77 42 78 43 79 45 80 47 81 44 82
REMARK H PARENT 64 44 38 55
REMARK Flexibility Score: inf
ROOT
ATOM      1  C   UNL A   1      35.740  21.454  26.172  1.00  0.00     0.275 C 
ENDROOT
BRANCH   1   2
ATOM      2  O   UNL A   1      34.754  22.413  25.726  1.00  0.00    -0.458 OA
BRANCH   2   3
ATOM      3  C   UNL A   1      33.464  22.071  25.910  1.00  0.00     0.340 C 
ATOM      4  O   UNL A   1      32.825  22.215  26.944  1.00  0.00    -0.246 OA
BRANCH   3   5
ATOM      5  C   UNL A   1      32.817  21.511  24.703  1.00  0.00     0.084 A 
ATOM      6  C   UNL A   1      32.447  22.249  23.570  1.00  0.00     0.066 A 
ATOM      7  C   UNL A   1      32.179  21.548  22.376  1.00  0.00     0.028 A 
ATOM      8  C   UNL A   1      32.152  20.155  22.324  1.00  0.00     0.002 A 
ATOM      9  C   UNL A   1      32.800  20.102  24.627  1.00  0.00     0.018 A 
ATOM     10  C   UNL A   1      32.432  19.427  23.465  1.00  0.00     0.001 A 
BRANCH   6  11
ATOM     11  N   UNL A   1      32.168  23.665  23.490  1.00  0.00    -0.269 N 
ATOM     12  C   UNL A   1      30.794  24.101  23.178  1.00  0.00     0.164 C 
BRANCH  11  13
ATOM     13  S   UNL A   1      33.386  24.642  22.748  1.00  0.00     0.264 S 
ATOM     14  O   UNL A   1      34.638  23.909  22.750  1.00  0.00    -0.201 OA
ATOM     15  O   UNL A   1      32.838  25.142  21.509  1.00  0.00    -0.201 OA
BRANCH  13  16
ATOM     16  C   UNL A   1      33.580  26.035  23.848  1.00  0.00     0.088 A 
ATOM     17  C   UNL A   1      33.629  25.817  25.232  1.00  0.00     0.023 A 
ATOM     18  C   UNL A   1      33.628  27.331  23.326  1.00  0.00     0.023 A 
ATOM     19  C   UNL A   1      33.649  26.911  26.100  1.00  0.00     0.016 A 
ATOM     20  C   UNL A   1      33.652  28.422  24.200  1.00  0.00     0.016 A 
ATOM     21  C   UNL A   1      33.647  28.207  25.581  1.00  0.00     0.013 A 
ATOM     22  I   UNL A   1      33.606  29.831  26.879  1.00  0.00    -0.044 I 
ENDBRANCH  13  16
ENDBRANCH  11  13
ENDBRANCH   6  11
ENDBRANCH   3   5
ENDBRANCH   2   3
ENDBRANCH   1   2
BRANCH   1  23
ATOM     23  C   UNL A   1      36.510  20.846  25.004  1.00  0.00     0.275 C 
BRANCH  23  24
ATOM     24  O   UNL A   1      37.765  21.529  24.838  1.00  0.00    -0.458 OA
BRANCH  24  25
ATOM     25  C   UNL A   1      38.742  21.134  25.680  1.00  0.00     0.338 C 
ATOM     26  O   UNL A   1      39.222  20.021  25.813  1.00  0.00    -0.246 OA
BRANCH  25  27
ATOM     27  C   UNL A   1      39.259  22.292  26.417  1.00  0.00     0.060 A 
ATOM     28  C   UNL A   1      38.729  23.542  26.121  1.00  0.00     0.016 A 
ATOM     29  C   UNL A   1      40.387  22.175  27.223  1.00  0.00     0.016 A 
ATOM     30  C   UNL A   1      39.410  24.694  26.502  1.00  0.00     0.010 A 
ATOM     31  C   UNL A   1      40.998  23.335  27.712  1.00  0.00     0.010 A 
ATOM     32  C   UNL A   1      40.553  24.608  27.308  1.00  0.00    -0.014 A 
BRANCH  32  33
ATOM     33  C   UNL A   1      41.313  25.836  27.684  1.00  0.00     0.031 A 
ATOM     34  C   UNL A   1      40.661  26.895  28.539  1.00  0.00     0.074 A 
ATOM     35  C   UNL A   1      42.587  26.008  27.277  1.00  0.00     0.049 A 
ATOM     36  N   UNL A   1      41.058  28.118  28.790  1.00  0.00    -0.248 NA
ATOM     37  C   UNL A   1      39.385  26.538  29.181  1.00  0.00     0.031 C 
ATOM     38  C   UNL A   1      43.367  25.051  26.490  1.00  0.00     0.029 A 
ATOM     39  N   UNL A   1      43.454  27.056  27.470  1.00  0.00    -0.354 N 
ATOM     40  C   UNL A   1      40.048  28.696  29.553  1.00  0.00     0.074 A 
ATOM     41  C   UNL A   1      39.024  27.690  29.731  1.00  0.00     0.031 C 
ATOM     42  C   UNL A   1      44.602  25.537  26.299  1.00  0.00     0.029 A 
ATOM     43  C   UNL A   1      44.672  26.881  26.860  1.00  0.00     0.049 A 
ATOM     44  H   UNL A   1      43.225  27.857  27.996  1.00  0.00     0.167 HD
ATOM     45  C   UNL A   1      39.982  29.954  30.054  1.00  0.00     0.037 A 
ATOM     46  C   UNL A   1      45.714  27.722  26.716  1.00  0.00     0.037 A 
ATOM     47  C   UNL A   1      41.037  30.927  29.936  1.00  0.00     0.049 A 
ATOM     48  C   UNL A   1      45.615  29.112  27.272  1.00  0.00     0.074 A 
ATOM     49  C   UNL A   1      41.075  32.222  30.426  1.00  0.00     0.029 A 
ATOM     50  N   UNL A   1      42.251  30.704  29.305  1.00  0.00    -0.354 N 
ATOM     51  N   UNL A   1      44.628  29.669  27.932  1.00  0.00    -0.248 NA
ATOM     52  C   UNL A   1      46.764  29.999  27.047  1.00  0.00     0.031 C 
ATOM     53  C   UNL A   1      42.301  32.791  30.064  1.00  0.00     0.029 A 
ATOM     54  C   UNL A   1      43.041  31.838  29.387  1.00  0.00     0.049 A 
ATOM     55  H   UNL A   1      42.511  29.864  28.863  1.00  0.00     0.167 HD
ATOM     56  C   UNL A   1      45.042  30.964  28.211  1.00  0.00     0.074 A 
ATOM     57  C   UNL A   1      46.378  31.103  27.668  1.00  0.00     0.031 C 
ATOM     58  C   UNL A   1      44.373  31.953  28.852  1.00  0.00     0.037 A 
BRANCH  45  59
ATOM     59  C   UNL A   1      38.716  30.367  30.748  1.00  0.00     0.057 A 
ATOM     60  C   UNL A   1      37.638  30.937  30.063  1.00  0.00     0.134 A 
ATOM     61  C   UNL A   1      38.560  30.137  32.122  1.00  0.00     0.134 A 
ATOM     62  F   UNL A   1      37.728  31.196  28.749  1.00  0.00    -0.206 F 
ATOM     63  C   UNL A   1      36.455  31.281  30.721  1.00  0.00     0.040 A 
ATOM     64  C   UNL A   1      37.373  30.453  32.787  1.00  0.00     0.040 A 
ATOM     65  F   UNL A   1      39.551  29.586  32.839  1.00  0.00    -0.206 F 
ATOM     66  C   UNL A   1      36.317  31.031  32.086  1.00  0.00     0.006 A 
ENDBRANCH  45  59
BRANCH  46  67
ATOM     67  C   UNL A   1      46.921  27.288  25.967  1.00  0.00     0.057 A 
ATOM     68  C   UNL A   1      47.033  27.499  24.588  1.00  0.00     0.134 A 
ATOM     69  C   UNL A   1      47.990  26.650  26.611  1.00  0.00     0.134 A 
ATOM     70  F   UNL A   1      46.032  28.081  23.912  1.00  0.00    -0.206 F 
ATOM     71  C   UNL A   1      48.157  27.081  23.874  1.00  0.00     0.040 A 
ATOM     72  C   UNL A   1      49.133  26.256  25.915  1.00  0.00     0.040 A 
ATOM     73  F   UNL A   1      47.947  26.422  27.932  1.00  0.00    -0.206 F 
ATOM     74  C   UNL A   1      49.215  26.464  24.540  1.00  0.00     0.006 A 
ENDBRANCH  46  67
BRANCH  58  75
ATOM     75  C   UNL A   1      45.096  33.252  29.036  1.00  0.00     0.057 A 
ATOM     76  C   UNL A   1      45.918  33.489  30.143  1.00  0.00     0.134 A 
ATOM     77  C   UNL A   1      44.982  34.270  28.080  1.00  0.00     0.134 A 
ATOM     78  F   UNL A   1      46.055  32.559  31.100  1.00  0.00    -0.206 F 
ATOM     79  C   UNL A   1      46.586  34.704  30.307  1.00  0.00     0.040 A 
ATOM     80  C   UNL A   1      45.663  35.480  28.220  1.00  0.00     0.040 A 
ATOM     81  F   UNL A   1      44.214  34.102  26.993  1.00  0.00    -0.206 F 
ATOM     82  C   UNL A   1      46.463  35.701  29.340  1.00  0.00     0.006 A 
ENDBRANCH  58  75
ENDBRANCH  32  33
ENDBRANCH  25  27
ENDBRANCH  24  25
ENDBRANCH  23  24
ENDBRANCH   1  23
TORSDOF 14
ENDMDL
MODEL 2
REMARK VINA RESULT:     -11.6      4.126      8.820
REMARK SMILES CN(c1ccccc1C(=O)OCCOC(=O)c1ccc(-c2c3nc(c(-c4c(F)cccc4F)c4ccc([nH]4)c(-c4c(F)cccc4F)c4nc(c(-c5c(F)cccc5F)c5ccc2[nH]5)C=C4)C=C3)cc1)S(=O)(=O)c1ccc(I)cc1
REMARK SMILES IDX 12 1 11 2 9 3 10 4 8 5 3 6 4 7 5 8 7 9 6 10 2 11 1 12 71 13
REMARK SMILES IDX 72 14 73 15 74 16 75 17 80 18 76 19 79 20 77 21 78 22 13 23
REMARK SMILES IDX 14 24 15 25 16 26 17 27 18 28 70 29 19 30 69 31 20 32 21 33
REMARK SMILES IDX 22 34 63 35 23 36 68 37 62 38 64 39 24 40 67 41 61 42 60 43
REMARK SMILES IDX 25 45 51 46 34 47 50 48 35 49 38 50 49 51 65 52 36 53 37 54
REMARK SMILES IDX 48 56 66 57 39 58 26 59 27 60 32 61 28 62 29 63 31 64 33 65
REMARK SMILES IDX 30 66 52 67 53 68 58 69 54 70 55 71 57 72 59 73 56 74 40 75
REMARK SMILES IDX 41 76 46 77 42 78 43 79 45 80 47 81 44 82
REMARK H PARENT 64 44 38 55
REMARK Flexibility Score: inf
ROOT
ATOM      1  C   UNL A   1      32.768  29.286  24.999  1.00  0.00     0.275 C 
ENDROOT
BRANCH   1   2
ATOM      2  O   UNL A   1      32.472  29.255  23.583  1.00  0.00    -0.458 OA
BRANCH   2   3
ATOM      3  C   UNL A   1      32.215  28.042  23.055  1.00  0.00     0.340 C 
ATOM      4  O   UNL A   1      33.040  27.289  22.555  1.00  0.00    -0.246 OA
BRANCH   3   5
ATOM      5  C   UNL A   1      30.797  27.634  23.158  1.00  0.00     0.084 A 
ATOM      6  C   UNL A   1      30.323  26.541  23.895  1.00  0.00     0.066 A 
ATOM      7  C   UNL A   1      28.946  26.485  24.194  1.00  0.00     0.028 A 
ATOM      8  C   UNL A   1      28.037  27.408  23.680  1.00  0.00     0.002 A 
ATOM      9  C   UNL A   1      29.864  28.569  22.659  1.00  0.00     0.018 A 
ATOM     10  C   UNL A   1      28.495  28.438  22.879  1.00  0.00     0.001 A 
BRANCH   6  11
ATOM     11  N   UNL A   1      31.055  25.360  24.293  1.00  0.00    -0.269 N 
ATOM     12  C   UNL A   1      30.679  24.060  23.704  1.00  0.00     0.164 C 
BRANCH  11  13
ATOM     13  S   UNL A   1      31.490  25.258  25.963  1.00  0.00     0.264 S 
ATOM     14  O   UNL A   1      31.624  26.601  26.493  1.00  0.00    -0.201 OA
ATOM     15  O   UNL A   1      30.586  24.316  26.584  1.00  0.00    -0.201 OA
BRANCH  13  16
ATOM     16  C   UNL A   1      33.115  24.518  25.961  1.00  0.00     0.088 A 
ATOM     17  C   UNL A   1      34.136  25.103  25.201  1.00  0.00     0.023 A 
ATOM     18  C   UNL A   1      33.341  23.337  26.674  1.00  0.00     0.023 A 
ATOM     19  C   UNL A   1      35.370  24.458  25.093  1.00  0.00     0.016 A 
ATOM     20  C   UNL A   1      34.580  22.697  26.564  1.00  0.00     0.016 A 
ATOM     21  C   UNL A   1      35.582  23.252  25.763  1.00  0.00     0.013 A 
ATOM     22  I   UNL A   1      37.396  22.260  25.543  1.00  0.00    -0.044 I 
ENDBRANCH  13  16
ENDBRANCH  11  13
ENDBRANCH   6  11
ENDBRANCH   3   5
ENDBRANCH   2   3
ENDBRANCH   1   2
BRANCH   1  23
ATOM     23  C   UNL A   1      31.855  30.252  25.748  1.00  0.00     0.275 C 
BRANCH  23  24
ATOM     24  O   UNL A   1      32.340  30.441  27.089  1.00  0.00    -0.458 OA
BRANCH  24  25
ATOM     25  C   UNL A   1      33.011  31.594  27.293  1.00  0.00     0.338 C 
ATOM     26  O   UNL A   1      32.581  32.735  27.262  1.00  0.00    -0.246 OA
BRANCH  25  27
ATOM     27  C   UNL A   1      34.399  31.300  27.662  1.00  0.00     0.060 A 
ATOM     28  C   UNL A   1      34.736  29.979  27.934  1.00  0.00     0.016 A 
ATOM     29  C   UNL A   1      35.293  32.329  27.944  1.00  0.00     0.016 A 
ATOM     30  C   UNL A   1      35.906  29.689  28.629  1.00  0.00     0.010 A 
ATOM     31  C   UNL A   1      36.526  32.021  28.527  1.00  0.00     0.010 A 
ATOM     32  C   UNL A   1      36.822  30.705  28.932  1.00  0.00    -0.014 A 
BRANCH  32  33
ATOM     33  C   UNL A   1      38.057  30.408  29.715  1.00  0.00     0.031 A 
ATOM     34  C   UNL A   1      39.145  29.553  29.113  1.00  0.00     0.074 A 
ATOM     35  C   UNL A   1      38.220  30.904  30.958  1.00  0.00     0.049 A 
ATOM     36  N   UNL A   1      40.180  28.999  29.692  1.00  0.00    -0.248 NA
ATOM     37  C   UNL A   1      39.046  29.270  27.671  1.00  0.00     0.031 C 
ATOM     38  C   UNL A   1      37.281  31.786  31.654  1.00  0.00     0.029 A 
ATOM     39  N   UNL A   1      39.241  30.737  31.861  1.00  0.00    -0.354 N 
ATOM     40  C   UNL A   1      40.809  28.244  28.707  1.00  0.00     0.074 A 
ATOM     41  C   UNL A   1      40.045  28.417  27.491  1.00  0.00     0.031 C 
ATOM     42  C   UNL A   1      37.782  32.110  32.854  1.00  0.00     0.029 A 
ATOM     43  C   UNL A   1      39.028  31.380  33.057  1.00  0.00     0.049 A 
ATOM     44  H   UNL A   1      40.050  30.207  31.671  1.00  0.00     0.167 HD
ATOM     45  C   UNL A   1      41.919  27.473  28.812  1.00  0.00     0.037 A 
ATOM     46  C   UNL A   1      39.723  31.349  34.210  1.00  0.00     0.037 A 
ATOM     47  C   UNL A   1      42.717  27.364  30.005  1.00  0.00     0.049 A 
ATOM     48  C   UNL A   1      40.945  30.482  34.304  1.00  0.00     0.074 A 
ATOM     49  C   UNL A   1      43.871  26.625  30.207  1.00  0.00     0.029 A 
ATOM     50  N   UNL A   1      42.458  28.031  31.193  1.00  0.00    -0.354 N 
ATOM     51  N   UNL A   1      41.490  29.721  33.387  1.00  0.00    -0.248 NA
ATOM     52  C   UNL A   1      41.637  30.454  35.599  1.00  0.00     0.031 C 
ATOM     53  C   UNL A   1      44.293  26.823  31.526  1.00  0.00     0.029 A 
ATOM     54  C   UNL A   1      43.426  27.716  32.132  1.00  0.00     0.049 A 
ATOM     55  H   UNL A   1      41.698  28.637  31.345  1.00  0.00     0.167 HD
ATOM     56  C   UNL A   1      42.594  29.134  33.989  1.00  0.00     0.074 A 
ATOM     57  C   UNL A   1      42.654  29.644  35.343  1.00  0.00     0.031 C 
ATOM     58  C   UNL A   1      43.476  28.245  33.470  1.00  0.00     0.037 A 
BRANCH  45  59
ATOM     59  C   UNL A   1      42.324  26.661  27.616  1.00  0.00     0.057 A 
ATOM     60  C   UNL A   1      41.872  25.352  27.411  1.00  0.00     0.134 A 
ATOM     61  C   UNL A   1      43.142  27.223  26.626  1.00  0.00     0.134 A 
ATOM     62  F   UNL A   1      41.097  24.750  28.327  1.00  0.00    -0.206 F 
ATOM     63  C   UNL A   1      42.230  24.626  26.274  1.00  0.00     0.040 A 
ATOM     64  C   UNL A   1      43.487  26.516  25.472  1.00  0.00     0.040 A 
ATOM     65  F   UNL A   1      43.605  28.476  26.755  1.00  0.00    -0.206 F 
ATOM     66  C   UNL A   1      43.034  25.211  25.296  1.00  0.00     0.006 A 
ENDBRANCH  45  59
BRANCH  46  67
ATOM     67  C   UNL A   1      39.247  32.122  35.385  1.00  0.00     0.057 A 
ATOM     68  C   UNL A   1      38.410  31.542  36.344  1.00  0.00     0.134 A 
ATOM     69  C   UNL A   1      39.618  33.461  35.576  1.00  0.00     0.134 A 
ATOM     70  F   UNL A   1      38.001  30.273  36.203  1.00  0.00    -0.206 F 
ATOM     71  C   UNL A   1      37.947  32.267  37.443  1.00  0.00     0.040 A 
ATOM     72  C   UNL A   1      39.188  34.187  36.687  1.00  0.00     0.040 A 
ATOM     73  F   UNL A   1      40.422  34.074  34.695  1.00  0.00    -0.206 F 
ATOM     74  C   UNL A   1      38.343  33.592  37.621  1.00  0.00     0.006 A 
ENDBRANCH  46  67
BRANCH  58  75
ATOM     75  C   UNL A   1      44.600  27.806  34.358  1.00  0.00     0.057 A 
ATOM     76  C   UNL A   1      45.805  28.514  34.428  1.00  0.00     0.134 A 
ATOM     77  C   UNL A   1      44.463  26.673  35.170  1.00  0.00     0.134 A 
ATOM     78  F   UNL A   1      46.001  29.599  33.663  1.00  0.00    -0.206 F 
ATOM     79  C   UNL A   1      46.847  28.097  35.257  1.00  0.00     0.040 A 
ATOM     80  C   UNL A   1      45.489  26.259  36.021  1.00  0.00     0.040 A 
ATOM     81  F   UNL A   1      43.330  25.955  35.154  1.00  0.00    -0.206 F 
ATOM     82  C   UNL A   1      46.688  26.969  36.061  1.00  0.00     0.006 A 
ENDBRANCH  58  75
ENDBRANCH  32  33
ENDBRANCH  25  27
ENDBRANCH  24  25
ENDBRANCH  23  24
ENDBRANCH   1  23
TORSDOF 14
ENDMDL
MODEL 3
REMARK VINA RESULT:     -11.2      1.743      3.617
REMARK SMILES CN(c1ccccc1C(=O)OCCOC(=O)c1ccc(-c2c3nc(c(-c4c(F)cccc4F)c4ccc([nH]4)c(-c4c(F)cccc4F)c4nc(c(-c5c(F)cccc5F)c5ccc2[nH]5)C=C4)C=C3)cc1)S(=O)(=O)c1ccc(I)cc1
REMARK SMILES IDX 12 1 11 2 9 3 10 4 8 5 3 6 4 7 5 8 7 9 6 10 2 11 1 12 71 13
REMARK SMILES IDX 72 14 73 15 74 16 75 17 80 18 76 19 79 20 77 21 78 22 13 23
REMARK SMILES IDX 14 24 15 25 16 26 17 27 18 28 70 29 19 30 69 31 20 32 21 33
REMARK SMILES IDX 22 34 63 35 23 36 68 37 62 38 64 39 24 40 67 41 61 42 60 43
REMARK SMILES IDX 25 45 51 46 34 47 50 48 35 49 38 50 49 51 65 52 36 53 37 54
REMARK SMILES IDX 48 56 66 57 39 58 26 59 27 60 32 61 28 62 29 63 31 64 33 65
REMARK SMILES IDX 30 66 52 67 53 68 58 69 54 70 55 71 57 72 59 73 56 74 40 75
REMARK SMILES IDX 41 76 46 77 42 78 43 79 45 80 47 81 44 82
REMARK H PARENT 64 44 38 55
REMARK Flexibility Score: inf
ROOT
ATOM      1  C   UNL A   1      36.181  23.246  23.545  1.00  0.00     0.275 C 
ENDROOT
BRANCH   1   2
ATOM      2  O   UNL A   1      35.306  24.157  24.251  1.00  0.00    -0.458 OA
BRANCH   2   3
ATOM      3  C   UNL A   1      34.311  24.707  23.528  1.00  0.00     0.340 C 
ATOM      4  O   UNL A   1      33.967  24.363  22.405  1.00  0.00    -0.246 OA
BRANCH   3   5
ATOM      5  C   UNL A   1      33.591  25.792  24.231  1.00  0.00     0.084 A 
ATOM      6  C   UNL A   1      32.680  25.607  25.280  1.00  0.00     0.066 A 
ATOM      7  C   UNL A   1      32.352  26.720  26.081  1.00  0.00     0.028 A 
ATOM      8  C   UNL A   1      32.806  28.005  25.788  1.00  0.00     0.002 A 
ATOM      9  C   UNL A   1      34.054  27.097  23.959  1.00  0.00     0.018 A 
ATOM     10  C   UNL A   1      33.636  28.200  24.700  1.00  0.00     0.001 A 
BRANCH   6  11
ATOM     11  N   UNL A   1      31.907  24.424  25.581  1.00  0.00    -0.269 N 
ATOM     12  C   UNL A   1      30.455  24.561  25.798  1.00  0.00     0.164 C 
BRANCH  11  13
ATOM     13  S   UNL A   1      32.654  23.272  26.632  1.00  0.00     0.264 S 
ATOM     14  O   UNL A   1      33.990  23.734  26.958  1.00  0.00    -0.201 OA
ATOM     15  O   UNL A   1      31.709  22.975  27.683  1.00  0.00    -0.201 OA
BRANCH  13  16
ATOM     16  C   UNL A   1      32.827  21.799  25.637  1.00  0.00     0.088 A 
ATOM     17  C   UNL A   1      32.405  21.818  24.300  1.00  0.00     0.023 A 
ATOM     18  C   UNL A   1      33.330  20.627  26.211  1.00  0.00     0.023 A 
ATOM     19  C   UNL A   1      32.418  20.636  23.558  1.00  0.00     0.016 A 
ATOM     20  C   UNL A   1      33.342  19.447  25.461  1.00  0.00     0.016 A 
ATOM     21  C   UNL A   1      32.873  19.454  24.145  1.00  0.00     0.013 A 
ATOM     22  I   UNL A   1      32.823  17.682  23.057  1.00  0.00    -0.044 I 
ENDBRANCH  13  16
ENDBRANCH  11  13
ENDBRANCH   6  11
ENDBRANCH   3   5
ENDBRANCH   2   3
ENDBRANCH   1   2
BRANCH   1  23
ATOM     23  C   UNL A   1      36.268  21.891  24.240  1.00  0.00     0.275 C 
BRANCH  23  24
ATOM     24  O   UNL A   1      36.775  22.058  25.576  1.00  0.00    -0.458 OA
BRANCH  24  25
ATOM     25  C   UNL A   1      38.073  21.726  25.737  1.00  0.00     0.338 C 
ATOM     26  O   UNL A   1      38.670  20.766  25.279  1.00  0.00    -0.246 OA
BRANCH  25  27
ATOM     27  C   UNL A   1      38.757  22.764  26.513  1.00  0.00     0.060 A 
ATOM     28  C   UNL A   1      38.241  24.054  26.474  1.00  0.00     0.016 A 
ATOM     29  C   UNL A   1      39.999  22.517  27.090  1.00  0.00     0.016 A 
ATOM     30  C   UNL A   1      39.027  25.130  26.873  1.00  0.00     0.010 A 
ATOM     31  C   UNL A   1      40.734  23.588  27.608  1.00  0.00     0.010 A 
ATOM     32  C   UNL A   1      40.285  24.913  27.452  1.00  0.00    -0.014 A 
BRANCH  32  33
ATOM     33  C   UNL A   1      41.151  26.064  27.842  1.00  0.00     0.031 A 
ATOM     34  C   UNL A   1      40.602  27.157  28.726  1.00  0.00     0.074 A 
ATOM     35  C   UNL A   1      42.430  26.135  27.422  1.00  0.00     0.049 A 
ATOM     36  N   UNL A   1      41.104  28.335  28.996  1.00  0.00    -0.248 NA
ATOM     37  C   UNL A   1      39.307  26.897  29.377  1.00  0.00     0.031 C 
ATOM     38  C   UNL A   1      43.117  25.132  26.606  1.00  0.00     0.029 A 
ATOM     39  N   UNL A   1      43.386  27.101  27.625  1.00  0.00    -0.354 N 
ATOM     40  C   UNL A   1      40.156  28.982  29.784  1.00  0.00     0.074 A 
ATOM     41  C   UNL A   1      39.052  28.063  29.954  1.00  0.00     0.031 C 
ATOM     42  C   UNL A   1      44.387  25.514  26.409  1.00  0.00     0.029 A 
ATOM     43  C   UNL A   1      44.578  26.835  26.996  1.00  0.00     0.049 A 
ATOM     44  H   UNL A   1      43.232  27.908  28.170  1.00  0.00     0.167 HD
ATOM     45  C   UNL A   1      40.204  30.230  30.310  1.00  0.00     0.037 A 
ATOM     46  C   UNL A   1      45.687  27.587  26.856  1.00  0.00     0.037 A 
ATOM     47  C   UNL A   1      41.337  31.112  30.199  1.00  0.00     0.049 A 
ATOM     48  C   UNL A   1      45.712  28.969  27.441  1.00  0.00     0.074 A 
ATOM     49  C   UNL A   1      41.491  32.388  30.713  1.00  0.00     0.029 A 
ATOM     50  N   UNL A   1      42.520  30.799  29.547  1.00  0.00    -0.354 N 
ATOM     51  N   UNL A   1      44.784  29.594  28.124  1.00  0.00    -0.248 NA
ATOM     52  C   UNL A   1      46.931  29.759  27.218  1.00  0.00     0.031 C 
ATOM     53  C   UNL A   1      42.757  32.858  30.347  1.00  0.00     0.029 A 
ATOM     54  C   UNL A   1      43.405  31.860  29.642  1.00  0.00     0.049 A 
ATOM     55  H   UNL A   1      42.702  29.949  29.085  1.00  0.00     0.167 HD
ATOM     56  C   UNL A   1      45.311  30.843  28.423  1.00  0.00     0.074 A 
ATOM     57  C   UNL A   1      46.648  30.878  27.866  1.00  0.00     0.031 C 
ATOM     58  C   UNL A   1      44.736  31.872  29.092  1.00  0.00     0.037 A 
BRANCH  45  59
ATOM     59  C   UNL A   1      38.986  30.734  31.029  1.00  0.00     0.057 A 
ATOM     60  C   UNL A   1      38.803  30.562  32.405  1.00  0.00     0.134 A 
ATOM     61  C   UNL A   1      38.004  31.452  30.332  1.00  0.00     0.134 A 
ATOM     62  F   UNL A   1      39.699  29.873  33.129  1.00  0.00    -0.206 F 
ATOM     63  C   UNL A   1      37.680  31.071  33.062  1.00  0.00     0.040 A 
ATOM     64  C   UNL A   1      36.889  31.987  30.981  1.00  0.00     0.040 A 
ATOM     65  F   UNL A   1      38.119  31.660  29.011  1.00  0.00    -0.206 F 
ATOM     66  C   UNL A   1      36.723  31.793  32.350  1.00  0.00     0.006 A 
ENDBRANCH  45  59
BRANCH  46  67
ATOM     67  C   UNL A   1      46.843  27.067  26.082  1.00  0.00     0.057 A 
ATOM     68  C   UNL A   1      47.828  26.282  26.690  1.00  0.00     0.134 A 
ATOM     69  C   UNL A   1      46.991  27.345  24.716  1.00  0.00     0.134 A 
ATOM     70  F   UNL A   1      47.755  26.002  27.999  1.00  0.00    -0.206 F 
ATOM     71  C   UNL A   1      48.925  25.802  25.972  1.00  0.00     0.040 A 
ATOM     72  C   UNL A   1      48.066  26.845  23.981  1.00  0.00     0.040 A 
ATOM     73  F   UNL A   1      46.079  28.089  24.073  1.00  0.00    -0.206 F 
ATOM     74  C   UNL A   1      49.041  26.077  24.611  1.00  0.00     0.006 A 
ENDBRANCH  46  67
BRANCH  58  75
ATOM     75  C   UNL A   1      45.569  33.100  29.292  1.00  0.00     0.057 A 
ATOM     76  C   UNL A   1      46.418  33.245  30.396  1.00  0.00     0.134 A 
ATOM     77  C   UNL A   1      45.535  34.142  28.357  1.00  0.00     0.134 A 
ATOM     78  F   UNL A   1      46.483  32.288  31.334  1.00  0.00    -0.206 F 
ATOM     79  C   UNL A   1      47.189  34.395  30.575  1.00  0.00     0.040 A 
ATOM     80  C   UNL A   1      46.319  35.286  28.512  1.00  0.00     0.040 A 
ATOM     81  F   UNL A   1      44.747  34.061  27.275  1.00  0.00    -0.206 F 
ATOM     82  C   UNL A   1      47.144  35.417  29.628  1.00  0.00     0.006 A 
ENDBRANCH  58  75
ENDBRANCH  32  33
ENDBRANCH  25  27
ENDBRANCH  24  25
ENDBRANCH  23  24
ENDBRANCH   1  23
TORSDOF 14
ENDMDL
