MODEL 1
REMARK VINA RESULT:     -10.7      0.000      0.000
REMARK SMILES C[N@H+]1CCO[C@@H](CN2C[C@H](C(=O)OCCOC(=O)c3ccc(-c4c5nc(c(-c6c(F)cccc6F)c6ccc([nH]6)c(-c6c(F)cccc6F)c6nc(c(-c7c(F)cccc7F)c7ccc4[nH]7)C=C6)C=C5)cc3)CC2=O)C1
REMARK SMILES IDX 14 1 13 2 11 3 12 4 10 5 8 6 9 7 74 8 73 9 75 10 7 11 6 12
REMARK SMILES IDX 1 13 2 14 3 15 76 16 4 18 5 19 15 20 16 21 17 22 18 23 19 24
REMARK SMILES IDX 20 25 72 26 21 27 71 28 22 29 23 30 24 31 65 32 25 33 70 34
REMARK SMILES IDX 64 35 66 36 26 37 69 38 63 39 62 40 27 42 53 43 36 44 52 45
REMARK SMILES IDX 37 46 40 47 51 48 67 49 38 50 39 51 50 53 68 54 41 55 28 56
REMARK SMILES IDX 29 57 34 58 30 59 31 60 33 61 35 62 32 63 54 64 55 65 60 66
REMARK SMILES IDX 56 67 57 68 59 69 61 70 58 71 42 72 43 73 48 74 44 75 45 76
REMARK SMILES IDX 47 77 49 78 46 79
REMARK H PARENT 2 17 66 41 40 52
REMARK Flexibility Score: inf
ROOT
ATOM      1  C   UNL A   1      31.268  31.965  26.492  1.00  0.00     0.274 C 
ENDROOT
BRANCH   1   2
ATOM      2  O   UNL A   1      32.285  30.953  26.630  1.00  0.00    -0.462 OA
BRANCH   2   3
ATOM      3  C   UNL A   1      32.213  29.901  25.778  1.00  0.00     0.311 C 
ATOM      4  O   UNL A   1      31.201  29.542  25.187  1.00  0.00    -0.252 OA
BRANCH   3   5
ATOM      5  C   UNL A   1      33.529  29.170  25.633  1.00  0.00     0.128 C 
ATOM      6  N   UNL A   1      33.360  26.846  25.522  1.00  0.00    -0.339 N 
ATOM      7  C   UNL A   1      33.628  27.903  26.461  1.00  0.00     0.135 C 
ATOM      8  C   UNL A   1      33.406  27.268  24.207  1.00  0.00     0.223 C 
ATOM      9  C   UNL A   1      33.758  28.733  24.194  1.00  0.00     0.117 C 
ATOM     10  O   UNL A   1      33.252  26.575  23.216  1.00  0.00    -0.275 OA
BRANCH   6  11
ATOM     11  C   UNL A   1      33.090  25.477  25.935  1.00  0.00     0.157 C 
BRANCH  11  12
ATOM     12  C   UNL A   1      31.609  25.181  26.234  1.00  0.00     0.192 C 
ATOM     13  C   UNL A   1      31.879  22.936  23.800  1.00  0.00     0.332 C 
ATOM     14  N   UNL A   1      30.764  23.301  24.660  1.00  0.00    -0.333 N 
ATOM     15  C   UNL A   1      30.686  22.486  25.882  1.00  0.00     0.290 C 
ATOM     16  C   UNL A   1      30.741  24.731  25.026  1.00  0.00     0.296 C 
ATOM     17  H   UNL A   1      29.943  23.109  24.086  1.00  0.00     0.348 HD
ATOM     18  C   UNL A   1      31.695  22.900  26.957  1.00  0.00     0.222 C 
ATOM     19  O   UNL A   1      31.499  24.264  27.343  1.00  0.00    -0.365 OA
ENDBRANCH  11  12
ENDBRANCH   6  11
ENDBRANCH   3   5
ENDBRANCH   2   3
ENDBRANCH   1   2
BRANCH   1  20
ATOM     20  C   UNL A   1      31.850  33.368  26.681  1.00  0.00     0.275 C 
BRANCH  20  21
ATOM     21  O   UNL A   1      32.195  33.609  28.058  1.00  0.00    -0.458 OA
BRANCH  21  22
ATOM     22  C   UNL A   1      33.251  34.428  28.256  1.00  0.00     0.338 C 
ATOM     23  O   UNL A   1      33.277  35.645  28.190  1.00  0.00    -0.246 OA
BRANCH  22  24
ATOM     24  C   UNL A   1      34.406  33.641  28.706  1.00  0.00     0.060 A 
ATOM     25  C   UNL A   1      34.178  32.353  29.196  1.00  0.00     0.016 A 
ATOM     26  C   UNL A   1      35.682  34.202  28.739  1.00  0.00     0.016 A 
ATOM     27  C   UNL A   1      35.230  31.616  29.733  1.00  0.00     0.010 A 
ATOM     28  C   UNL A   1      36.739  33.460  29.272  1.00  0.00     0.010 A 
ATOM     29  C   UNL A   1      36.517  32.168  29.784  1.00  0.00    -0.014 A 
BRANCH  29  30
ATOM     30  C   UNL A   1      37.623  31.411  30.417  1.00  0.00     0.031 A 
ATOM     31  C   UNL A   1      37.946  31.629  31.866  1.00  0.00     0.074 A 
ATOM     32  C   UNL A   1      38.331  30.528  29.689  1.00  0.00     0.049 A 
ATOM     33  N   UNL A   1      38.930  31.141  32.578  1.00  0.00    -0.248 NA
ATOM     34  C   UNL A   1      37.043  32.517  32.614  1.00  0.00     0.031 C 
ATOM     35  C   UNL A   1      38.086  30.201  28.285  1.00  0.00     0.029 A 
ATOM     36  N   UNL A   1      39.408  29.751  30.033  1.00  0.00    -0.354 N 
ATOM     37  C   UNL A   1      38.777  31.677  33.849  1.00  0.00     0.074 A 
ATOM     38  C   UNL A   1      37.615  32.539  33.809  1.00  0.00     0.031 C 
ATOM     39  C   UNL A   1      38.992  29.294  27.884  1.00  0.00     0.029 A 
ATOM     40  C   UNL A   1      39.906  29.013  28.988  1.00  0.00     0.049 A 
ATOM     41  H   UNL A   1      39.788  29.726  30.942  1.00  0.00     0.167 HD
ATOM     42  C   UNL A   1      39.539  31.465  34.950  1.00  0.00     0.037 A 
ATOM     43  C   UNL A   1      40.994  28.224  28.921  1.00  0.00     0.037 A 
ATOM     44  C   UNL A   1      40.687  30.597  34.988  1.00  0.00     0.049 A 
ATOM     45  C   UNL A   1      41.855  28.052  30.141  1.00  0.00     0.074 A 
ATOM     46  C   UNL A   1      41.512  30.304  36.060  1.00  0.00     0.029 A 
ATOM     47  N   UNL A   1      41.173  29.884  33.903  1.00  0.00    -0.354 N 
ATOM     48  N   UNL A   1      41.704  28.561  31.339  1.00  0.00    -0.248 NA
ATOM     49  C   UNL A   1      43.044  27.198  29.997  1.00  0.00     0.031 C 
ATOM     50  C   UNL A   1      42.521  29.444  35.614  1.00  0.00     0.029 A 
ATOM     51  C   UNL A   1      42.298  29.168  34.274  1.00  0.00     0.049 A 
ATOM     52  H   UNL A   1      40.777  29.887  33.002  1.00  0.00     0.167 HD
ATOM     53  C   UNL A   1      42.761  28.076  32.096  1.00  0.00     0.074 A 
ATOM     54  C   UNL A   1      43.541  27.220  31.226  1.00  0.00     0.031 C 
ATOM     55  C   UNL A   1      43.061  28.317  33.396  1.00  0.00     0.037 A 
BRANCH  42  56
ATOM     56  C   UNL A   1      39.168  32.209  36.199  1.00  0.00     0.057 A 
ATOM     57  C   UNL A   1      38.283  31.674  37.144  1.00  0.00     0.134 A 
ATOM     58  C   UNL A   1      39.729  33.463  36.473  1.00  0.00     0.134 A 
ATOM     59  F   UNL A   1      37.699  30.485  36.933  1.00  0.00    -0.206 F 
ATOM     60  C   UNL A   1      37.954  32.370  38.309  1.00  0.00     0.040 A 
ATOM     61  C   UNL A   1      39.426  34.158  37.645  1.00  0.00     0.040 A 
ATOM     62  F   UNL A   1      40.586  34.028  35.610  1.00  0.00    -0.206 F 
ATOM     63  C   UNL A   1      38.532  33.614  38.565  1.00  0.00     0.006 A 
ENDBRANCH  42  56
BRANCH  43  64
ATOM     64  C   UNL A   1      41.345  27.554  27.645  1.00  0.00     0.057 A 
ATOM     65  C   UNL A   1      40.927  26.248  27.373  1.00  0.00     0.134 A 
ATOM     66  C   UNL A   1      42.112  28.203  26.669  1.00  0.00     0.134 A 
ATOM     67  F   UNL A   1      40.208  25.567  28.280  1.00  0.00    -0.206 F 
ATOM     68  C   UNL A   1      41.268  25.603  26.183  1.00  0.00     0.040 A 
ATOM     69  C   UNL A   1      42.440  27.581  25.464  1.00  0.00     0.040 A 
ATOM     70  F   UNL A   1      42.542  29.458  26.869  1.00  0.00    -0.206 F 
ATOM     71  C   UNL A   1      42.023  26.274  25.222  1.00  0.00     0.006 A 
ENDBRANCH  43  64
BRANCH  55  72
ATOM     72  C   UNL A   1      44.263  27.621  33.962  1.00  0.00     0.057 A 
ATOM     73  C   UNL A   1      44.180  26.335  34.508  1.00  0.00     0.134 A 
ATOM     74  C   UNL A   1      45.521  28.232  33.928  1.00  0.00     0.134 A 
ATOM     75  F   UNL A   1      43.000  25.702  34.582  1.00  0.00    -0.206 F 
ATOM     76  C   UNL A   1      45.306  25.687  35.019  1.00  0.00     0.040 A 
ATOM     77  C   UNL A   1      46.659  27.587  34.415  1.00  0.00     0.040 A 
ATOM     78  F   UNL A   1      45.669  29.462  33.410  1.00  0.00    -0.206 F 
ATOM     79  C   UNL A   1      46.551  26.313  34.968  1.00  0.00     0.006 A 
ENDBRANCH  55  72
ENDBRANCH  29  30
ENDBRANCH  22  24
ENDBRANCH  21  22
ENDBRANCH  20  21
ENDBRANCH   1  20
TORSDOF 13
ENDMDL
MODEL 2
REMARK VINA RESULT:     -10.6      4.175      7.549
REMARK SMILES C[N@H+]1CCO[C@@H](CN2C[C@H](C(=O)OCCOC(=O)c3ccc(-c4c5nc(c(-c6c(F)cccc6F)c6ccc([nH]6)c(-c6c(F)cccc6F)c6nc(c(-c7c(F)cccc7F)c7ccc4[nH]7)C=C6)C=C5)cc3)CC2=O)C1
REMARK SMILES IDX 14 1 13 2 11 3 12 4 10 5 8 6 9 7 74 8 73 9 75 10 7 11 6 12
REMARK SMILES IDX 1 13 2 14 3 15 76 16 4 18 5 19 15 20 16 21 17 22 18 23 19 24
REMARK SMILES IDX 20 25 72 26 21 27 71 28 22 29 23 30 24 31 65 32 25 33 70 34
REMARK SMILES IDX 64 35 66 36 26 37 69 38 63 39 62 40 27 42 53 43 36 44 52 45
REMARK SMILES IDX 37 46 40 47 51 48 67 49 38 50 39 51 50 53 68 54 41 55 28 56
REMARK SMILES IDX 29 57 34 58 30 59 31 60 33 61 35 62 32 63 54 64 55 65 60 66
REMARK SMILES IDX 56 67 57 68 59 69 61 70 58 71 42 72 43 73 48 74 44 75 45 76
REMARK SMILES IDX 47 77 49 78 46 79
REMARK H PARENT 2 17 66 41 40 52
REMARK Flexibility Score: inf
ROOT
ATOM      1  C   UNL A   1      34.979  20.541  25.186  1.00  0.00     0.274 C 
ENDROOT
BRANCH   1   2
ATOM      2  O   UNL A   1      34.341  21.365  24.190  1.00  0.00    -0.462 OA
BRANCH   2   3
ATOM      3  C   UNL A   1      33.832  22.548  24.617  1.00  0.00     0.311 C 
ATOM      4  O   UNL A   1      32.765  22.684  25.203  1.00  0.00    -0.252 OA
BRANCH   3   5
ATOM      5  C   UNL A   1      34.717  23.725  24.275  1.00  0.00     0.128 C 
ATOM      6  N   UNL A   1      33.588  25.735  23.912  1.00  0.00    -0.339 N 
ATOM      7  C   UNL A   1      34.157  24.627  23.191  1.00  0.00     0.135 C 
ATOM      8  C   UNL A   1      33.980  25.775  25.237  1.00  0.00     0.223 C 
ATOM      9  C   UNL A   1      34.923  24.626  25.485  1.00  0.00     0.117 C 
ATOM     10  O   UNL A   1      33.675  26.622  26.059  1.00  0.00    -0.275 OA
BRANCH   6  11
ATOM     11  C   UNL A   1      32.708  26.710  23.287  1.00  0.00     0.157 C 
BRANCH  11  12
ATOM     12  C   UNL A   1      31.467  26.105  22.605  1.00  0.00     0.192 C 
ATOM     13  C   UNL A   1      30.214  25.974  25.678  1.00  0.00     0.332 C 
ATOM     14  N   UNL A   1      29.656  25.596  24.389  1.00  0.00    -0.333 N 
ATOM     15  C   UNL A   1      28.897  26.681  23.748  1.00  0.00     0.290 C 
ATOM     16  C   UNL A   1      30.658  25.074  23.439  1.00  0.00     0.296 C 
ATOM     17  H   UNL A   1      29.012  24.838  24.617  1.00  0.00     0.348 HD
ATOM     18  C   UNL A   1      29.787  27.740  23.091  1.00  0.00     0.222 C 
ATOM     19  O   UNL A   1      30.622  27.156  22.087  1.00  0.00    -0.365 OA
ENDBRANCH  11  12
ENDBRANCH   6  11
ENDBRANCH   3   5
ENDBRANCH   2   3
ENDBRANCH   1   2
BRANCH   1  20
ATOM     20  C   UNL A   1      36.485  20.434  24.939  1.00  0.00     0.275 C 
BRANCH  20  21
ATOM     21  O   UNL A   1      37.210  21.419  25.696  1.00  0.00    -0.458 OA
BRANCH  21  22
ATOM     22  C   UNL A   1      38.515  21.140  25.912  1.00  0.00     0.338 C 
ATOM     23  O   UNL A   1      39.120  20.123  25.624  1.00  0.00    -0.246 OA
BRANCH  22  24
ATOM     24  C   UNL A   1      39.187  22.327  26.459  1.00  0.00     0.060 A 
ATOM     25  C   UNL A   1      38.700  23.586  26.103  1.00  0.00     0.016 A 
ATOM     26  C   UNL A   1      40.342  22.199  27.231  1.00  0.00     0.016 A 
ATOM     27  C   UNL A   1      39.374  24.734  26.511  1.00  0.00     0.010 A 
ATOM     28  C   UNL A   1      41.014  23.352  27.647  1.00  0.00     0.010 A 
ATOM     29  C   UNL A   1      40.541  24.625  27.278  1.00  0.00    -0.014 A 
BRANCH  29  30
ATOM     30  C   UNL A   1      41.295  25.844  27.656  1.00  0.00     0.031 A 
ATOM     31  C   UNL A   1      40.629  26.914  28.469  1.00  0.00     0.074 A 
ATOM     32  C   UNL A   1      42.576  25.984  27.269  1.00  0.00     0.049 A 
ATOM     33  N   UNL A   1      41.081  28.092  28.818  1.00  0.00    -0.248 NA
ATOM     34  C   UNL A   1      39.271  26.622  28.953  1.00  0.00     0.031 C 
ATOM     35  C   UNL A   1      43.343  24.996  26.511  1.00  0.00     0.029 A 
ATOM     36  N   UNL A   1      43.455  27.022  27.456  1.00  0.00    -0.354 N 
ATOM     37  C   UNL A   1      40.058  28.689  29.543  1.00  0.00     0.074 A 
ATOM     38  C   UNL A   1      38.956  27.751  29.573  1.00  0.00     0.031 C 
ATOM     39  C   UNL A   1      44.578  25.478  26.291  1.00  0.00     0.029 A 
ATOM     40  C   UNL A   1      44.672  26.823  26.852  1.00  0.00     0.049 A 
ATOM     41  H   UNL A   1      43.233  27.830  27.973  1.00  0.00     0.167 HD
ATOM     42  C   UNL A   1      40.044  29.908  30.132  1.00  0.00     0.037 A 
ATOM     43  C   UNL A   1      45.731  27.646  26.738  1.00  0.00     0.037 A 
ATOM     44  C   UNL A   1      41.147  30.833  30.110  1.00  0.00     0.049 A 
ATOM     45  C   UNL A   1      45.667  29.017  27.351  1.00  0.00     0.074 A 
ATOM     46  C   UNL A   1      41.235  32.086  30.693  1.00  0.00     0.029 A 
ATOM     47  N   UNL A   1      42.355  30.606  29.469  1.00  0.00    -0.354 N 
ATOM     48  N   UNL A   1      44.697  29.573  28.036  1.00  0.00    -0.248 NA
ATOM     49  C   UNL A   1      46.845  29.878  27.170  1.00  0.00     0.031 C 
ATOM     50  C   UNL A   1      42.482  32.633  30.371  1.00  0.00     0.029 A 
ATOM     51  C   UNL A   1      43.187  31.702  29.624  1.00  0.00     0.049 A 
ATOM     52  H   UNL A   1      42.588  29.786  28.976  1.00  0.00     0.167 HD
ATOM     53  C   UNL A   1      45.153  30.837  28.384  1.00  0.00     0.074 A 
ATOM     54  C   UNL A   1      46.492  30.963  27.848  1.00  0.00     0.031 C 
ATOM     55  C   UNL A   1      44.519  31.808  29.086  1.00  0.00     0.037 A 
BRANCH  42  56
ATOM     56  C   UNL A   1      38.782  30.324  30.828  1.00  0.00     0.057 A 
ATOM     57  C   UNL A   1      38.550  30.033  32.178  1.00  0.00     0.134 A 
ATOM     58  C   UNL A   1      37.799  31.052  30.144  1.00  0.00     0.134 A 
ATOM     59  F   UNL A   1      39.445  29.325  32.885  1.00  0.00    -0.206 F 
ATOM     60  C   UNL A   1      37.377  30.435  32.819  1.00  0.00     0.040 A 
ATOM     61  C   UNL A   1      36.633  31.479  30.780  1.00  0.00     0.040 A 
ATOM     62  F   UNL A   1      37.962  31.366  28.851  1.00  0.00    -0.206 F 
ATOM     63  C   UNL A   1      36.416  31.167  32.121  1.00  0.00     0.006 A 
ENDBRANCH  42  56
BRANCH  43  64
ATOM     64  C   UNL A   1      46.934  27.204  25.993  1.00  0.00     0.057 A 
ATOM     65  C   UNL A   1      47.062  27.436  24.619  1.00  0.00     0.134 A 
ATOM     66  C   UNL A   1      47.982  26.532  26.634  1.00  0.00     0.134 A 
ATOM     67  F   UNL A   1      46.080  28.055  23.946  1.00  0.00    -0.206 F 
ATOM     68  C   UNL A   1      48.183  27.006  23.907  1.00  0.00     0.040 A 
ATOM     69  C   UNL A   1      49.119  26.118  25.940  1.00  0.00     0.040 A 
ATOM     70  F   UNL A   1      47.920  26.280  27.951  1.00  0.00    -0.206 F 
ATOM     71  C   UNL A   1      49.217  26.350  24.570  1.00  0.00     0.006 A 
ENDBRANCH  43  64
BRANCH  55  72
ATOM     72  C   UNL A   1      45.280  33.076  29.341  1.00  0.00     0.057 A 
ATOM     73  C   UNL A   1      45.189  34.176  28.479  1.00  0.00     0.134 A 
ATOM     74  C   UNL A   1      46.085  33.207  30.478  1.00  0.00     0.134 A 
ATOM     75  F   UNL A   1      44.445  34.106  27.365  1.00  0.00    -0.206 F 
ATOM     76  C   UNL A   1      45.887  35.357  28.731  1.00  0.00     0.040 A 
ATOM     77  C   UNL A   1      46.771  34.391  30.754  1.00  0.00     0.040 A 
ATOM     78  F   UNL A   1      46.208  32.192  31.348  1.00  0.00    -0.206 F 
ATOM     79  C   UNL A   1      46.677  35.468  29.874  1.00  0.00     0.006 A 
ENDBRANCH  55  72
ENDBRANCH  29  30
ENDBRANCH  22  24
ENDBRANCH  21  22
ENDBRANCH  20  21
ENDBRANCH   1  20
TORSDOF 13
ENDMDL
MODEL 3
REMARK VINA RESULT:     -10.6      4.837      7.855
REMARK SMILES C[N@H+]1CCO[C@@H](CN2C[C@H](C(=O)OCCOC(=O)c3ccc(-c4c5nc(c(-c6c(F)cccc6F)c6ccc([nH]6)c(-c6c(F)cccc6F)c6nc(c(-c7c(F)cccc7F)c7ccc4[nH]7)C=C6)C=C5)cc3)CC2=O)C1
REMARK SMILES IDX 14 1 13 2 11 3 12 4 10 5 8 6 9 7 74 8 73 9 75 10 7 11 6 12
REMARK SMILES IDX 1 13 2 14 3 15 76 16 4 18 5 19 15 20 16 21 17 22 18 23 19 24
REMARK SMILES IDX 20 25 72 26 21 27 71 28 22 29 23 30 24 31 65 32 25 33 70 34
REMARK SMILES IDX 64 35 66 36 26 37 69 38 63 39 62 40 27 42 53 43 36 44 52 45
REMARK SMILES IDX 37 46 40 47 51 48 67 49 38 50 39 51 50 53 68 54 41 55 28 56
REMARK SMILES IDX 29 57 34 58 30 59 31 60 33 61 35 62 32 63 54 64 55 65 60 66
REMARK SMILES IDX 56 67 57 68 59 69 61 70 58 71 42 72 43 73 48 74 44 75 45 76
REMARK SMILES IDX 47 77 49 78 46 79
REMARK H PARENT 2 17 66 41 40 52
REMARK Flexibility Score: inf
ROOT
ATOM      1  C   UNL A   1      36.521  22.613  23.551  1.00  0.00     0.274 C 
ENDROOT
BRANCH   1   2
ATOM      2  O   UNL A   1      35.315  23.273  23.984  1.00  0.00    -0.462 OA
BRANCH   2   3
ATOM      3  C   UNL A   1      34.216  23.096  23.211  1.00  0.00     0.311 C 
ATOM      4  O   UNL A   1      34.155  23.332  22.009  1.00  0.00    -0.252 OA
BRANCH   3   5
ATOM      5  C   UNL A   1      33.025  22.587  23.990  1.00  0.00     0.128 C 
ATOM      6  N   UNL A   1      33.382  20.593  25.147  1.00  0.00    -0.339 N 
ATOM      7  C   UNL A   1      32.830  21.085  23.913  1.00  0.00     0.135 C 
ATOM      8  C   UNL A   1      33.608  21.594  26.073  1.00  0.00     0.223 C 
ATOM      9  C   UNL A   1      33.164  22.902  25.472  1.00  0.00     0.117 C 
ATOM     10  O   UNL A   1      34.036  21.451  27.206  1.00  0.00    -0.275 OA
BRANCH   6  11
ATOM     11  C   UNL A   1      33.647  19.182  25.382  1.00  0.00     0.157 C 
BRANCH  11  12
ATOM     12  C   UNL A   1      32.968  18.230  24.380  1.00  0.00     0.192 C 
ATOM     13  C   UNL A   1      35.268  16.043  25.361  1.00  0.00     0.332 C 
ATOM     14  N   UNL A   1      34.175  15.935  24.408  1.00  0.00    -0.333 N 
ATOM     15  C   UNL A   1      32.931  15.429  25.010  1.00  0.00     0.290 C 
ATOM     16  C   UNL A   1      33.891  17.191  23.686  1.00  0.00     0.296 C 
ATOM     17  H   UNL A   1      34.511  15.250  23.730  1.00  0.00     0.348 HD
ATOM     18  C   UNL A   1      32.171  16.487  25.815  1.00  0.00     0.222 C 
ATOM     19  O   UNL A   1      31.820  17.602  24.990  1.00  0.00    -0.365 OA
ENDBRANCH  11  12
ENDBRANCH   6  11
ENDBRANCH   3   5
ENDBRANCH   2   3
ENDBRANCH   1   2
BRANCH   1  20
ATOM     20  C   UNL A   1      36.789  21.349  24.370  1.00  0.00     0.275 C 
BRANCH  20  21
ATOM     21  O   UNL A   1      37.228  21.673  25.702  1.00  0.00    -0.458 OA
BRANCH  21  22
ATOM     22  C   UNL A   1      38.519  21.384  25.974  1.00  0.00     0.338 C 
ATOM     23  O   UNL A   1      39.120  20.350  25.738  1.00  0.00    -0.246 OA
BRANCH  22  24
ATOM     24  C   UNL A   1      39.188  22.577  26.510  1.00  0.00     0.060 A 
ATOM     25  C   UNL A   1      38.729  23.831  26.103  1.00  0.00     0.016 A 
ATOM     26  C   UNL A   1      40.315  22.457  27.322  1.00  0.00     0.016 A 
ATOM     27  C   UNL A   1      39.404  24.982  26.501  1.00  0.00     0.010 A 
ATOM     28  C   UNL A   1      40.988  23.613  27.728  1.00  0.00     0.010 A 
ATOM     29  C   UNL A   1      40.544  24.881  27.309  1.00  0.00    -0.014 A 
BRANCH  29  30
ATOM     30  C   UNL A   1      41.300  26.101  27.677  1.00  0.00     0.031 A 
ATOM     31  C   UNL A   1      40.634  27.181  28.477  1.00  0.00     0.074 A 
ATOM     32  C   UNL A   1      42.583  26.234  27.293  1.00  0.00     0.049 A 
ATOM     33  N   UNL A   1      41.089  28.361  28.817  1.00  0.00    -0.248 NA
ATOM     34  C   UNL A   1      39.274  26.898  28.960  1.00  0.00     0.031 C 
ATOM     35  C   UNL A   1      43.349  25.237  26.547  1.00  0.00     0.029 A 
ATOM     36  N   UNL A   1      43.464  27.271  27.473  1.00  0.00    -0.354 N 
ATOM     37  C   UNL A   1      40.066  28.968  29.533  1.00  0.00     0.074 A 
ATOM     38  C   UNL A   1      38.961  28.033  29.568  1.00  0.00     0.031 C 
ATOM     39  C   UNL A   1      44.586  25.713  26.326  1.00  0.00     0.029 A 
ATOM     40  C   UNL A   1      44.682  27.063  26.875  1.00  0.00     0.049 A 
ATOM     41  H   UNL A   1      43.243  28.085  27.981  1.00  0.00     0.167 HD
ATOM     42  C   UNL A   1      40.053  30.193  30.110  1.00  0.00     0.037 A 
ATOM     43  C   UNL A   1      45.744  27.882  26.756  1.00  0.00     0.037 A 
ATOM     44  C   UNL A   1      41.159  31.115  30.084  1.00  0.00     0.049 A 
ATOM     45  C   UNL A   1      45.682  29.259  27.356  1.00  0.00     0.074 A 
ATOM     46  C   UNL A   1      41.249  32.373  30.654  1.00  0.00     0.029 A 
ATOM     47  N   UNL A   1      42.369  30.877  29.448  1.00  0.00    -0.354 N 
ATOM     48  N   UNL A   1      44.712  29.824  28.032  1.00  0.00    -0.248 NA
ATOM     49  C   UNL A   1      46.863  30.114  27.170  1.00  0.00     0.031 C 
ATOM     50  C   UNL A   1      42.498  32.912  30.331  1.00  0.00     0.029 A 
ATOM     51  C   UNL A   1      43.203  31.973  29.595  1.00  0.00     0.049 A 
ATOM     52  H   UNL A   1      42.600  30.052  28.964  1.00  0.00     0.167 HD
ATOM     53  C   UNL A   1      45.170  31.090  28.370  1.00  0.00     0.074 A 
ATOM     54  C   UNL A   1      46.512  31.206  27.837  1.00  0.00     0.031 C 
ATOM     55  C   UNL A   1      44.537  32.070  29.061  1.00  0.00     0.037 A 
BRANCH  42  56
ATOM     56  C   UNL A   1      38.790  30.619  30.798  1.00  0.00     0.057 A 
ATOM     57  C   UNL A   1      38.563  30.362  32.156  1.00  0.00     0.134 A 
ATOM     58  C   UNL A   1      37.802  31.323  30.098  1.00  0.00     0.134 A 
ATOM     59  F   UNL A   1      39.463  29.678  32.878  1.00  0.00    -0.206 F 
ATOM     60  C   UNL A   1      37.389  30.773  32.789  1.00  0.00     0.040 A 
ATOM     61  C   UNL A   1      36.634  31.760  30.726  1.00  0.00     0.040 A 
ATOM     62  F   UNL A   1      37.960  31.605  28.797  1.00  0.00    -0.206 F 
ATOM     63  C   UNL A   1      36.422  31.481  32.074  1.00  0.00     0.006 A 
ENDBRANCH  42  56
BRANCH  43  64
ATOM     64  C   UNL A   1      46.948  27.429  26.019  1.00  0.00     0.057 A 
ATOM     65  C   UNL A   1      47.056  27.598  24.635  1.00  0.00     0.134 A 
ATOM     66  C   UNL A   1      48.017  26.809  26.680  1.00  0.00     0.134 A 
ATOM     67  F   UNL A   1      46.056  28.164  23.944  1.00  0.00    -0.206 F 
ATOM     68  C   UNL A   1      48.179  27.157  23.931  1.00  0.00     0.040 A 
ATOM     69  C   UNL A   1      49.155  26.386  25.993  1.00  0.00     0.040 A 
ATOM     70  F   UNL A   1      47.973  26.620  28.007  1.00  0.00    -0.206 F 
ATOM     71  C   UNL A   1      49.234  26.554  24.612  1.00  0.00     0.006 A 
ENDBRANCH  43  64
BRANCH  55  72
ATOM     72  C   UNL A   1      45.301  33.337  29.306  1.00  0.00     0.057 A 
ATOM     73  C   UNL A   1      45.218  34.428  28.432  1.00  0.00     0.134 A 
ATOM     74  C   UNL A   1      46.100  33.478  30.446  1.00  0.00     0.134 A 
ATOM     75  F   UNL A   1      44.480  34.349  27.314  1.00  0.00    -0.206 F 
ATOM     76  C   UNL A   1      45.920  35.610  28.674  1.00  0.00     0.040 A 
ATOM     77  C   UNL A   1      46.789  34.663  30.712  1.00  0.00     0.040 A 
ATOM     78  F   UNL A   1      46.216  32.472  31.327  1.00  0.00    -0.206 F 
ATOM     79  C   UNL A   1      46.704  35.731  29.821  1.00  0.00     0.006 A 
ENDBRANCH  55  72
ENDBRANCH  29  30
ENDBRANCH  22  24
ENDBRANCH  21  22
ENDBRANCH  20  21
ENDBRANCH   1  20
TORSDOF 13
ENDMDL
