MODEL 1
REMARK VINA RESULT:     -13.4      0.000      0.000
REMARK SMILES Cc1ccc(-c2nc(C)cc(N3CCCC[C@H]3C(=O)OCCOC(=O)c3ccc(-c4c5nc(c(-c6c(F)cccc6F)c6ccc([nH]6)c(-c6c(F)cccc6F)c6nc(c(-c7c(F)cccc7F)c7ccc4[nH]7)C=C6)C=C5)cc3)n2)cc1
REMARK SMILES IDX 21 1 20 2 18 3 19 4 17 5 12 6 13 7 14 8 16 9 15 10 11 11
REMARK SMILES IDX 6 12 7 13 80 14 8 15 9 16 10 17 5 18 1 19 2 20 3 21 82 22
REMARK SMILES IDX 4 23 81 24 22 25 23 26 24 27 25 28 26 29 27 30 79 31 28 32
REMARK SMILES IDX 78 33 29 34 30 35 31 36 72 37 32 38 77 39 71 40 73 41 33 42
REMARK SMILES IDX 76 43 70 44 69 45 34 47 60 48 43 49 59 50 44 51 47 52 58 53
REMARK SMILES IDX 74 54 45 55 46 56 57 58 75 59 48 60 35 61 36 62 41 63 37 64
REMARK SMILES IDX 38 65 40 66 42 67 39 68 61 69 62 70 67 71 63 72 64 73 66 74
REMARK SMILES IDX 68 75 65 76 49 77 50 78 55 79 51 80 52 81 54 82 56 83 53 84
REMARK H PARENT 73 46 47 57
REMARK Flexibility Score: inf
ROOT
ATOM      1  C   UNL A   1      38.830  21.207  25.378  1.00  0.00     0.274 C 
ENDROOT
BRANCH   1   2
ATOM      2  O   UNL A   1      37.626  21.938  25.673  1.00  0.00    -0.461 OA
BRANCH   2   3
ATOM      3  C   UNL A   1      36.564  21.893  24.667  1.00  0.00     0.328 C 
ATOM      4  O   UNL A   1      37.156  22.281  23.616  1.00  0.00    -0.250 OA
BRANCH   3   5
ATOM      5  C   UNL A   1      34.499  21.224  25.054  1.00  0.00     0.193 C 
ATOM      6  N   UNL A   1      33.016  21.937  24.429  1.00  0.00    -0.343 N 
ATOM      7  C   UNL A   1      32.453  21.350  23.186  1.00  0.00     0.119 C 
ATOM      8  C   UNL A   1      32.193  19.854  23.211  1.00  0.00     0.022 C 
ATOM      9  C   UNL A   1      33.750  19.621  25.185  1.00  0.00     0.037 C 
ATOM     10  C   UNL A   1      33.223  18.993  23.902  1.00  0.00     0.005 C 
BRANCH   6  11
ATOM     11  C   UNL A   1      32.101  22.829  25.055  1.00  0.00     0.133 A 
ATOM     12  C   UNL A   1      31.838  24.828  26.233  1.00  0.00     0.161 A 
ATOM     13  N   UNL A   1      30.801  24.409  26.963  1.00  0.00    -0.233 NA
ATOM     14  N   UNL A   1      32.498  24.098  25.300  1.00  0.00    -0.211 NA
ATOM     15  C   UNL A   1      30.337  23.201  26.665  1.00  0.00     0.043 A 
ATOM     16  C   UNL A   1      29.194  22.753  27.521  1.00  0.00     0.067 C 
ATOM     17  C   UNL A   1      30.918  22.418  25.668  1.00  0.00     0.070 A 
BRANCH  12  18
ATOM     18  C   UNL A   1      32.227  26.213  26.483  1.00  0.00     0.019 A 
ATOM     19  C   UNL A   1      33.344  30.356  27.006  1.00  0.00     0.044 C 
ATOM     20  C   UNL A   1      32.950  28.925  26.800  1.00  0.00    -0.051 A 
ATOM     21  C   UNL A   1      31.649  28.505  27.094  1.00  0.00     0.004 A 
ATOM     22  C   UNL A   1      33.877  27.990  26.326  1.00  0.00     0.004 A 
ATOM     23  C   UNL A   1      31.289  27.166  26.927  1.00  0.00     0.012 A 
ATOM     24  C   UNL A   1      33.520  26.649  26.175  1.00  0.00     0.012 A 
ENDBRANCH  12  18
ENDBRANCH   6  11
ENDBRANCH   3   5
ENDBRANCH   2   3
ENDBRANCH   1   2
BRANCH   1  25
ATOM     25  C   UNL A   1      39.836  21.423  26.517  1.00  0.00     0.275 C 
BRANCH  25  26
ATOM     26  O   UNL A   1      41.081  22.074  26.138  1.00  0.00    -0.458 OA
BRANCH  26  27
ATOM     27  C   UNL A   1      41.563  23.180  26.777  1.00  0.00     0.338 C 
ATOM     28  O   UNL A   1      42.491  23.166  27.568  1.00  0.00    -0.246 OA
BRANCH  27  29
ATOM     29  C   UNL A   1      40.620  24.316  26.748  1.00  0.00     0.060 A 
ATOM     30  C   UNL A   1      41.211  25.731  25.794  1.00  0.00     0.016 A 
ATOM     31  C   UNL A   1      39.590  24.581  28.179  1.00  0.00     0.016 A 
ATOM     32  C   UNL A   1      40.887  27.416  26.387  1.00  0.00     0.010 A 
ATOM     33  C   UNL A   1      39.279  26.266  28.765  1.00  0.00     0.010 A 
ATOM     34  C   UNL A   1      39.997  27.660  27.910  1.00  0.00    -0.014 A 
BRANCH  34  35
ATOM     35  C   UNL A   1      40.324  28.747  28.812  1.00  0.00     0.031 A 
ATOM     36  C   UNL A   1      39.313  29.801  28.924  1.00  0.00     0.074 A 
ATOM     37  C   UNL A   1      41.373  28.565  29.657  1.00  0.00     0.049 A 
ATOM     38  N   UNL A   1      39.541  30.922  29.486  1.00  0.00    -0.248 NA
ATOM     39  C   UNL A   1      37.973  29.743  28.330  1.00  0.00     0.031 C 
ATOM     40  C   UNL A   1      41.665  29.165  30.956  1.00  0.00     0.029 A 
ATOM     41  N   UNL A   1      42.515  27.806  29.420  1.00  0.00    -0.354 N 
ATOM     42  C   UNL A   1      38.322  31.522  29.697  1.00  0.00     0.074 A 
ATOM     43  C   UNL A   1      37.418  30.864  28.801  1.00  0.00     0.031 C 
ATOM     44  C   UNL A   1      42.960  28.956  31.272  1.00  0.00     0.029 A 
ATOM     45  C   UNL A   1      43.598  28.291  30.151  1.00  0.00     0.049 A 
ATOM     46  H   UNL A   1      42.553  27.030  28.816  1.00  0.00     0.167 HD
ATOM     47  C   UNL A   1      38.236  32.375  30.749  1.00  0.00     0.037 A 
ATOM     48  C   UNL A   1      44.685  28.762  29.472  1.00  0.00     0.037 A 
ATOM     49  C   UNL A   1      39.585  32.617  31.272  1.00  0.00     0.049 A 
ATOM     50  C   UNL A   1      44.642  30.278  29.416  1.00  0.00     0.074 A 
ATOM     51  C   UNL A   1      40.282  32.137  32.365  1.00  0.00     0.029 A 
ATOM     52  N   UNL A   1      40.542  33.111  30.389  1.00  0.00    -0.354 N 
ATOM     53  N   UNL A   1      43.580  30.987  29.704  1.00  0.00    -0.248 NA
ATOM     54  C   UNL A   1      45.803  31.112  29.130  1.00  0.00     0.031 C 
ATOM     55  C   UNL A   1      41.677  32.270  32.077  1.00  0.00     0.029 A 
ATOM     56  C   UNL A   1      41.826  32.859  30.829  1.00  0.00     0.049 A 
ATOM     57  H   UNL A   1      40.330  33.583  29.550  1.00  0.00     0.167 HD
ATOM     58  C   UNL A   1      43.889  32.319  29.707  1.00  0.00     0.074 A 
ATOM     59  C   UNL A   1      45.297  32.339  29.351  1.00  0.00     0.031 C 
ATOM     60  C   UNL A   1      42.974  33.289  30.022  1.00  0.00     0.037 A 
BRANCH  47  61
ATOM     61  C   UNL A   1      36.968  32.823  31.431  1.00  0.00     0.057 A 
ATOM     62  C   UNL A   1      36.141  33.764  30.790  1.00  0.00     0.134 A 
ATOM     63  C   UNL A   1      36.541  32.466  32.728  1.00  0.00     0.134 A 
ATOM     64  F   UNL A   1      36.423  34.214  29.559  1.00  0.00    -0.206 F 
ATOM     65  C   UNL A   1      34.990  34.302  31.383  1.00  0.00     0.040 A 
ATOM     66  C   UNL A   1      35.371  32.967  33.317  1.00  0.00     0.040 A 
ATOM     67  F   UNL A   1      37.247  31.655  33.522  1.00  0.00    -0.206 F 
ATOM     68  C   UNL A   1      34.594  33.896  32.649  1.00  0.00     0.006 A 
ENDBRANCH  47  61
BRANCH  48  69
ATOM     69  C   UNL A   1      45.099  27.816  28.392  1.00  0.00     0.057 A 
ATOM     70  C   UNL A   1      45.602  26.557  28.794  1.00  0.00     0.134 A 
ATOM     71  C   UNL A   1      44.588  27.896  27.103  1.00  0.00     0.134 A 
ATOM     72  F   UNL A   1      46.158  26.417  30.008  1.00  0.00    -0.206 F 
ATOM     73  C   UNL A   1      45.407  25.395  28.042  1.00  0.00     0.040 A 
ATOM     74  C   UNL A   1      44.433  26.741  26.329  1.00  0.00     0.040 A 
ATOM     75  F   UNL A   1      44.053  29.032  26.634  1.00  0.00    -0.206 F 
ATOM     76  C   UNL A   1      44.781  25.480  26.810  1.00  0.00     0.006 A 
ENDBRANCH  48  69
BRANCH  60  77
ATOM     77  C   UNL A   1      43.106  34.763  29.669  1.00  0.00     0.057 A 
ATOM     78  C   UNL A   1      43.393  35.781  30.589  1.00  0.00     0.134 A 
ATOM     79  C   UNL A   1      43.070  35.204  28.321  1.00  0.00     0.134 A 
ATOM     80  F   UNL A   1      43.662  35.528  31.875  1.00  0.00    -0.206 F 
ATOM     81  C   UNL A   1      43.494  37.129  30.225  1.00  0.00     0.040 A 
ATOM     82  C   UNL A   1      43.277  36.529  27.935  1.00  0.00     0.040 A 
ATOM     83  F   UNL A   1      42.859  34.374  27.291  1.00  0.00    -0.206 F 
ATOM     84  C   UNL A   1      43.446  37.508  28.893  1.00  0.00     0.006 A 
ENDBRANCH  60  77
ENDBRANCH  34  35
ENDBRANCH  27  29
ENDBRANCH  26  27
ENDBRANCH  25  26
ENDBRANCH   1  25
TORSDOF 13
ENDMDL
MODEL 2
REMARK VINA RESULT:     -13.3      3.998      9.150
REMARK SMILES Cc1ccc(-c2nc(C)cc(N3CCCC[C@H]3C(=O)OCCOC(=O)c3ccc(-c4c5nc(c(-c6c(F)cccc6F)c6ccc([nH]6)c(-c6c(F)cccc6F)c6nc(c(-c7c(F)cccc7F)c7ccc4[nH]7)C=C6)C=C5)cc3)n2)cc1
REMARK SMILES IDX 21 1 20 2 18 3 19 4 17 5 12 6 13 7 14 8 16 9 15 10 11 11
REMARK SMILES IDX 6 12 7 13 80 14 8 15 9 16 10 17 5 18 1 19 2 20 3 21 82 22
REMARK SMILES IDX 4 23 81 24 22 25 23 26 24 27 25 28 26 29 27 30 79 31 28 32
REMARK SMILES IDX 78 33 29 34 30 35 31 36 72 37 32 38 77 39 71 40 73 41 33 42
REMARK SMILES IDX 76 43 70 44 69 45 34 47 60 48 43 49 59 50 44 51 47 52 58 53
REMARK SMILES IDX 74 54 45 55 46 56 57 58 75 59 48 60 35 61 36 62 41 63 37 64
REMARK SMILES IDX 38 65 40 66 42 67 39 68 61 69 62 70 67 71 63 72 64 73 66 74
REMARK SMILES IDX 68 75 65 76 49 77 50 78 55 79 51 80 52 81 54 82 56 83 53 84
REMARK H PARENT 73 46 47 57
REMARK Flexibility Score: inf
ROOT
ATOM      1  C   UNL A   1      33.681  30.707  27.658  1.00  0.00     0.274 C 
ENDROOT
BRANCH   1   2
ATOM      2  O   UNL A   1      32.480  30.789  26.871  1.00  0.00    -0.461 OA
BRANCH   2   3
ATOM      3  C   UNL A   1      31.839  29.523  26.511  1.00  0.00     0.328 C 
ATOM      4  O   UNL A   1      31.725  28.938  27.629  1.00  0.00    -0.250 OA
BRANCH   3   5
ATOM      5  C   UNL A   1      31.232  28.962  24.467  1.00  0.00     0.193 C 
ATOM      6  N   UNL A   1      30.734  27.370  23.906  1.00  0.00    -0.343 N 
ATOM      7  C   UNL A   1      29.277  27.080  23.892  1.00  0.00     0.119 C 
ATOM      8  C   UNL A   1      28.408  28.061  23.124  1.00  0.00     0.022 C 
ATOM      9  C   UNL A   1      30.259  29.775  23.227  1.00  0.00     0.037 C 
ATOM     10  C   UNL A   1      28.756  29.525  23.247  1.00  0.00     0.005 C 
BRANCH   6  11
ATOM     11  C   UNL A   1      31.477  26.379  23.206  1.00  0.00     0.133 A 
ATOM     12  C   UNL A   1      33.442  25.119  23.130  1.00  0.00     0.161 A 
ATOM     13  N   UNL A   1      33.509  25.069  21.798  1.00  0.00    -0.233 NA
ATOM     14  N   UNL A   1      32.479  25.741  23.854  1.00  0.00    -0.211 NA
ATOM     15  C   UNL A   1      32.481  25.604  21.149  1.00  0.00     0.043 A 
ATOM     16  C   UNL A   1      32.603  25.554  19.657  1.00  0.00     0.067 C 
ATOM     17  C   UNL A   1      31.417  26.198  21.824  1.00  0.00     0.070 A 
BRANCH  12  18
ATOM     18  C   UNL A   1      34.510  24.393  23.812  1.00  0.00     0.019 A 
ATOM     19  C   UNL A   1      37.817  22.383  25.737  1.00  0.00     0.044 C 
ATOM     20  C   UNL A   1      36.687  23.098  25.061  1.00  0.00    -0.051 A 
ATOM     21  C   UNL A   1      35.956  24.068  25.753  1.00  0.00     0.004 A 
ATOM     22  C   UNL A   1      36.341  22.797  23.739  1.00  0.00     0.004 A 
ATOM     23  C   UNL A   1      34.886  24.716  25.131  1.00  0.00     0.012 A 
ATOM     24  C   UNL A   1      35.261  23.433  23.126  1.00  0.00     0.012 A 
ENDBRANCH  12  18
ENDBRANCH   6  11
ENDBRANCH   3   5
ENDBRANCH   2   3
ENDBRANCH   1   2
BRANCH   1  25
ATOM     25  C   UNL A   1      34.070  32.118  28.122  1.00  0.00     0.275 C 
BRANCH  25  26
ATOM     26  O   UNL A   1      34.857  32.181  29.344  1.00  0.00    -0.458 OA
BRANCH  26  27
ATOM     27  C   UNL A   1      36.193  31.899  29.379  1.00  0.00     0.338 C 
ATOM     28  O   UNL A   1      37.074  32.741  29.344  1.00  0.00    -0.246 OA
BRANCH  27  29
ATOM     29  C   UNL A   1      36.490  30.489  29.053  1.00  0.00     0.060 A 
ATOM     30  C   UNL A   1      36.657  29.425  30.503  1.00  0.00     0.016 A 
ATOM     31  C   UNL A   1      37.460  30.157  27.595  1.00  0.00     0.016 A 
ATOM     32  C   UNL A   1      37.923  28.124  30.524  1.00  0.00     0.010 A 
ATOM     33  C   UNL A   1      38.725  28.862  27.629  1.00  0.00     0.010 A 
ATOM     34  C   UNL A   1      38.998  27.915  29.118  1.00  0.00    -0.014 A 
BRANCH  34  35
ATOM     35  C   UNL A   1      40.387  27.531  29.278  1.00  0.00     0.031 A 
ATOM     36  C   UNL A   1      40.741  26.208  28.759  1.00  0.00     0.074 A 
ATOM     37  C   UNL A   1      41.268  28.506  29.627  1.00  0.00     0.049 A 
ATOM     38  N   UNL A   1      41.849  25.635  29.023  1.00  0.00    -0.248 NA
ATOM     39  C   UNL A   1      39.848  25.350  27.973  1.00  0.00     0.031 C 
ATOM     40  C   UNL A   1      42.706  28.616  29.398  1.00  0.00     0.029 A 
ATOM     41  N   UNL A   1      41.008  29.627  30.409  1.00  0.00    -0.354 N 
ATOM     42  C   UNL A   1      41.981  24.590  28.141  1.00  0.00     0.074 A 
ATOM     43  C   UNL A   1      40.657  24.333  27.658  1.00  0.00     0.031 C 
ATOM     44  C   UNL A   1      43.223  29.569  30.202  1.00  0.00     0.029 A 
ATOM     45  C   UNL A   1      42.162  30.060  31.061  1.00  0.00     0.049 A 
ATOM     46  H   UNL A   1      40.127  30.057  30.492  1.00  0.00     0.167 HD
ATOM     47  C   UNL A   1      43.246  24.221  27.818  1.00  0.00     0.037 A 
ATOM     48  C   UNL A   1      42.184  30.043  32.427  1.00  0.00     0.037 A 
ATOM     49  C   UNL A   1      44.183  24.916  28.708  1.00  0.00     0.049 A 
ATOM     50  C   UNL A   1      42.930  28.816  32.917  1.00  0.00     0.074 A 
ATOM     51  C   UNL A   1      45.002  26.019  28.552  1.00  0.00     0.029 A 
ATOM     52  N   UNL A   1      44.017  24.747  30.081  1.00  0.00    -0.354 N 
ATOM     53  N   UNL A   1      43.227  27.793  32.156  1.00  0.00    -0.248 NA
ATOM     54  C   UNL A   1      43.478  28.683  34.260  1.00  0.00     0.031 C 
ATOM     55  C   UNL A   1      45.247  26.559  29.855  1.00  0.00     0.029 A 
ATOM     56  C   UNL A   1      44.606  25.767  30.799  1.00  0.00     0.049 A 
ATOM     57  H   UNL A   1      43.536  23.990  30.491  1.00  0.00     0.167 HD
ATOM     58  C   UNL A   1      44.023  26.915  32.836  1.00  0.00     0.074 A 
ATOM     59  C   UNL A   1      44.158  27.528  34.146  1.00  0.00     0.031 C 
ATOM     60  C   UNL A   1      44.523  25.774  32.264  1.00  0.00     0.037 A 
BRANCH  47  61
ATOM     61  C   UNL A   1      43.660  23.422  26.608  1.00  0.00     0.057 A 
ATOM     62  C   UNL A   1      43.388  22.041  26.571  1.00  0.00     0.134 A 
ATOM     63  C   UNL A   1      44.399  23.895  25.503  1.00  0.00     0.134 A 
ATOM     64  F   UNL A   1      42.707  21.441  27.558  1.00  0.00    -0.206 F 
ATOM     65  C   UNL A   1      43.811  21.205  25.529  1.00  0.00     0.040 A 
ATOM     66  C   UNL A   1      44.794  23.076  24.434  1.00  0.00     0.040 A 
ATOM     67  F   UNL A   1      44.828  25.158  25.408  1.00  0.00    -0.206 F 
ATOM     68  C   UNL A   1      44.508  21.722  24.448  1.00  0.00     0.006 A 
ENDBRANCH  47  61
BRANCH  48  69
ATOM     69  C   UNL A   1      40.942  30.650  32.994  1.00  0.00     0.057 A 
ATOM     70  C   UNL A   1      39.993  29.767  33.561  1.00  0.00     0.134 A 
ATOM     71  C   UNL A   1      40.892  31.971  33.421  1.00  0.00     0.134 A 
ATOM     72  F   UNL A   1      39.949  28.487  33.158  1.00  0.00    -0.206 F 
ATOM     73  C   UNL A   1      39.190  30.125  34.648  1.00  0.00     0.040 A 
ATOM     74  C   UNL A   1      40.056  32.342  34.479  1.00  0.00     0.040 A 
ATOM     75  F   UNL A   1      41.768  32.881  32.975  1.00  0.00    -0.206 F 
ATOM     76  C   UNL A   1      39.248  31.418  35.139  1.00  0.00     0.006 A 
ENDBRANCH  48  69
BRANCH  60  77
ATOM     77  C   UNL A   1      45.060  24.575  33.031  1.00  0.00     0.057 A 
ATOM     78  C   UNL A   1      46.302  24.534  33.679  1.00  0.00     0.134 A 
ATOM     79  C   UNL A   1      44.260  23.424  33.254  1.00  0.00     0.134 A 
ATOM     80  F   UNL A   1      47.109  25.599  33.749  1.00  0.00    -0.206 F 
ATOM     81  C   UNL A   1      46.766  23.403  34.364  1.00  0.00     0.040 A 
ATOM     82  C   UNL A   1      44.669  22.337  34.026  1.00  0.00     0.040 A 
ATOM     83  F   UNL A   1      43.021  23.295  32.761  1.00  0.00    -0.206 F 
ATOM     84  C   UNL A   1      45.946  22.302  34.549  1.00  0.00     0.006 A 
ENDBRANCH  60  77
ENDBRANCH  34  35
ENDBRANCH  27  29
ENDBRANCH  26  27
ENDBRANCH  25  26
ENDBRANCH   1  25
TORSDOF 13
ENDMDL
MODEL 3
REMARK VINA RESULT:     -13.1      1.467      2.141
REMARK SMILES Cc1ccc(-c2nc(C)cc(N3CCCC[C@H]3C(=O)OCCOC(=O)c3ccc(-c4c5nc(c(-c6c(F)cccc6F)c6ccc([nH]6)c(-c6c(F)cccc6F)c6nc(c(-c7c(F)cccc7F)c7ccc4[nH]7)C=C6)C=C5)cc3)n2)cc1
REMARK SMILES IDX 21 1 20 2 18 3 19 4 17 5 12 6 13 7 14 8 16 9 15 10 11 11
REMARK SMILES IDX 6 12 7 13 80 14 8 15 9 16 10 17 5 18 1 19 2 20 3 21 82 22
REMARK SMILES IDX 4 23 81 24 22 25 23 26 24 27 25 28 26 29 27 30 79 31 28 32
REMARK SMILES IDX 78 33 29 34 30 35 31 36 72 37 32 38 77 39 71 40 73 41 33 42
REMARK SMILES IDX 76 43 70 44 69 45 34 47 60 48 43 49 59 50 44 51 47 52 58 53
REMARK SMILES IDX 74 54 45 55 46 56 57 58 75 59 48 60 35 61 36 62 41 63 37 64
REMARK SMILES IDX 38 65 40 66 42 67 39 68 61 69 62 70 67 71 63 72 64 73 66 74
REMARK SMILES IDX 68 75 65 76 49 77 50 78 55 79 51 80 52 81 54 82 56 83 53 84
REMARK H PARENT 73 46 47 57
REMARK Flexibility Score: inf
ROOT
ATOM      1  C   UNL A   1      39.630  20.105  26.064  1.00  0.00     0.274 C 
ENDROOT
BRANCH   1   2
ATOM      2  O   UNL A   1      38.889  21.308  25.795  1.00  0.00    -0.461 OA
BRANCH   2   3
ATOM      3  C   UNL A   1      37.525  21.143  25.291  1.00  0.00     0.328 C 
ATOM      4  O   UNL A   1      37.627  20.138  24.527  1.00  0.00    -0.250 OA
BRANCH   3   5
ATOM      5  C   UNL A   1      35.812  22.402  25.878  1.00  0.00     0.193 C 
ATOM      6  N   UNL A   1      34.508  22.972  24.843  1.00  0.00    -0.343 N 
ATOM      7  C   UNL A   1      33.267  22.155  24.804  1.00  0.00     0.119 C 
ATOM      8  C   UNL A   1      32.613  21.870  26.144  1.00  0.00     0.022 C 
ATOM      9  C   UNL A   1      34.775  22.441  27.316  1.00  0.00     0.037 C 
ATOM     10  C   UNL A   1      33.532  21.561  27.302  1.00  0.00     0.005 C 
BRANCH   6  11
ATOM     11  C   UNL A   1      34.328  24.238  24.218  1.00  0.00     0.133 A 
ATOM     12  C   UNL A   1      33.677  26.463  24.495  1.00  0.00     0.161 A 
ATOM     13  N   UNL A   1      33.172  26.601  23.268  1.00  0.00    -0.233 NA
ATOM     14  N   UNL A   1      34.246  25.339  24.999  1.00  0.00    -0.211 NA
ATOM     15  C   UNL A   1      33.335  25.562  22.457  1.00  0.00     0.043 A 
ATOM     16  C   UNL A   1      32.732  25.741  21.098  1.00  0.00     0.067 C 
ATOM     17  C   UNL A   1      33.973  24.397  22.880  1.00  0.00     0.070 A 
BRANCH  12  18
ATOM     18  C   UNL A   1      33.615  27.674  25.309  1.00  0.00     0.019 A 
ATOM     19  C   UNL A   1      33.621  31.323  27.627  1.00  0.00     0.044 C 
ATOM     20  C   UNL A   1      33.640  30.067  26.810  1.00  0.00    -0.051 A 
ATOM     21  C   UNL A   1      32.903  29.988  25.625  1.00  0.00     0.004 A 
ATOM     22  C   UNL A   1      34.380  28.955  27.228  1.00  0.00     0.004 A 
ATOM     23  C   UNL A   1      32.900  28.808  24.877  1.00  0.00     0.012 A 
ATOM     24  C   UNL A   1      34.362  27.771  26.489  1.00  0.00     0.012 A 
ENDBRANCH  12  18
ENDBRANCH   6  11
ENDBRANCH   3   5
ENDBRANCH   2   3
ENDBRANCH   1   2
BRANCH   1  25
ATOM     25  C   UNL A   1      41.074  20.480  26.429  1.00  0.00     0.275 C 
BRANCH  25  26
ATOM     26  O   UNL A   1      41.566  21.718  25.844  1.00  0.00    -0.458 OA
BRANCH  26  27
ATOM     27  C   UNL A   1      41.923  22.802  26.595  1.00  0.00     0.338 C 
ATOM     28  O   UNL A   1      42.742  22.772  27.497  1.00  0.00    -0.246 OA
BRANCH  27  29
ATOM     29  C   UNL A   1      40.950  23.909  26.501  1.00  0.00     0.060 A 
ATOM     30  C   UNL A   1      41.585  25.367  25.646  1.00  0.00     0.016 A 
ATOM     31  C   UNL A   1      39.776  24.103  27.828  1.00  0.00     0.016 A 
ATOM     32  C   UNL A   1      41.149  27.024  26.246  1.00  0.00     0.010 A 
ATOM     33  C   UNL A   1      39.354  25.759  28.424  1.00  0.00     0.010 A 
ATOM     34  C   UNL A   1      40.107  27.198  27.679  1.00  0.00    -0.014 A 
BRANCH  34  35
ATOM     35  C   UNL A   1      40.307  28.269  28.636  1.00  0.00     0.031 A 
ATOM     36  C   UNL A   1      39.342  29.368  28.566  1.00  0.00     0.074 A 
ATOM     37  C   UNL A   1      41.171  28.038  29.661  1.00  0.00     0.049 A 
ATOM     38  N   UNL A   1      39.511  30.478  29.171  1.00  0.00    -0.248 NA
ATOM     39  C   UNL A   1      38.136  29.372  27.731  1.00  0.00     0.031 C 
ATOM     40  C   UNL A   1      41.240  28.623  30.997  1.00  0.00     0.029 A 
ATOM     41  N   UNL A   1      42.301  27.227  29.635  1.00  0.00    -0.354 N 
ATOM     42  C   UNL A   1      38.303  31.132  29.155  1.00  0.00     0.074 A 
ATOM     43  C   UNL A   1      37.554  30.517  28.101  1.00  0.00     0.031 C 
ATOM     44  C   UNL A   1      42.442  28.354  31.548  1.00  0.00     0.029 A 
ATOM     45  C   UNL A   1      43.248  27.661  30.561  1.00  0.00     0.049 A 
ATOM     46  H   UNL A   1      42.417  26.450  29.042  1.00  0.00     0.167 HD
ATOM     47  C   UNL A   1      38.060  31.988  30.180  1.00  0.00     0.037 A 
ATOM     48  C   UNL A   1      44.463  28.082  30.102  1.00  0.00     0.037 A 
ATOM     49  C   UNL A   1      39.296  32.168  30.949  1.00  0.00     0.049 A 
ATOM     50  C   UNL A   1      44.501  29.599  30.052  1.00  0.00     0.074 A 
ATOM     51  C   UNL A   1      39.753  31.655  32.149  1.00  0.00     0.029 A 
ATOM     52  N   UNL A   1      40.423  32.618  30.266  1.00  0.00    -0.354 N 
ATOM     53  N   UNL A   1      43.437  30.356  30.143  1.00  0.00    -0.248 NA
ATOM     54  C   UNL A   1      45.731  30.378  29.996  1.00  0.00     0.031 C 
ATOM     55  C   UNL A   1      41.183  31.724  32.128  1.00  0.00     0.029 A 
ATOM     56  C   UNL A   1      41.589  32.306  30.936  1.00  0.00     0.049 A 
ATOM     57  H   UNL A   1      40.393  33.099  29.406  1.00  0.00     0.167 HD
ATOM     58  C   UNL A   1      43.799  31.671  30.216  1.00  0.00     0.074 A 
ATOM     59  C   UNL A   1      45.249  31.627  30.130  1.00  0.00     0.031 C 
ATOM     60  C   UNL A   1      42.886  32.683  30.362  1.00  0.00     0.037 A 
BRANCH  47  61
ATOM     61  C   UNL A   1      36.708  32.495  30.617  1.00  0.00     0.057 A 
ATOM     62  C   UNL A   1      36.076  33.501  29.862  1.00  0.00     0.134 A 
ATOM     63  C   UNL A   1      36.014  32.129  31.790  1.00  0.00     0.134 A 
ATOM     64  F   UNL A   1      36.621  33.965  28.729  1.00  0.00    -0.206 F 
ATOM     65  C   UNL A   1      34.862  34.092  30.239  1.00  0.00     0.040 A 
ATOM     66  C   UNL A   1      34.779  32.684  32.157  1.00  0.00     0.040 A 
ATOM     67  F   UNL A   1      36.503  31.256  32.676  1.00  0.00    -0.206 F 
ATOM     68  C   UNL A   1      34.201  33.677  31.385  1.00  0.00     0.006 A 
ENDBRANCH  47  61
BRANCH  48  69
ATOM     69  C   UNL A   1      45.029  27.118  29.110  1.00  0.00     0.057 A 
ATOM     70  C   UNL A   1      45.042  27.520  27.754  1.00  0.00     0.134 A 
ATOM     71  C   UNL A   1      45.936  26.131  29.472  1.00  0.00     0.134 A 
ATOM     72  F   UNL A   1      44.159  28.433  27.320  1.00  0.00    -0.206 F 
ATOM     73  C   UNL A   1      46.044  27.124  26.863  1.00  0.00     0.040 A 
ATOM     74  C   UNL A   1      46.913  25.700  28.568  1.00  0.00     0.040 A 
ATOM     75  F   UNL A   1      46.032  25.703  30.739  1.00  0.00    -0.206 F 
ATOM     76  C   UNL A   1      47.015  26.232  27.285  1.00  0.00     0.006 A 
ENDBRANCH  48  69
BRANCH  60  77
ATOM     77  C   UNL A   1      43.149  34.150  30.054  1.00  0.00     0.057 A 
ATOM     78  C   UNL A   1      43.272  35.158  31.020  1.00  0.00     0.134 A 
ATOM     79  C   UNL A   1      43.420  34.587  28.731  1.00  0.00     0.134 A 
ATOM     80  F   UNL A   1      43.248  34.899  32.332  1.00  0.00    -0.206 F 
ATOM     81  C   UNL A   1      43.501  36.500  30.693  1.00  0.00     0.040 A 
ATOM     82  C   UNL A   1      43.758  35.901  28.407  1.00  0.00     0.040 A 
ATOM     83  F   UNL A   1      43.404  33.762  27.677  1.00  0.00    -0.206 F 
ATOM     84  C   UNL A   1      43.755  36.877  29.383  1.00  0.00     0.006 A 
ENDBRANCH  60  77
ENDBRANCH  34  35
ENDBRANCH  27  29
ENDBRANCH  26  27
ENDBRANCH  25  26
ENDBRANCH   1  25
TORSDOF 13
ENDMDL
