MODEL 1
REMARK VINA RESULT:      -9.2      0.000      0.000
REMARK SMILES C=CCn1cc(CC)cc1C(=O)OCCOC(=O)c1ccc(-c2c3nc(c(-c4c(F)cccc4F)c4ccc([nH]4)c(-c4c(F)cccc4F)c4nc(c(-c5c(F)cccc5F)c5ccc2[nH]5)C=C4)C=C3)cc1
REMARK SMILES IDX 14 1 13 2 11 3 12 4 10 5 4 6 5 7 6 8 9 9 3 10 2 11 1 12 7 13
REMARK SMILES IDX 8 14 15 15 16 16 17 17 18 18 19 19 20 20 72 21 21 22 71 23
REMARK SMILES IDX 22 24 23 25 24 26 65 27 25 28 70 29 64 30 66 31 26 32 69 33
REMARK SMILES IDX 63 34 62 35 27 37 53 38 36 39 52 40 37 41 40 42 51 43 67 44
REMARK SMILES IDX 38 45 39 46 50 48 68 49 41 50 28 51 29 52 34 53 30 54 31 55
REMARK SMILES IDX 33 56 35 57 32 58 54 59 55 60 60 61 56 62 57 63 59 64 61 65
REMARK SMILES IDX 58 66 42 67 43 68 48 69 44 70 45 71 47 72 49 73 46 74
REMARK H PARENT 66 36 40 47
REMARK Flexibility Score: inf
ROOT
ATOM      1  C   UNL A   1      33.286  36.017  28.942  1.00  0.00     0.275 C 
ENDROOT
BRANCH   1   2
ATOM      2  O   UNL A   1      33.922  34.727  28.992  1.00  0.00    -0.457 OA
BRANCH   2   3
ATOM      3  C   UNL A   1      33.357  33.768  28.194  1.00  0.00     0.355 C 
ATOM      4  O   UNL A   1      32.278  33.886  27.658  1.00  0.00    -0.244 OA
BRANCH   3   5
ATOM      5  C   UNL A   1      34.259  32.640  27.985  1.00  0.00     0.128 A 
ATOM      6  N   UNL A   1      35.630  32.598  27.817  1.00  0.00    -0.338 N 
ATOM      7  C   UNL A   1      36.038  31.292  27.640  1.00  0.00     0.090 A 
ATOM      8  C   UNL A   1      34.938  30.465  27.686  1.00  0.00    -0.030 A 
ATOM      9  C   UNL A   1      33.825  31.321  27.886  1.00  0.00     0.039 A 
BRANCH   6  10
ATOM     10  C   UNL A   1      36.585  33.703  27.862  1.00  0.00     0.149 C 
BRANCH  10  11
ATOM     11  C   UNL A   1      37.701  33.413  28.828  1.00  0.00    -0.013 C 
ATOM     12  C   UNL A   1      38.169  34.282  29.734  1.00  0.00     0.006 C 
ENDBRANCH  10  11
ENDBRANCH   6  10
BRANCH   8  13
ATOM     13  C   UNL A   1      34.926  28.979  27.548  1.00  0.00     0.034 C 
ATOM     14  C   UNL A   1      34.138  28.501  26.336  1.00  0.00     0.009 C 
ENDBRANCH   8  13
ENDBRANCH   3   5
ENDBRANCH   2   3
ENDBRANCH   1   2
BRANCH   1  15
ATOM     15  C   UNL A   1      32.588  36.380  30.255  1.00  0.00     0.275 C 
BRANCH  15  16
ATOM     16  O   UNL A   1      32.549  35.309  31.205  1.00  0.00    -0.458 OA
BRANCH  16  17
ATOM     17  C   UNL A   1      32.767  35.718  32.475  1.00  0.00     0.338 C 
ATOM     18  O   UNL A   1      32.195  36.621  33.066  1.00  0.00    -0.246 OA
BRANCH  17  19
ATOM     19  C   UNL A   1      33.947  35.071  33.050  1.00  0.00     0.060 A 
ATOM     20  C   UNL A   1      35.186  35.673  32.807  1.00  0.00     0.016 A 
ATOM     21  C   UNL A   1      33.845  33.756  33.521  1.00  0.00     0.016 A 
ATOM     22  C   UNL A   1      36.335  34.915  32.931  1.00  0.00     0.010 A 
ATOM     23  C   UNL A   1      34.994  32.990  33.618  1.00  0.00     0.010 A 
ATOM     24  C   UNL A   1      36.230  33.566  33.287  1.00  0.00    -0.014 A 
BRANCH  24  25
ATOM     25  C   UNL A   1      37.473  32.787  33.423  1.00  0.00     0.031 A 
ATOM     26  C   UNL A   1      37.493  31.590  32.475  1.00  0.00     0.074 A 
ATOM     27  C   UNL A   1      38.367  33.220  34.363  1.00  0.00     0.049 A 
ATOM     28  N   UNL A   1      38.178  30.491  32.547  1.00  0.00    -0.248 NA
ATOM     29  C   UNL A   1      36.576  31.578  31.300  1.00  0.00     0.031 C 
ATOM     30  C   UNL A   1      38.180  34.422  35.206  1.00  0.00     0.029 A 
ATOM     31  N   UNL A   1      39.593  32.762  34.810  1.00  0.00    -0.354 N 
ATOM     32  C   UNL A   1      37.959  29.791  31.343  1.00  0.00     0.074 A 
ATOM     33  C   UNL A   1      36.868  30.434  30.683  1.00  0.00     0.031 C 
ATOM     34  C   UNL A   1      39.196  34.558  36.085  1.00  0.00     0.029 A 
ATOM     35  C   UNL A   1      40.154  33.485  35.896  1.00  0.00     0.049 A 
ATOM     36  H   UNL A   1      40.045  31.988  34.402  1.00  0.00     0.167 HD
ATOM     37  C   UNL A   1      38.807  28.827  30.884  1.00  0.00     0.037 A 
ATOM     38  C   UNL A   1      41.299  33.239  36.606  1.00  0.00     0.037 A 
ATOM     39  C   UNL A   1      39.846  28.592  31.826  1.00  0.00     0.049 A 
ATOM     40  C   UNL A   1      41.999  32.178  35.874  1.00  0.00     0.074 A 
ATOM     41  C   UNL A   1      39.857  28.013  33.066  1.00  0.00     0.029 A 
ATOM     42  N   UNL A   1      41.007  29.303  31.646  1.00  0.00    -0.354 N 
ATOM     43  N   UNL A   1      42.605  32.355  34.741  1.00  0.00    -0.248 NA
ATOM     44  C   UNL A   1      42.023  30.818  36.424  1.00  0.00     0.031 C 
ATOM     45  C   UNL A   1      40.842  28.737  33.766  1.00  0.00     0.029 A 
ATOM     46  C   UNL A   1      41.496  29.610  32.889  1.00  0.00     0.049 A 
ATOM     47  H   UNL A   1      41.414  29.546  30.783  1.00  0.00     0.167 HD
ATOM     48  C   UNL A   1      42.748  31.070  34.282  1.00  0.00     0.074 A 
ATOM     49  C   UNL A   1      42.683  30.207  35.442  1.00  0.00     0.031 C 
ATOM     50  C   UNL A   1      42.324  30.787  33.025  1.00  0.00     0.037 A 
BRANCH  37  51
ATOM     51  C   UNL A   1      38.969  28.227  29.519  1.00  0.00     0.057 A 
ATOM     52  C   UNL A   1      39.039  26.819  29.416  1.00  0.00     0.134 A 
ATOM     53  C   UNL A   1      39.412  28.945  28.403  1.00  0.00     0.134 A 
ATOM     54  F   UNL A   1      38.610  26.032  30.417  1.00  0.00    -0.206 F 
ATOM     55  C   UNL A   1      39.630  26.174  28.329  1.00  0.00     0.040 A 
ATOM     56  C   UNL A   1      39.962  28.305  27.286  1.00  0.00     0.040 A 
ATOM     57  F   UNL A   1      39.426  30.285  28.390  1.00  0.00    -0.206 F 
ATOM     58  C   UNL A   1      40.112  26.921  27.264  1.00  0.00     0.006 A 
ENDBRANCH  37  51
BRANCH  38  59
ATOM     59  C   UNL A   1      42.003  33.711  37.860  1.00  0.00     0.057 A 
ATOM     60  C   UNL A   1      41.650  33.391  39.172  1.00  0.00     0.134 A 
ATOM     61  C   UNL A   1      43.230  34.429  37.755  1.00  0.00     0.134 A 
ATOM     62  F   UNL A   1      40.500  32.769  39.455  1.00  0.00    -0.206 F 
ATOM     63  C   UNL A   1      42.486  33.677  40.270  1.00  0.00     0.040 A 
ATOM     64  C   UNL A   1      44.095  34.670  38.826  1.00  0.00     0.040 A 
ATOM     65  F   UNL A   1      43.671  34.916  36.585  1.00  0.00    -0.206 F 
ATOM     66  C   UNL A   1      43.730  34.277  40.097  1.00  0.00     0.006 A 
ENDBRANCH  38  59
BRANCH  50  67
ATOM     67  C   UNL A   1      42.373  31.984  32.086  1.00  0.00     0.057 A 
ATOM     68  C   UNL A   1      43.605  32.563  31.746  1.00  0.00     0.134 A 
ATOM     69  C   UNL A   1      41.241  32.680  31.637  1.00  0.00     0.134 A 
ATOM     70  F   UNL A   1      44.752  31.966  32.107  1.00  0.00    -0.206 F 
ATOM     71  C   UNL A   1      43.699  33.775  31.046  1.00  0.00     0.040 A 
ATOM     72  C   UNL A   1      41.315  33.888  30.931  1.00  0.00     0.040 A 
ATOM     73  F   UNL A   1      40.017  32.217  31.877  1.00  0.00    -0.206 F 
ATOM     74  C   UNL A   1      42.550  34.449  30.645  1.00  0.00     0.006 A 
ENDBRANCH  50  67
ENDBRANCH  24  25
ENDBRANCH  17  19
ENDBRANCH  16  17
ENDBRANCH  15  16
ENDBRANCH   1  15
TORSDOF 14
ENDMDL
MODEL 2
REMARK VINA RESULT:      -9.1      6.843     11.590
REMARK SMILES C=CCn1cc(CC)cc1C(=O)OCCOC(=O)c1ccc(-c2c3nc(c(-c4c(F)cccc4F)c4ccc([nH]4)c(-c4c(F)cccc4F)c4nc(c(-c5c(F)cccc5F)c5ccc2[nH]5)C=C4)C=C3)cc1
REMARK SMILES IDX 14 1 13 2 11 3 12 4 10 5 4 6 5 7 6 8 9 9 3 10 2 11 1 12 7 13
REMARK SMILES IDX 8 14 15 15 16 16 17 17 18 18 19 19 20 20 72 21 21 22 71 23
REMARK SMILES IDX 22 24 23 25 24 26 65 27 25 28 70 29 64 30 66 31 26 32 69 33
REMARK SMILES IDX 63 34 62 35 27 37 53 38 36 39 52 40 37 41 40 42 51 43 67 44
REMARK SMILES IDX 38 45 39 46 50 48 68 49 41 50 28 51 29 52 34 53 30 54 31 55
REMARK SMILES IDX 33 56 35 57 32 58 54 59 55 60 60 61 56 62 57 63 59 64 61 65
REMARK SMILES IDX 58 66 42 67 43 68 48 69 44 70 45 71 47 72 49 73 46 74
REMARK H PARENT 66 36 40 47
REMARK Flexibility Score: inf
ROOT
ATOM      1  C   UNL A   1      39.044  21.056  25.735  1.00  0.00     0.275 C 
ENDROOT
BRANCH   1   2
ATOM      2  O   UNL A   1      37.947  21.413  24.874  1.00  0.00    -0.457 OA
BRANCH   2   3
ATOM      3  C   UNL A   1      37.011  22.240  25.436  1.00  0.00     0.355 C 
ATOM      4  O   UNL A   1      37.284  23.200  26.122  1.00  0.00    -0.244 OA
BRANCH   3   5
ATOM      5  C   UNL A   1      35.659  21.888  25.018  1.00  0.00     0.128 A 
ATOM      6  N   UNL A   1      34.694  22.629  24.362  1.00  0.00    -0.338 N 
ATOM      7  C   UNL A   1      33.557  21.867  24.192  1.00  0.00     0.090 A 
ATOM      8  C   UNL A   1      33.763  20.620  24.738  1.00  0.00    -0.030 A 
ATOM      9  C   UNL A   1      35.077  20.648  25.269  1.00  0.00     0.039 A 
BRANCH   6  10
ATOM     10  C   UNL A   1      34.792  23.991  23.842  1.00  0.00     0.149 C 
BRANCH  10  11
ATOM     11  C   UNL A   1      34.556  25.003  24.929  1.00  0.00    -0.013 C 
ATOM     12  C   UNL A   1      33.348  25.432  25.320  1.00  0.00     0.006 C 
ENDBRANCH  10  11
ENDBRANCH   6  10
BRANCH   8  13
ATOM     13  C   UNL A   1      32.797  19.482  24.767  1.00  0.00     0.034 C 
ATOM     14  C   UNL A   1      32.475  18.941  23.381  1.00  0.00     0.009 C 
ENDBRANCH   8  13
ENDBRANCH   3   5
ENDBRANCH   2   3
ENDBRANCH   1   2
BRANCH   1  15
ATOM     15  C   UNL A   1      39.576  19.648  25.456  1.00  0.00     0.275 C 
BRANCH  15  16
ATOM     16  O   UNL A   1      40.392  19.120  26.509  1.00  0.00    -0.458 OA
BRANCH  16  17
ATOM     17  C   UNL A   1      41.698  19.028  26.171  1.00  0.00     0.338 C 
ATOM     18  O   UNL A   1      42.299  18.023  25.824  1.00  0.00    -0.246 OA
BRANCH  17  19
ATOM     19  C   UNL A   1      42.414  20.272  26.457  1.00  0.00     0.060 A 
ATOM     20  C   UNL A   1      42.280  20.803  27.744  1.00  0.00     0.016 A 
ATOM     21  C   UNL A   1      42.916  21.032  25.393  1.00  0.00     0.016 A 
ATOM     22  C   UNL A   1      42.547  22.144  27.947  1.00  0.00     0.010 A 
ATOM     23  C   UNL A   1      43.157  22.381  25.591  1.00  0.00     0.010 A 
ATOM     24  C   UNL A   1      42.936  22.936  26.860  1.00  0.00    -0.014 A 
BRANCH  24  25
ATOM     25  C   UNL A   1      43.226  24.358  27.110  1.00  0.00     0.031 A 
ATOM     26  C   UNL A   1      41.945  25.179  27.240  1.00  0.00     0.074 A 
ATOM     27  C   UNL A   1      44.545  24.716  27.153  1.00  0.00     0.049 A 
ATOM     28  N   UNL A   1      41.759  26.452  27.079  1.00  0.00    -0.248 NA
ATOM     29  C   UNL A   1      40.662  24.481  27.538  1.00  0.00     0.031 C 
ATOM     30  C   UNL A   1      45.675  23.771  27.005  1.00  0.00     0.029 A 
ATOM     31  N   UNL A   1      45.214  25.914  27.323  1.00  0.00    -0.354 N 
ATOM     32  C   UNL A   1      40.436  26.729  27.477  1.00  0.00     0.074 A 
ATOM     33  C   UNL A   1      39.774  25.471  27.614  1.00  0.00     0.031 C 
ATOM     34  C   UNL A   1      46.857  24.424  27.025  1.00  0.00     0.029 A 
ATOM     35  C   UNL A   1      46.628  25.845  27.209  1.00  0.00     0.049 A 
ATOM     36  H   UNL A   1      44.741  26.758  27.511  1.00  0.00     0.167 HD
ATOM     37  C   UNL A   1      40.017  27.976  27.836  1.00  0.00     0.037 A 
ATOM     38  C   UNL A   1      47.555  26.853  27.246  1.00  0.00     0.037 A 
ATOM     39  C   UNL A   1      41.066  28.920  27.657  1.00  0.00     0.049 A 
ATOM     40  C   UNL A   1      46.821  28.051  27.668  1.00  0.00     0.074 A 
ATOM     41  C   UNL A   1      41.662  29.441  26.540  1.00  0.00     0.029 A 
ATOM     42  N   UNL A   1      41.852  29.175  28.753  1.00  0.00    -0.354 N 
ATOM     43  N   UNL A   1      46.389  28.250  28.875  1.00  0.00    -0.248 NA
ATOM     44  C   UNL A   1      46.530  29.101  26.686  1.00  0.00     0.031 C 
ATOM     45  C   UNL A   1      43.002  29.630  26.932  1.00  0.00     0.029 A 
ATOM     46  C   UNL A   1      43.132  29.372  28.302  1.00  0.00     0.049 A 
ATOM     47  H   UNL A   1      41.553  29.211  29.690  1.00  0.00     0.167 HD
ATOM     48  C   UNL A   1      45.471  29.254  28.694  1.00  0.00     0.074 A 
ATOM     49  C   UNL A   1      45.829  29.924  27.462  1.00  0.00     0.031 C 
ATOM     50  C   UNL A   1      44.225  29.082  29.202  1.00  0.00     0.037 A 
BRANCH  37  51
ATOM     51  C   UNL A   1      38.811  28.426  28.604  1.00  0.00     0.057 A 
ATOM     52  C   UNL A   1      38.051  29.497  28.081  1.00  0.00     0.134 A 
ATOM     53  C   UNL A   1      38.590  28.120  29.951  1.00  0.00     0.134 A 
ATOM     54  F   UNL A   1      38.161  29.855  26.790  1.00  0.00    -0.206 F 
ATOM     55  C   UNL A   1      37.224  30.291  28.877  1.00  0.00     0.040 A 
ATOM     56  C   UNL A   1      37.724  28.881  30.747  1.00  0.00     0.040 A 
ATOM     57  F   UNL A   1      39.271  27.147  30.571  1.00  0.00    -0.206 F 
ATOM     58  C   UNL A   1      37.073  29.993  30.222  1.00  0.00     0.006 A 
ENDBRANCH  37  51
BRANCH  38  59
ATOM     59  C   UNL A   1      49.028  27.075  26.982  1.00  0.00     0.057 A 
ATOM     60  C   UNL A   1      49.630  27.196  25.728  1.00  0.00     0.134 A 
ATOM     61  C   UNL A   1      49.910  27.341  28.070  1.00  0.00     0.134 A 
ATOM     62  F   UNL A   1      48.962  26.924  24.602  1.00  0.00    -0.206 F 
ATOM     63  C   UNL A   1      50.962  27.631  25.569  1.00  0.00     0.040 A 
ATOM     64  C   UNL A   1      51.213  27.827  27.927  1.00  0.00     0.040 A 
ATOM     65  F   UNL A   1      49.537  27.166  29.347  1.00  0.00    -0.206 F 
ATOM     66  C   UNL A   1      51.743  27.989  26.664  1.00  0.00     0.006 A 
ENDBRANCH  38  59
BRANCH  50  67
ATOM     67  C   UNL A   1      44.189  28.172  30.422  1.00  0.00     0.057 A 
ATOM     68  C   UNL A   1      44.807  28.571  31.617  1.00  0.00     0.134 A 
ATOM     69  C   UNL A   1      43.707  26.856  30.408  1.00  0.00     0.134 A 
ATOM     70  F   UNL A   1      45.284  29.820  31.745  1.00  0.00    -0.206 F 
ATOM     71  C   UNL A   1      44.972  27.702  32.705  1.00  0.00     0.040 A 
ATOM     72  C   UNL A   1      43.856  25.974  31.488  1.00  0.00     0.040 A 
ATOM     73  F   UNL A   1      43.080  26.370  29.340  1.00  0.00    -0.206 F 
ATOM     74  C   UNL A   1      44.505  26.393  32.639  1.00  0.00     0.006 A 
ENDBRANCH  50  67
ENDBRANCH  24  25
ENDBRANCH  17  19
ENDBRANCH  16  17
ENDBRANCH  15  16
ENDBRANCH   1  15
TORSDOF 14
ENDMDL
MODEL 3
REMARK VINA RESULT:      -9.0      4.904      7.600
REMARK SMILES C=CCn1cc(CC)cc1C(=O)OCCOC(=O)c1ccc(-c2c3nc(c(-c4c(F)cccc4F)c4ccc([nH]4)c(-c4c(F)cccc4F)c4nc(c(-c5c(F)cccc5F)c5ccc2[nH]5)C=C4)C=C3)cc1
REMARK SMILES IDX 14 1 13 2 11 3 12 4 10 5 4 6 5 7 6 8 9 9 3 10 2 11 1 12 7 13
REMARK SMILES IDX 8 14 15 15 16 16 17 17 18 18 19 19 20 20 72 21 21 22 71 23
REMARK SMILES IDX 22 24 23 25 24 26 65 27 25 28 70 29 64 30 66 31 26 32 69 33
REMARK SMILES IDX 63 34 62 35 27 37 53 38 36 39 52 40 37 41 40 42 51 43 67 44
REMARK SMILES IDX 38 45 39 46 50 48 68 49 41 50 28 51 29 52 34 53 30 54 31 55
REMARK SMILES IDX 33 56 35 57 32 58 54 59 55 60 60 61 56 62 57 63 59 64 61 65
REMARK SMILES IDX 58 66 42 67 43 68 48 69 44 70 45 71 47 72 49 73 46 74
REMARK H PARENT 66 36 40 47
REMARK Flexibility Score: inf
ROOT
ATOM      1  C   UNL A   1      33.479  28.527  25.774  1.00  0.00     0.275 C 
ENDROOT
BRANCH   1   2
ATOM      2  O   UNL A   1      32.978  29.538  24.880  1.00  0.00    -0.457 OA
BRANCH   2   3
ATOM      3  C   UNL A   1      32.682  29.103  23.616  1.00  0.00     0.355 C 
ATOM      4  O   UNL A   1      33.507  28.955  22.742  1.00  0.00    -0.244 OA
BRANCH   3   5
ATOM      5  C   UNL A   1      31.275  28.739  23.486  1.00  0.00     0.128 A 
ATOM      6  N   UNL A   1      30.647  27.511  23.579  1.00  0.00    -0.338 N 
ATOM      7  C   UNL A   1      29.292  27.664  23.371  1.00  0.00     0.090 A 
ATOM      8  C   UNL A   1      29.018  28.993  23.136  1.00  0.00    -0.030 A 
ATOM      9  C   UNL A   1      30.270  29.657  23.193  1.00  0.00     0.039 A 
BRANCH   6  10
ATOM     10  C   UNL A   1      31.235  26.212  23.900  1.00  0.00     0.149 C 
BRANCH  10  11
ATOM     11  C   UNL A   1      30.316  25.091  23.500  1.00  0.00    -0.013 C 
ATOM     12  C   UNL A   1      30.654  23.794  23.497  1.00  0.00     0.006 C 
ENDBRANCH  10  11
ENDBRANCH   6  10
BRANCH   8  13
ATOM     13  C   UNL A   1      27.680  29.600  22.871  1.00  0.00     0.034 C 
ATOM     14  C   UNL A   1      27.654  31.104  23.110  1.00  0.00     0.009 C 
ENDBRANCH   8  13
ENDBRANCH   3   5
ENDBRANCH   2   3
ENDBRANCH   1   2
BRANCH   1  15
ATOM     15  C   UNL A   1      34.031  29.114  27.075  1.00  0.00     0.275 C 
BRANCH  15  16
ATOM     16  O   UNL A   1      35.444  28.945  27.233  1.00  0.00    -0.458 OA
BRANCH  16  17
ATOM     17  C   UNL A   1      36.053  30.032  27.759  1.00  0.00     0.338 C 
ATOM     18  O   UNL A   1      35.723  31.199  27.619  1.00  0.00    -0.246 OA
BRANCH  17  19
ATOM     19  C   UNL A   1      37.325  29.680  28.390  1.00  0.00     0.060 A 
ATOM     20  C   UNL A   1      38.478  29.789  27.606  1.00  0.00     0.016 A 
ATOM     21  C   UNL A   1      37.317  28.963  29.593  1.00  0.00     0.016 A 
ATOM     22  C   UNL A   1      39.608  29.082  27.971  1.00  0.00     0.010 A 
ATOM     23  C   UNL A   1      38.440  28.233  29.944  1.00  0.00     0.010 A 
ATOM     24  C   UNL A   1      39.567  28.269  29.110  1.00  0.00    -0.014 A 
BRANCH  24  25
ATOM     25  C   UNL A   1      40.790  27.538  29.482  1.00  0.00     0.031 A 
ATOM     26  C   UNL A   1      41.007  26.317  28.590  1.00  0.00     0.074 A 
ATOM     27  C   UNL A   1      41.497  28.026  30.546  1.00  0.00     0.049 A 
ATOM     28  N   UNL A   1      41.702  25.245  28.813  1.00  0.00    -0.248 NA
ATOM     29  C   UNL A   1      40.306  26.242  27.277  1.00  0.00     0.031 C 
ATOM     30  C   UNL A   1      41.133  29.243  31.306  1.00  0.00     0.029 A 
ATOM     31  N   UNL A   1      42.641  27.623  31.210  1.00  0.00    -0.354 N 
ATOM     32  C   UNL A   1      41.714  24.505  27.613  1.00  0.00     0.074 A 
ATOM     33  C   UNL A   1      40.734  25.092  26.756  1.00  0.00     0.031 C 
ATOM     34  C   UNL A   1      41.979  29.438  32.340  1.00  0.00     0.029 A 
ATOM     35  C   UNL A   1      42.986  28.394  32.352  1.00  0.00     0.049 A 
ATOM     36  H   UNL A   1      43.179  26.854  30.911  1.00  0.00     0.167 HD
ATOM     37  C   UNL A   1      42.655  23.559  27.337  1.00  0.00     0.037 A 
ATOM     38  C   UNL A   1      43.999  28.206  33.255  1.00  0.00     0.037 A 
ATOM     39  C   UNL A   1      43.524  23.386  28.450  1.00  0.00     0.049 A 
ATOM     40  C   UNL A   1      44.845  27.150  32.687  1.00  0.00     0.074 A 
ATOM     41  C   UNL A   1      43.339  22.840  29.691  1.00  0.00     0.029 A 
ATOM     42  N   UNL A   1      44.677  24.130  28.447  1.00  0.00    -0.354 N 
ATOM     43  N   UNL A   1      45.631  27.318  31.669  1.00  0.00    -0.248 NA
ATOM     44  C   UNL A   1      44.814  25.808  33.277  1.00  0.00     0.031 C 
ATOM     45  C   UNL A   1      44.168  23.617  30.525  1.00  0.00     0.029 A 
ATOM     46  C   UNL A   1      44.937  24.488  29.745  1.00  0.00     0.049 A 
ATOM     47  H   UNL A   1      45.219  24.364  27.659  1.00  0.00     0.167 HD
ATOM     48  C   UNL A   1      45.888  26.027  31.283  1.00  0.00     0.074 A 
ATOM     49  C   UNL A   1      45.650  25.194  32.443  1.00  0.00     0.031 C 
ATOM     50  C   UNL A   1      45.694  25.696  29.982  1.00  0.00     0.037 A 
BRANCH  37  51
ATOM     51  C   UNL A   1      43.067  22.929  26.040  1.00  0.00     0.057 A 
ATOM     52  C   UNL A   1      43.188  21.521  25.994  1.00  0.00     0.134 A 
ATOM     53  C   UNL A   1      43.679  23.630  24.996  1.00  0.00     0.134 A 
ATOM     54  F   UNL A   1      42.612  20.748  26.930  1.00  0.00    -0.206 F 
ATOM     55  C   UNL A   1      43.976  20.866  25.046  1.00  0.00     0.040 A 
ATOM     56  C   UNL A   1      44.431  22.977  24.010  1.00  0.00     0.040 A 
ATOM     57  F   UNL A   1      43.661  24.969  24.943  1.00  0.00    -0.206 F 
ATOM     58  C   UNL A   1      44.616  21.598  24.058  1.00  0.00     0.006 A 
ENDBRANCH  37  51
BRANCH  38  59
ATOM     59  C   UNL A   1      44.463  28.736  34.594  1.00  0.00     0.057 A 
ATOM     60  C   UNL A   1      43.932  28.399  35.840  1.00  0.00     0.134 A 
ATOM     61  C   UNL A   1      45.638  29.540  34.668  1.00  0.00     0.134 A 
ATOM     62  F   UNL A   1      42.799  27.698  35.953  1.00  0.00    -0.206 F 
ATOM     63  C   UNL A   1      44.565  28.751  37.051  1.00  0.00     0.040 A 
ATOM     64  C   UNL A   1      46.305  29.849  35.857  1.00  0.00     0.040 A 
ATOM     65  F   UNL A   1      46.221  30.050  33.574  1.00  0.00    -0.206 F 
ATOM     66  C   UNL A   1      45.775  29.439  37.062  1.00  0.00     0.006 A 
ENDBRANCH  38  59
BRANCH  50  67
ATOM     67  C   UNL A   1      45.868  26.869  29.027  1.00  0.00     0.057 A 
ATOM     68  C   UNL A   1      44.775  27.341  28.285  1.00  0.00     0.134 A 
ATOM     69  C   UNL A   1      47.106  27.440  28.698  1.00  0.00     0.134 A 
ATOM     70  F   UNL A   1      43.540  26.877  28.534  1.00  0.00    -0.206 F 
ATOM     71  C   UNL A   1      44.915  28.284  27.256  1.00  0.00     0.040 A 
ATOM     72  C   UNL A   1      47.265  28.388  27.679  1.00  0.00     0.040 A 
ATOM     73  F   UNL A   1      48.212  27.091  29.349  1.00  0.00    -0.206 F 
ATOM     74  C   UNL A   1      46.167  28.804  26.942  1.00  0.00     0.006 A 
ENDBRANCH  50  67
ENDBRANCH  24  25
ENDBRANCH  17  19
ENDBRANCH  16  17
ENDBRANCH  15  16
ENDBRANCH   1  15
TORSDOF 14
ENDMDL
