MODEL 1
REMARK VINA RESULT:      -9.1      0.000      0.000
REMARK SMILES CCCC[C@H](NS(=O)(=O)c1cccc(F)c1)C(=O)OCCOC(=O)c1ccc(-c2c3nc(c(-c4c(F)cccc4F)c4ccc([nH]4)c(-c4c(F)cccc4F)c4nc(c(-c5c(F)cccc5F)c5ccc2[nH]5)C=C4)C=C3)cc1
REMARK SMILES IDX 20 1 19 2 17 3 18 4 5 5 4 6 3 7 2 8 1 9 6 10 7 12 8 13 9 14
REMARK SMILES IDX 10 15 11 16 16 17 12 18 14 19 13 20 15 21 21 22 22 23 23 24
REMARK SMILES IDX 24 25 25 26 26 27 78 28 27 29 77 30 28 31 29 32 30 33 71 34
REMARK SMILES IDX 31 35 76 36 70 37 72 38 32 39 75 40 69 41 68 42 33 44 59 45
REMARK SMILES IDX 42 46 58 47 43 48 46 49 57 50 73 51 44 52 45 53 56 55 74 56
REMARK SMILES IDX 47 57 34 58 35 59 40 60 36 61 37 62 39 63 41 64 38 65 60 66
REMARK SMILES IDX 61 67 66 68 62 69 63 70 65 71 67 72 64 73 48 74 49 75 54 76
REMARK SMILES IDX 50 77 51 78 53 79 55 80 52 81
REMARK H PARENT 6 11 72 43 46 54
REMARK Flexibility Score: inf
ROOT
ATOM      1  C   UNL A   1      32.523  32.776  27.403  1.00  0.00     0.274 C 
ENDROOT
BRANCH   1   2
ATOM      2  O   UNL A   1      33.611  33.675  27.702  1.00  0.00    -0.461 OA
BRANCH   2   3
ATOM      3  C   UNL A   1      33.557  34.291  28.917  1.00  0.00     0.324 C 
ATOM      4  O   UNL A   1      32.635  35.011  29.287  1.00  0.00    -0.250 OA
BRANCH   3   5
ATOM      5  C   UNL A   1      34.771  33.989  29.799  1.00  0.00     0.179 C 
BRANCH   5   6
ATOM      6  C   UNL A   1      35.974  33.438  29.023  1.00  0.00     0.032 C 
BRANCH   6   7
ATOM      7  C   UNL A   1      37.292  33.144  29.758  1.00  0.00     0.002 C 
BRANCH   7   8
ATOM      8  C   UNL A   1      38.326  34.262  29.930  1.00  0.00    -0.003 C 
ATOM      9  C   UNL A   1      38.834  34.468  31.347  1.00  0.00     0.004 C 
ENDBRANCH   7   8
ENDBRANCH   6   7
ENDBRANCH   5   6
BRANCH   5  10
ATOM     10  N   UNL A   1      34.352  33.181  30.968  1.00  0.00    -0.197 NA
ATOM     11  H   UNL A   1      34.934  32.343  30.936  1.00  0.00     0.142 HD
BRANCH  10  12
ATOM     12  S   UNL A   1      34.384  33.674  32.564  1.00  0.00     0.241 S 
ATOM     13  O   UNL A   1      34.554  35.108  32.542  1.00  0.00    -0.207 OA
ATOM     14  O   UNL A   1      33.266  33.063  33.249  1.00  0.00    -0.207 OA
BRANCH  12  15
ATOM     15  C   UNL A   1      35.867  33.001  33.272  1.00  0.00     0.085 A 
ATOM     16  C   UNL A   1      36.580  33.717  34.238  1.00  0.00     0.022 A 
ATOM     17  C   UNL A   1      36.290  31.728  32.881  1.00  0.00     0.061 A 
ATOM     18  C   UNL A   1      37.756  33.182  34.771  1.00  0.00     0.004 A 
ATOM     19  C   UNL A   1      37.444  31.198  33.444  1.00  0.00     0.124 A 
ATOM     20  C   UNL A   1      38.189  31.919  34.370  1.00  0.00     0.039 A 
ATOM     21  F   UNL A   1      37.843  29.967  33.095  1.00  0.00    -0.207 F 
ENDBRANCH  12  15
ENDBRANCH  10  12
ENDBRANCH   5  10
ENDBRANCH   3   5
ENDBRANCH   2   3
ENDBRANCH   1   2
BRANCH   1  22
ATOM     22  C   UNL A   1      32.957  31.310  27.259  1.00  0.00     0.275 C 
BRANCH  22  23
ATOM     23  O   UNL A   1      34.352  31.104  27.552  1.00  0.00    -0.458 OA
BRANCH  23  24
ATOM     24  C   UNL A   1      34.682  29.822  27.827  1.00  0.00     0.338 C 
ATOM     25  O   UNL A   1      34.038  28.820  27.546  1.00  0.00    -0.246 OA
BRANCH  24  26
ATOM     26  C   UNL A   1      36.064  29.733  28.329  1.00  0.00     0.060 A 
ATOM     27  C   UNL A   1      37.068  29.959  27.388  1.00  0.00     0.016 A 
ATOM     28  C   UNL A   1      36.396  29.360  29.631  1.00  0.00     0.016 A 
ATOM     29  C   UNL A   1      38.400  29.762  27.710  1.00  0.00     0.010 A 
ATOM     30  C   UNL A   1      37.747  29.173  29.964  1.00  0.00     0.010 A 
ATOM     31  C   UNL A   1      38.753  29.343  28.995  1.00  0.00    -0.014 A 
BRANCH  31  32
ATOM     32  C   UNL A   1      40.176  29.008  29.244  1.00  0.00     0.031 A 
ATOM     33  C   UNL A   1      40.723  27.689  28.775  1.00  0.00     0.074 A 
ATOM     34  C   UNL A   1      40.999  29.938  29.763  1.00  0.00     0.049 A 
ATOM     35  N   UNL A   1      41.945  27.228  28.854  1.00  0.00    -0.248 NA
ATOM     36  C   UNL A   1      39.776  26.774  28.122  1.00  0.00     0.031 C 
ATOM     37  C   UNL A   1      40.595  31.281  30.180  1.00  0.00     0.029 A 
ATOM     38  N   UNL A   1      42.350  29.907  29.996  1.00  0.00    -0.354 N 
ATOM     39  C   UNL A   1      41.910  25.964  28.278  1.00  0.00     0.074 A 
ATOM     40  C   UNL A   1      40.542  25.722  27.874  1.00  0.00     0.031 C 
ATOM     41  C   UNL A   1      41.680  31.955  30.594  1.00  0.00     0.029 A 
ATOM     42  C   UNL A   1      42.844  31.077  30.520  1.00  0.00     0.049 A 
ATOM     43  H   UNL A   1      42.913  29.121  29.807  1.00  0.00     0.167 HD
ATOM     44  C   UNL A   1      42.929  25.093  28.093  1.00  0.00     0.037 A 
ATOM     45  C   UNL A   1      44.092  31.400  30.911  1.00  0.00     0.037 A 
ATOM     46  C   UNL A   1      44.292  25.348  28.484  1.00  0.00     0.049 A 
ATOM     47  C   UNL A   1      45.191  30.387  30.762  1.00  0.00     0.074 A 
ATOM     48  C   UNL A   1      45.395  24.523  28.347  1.00  0.00     0.029 A 
ATOM     49  N   UNL A   1      44.738  26.515  29.086  1.00  0.00    -0.354 N 
ATOM     50  N   UNL A   1      45.140  29.184  30.241  1.00  0.00    -0.248 NA
ATOM     51  C   UNL A   1      46.519  30.773  31.255  1.00  0.00     0.031 C 
ATOM     52  C   UNL A   1      46.498  25.169  28.913  1.00  0.00     0.029 A 
ATOM     53  C   UNL A   1      46.097  26.423  29.347  1.00  0.00     0.049 A 
ATOM     54  H   UNL A   1      44.175  27.293  29.297  1.00  0.00     0.167 HD
ATOM     55  C   UNL A   1      46.430  28.675  30.332  1.00  0.00     0.074 A 
ATOM     56  C   UNL A   1      47.245  29.711  30.932  1.00  0.00     0.031 C 
ATOM     57  C   UNL A   1      46.894  27.459  29.954  1.00  0.00     0.037 A 
BRANCH  44  58
ATOM     58  C   UNL A   1      42.609  23.767  27.465  1.00  0.00     0.057 A 
ATOM     59  C   UNL A   1      42.273  22.665  28.262  1.00  0.00     0.134 A 
ATOM     60  C   UNL A   1      42.684  23.563  26.081  1.00  0.00     0.134 A 
ATOM     61  F   UNL A   1      42.186  22.790  29.595  1.00  0.00    -0.206 F 
ATOM     62  C   UNL A   1      42.038  21.406  27.708  1.00  0.00     0.040 A 
ATOM     63  C   UNL A   1      42.424  22.314  25.512  1.00  0.00     0.040 A 
ATOM     64  F   UNL A   1      42.982  24.581  25.259  1.00  0.00    -0.206 F 
ATOM     65  C   UNL A   1      42.110  21.229  26.329  1.00  0.00     0.006 A 
ENDBRANCH  44  58
BRANCH  45  66
ATOM     66  C   UNL A   1      44.358  32.743  31.487  1.00  0.00     0.057 A 
ATOM     67  C   UNL A   1      44.765  33.814  30.679  1.00  0.00     0.134 A 
ATOM     68  C   UNL A   1      44.234  32.985  32.858  1.00  0.00     0.134 A 
ATOM     69  F   UNL A   1      44.904  33.649  29.355  1.00  0.00    -0.206 F 
ATOM     70  C   UNL A   1      45.061  35.067  31.217  1.00  0.00     0.040 A 
ATOM     71  C   UNL A   1      44.499  34.240  33.407  1.00  0.00     0.040 A 
ATOM     72  F   UNL A   1      43.827  32.006  33.681  1.00  0.00    -0.206 F 
ATOM     73  C   UNL A   1      44.924  35.284  32.586  1.00  0.00     0.006 A 
ENDBRANCH  45  66
BRANCH  57  74
ATOM     74  C   UNL A   1      48.357  27.185  30.166  1.00  0.00     0.057 A 
ATOM     75  C   UNL A   1      49.301  27.552  29.197  1.00  0.00     0.134 A 
ATOM     76  C   UNL A   1      48.826  26.520  31.307  1.00  0.00     0.134 A 
ATOM     77  F   UNL A   1      48.918  28.179  28.075  1.00  0.00    -0.206 F 
ATOM     78  C   UNL A   1      50.657  27.263  29.354  1.00  0.00     0.040 A 
ATOM     79  C   UNL A   1      50.185  26.255  31.489  1.00  0.00     0.040 A 
ATOM     80  F   UNL A   1      47.976  26.151  32.277  1.00  0.00    -0.206 F 
ATOM     81  C   UNL A   1      51.103  26.621  30.507  1.00  0.00     0.006 A 
ENDBRANCH  57  74
ENDBRANCH  31  32
ENDBRANCH  24  26
ENDBRANCH  23  24
ENDBRANCH  22  23
ENDBRANCH   1  22
TORSDOF 17
ENDMDL
MODEL 2
REMARK VINA RESULT:      -9.0      4.218      9.016
REMARK SMILES CCCC[C@H](NS(=O)(=O)c1cccc(F)c1)C(=O)OCCOC(=O)c1ccc(-c2c3nc(c(-c4c(F)cccc4F)c4ccc([nH]4)c(-c4c(F)cccc4F)c4nc(c(-c5c(F)cccc5F)c5ccc2[nH]5)C=C4)C=C3)cc1
REMARK SMILES IDX 20 1 19 2 17 3 18 4 5 5 4 6 3 7 2 8 1 9 6 10 7 12 8 13 9 14
REMARK SMILES IDX 10 15 11 16 16 17 12 18 14 19 13 20 15 21 21 22 22 23 23 24
REMARK SMILES IDX 24 25 25 26 26 27 78 28 27 29 77 30 28 31 29 32 30 33 71 34
REMARK SMILES IDX 31 35 76 36 70 37 72 38 32 39 75 40 69 41 68 42 33 44 59 45
REMARK SMILES IDX 42 46 58 47 43 48 46 49 57 50 73 51 44 52 45 53 56 55 74 56
REMARK SMILES IDX 47 57 34 58 35 59 40 60 36 61 37 62 39 63 41 64 38 65 60 66
REMARK SMILES IDX 61 67 66 68 62 69 63 70 65 71 67 72 64 73 48 74 49 75 54 76
REMARK SMILES IDX 50 77 51 78 53 79 55 80 52 81
REMARK H PARENT 6 11 72 43 46 54
REMARK Flexibility Score: inf
ROOT
ATOM      1  C   UNL A   1      30.793  30.949  25.376  1.00  0.00     0.274 C 
ENDROOT
BRANCH   1   2
ATOM      2  O   UNL A   1      31.836  30.060  24.926  1.00  0.00    -0.461 OA
BRANCH   2   3
ATOM      3  C   UNL A   1      31.427  28.835  24.491  1.00  0.00     0.324 C 
ATOM      4  O   UNL A   1      31.113  27.908  25.231  1.00  0.00    -0.250 OA
BRANCH   3   5
ATOM      5  C   UNL A   1      31.387  28.721  22.965  1.00  0.00     0.179 C 
BRANCH   5   6
ATOM      6  C   UNL A   1      30.100  29.276  22.340  1.00  0.00     0.032 C 
BRANCH   6   7
ATOM      7  C   UNL A   1      28.736  28.700  22.753  1.00  0.00     0.002 C 
BRANCH   7   8
ATOM      8  C   UNL A   1      27.542  29.643  22.934  1.00  0.00    -0.003 C 
ATOM      9  C   UNL A   1      27.889  31.117  23.059  1.00  0.00     0.004 C 
ENDBRANCH   7   8
ENDBRANCH   6   7
ENDBRANCH   5   6
BRANCH   5  10
ATOM     10  N   UNL A   1      31.740  27.341  22.558  1.00  0.00    -0.197 NA
ATOM     11  H   UNL A   1      31.135  27.133  21.763  1.00  0.00     0.142 HD
BRANCH  10  12
ATOM     12  S   UNL A   1      33.258  26.810  22.102  1.00  0.00     0.241 S 
ATOM     13  O   UNL A   1      33.069  26.028  20.903  1.00  0.00    -0.207 OA
ATOM     14  O   UNL A   1      34.159  27.941  22.124  1.00  0.00    -0.207 OA
BRANCH  12  15
ATOM     15  C   UNL A   1      33.798  25.681  23.361  1.00  0.00     0.085 A 
ATOM     16  C   UNL A   1      33.966  26.115  24.678  1.00  0.00     0.022 A 
ATOM     17  C   UNL A   1      34.014  24.341  23.025  1.00  0.00     0.061 A 
ATOM     18  C   UNL A   1      34.411  25.217  25.654  1.00  0.00     0.004 A 
ATOM     19  C   UNL A   1      34.426  23.455  24.013  1.00  0.00     0.124 A 
ATOM     20  C   UNL A   1      34.643  23.884  25.318  1.00  0.00     0.039 A 
ATOM     21  F   UNL A   1      34.609  22.164  23.707  1.00  0.00    -0.207 F 
ENDBRANCH  12  15
ENDBRANCH  10  12
ENDBRANCH   5  10
ENDBRANCH   3   5
ENDBRANCH   2   3
ENDBRANCH   1   2
BRANCH   1  22
ATOM     22  C   UNL A   1      31.246  31.927  26.470  1.00  0.00     0.275 C 
BRANCH  22  23
ATOM     23  O   UNL A   1      32.530  31.592  27.030  1.00  0.00    -0.458 OA
BRANCH  23  24
ATOM     24  C   UNL A   1      33.220  32.648  27.517  1.00  0.00     0.338 C 
ATOM     25  O   UNL A   1      32.778  33.758  27.779  1.00  0.00    -0.246 OA
BRANCH  24  26
ATOM     26  C   UNL A   1      34.576  32.242  27.926  1.00  0.00     0.060 A 
ATOM     27  C   UNL A   1      34.727  30.903  28.286  1.00  0.00     0.016 A 
ATOM     28  C   UNL A   1      35.647  33.126  28.050  1.00  0.00     0.016 A 
ATOM     29  C   UNL A   1      35.917  30.442  28.821  1.00  0.00     0.010 A 
ATOM     30  C   UNL A   1      36.861  32.658  28.581  1.00  0.00     0.010 A 
ATOM     31  C   UNL A   1      36.989  31.320  28.999  1.00  0.00    -0.014 A 
BRANCH  31  32
ATOM     32  C   UNL A   1      38.187  30.811  29.709  1.00  0.00     0.031 A 
ATOM     33  C   UNL A   1      38.396  31.153  31.157  1.00  0.00     0.074 A 
ATOM     34  C   UNL A   1      39.005  29.936  29.094  1.00  0.00     0.049 A 
ATOM     35  N   UNL A   1      39.350  30.770  31.966  1.00  0.00    -0.248 NA
ATOM     36  C   UNL A   1      37.394  32.031  31.780  1.00  0.00     0.031 C 
ATOM     37  C   UNL A   1      38.856  29.469  27.716  1.00  0.00     0.029 A 
ATOM     38  N   UNL A   1      40.104  29.259  29.560  1.00  0.00    -0.354 N 
ATOM     39  C   UNL A   1      39.074  31.374  33.187  1.00  0.00     0.074 A 
ATOM     40  C   UNL A   1      37.877  32.165  33.007  1.00  0.00     0.031 C 
ATOM     41  C   UNL A   1      39.811  28.563  27.455  1.00  0.00     0.029 A 
ATOM     42  C   UNL A   1      40.668  28.422  28.628  1.00  0.00     0.049 A 
ATOM     43  H   UNL A   1      40.455  29.363  30.474  1.00  0.00     0.167 HD
ATOM     44  C   UNL A   1      39.753  31.266  34.353  1.00  0.00     0.037 A 
ATOM     45  C   UNL A   1      41.764  27.642  28.705  1.00  0.00     0.037 A 
ATOM     46  C   UNL A   1      40.936  30.463  34.529  1.00  0.00     0.049 A 
ATOM     47  C   UNL A   1      42.541  27.598  29.991  1.00  0.00     0.074 A 
ATOM     48  C   UNL A   1      41.700  30.295  35.671  1.00  0.00     0.029 A 
ATOM     49  N   UNL A   1      41.524  29.691  33.539  1.00  0.00    -0.354 N 
ATOM     50  N   UNL A   1      42.287  28.195  31.130  1.00  0.00    -0.248 NA
ATOM     51  C   UNL A   1      43.756  26.774  30.001  1.00  0.00     0.031 C 
ATOM     52  C   UNL A   1      42.780  29.465  35.357  1.00  0.00     0.029 A 
ATOM     53  C   UNL A   1      42.655  29.063  34.037  1.00  0.00     0.049 A 
ATOM     54  H   UNL A   1      41.189  29.602  32.617  1.00  0.00     0.167 HD
ATOM     55  C   UNL A   1      43.302  27.808  31.997  1.00  0.00     0.074 A 
ATOM     56  C   UNL A   1      44.159  26.905  31.258  1.00  0.00     0.031 C 
ATOM     57  C   UNL A   1      43.505  28.173  33.287  1.00  0.00     0.037 A 
BRANCH  44  58
ATOM     58  C   UNL A   1      39.252  32.056  35.528  1.00  0.00     0.057 A 
ATOM     59  C   UNL A   1      39.695  33.369  35.743  1.00  0.00     0.134 A 
ATOM     60  C   UNL A   1      38.378  31.507  36.475  1.00  0.00     0.134 A 
ATOM     61  F   UNL A   1      40.535  33.954  34.876  1.00  0.00    -0.206 F 
ATOM     62  C   UNL A   1      39.298  34.100  36.864  1.00  0.00     0.040 A 
ATOM     63  C   UNL A   1      37.952  32.239  37.586  1.00  0.00     0.040 A 
ATOM     64  F   UNL A   1      37.902  30.262  36.320  1.00  0.00    -0.206 F 
ATOM     65  C   UNL A   1      38.422  33.536  37.787  1.00  0.00     0.006 A 
ENDBRANCH  44  58
BRANCH  45  66
ATOM     66  C   UNL A   1      42.187  26.849  27.523  1.00  0.00     0.057 A 
ATOM     67  C   UNL A   1      41.800  25.511  27.368  1.00  0.00     0.134 A 
ATOM     68  C   UNL A   1      43.006  27.399  26.532  1.00  0.00     0.134 A 
ATOM     69  F   UNL A   1      41.016  24.922  28.283  1.00  0.00    -0.206 F 
ATOM     70  C   UNL A   1      42.231  24.744  26.284  1.00  0.00     0.040 A 
ATOM     71  C   UNL A   1      43.420  26.654  25.428  1.00  0.00     0.040 A 
ATOM     72  F   UNL A   1      43.392  28.682  26.612  1.00  0.00    -0.206 F 
ATOM     73  C   UNL A   1      43.041  25.318  25.307  1.00  0.00     0.006 A 
ENDBRANCH  45  66
BRANCH  57  74
ATOM     74  C   UNL A   1      44.696  27.583  33.989  1.00  0.00     0.057 A 
ATOM     75  C   UNL A   1      44.592  26.363  34.670  1.00  0.00     0.134 A 
ATOM     76  C   UNL A   1      45.932  28.241  34.027  1.00  0.00     0.134 A 
ATOM     77  F   UNL A   1      43.434  25.686  34.685  1.00  0.00    -0.206 F 
ATOM     78  C   UNL A   1      45.673  25.821  35.367  1.00  0.00     0.040 A 
ATOM     79  C   UNL A   1      47.030  27.694  34.695  1.00  0.00     0.040 A 
ATOM     80  F   UNL A   1      46.102  29.407  33.387  1.00  0.00    -0.206 F 
ATOM     81  C   UNL A   1      46.898  26.483  35.373  1.00  0.00     0.006 A 
ENDBRANCH  57  74
ENDBRANCH  31  32
ENDBRANCH  24  26
ENDBRANCH  23  24
ENDBRANCH  22  23
ENDBRANCH   1  22
TORSDOF 17
ENDMDL
MODEL 3
REMARK VINA RESULT:      -9.0      4.374      9.335
REMARK SMILES CCCC[C@H](NS(=O)(=O)c1cccc(F)c1)C(=O)OCCOC(=O)c1ccc(-c2c3nc(c(-c4c(F)cccc4F)c4ccc([nH]4)c(-c4c(F)cccc4F)c4nc(c(-c5c(F)cccc5F)c5ccc2[nH]5)C=C4)C=C3)cc1
REMARK SMILES IDX 20 1 19 2 17 3 18 4 5 5 4 6 3 7 2 8 1 9 6 10 7 12 8 13 9 14
REMARK SMILES IDX 10 15 11 16 16 17 12 18 14 19 13 20 15 21 21 22 22 23 23 24
REMARK SMILES IDX 24 25 25 26 26 27 78 28 27 29 77 30 28 31 29 32 30 33 71 34
REMARK SMILES IDX 31 35 76 36 70 37 72 38 32 39 75 40 69 41 68 42 33 44 59 45
REMARK SMILES IDX 42 46 58 47 43 48 46 49 57 50 73 51 44 52 45 53 56 55 74 56
REMARK SMILES IDX 47 57 34 58 35 59 40 60 36 61 37 62 39 63 41 64 38 65 60 66
REMARK SMILES IDX 61 67 66 68 62 69 63 70 65 71 67 72 64 73 48 74 49 75 54 76
REMARK SMILES IDX 50 77 51 78 53 79 55 80 52 81
REMARK H PARENT 6 11 72 43 46 54
REMARK Flexibility Score: inf
ROOT
ATOM      1  C   UNL A   1      31.396  31.745  26.645  1.00  0.00     0.274 C 
ENDROOT
BRANCH   1   2
ATOM      2  O   UNL A   1      31.921  30.685  25.819  1.00  0.00    -0.461 OA
BRANCH   2   3
ATOM      3  C   UNL A   1      32.012  29.461  26.410  1.00  0.00     0.324 C 
ATOM      4  O   UNL A   1      32.502  29.262  27.518  1.00  0.00    -0.250 OA
BRANCH   3   5
ATOM      5  C   UNL A   1      31.429  28.334  25.554  1.00  0.00     0.179 C 
BRANCH   5   6
ATOM      6  C   UNL A   1      32.116  26.979  25.769  1.00  0.00     0.032 C 
BRANCH   6   7
ATOM      7  C   UNL A   1      33.602  26.808  25.417  1.00  0.00     0.002 C 
BRANCH   7   8
ATOM      8  C   UNL A   1      34.007  25.836  24.302  1.00  0.00    -0.003 C 
ATOM      9  C   UNL A   1      34.708  24.570  24.764  1.00  0.00     0.004 C 
ENDBRANCH   7   8
ENDBRANCH   6   7
ENDBRANCH   5   6
BRANCH   5  10
ATOM     10  N   UNL A   1      31.336  28.775  24.143  1.00  0.00    -0.197 NA
ATOM     11  H   UNL A   1      32.168  28.399  23.689  1.00  0.00     0.142 HD
BRANCH  10  12
ATOM     12  S   UNL A   1      30.079  28.445  23.092  1.00  0.00     0.241 S 
ATOM     13  O   UNL A   1      30.688  28.001  21.860  1.00  0.00    -0.207 OA
ATOM     14  O   UNL A   1      29.111  27.625  23.787  1.00  0.00    -0.207 OA
BRANCH  12  15
ATOM     15  C   UNL A   1      29.296  29.998  22.736  1.00  0.00     0.085 A 
ATOM     16  C   UNL A   1      29.208  30.989  23.717  1.00  0.00     0.022 A 
ATOM     17  C   UNL A   1      28.804  30.232  21.448  1.00  0.00     0.061 A 
ATOM     18  C   UNL A   1      28.571  32.200  23.426  1.00  0.00     0.004 A 
ATOM     19  C   UNL A   1      28.201  31.452  21.168  1.00  0.00     0.124 A 
ATOM     20  C   UNL A   1      28.064  32.428  22.148  1.00  0.00     0.039 A 
ATOM     21  F   UNL A   1      27.750  31.695  19.930  1.00  0.00    -0.207 F 
ENDBRANCH  12  15
ENDBRANCH  10  12
ENDBRANCH   5  10
ENDBRANCH   3   5
ENDBRANCH   2   3
ENDBRANCH   1   2
BRANCH   1  22
ATOM     22  C   UNL A   1      32.395  32.884  26.895  1.00  0.00     0.275 C 
BRANCH  22  23
ATOM     23  O   UNL A   1      32.113  33.629  28.095  1.00  0.00    -0.458 OA
BRANCH  23  24
ATOM     24  C   UNL A   1      33.090  34.489  28.462  1.00  0.00     0.338 C 
ATOM     25  O   UNL A   1      32.964  35.679  28.716  1.00  0.00    -0.246 OA
BRANCH  24  26
ATOM     26  C   UNL A   1      34.341  33.768  28.751  1.00  0.00     0.060 A 
ATOM     27  C   UNL A   1      34.219  32.642  29.566  1.00  0.00     0.016 A 
ATOM     28  C   UNL A   1      35.600  34.198  28.336  1.00  0.00     0.016 A 
ATOM     29  C   UNL A   1      35.340  31.970  30.020  1.00  0.00     0.010 A 
ATOM     30  C   UNL A   1      36.740  33.510  28.785  1.00  0.00     0.010 A 
ATOM     31  C   UNL A   1      36.614  32.412  29.656  1.00  0.00    -0.014 A 
BRANCH  31  32
ATOM     32  C   UNL A   1      37.781  31.747  30.286  1.00  0.00     0.031 A 
ATOM     33  C   UNL A   1      38.109  32.027  31.725  1.00  0.00     0.074 A 
ATOM     34  C   UNL A   1      38.454  30.797  29.609  1.00  0.00     0.049 A 
ATOM     35  N   UNL A   1      39.055  31.514  32.470  1.00  0.00    -0.248 NA
ATOM     36  C   UNL A   1      37.256  33.001  32.421  1.00  0.00     0.031 C 
ATOM     37  C   UNL A   1      38.173  30.386  28.233  1.00  0.00     0.029 A 
ATOM     38  N   UNL A   1      39.488  29.985  29.997  1.00  0.00    -0.354 N 
ATOM     39  C   UNL A   1      38.921  32.115  33.716  1.00  0.00     0.074 A 
ATOM     40  C   UNL A   1      37.819  33.047  33.620  1.00  0.00     0.031 C 
ATOM     41  C   UNL A   1      38.997  29.380  27.901  1.00  0.00     0.029 A 
ATOM     42  C   UNL A   1      39.896  29.110  29.019  1.00  0.00     0.049 A 
ATOM     43  H   UNL A   1      39.900  30.024  30.891  1.00  0.00     0.167 HD
ATOM     44  C   UNL A   1      39.646  31.900  34.838  1.00  0.00     0.037 A 
ATOM     45  C   UNL A   1      40.893  28.205  29.018  1.00  0.00     0.037 A 
ATOM     46  C   UNL A   1      40.733  30.959  34.931  1.00  0.00     0.049 A 
ATOM     47  C   UNL A   1      41.730  28.038  30.255  1.00  0.00     0.074 A 
ATOM     48  C   UNL A   1      41.535  30.674  36.023  1.00  0.00     0.029 A 
ATOM     49  N   UNL A   1      41.170  30.148  33.893  1.00  0.00    -0.354 N 
ATOM     50  N   UNL A   1      41.613  28.632  31.418  1.00  0.00    -0.248 NA
ATOM     51  C   UNL A   1      42.838  27.076  30.180  1.00  0.00     0.031 C 
ATOM     52  C   UNL A   1      42.488  29.730  35.632  1.00  0.00     0.029 A 
ATOM     53  C   UNL A   1      42.244  29.379  34.313  1.00  0.00     0.049 A 
ATOM     54  H   UNL A   1      40.775  30.122  32.992  1.00  0.00     0.167 HD
ATOM     55  C   UNL A   1      42.622  28.108  32.217  1.00  0.00     0.074 A 
ATOM     56  C   UNL A   1      43.323  27.128  31.413  1.00  0.00     0.031 C 
ATOM     57  C   UNL A   1      42.938  28.413  33.500  1.00  0.00     0.037 A 
BRANCH  44  58
ATOM     58  C   UNL A   1      39.310  32.713  36.054  1.00  0.00     0.057 A 
ATOM     59  C   UNL A   1      39.897  33.971  36.253  1.00  0.00     0.134 A 
ATOM     60  C   UNL A   1      38.451  32.238  37.053  1.00  0.00     0.134 A 
ATOM     61  F   UNL A   1      40.732  34.485  35.338  1.00  0.00    -0.206 F 
ATOM     62  C   UNL A   1      39.654  34.717  37.408  1.00  0.00     0.040 A 
ATOM     63  C   UNL A   1      38.177  32.988  38.199  1.00  0.00     0.040 A 
ATOM     64  F   UNL A   1      37.841  31.051  36.916  1.00  0.00    -0.206 F 
ATOM     65  C   UNL A   1      38.789  34.227  38.383  1.00  0.00     0.006 A 
ENDBRANCH  44  58
BRANCH  45  66
ATOM     66  C   UNL A   1      41.153  27.397  27.800  1.00  0.00     0.057 A 
ATOM     67  C   UNL A   1      40.592  26.123  27.638  1.00  0.00     0.134 A 
ATOM     68  C   UNL A   1      41.984  27.867  26.778  1.00  0.00     0.134 A 
ATOM     69  F   UNL A   1      39.787  25.613  28.581  1.00  0.00    -0.206 F 
ATOM     70  C   UNL A   1      40.867  25.338  26.517  1.00  0.00     0.040 A 
ATOM     71  C   UNL A   1      42.245  27.105  25.638  1.00  0.00     0.040 A 
ATOM     72  F   UNL A   1      42.534  29.088  26.863  1.00  0.00    -0.206 F 
ATOM     73  C   UNL A   1      41.693  25.831  25.510  1.00  0.00     0.006 A 
ENDBRANCH  45  66
BRANCH  57  74
ATOM     74  C   UNL A   1      44.088  27.670  34.120  1.00  0.00     0.057 A 
ATOM     75  C   UNL A   1      43.881  26.442  34.763  1.00  0.00     0.134 A 
ATOM     76  C   UNL A   1      45.390  28.188  34.118  1.00  0.00     0.134 A 
ATOM     77  F   UNL A   1      42.657  25.896  34.814  1.00  0.00    -0.206 F 
ATOM     78  C   UNL A   1      44.927  25.760  35.387  1.00  0.00     0.040 A 
ATOM     79  C   UNL A   1      46.450  27.498  34.711  1.00  0.00     0.040 A 
ATOM     80  F   UNL A   1      45.657  29.353  33.510  1.00  0.00    -0.206 F 
ATOM     81  C   UNL A   1      46.217  26.283  35.353  1.00  0.00     0.006 A 
ENDBRANCH  57  74
ENDBRANCH  31  32
ENDBRANCH  24  26
ENDBRANCH  23  24
ENDBRANCH  22  23
ENDBRANCH   1  22
TORSDOF 17
ENDMDL
