MODEL 1
REMARK VINA RESULT:     -11.5      0.000      0.000
REMARK SMILES CC(C)CSc1cc2c(cc1Cl)C=C(C(=O)OCCOC(=O)c1ccc(-c3c4nc(c(-c5c(F)cccc5F)c5ccc([nH]5)c(-c5c(F)cccc5F)c5nc(c(-c6c(F)cccc6F)c6ccc3[nH]6)C=C5)C=C4)cc1)[C@@H](C(F)(F)F)O2
REMARK SMILES IDX 18 1 17 2 15 3 16 4 14 5 6 6 7 7 11 8 8 9 10 10 12 11 9 12
REMARK SMILES IDX 82 13 13 14 77 15 5 16 4 17 2 18 1 19 3 20 78 21 79 22 80 23
REMARK SMILES IDX 81 24 19 25 20 26 21 27 22 28 23 29 24 30 76 31 25 32 75 33
REMARK SMILES IDX 26 34 27 35 28 36 69 37 29 38 74 39 68 40 70 41 30 42 73 43
REMARK SMILES IDX 67 44 66 45 31 47 57 48 40 49 56 50 41 51 44 52 55 53 71 54
REMARK SMILES IDX 42 55 43 56 54 58 72 59 45 60 32 61 33 62 38 63 34 64 35 65
REMARK SMILES IDX 37 66 39 67 36 68 58 69 59 70 64 71 60 72 61 73 63 74 65 75
REMARK SMILES IDX 62 76 46 77 47 78 52 79 48 80 49 81 51 82 53 83 50 84
REMARK H PARENT 70 46 44 57
REMARK Flexibility Score: inf
ROOT
ATOM      1  C   UNL A   1      36.071  20.220  25.015  1.00  0.00     0.275 C 
ENDROOT
BRANCH   1   2
ATOM      2  O   UNL A   1      35.771  21.274  25.956  1.00  0.00    -0.459 OA
BRANCH   2   3
ATOM      3  C   UNL A   1      34.469  21.631  26.050  1.00  0.00     0.338 C 
ATOM      4  O   UNL A   1      33.609  21.085  26.723  1.00  0.00    -0.246 OA
BRANCH   3   5
ATOM      5  C   UNL A   1      34.219  22.853  25.258  1.00  0.00     0.087 C 
ATOM      6  C   UNL A   1      33.022  27.497  23.785  1.00  0.00     0.030 A 
ATOM      7  C   UNL A   1      33.257  26.288  23.106  1.00  0.00     0.063 A 
ATOM      8  C   UNL A   1      33.325  27.581  25.151  1.00  0.00     0.055 A 
ATOM      9  C   UNL A   1      33.646  25.146  23.804  1.00  0.00     0.129 A 
ATOM     10  C   UNL A   1      33.717  26.438  25.847  1.00  0.00     0.033 A 
ATOM     11  Cl  UNL A   1      33.243  29.056  26.050  1.00  0.00    -0.083 Cl
ATOM     12  C   UNL A   1      33.830  25.215  25.179  1.00  0.00     0.019 A 
ATOM     13  O   UNL A   1      33.807  24.002  23.075  1.00  0.00    -0.475 OA
ATOM     14  C   UNL A   1      34.115  24.009  25.923  1.00  0.00     0.027 C 
ATOM     15  C   UNL A   1      33.981  22.736  23.778  1.00  0.00     0.316 C 
BRANCH   6  16
ATOM     16  S   UNL A   1      32.276  28.813  22.832  1.00  0.00    -0.124 SA
BRANCH  16  17
ATOM     17  C   UNL A   1      30.684  28.030  22.345  1.00  0.00     0.078 C 
BRANCH  17  18
ATOM     18  C   UNL A   1      29.566  28.101  23.405  1.00  0.00    -0.007 C 
ATOM     19  C   UNL A   1      28.257  28.689  22.871  1.00  0.00     0.008 C 
ATOM     20  C   UNL A   1      29.281  26.688  23.930  1.00  0.00     0.008 C 
ENDBRANCH  17  18
ENDBRANCH  16  17
ENDBRANCH   6  16
BRANCH  15  21
ATOM     21  C   UNL A   1      32.757  21.848  23.498  1.00  0.00     0.430 C 
ATOM     22  F   UNL A   1      33.068  20.533  23.580  1.00  0.00    -0.167 F 
ATOM     23  F   UNL A   1      31.764  22.069  24.393  1.00  0.00    -0.167 F 
ATOM     24  F   UNL A   1      32.244  22.068  22.265  1.00  0.00    -0.167 F 
ENDBRANCH  15  21
ENDBRANCH   3   5
ENDBRANCH   2   3
ENDBRANCH   1   2
BRANCH   1  25
ATOM     25  C   UNL A   1      37.580  19.994  24.898  1.00  0.00     0.275 C 
BRANCH  25  26
ATOM     26  O   UNL A   1      38.297  21.148  25.377  1.00  0.00    -0.458 OA
BRANCH  26  27
ATOM     27  C   UNL A   1      39.393  20.885  26.123  1.00  0.00     0.338 C 
ATOM     28  O   UNL A   1      39.959  19.816  26.270  1.00  0.00    -0.246 OA
BRANCH  27  29
ATOM     29  C   UNL A   1      39.916  22.144  26.673  1.00  0.00     0.060 A 
ATOM     30  C   UNL A   1      41.021  22.179  27.513  1.00  0.00     0.016 A 
ATOM     31  C   UNL A   1      39.358  23.329  26.211  1.00  0.00     0.016 A 
ATOM     32  C   UNL A   1      41.545  23.422  27.895  1.00  0.00     0.010 A 
ATOM     33  C   UNL A   1      39.963  24.552  26.473  1.00  0.00     0.010 A 
ATOM     34  C   UNL A   1      41.045  24.625  27.354  1.00  0.00    -0.014 A 
BRANCH  34  35
ATOM     35  C   UNL A   1      41.636  25.950  27.705  1.00  0.00     0.031 A 
ATOM     36  C   UNL A   1      43.020  26.338  27.233  1.00  0.00     0.074 A 
ATOM     37  C   UNL A   1      40.947  26.800  28.496  1.00  0.00     0.049 A 
ATOM     38  N   UNL A   1      43.684  27.451  27.439  1.00  0.00    -0.248 NA
ATOM     39  C   UNL A   1      43.779  25.335  26.469  1.00  0.00     0.031 C 
ATOM     40  C   UNL A   1      39.652  26.519  29.119  1.00  0.00     0.029 A 
ATOM     41  N   UNL A   1      41.236  28.081  28.899  1.00  0.00    -0.354 N 
ATOM     42  C   UNL A   1      44.933  27.263  26.858  1.00  0.00     0.074 A 
ATOM     43  C   UNL A   1      44.967  25.908  26.361  1.00  0.00     0.031 C 
ATOM     44  C   UNL A   1      39.223  27.618  29.759  1.00  0.00     0.029 A 
ATOM     45  C   UNL A   1      40.227  28.668  29.624  1.00  0.00     0.049 A 
ATOM     46  H   UNL A   1      42.083  28.534  28.689  1.00  0.00     0.167 HD
ATOM     47  C   UNL A   1      45.949  28.149  26.705  1.00  0.00     0.037 A 
ATOM     48  C   UNL A   1      40.113  29.919  30.110  1.00  0.00     0.037 A 
ATOM     49  C   UNL A   1      45.899  29.519  27.141  1.00  0.00     0.049 A 
ATOM     50  C   UNL A   1      41.224  30.904  29.877  1.00  0.00     0.074 A 
ATOM     51  C   UNL A   1      46.836  30.521  26.955  1.00  0.00     0.029 A 
ATOM     52  N   UNL A   1      44.844  30.082  27.842  1.00  0.00    -0.354 N 
ATOM     53  N   UNL A   1      42.357  30.736  29.241  1.00  0.00    -0.248 NA
ATOM     54  C   UNL A   1      41.035  32.255  30.424  1.00  0.00     0.031 C 
ATOM     55  C   UNL A   1      46.359  31.684  27.568  1.00  0.00     0.029 A 
ATOM     56  C   UNL A   1      45.110  31.416  28.104  1.00  0.00     0.049 A 
ATOM     57  H   UNL A   1      44.027  29.604  28.113  1.00  0.00     0.167 HD
ATOM     58  C   UNL A   1      43.006  31.962  29.294  1.00  0.00     0.074 A 
ATOM     59  C   UNL A   1      42.129  32.871  30.003  1.00  0.00     0.031 C 
ATOM     60  C   UNL A   1      44.223  32.306  28.805  1.00  0.00     0.037 A 
BRANCH  47  61
ATOM     61  C   UNL A   1      47.189  27.666  26.004  1.00  0.00     0.057 A 
ATOM     62  C   UNL A   1      47.289  27.704  24.607  1.00  0.00     0.134 A 
ATOM     63  C   UNL A   1      48.281  27.144  26.713  1.00  0.00     0.134 A 
ATOM     64  F   UNL A   1      46.279  28.179  23.864  1.00  0.00    -0.206 F 
ATOM     65  C   UNL A   1      48.432  27.251  23.945  1.00  0.00     0.040 A 
ATOM     66  C   UNL A   1      49.439  26.716  26.064  1.00  0.00     0.040 A 
ATOM     67  F   UNL A   1      48.254  27.087  28.054  1.00  0.00    -0.206 F 
ATOM     68  C   UNL A   1      49.516  26.765  24.674  1.00  0.00     0.006 A 
ENDBRANCH  47  61
BRANCH  48  69
ATOM     69  C   UNL A   1      38.875  30.335  30.817  1.00  0.00     0.057 A 
ATOM     70  C   UNL A   1      37.799  30.917  30.138  1.00  0.00     0.134 A 
ATOM     71  C   UNL A   1      38.737  30.142  32.197  1.00  0.00     0.134 A 
ATOM     72  F   UNL A   1      37.871  31.136  28.817  1.00  0.00    -0.206 F 
ATOM     73  C   UNL A   1      36.632  31.292  30.805  1.00  0.00     0.040 A 
ATOM     74  C   UNL A   1      37.567  30.489  32.873  1.00  0.00     0.040 A 
ATOM     75  F   UNL A   1      39.728  29.573  32.900  1.00  0.00    -0.206 F 
ATOM     76  C   UNL A   1      36.510  31.070  32.176  1.00  0.00     0.006 A 
ENDBRANCH  48  69
BRANCH  60  77
ATOM     77  C   UNL A   1      44.659  33.727  28.999  1.00  0.00     0.057 A 
ATOM     78  C   UNL A   1      44.359  34.703  28.041  1.00  0.00     0.134 A 
ATOM     79  C   UNL A   1      45.395  34.123  30.123  1.00  0.00     0.134 A 
ATOM     80  F   UNL A   1      43.664  34.385  26.938  1.00  0.00    -0.206 F 
ATOM     81  C   UNL A   1      44.776  36.025  28.194  1.00  0.00     0.040 A 
ATOM     82  C   UNL A   1      45.797  35.448  30.298  1.00  0.00     0.040 A 
ATOM     83  F   UNL A   1      45.700  33.238  31.083  1.00  0.00    -0.206 F 
ATOM     84  C   UNL A   1      45.492  36.402  29.329  1.00  0.00     0.006 A 
ENDBRANCH  60  77
ENDBRANCH  34  35
ENDBRANCH  27  29
ENDBRANCH  26  27
ENDBRANCH  25  26
ENDBRANCH   1  25
TORSDOF 15
ENDMDL
MODEL 2
REMARK VINA RESULT:     -11.4      4.340      9.106
REMARK SMILES CC(C)CSc1cc2c(cc1Cl)C=C(C(=O)OCCOC(=O)c1ccc(-c3c4nc(c(-c5c(F)cccc5F)c5ccc([nH]5)c(-c5c(F)cccc5F)c5nc(c(-c6c(F)cccc6F)c6ccc3[nH]6)C=C5)C=C4)cc1)[C@@H](C(F)(F)F)O2
REMARK SMILES IDX 18 1 17 2 15 3 16 4 14 5 6 6 7 7 11 8 8 9 10 10 12 11 9 12
REMARK SMILES IDX 82 13 13 14 77 15 5 16 4 17 2 18 1 19 3 20 78 21 79 22 80 23
REMARK SMILES IDX 81 24 19 25 20 26 21 27 22 28 23 29 24 30 76 31 25 32 75 33
REMARK SMILES IDX 26 34 27 35 28 36 69 37 29 38 74 39 68 40 70 41 30 42 73 43
REMARK SMILES IDX 67 44 66 45 31 47 57 48 40 49 56 50 41 51 44 52 55 53 71 54
REMARK SMILES IDX 42 55 43 56 54 58 72 59 45 60 32 61 33 62 38 63 34 64 35 65
REMARK SMILES IDX 37 66 39 67 36 68 58 69 59 70 64 71 60 72 61 73 63 74 65 75
REMARK SMILES IDX 62 76 46 77 47 78 52 79 48 80 49 81 51 82 53 83 50 84
REMARK H PARENT 70 46 44 57
REMARK Flexibility Score: inf
ROOT
ATOM      1  C   UNL A   1      30.929  29.730  24.542  1.00  0.00     0.275 C 
ENDROOT
BRANCH   1   2
ATOM      2  O   UNL A   1      30.448  28.393  24.283  1.00  0.00    -0.459 OA
BRANCH   2   3
ATOM      3  C   UNL A   1      30.646  27.925  23.029  1.00  0.00     0.338 C 
ATOM      4  O   UNL A   1      30.150  28.358  22.001  1.00  0.00    -0.246 OA
BRANCH   3   5
ATOM      5  C   UNL A   1      31.629  26.822  23.048  1.00  0.00     0.087 C 
ATOM      6  C   UNL A   1      34.356  22.799  24.291  1.00  0.00     0.030 A 
ATOM      7  C   UNL A   1      34.499  23.815  23.330  1.00  0.00     0.063 A 
ATOM      8  C   UNL A   1      33.147  22.689  24.992  1.00  0.00     0.055 A 
ATOM      9  C   UNL A   1      33.515  24.790  23.177  1.00  0.00     0.129 A 
ATOM     10  C   UNL A   1      32.162  23.664  24.835  1.00  0.00     0.033 A 
ATOM     11  Cl  UNL A   1      32.791  21.383  26.068  1.00  0.00    -0.083 Cl
ATOM     12  C   UNL A   1      32.370  24.736  23.962  1.00  0.00     0.019 A 
ATOM     13  O   UNL A   1      33.753  25.769  22.254  1.00  0.00    -0.475 OA
ATOM     14  C   UNL A   1      31.405  25.809  23.892  1.00  0.00     0.027 C 
ATOM     15  C   UNL A   1      32.877  26.934  22.218  1.00  0.00     0.316 C 
BRANCH   6  16
ATOM     16  S   UNL A   1      35.789  21.770  24.580  1.00  0.00    -0.124 SA
BRANCH  16  17
ATOM     17  C   UNL A   1      36.584  22.665  25.978  1.00  0.00     0.078 C 
BRANCH  17  18
ATOM     18  C   UNL A   1      38.055  23.067  25.747  1.00  0.00    -0.007 C 
ATOM     19  C   UNL A   1      38.513  24.233  26.627  1.00  0.00     0.008 C 
ATOM     20  C   UNL A   1      38.957  21.861  26.038  1.00  0.00     0.008 C 
ENDBRANCH  17  18
ENDBRANCH  16  17
ENDBRANCH   6  16
BRANCH  15  21
ATOM     21  C   UNL A   1      33.690  28.172  22.632  1.00  0.00     0.430 C 
ATOM     22  F   UNL A   1      34.888  28.213  22.003  1.00  0.00    -0.167 F 
ATOM     23  F   UNL A   1      33.045  29.321  22.316  1.00  0.00    -0.167 F 
ATOM     24  F   UNL A   1      33.929  28.198  23.964  1.00  0.00    -0.167 F 
ENDBRANCH  15  21
ENDBRANCH   3   5
ENDBRANCH   2   3
ENDBRANCH   1   2
BRANCH   1  25
ATOM     25  C   UNL A   1      31.490  29.852  25.960  1.00  0.00     0.275 C 
BRANCH  25  26
ATOM     26  O   UNL A   1      32.840  30.351  25.924  1.00  0.00    -0.458 OA
BRANCH  26  27
ATOM     27  C   UNL A   1      33.141  31.286  26.851  1.00  0.00     0.338 C 
ATOM     28  O   UNL A   1      32.434  32.190  27.259  1.00  0.00    -0.246 OA
BRANCH  27  29
ATOM     29  C   UNL A   1      34.463  30.990  27.424  1.00  0.00     0.060 A 
ATOM     30  C   UNL A   1      35.372  31.992  27.737  1.00  0.00     0.016 A 
ATOM     31  C   UNL A   1      34.729  29.676  27.783  1.00  0.00     0.016 A 
ATOM     32  C   UNL A   1      36.559  31.649  28.400  1.00  0.00     0.010 A 
ATOM     33  C   UNL A   1      35.833  29.358  28.564  1.00  0.00     0.010 A 
ATOM     34  C   UNL A   1      36.790  30.333  28.854  1.00  0.00    -0.014 A 
BRANCH  34  35
ATOM     35  C   UNL A   1      38.022  29.970  29.616  1.00  0.00     0.031 A 
ATOM     36  C   UNL A   1      38.236  30.457  31.032  1.00  0.00     0.074 A 
ATOM     37  C   UNL A   1      38.984  29.235  29.019  1.00  0.00     0.049 A 
ATOM     38  N   UNL A   1      39.242  30.231  31.842  1.00  0.00    -0.248 NA
ATOM     39  C   UNL A   1      37.214  31.350  31.600  1.00  0.00     0.031 C 
ATOM     40  C   UNL A   1      38.970  28.789  27.624  1.00  0.00     0.029 A 
ATOM     41  N   UNL A   1      40.156  28.720  29.517  1.00  0.00    -0.354 N 
ATOM     42  C   UNL A   1      38.983  30.972  32.990  1.00  0.00     0.074 A 
ATOM     43  C   UNL A   1      37.770  31.715  32.745  1.00  0.00     0.031 C 
ATOM     44  C   UNL A   1      40.036  28.005  27.401  1.00  0.00     0.029 A 
ATOM     45  C   UNL A   1      40.830  27.924  28.623  1.00  0.00     0.049 A 
ATOM     46  H   UNL A   1      40.481  28.904  30.427  1.00  0.00     0.167 HD
ATOM     47  C   UNL A   1      39.662  31.001  34.163  1.00  0.00     0.037 A 
ATOM     48  C   UNL A   1      41.951  27.193  28.774  1.00  0.00     0.037 A 
ATOM     49  C   UNL A   1      40.836  30.216  34.438  1.00  0.00     0.049 A 
ATOM     50  C   UNL A   1      42.654  27.190  30.101  1.00  0.00     0.074 A 
ATOM     51  C   UNL A   1      41.545  30.103  35.621  1.00  0.00     0.029 A 
ATOM     52  N   UNL A   1      41.466  29.396  33.513  1.00  0.00    -0.354 N 
ATOM     53  N   UNL A   1      42.340  27.822  31.205  1.00  0.00    -0.248 NA
ATOM     54  C   UNL A   1      43.867  26.366  30.204  1.00  0.00     0.031 C 
ATOM     55  C   UNL A   1      42.622  29.236  35.404  1.00  0.00     0.029 A 
ATOM     56  C   UNL A   1      42.561  28.782  34.097  1.00  0.00     0.049 A 
ATOM     57  H   UNL A   1      41.177  29.271  32.580  1.00  0.00     0.167 HD
ATOM     58  C   UNL A   1      43.301  27.457  32.138  1.00  0.00     0.074 A 
ATOM     59  C   UNL A   1      44.196  26.529  31.477  1.00  0.00     0.031 C 
ATOM     60  C   UNL A   1      43.436  27.857  33.426  1.00  0.00     0.037 A 
BRANCH  47  61
ATOM     61  C   UNL A   1      39.125  31.888  35.253  1.00  0.00     0.057 A 
ATOM     62  C   UNL A   1      38.288  31.377  36.253  1.00  0.00     0.134 A 
ATOM     63  C   UNL A   1      39.422  33.258  35.300  1.00  0.00     0.134 A 
ATOM     64  F   UNL A   1      37.952  30.079  36.264  1.00  0.00    -0.206 F 
ATOM     65  C   UNL A   1      37.777  32.193  37.265  1.00  0.00     0.040 A 
ATOM     66  C   UNL A   1      38.941  34.077  36.323  1.00  0.00     0.040 A 
ATOM     67  F   UNL A   1      40.225  33.811  34.377  1.00  0.00    -0.206 F 
ATOM     68  C   UNL A   1      38.112  33.546  37.308  1.00  0.00     0.006 A 
ENDBRANCH  47  61
BRANCH  48  69
ATOM     69  C   UNL A   1      42.450  26.353  27.656  1.00  0.00     0.057 A 
ATOM     70  C   UNL A   1      43.342  26.852  26.700  1.00  0.00     0.134 A 
ATOM     71  C   UNL A   1      42.053  25.016  27.531  1.00  0.00     0.134 A 
ATOM     72  F   UNL A   1      43.755  28.126  26.760  1.00  0.00    -0.206 F 
ATOM     73  C   UNL A   1      43.820  26.052  25.661  1.00  0.00     0.040 A 
ATOM     74  C   UNL A   1      42.541  24.198  26.512  1.00  0.00     0.040 A 
ATOM     75  F   UNL A   1      41.212  24.476  28.426  1.00  0.00    -0.206 F 
ATOM     76  C   UNL A   1      43.426  24.718  25.569  1.00  0.00     0.006 A 
ENDBRANCH  48  69
BRANCH  60  77
ATOM     77  C   UNL A   1      44.575  27.272  34.206  1.00  0.00     0.057 A 
ATOM     78  C   UNL A   1      44.421  26.066  34.899  1.00  0.00     0.134 A 
ATOM     79  C   UNL A   1      45.816  27.916  34.288  1.00  0.00     0.134 A 
ATOM     80  F   UNL A   1      43.253  25.405  34.866  1.00  0.00    -0.206 F 
ATOM     81  C   UNL A   1      45.462  25.518  35.648  1.00  0.00     0.040 A 
ATOM     82  C   UNL A   1      46.873  27.365  35.015  1.00  0.00     0.040 A 
ATOM     83  F   UNL A   1      46.031  29.066  33.634  1.00  0.00    -0.206 F 
ATOM     84  C   UNL A   1      46.695  26.166  35.702  1.00  0.00     0.006 A 
ENDBRANCH  60  77
ENDBRANCH  34  35
ENDBRANCH  27  29
ENDBRANCH  26  27
ENDBRANCH  25  26
ENDBRANCH   1  25
TORSDOF 15
ENDMDL
MODEL 3
REMARK VINA RESULT:     -11.2      1.098      1.573
REMARK SMILES CC(C)CSc1cc2c(cc1Cl)C=C(C(=O)OCCOC(=O)c1ccc(-c3c4nc(c(-c5c(F)cccc5F)c5ccc([nH]5)c(-c5c(F)cccc5F)c5nc(c(-c6c(F)cccc6F)c6ccc3[nH]6)C=C5)C=C4)cc1)[C@@H](C(F)(F)F)O2
REMARK SMILES IDX 18 1 17 2 15 3 16 4 14 5 6 6 7 7 11 8 8 9 10 10 12 11 9 12
REMARK SMILES IDX 82 13 13 14 77 15 5 16 4 17 2 18 1 19 3 20 78 21 79 22 80 23
REMARK SMILES IDX 81 24 19 25 20 26 21 27 22 28 23 29 24 30 76 31 25 32 75 33
REMARK SMILES IDX 26 34 27 35 28 36 69 37 29 38 74 39 68 40 70 41 30 42 73 43
REMARK SMILES IDX 67 44 66 45 31 47 57 48 40 49 56 50 41 51 44 52 55 53 71 54
REMARK SMILES IDX 42 55 43 56 54 58 72 59 45 60 32 61 33 62 38 63 34 64 35 65
REMARK SMILES IDX 37 66 39 67 36 68 58 69 59 70 64 71 60 72 61 73 63 74 65 75
REMARK SMILES IDX 62 76 46 77 47 78 52 79 48 80 49 81 51 82 53 83 50 84
REMARK H PARENT 70 46 44 57
REMARK Flexibility Score: inf
ROOT
ATOM      1  C   UNL A   1      36.556  20.151  25.077  1.00  0.00     0.275 C 
ENDROOT
BRANCH   1   2
ATOM      2  O   UNL A   1      35.202  20.488  24.702  1.00  0.00    -0.459 OA
BRANCH   2   3
ATOM      3  C   UNL A   1      34.550  21.332  25.535  1.00  0.00     0.338 C 
ATOM      4  O   UNL A   1      34.311  21.152  26.719  1.00  0.00    -0.246 OA
BRANCH   3   5
ATOM      5  C   UNL A   1      34.206  22.581  24.825  1.00  0.00     0.087 C 
ATOM      6  C   UNL A   1      33.037  27.322  23.673  1.00  0.00     0.030 A 
ATOM      7  C   UNL A   1      33.007  26.109  22.961  1.00  0.00     0.063 A 
ATOM      8  C   UNL A   1      33.672  27.363  24.922  1.00  0.00     0.055 A 
ATOM      9  C   UNL A   1      33.467  24.931  23.547  1.00  0.00     0.129 A 
ATOM     10  C   UNL A   1      34.135  26.184  25.504  1.00  0.00     0.033 A 
ATOM     11  Cl  UNL A   1      33.925  28.827  25.808  1.00  0.00    -0.083 Cl
ATOM     12  C   UNL A   1      33.989  24.966  24.834  1.00  0.00     0.019 A 
ATOM     13  O   UNL A   1      33.358  23.789  22.806  1.00  0.00    -0.475 OA
ATOM     14  C   UNL A   1      34.356  23.732  25.490  1.00  0.00     0.027 C 
ATOM     15  C   UNL A   1      33.604  22.504  23.449  1.00  0.00     0.316 C 
BRANCH   6  16
ATOM     16  S   UNL A   1      32.181  28.703  22.928  1.00  0.00    -0.124 SA
BRANCH  16  17
ATOM     17  C   UNL A   1      30.605  27.903  22.418  1.00  0.00     0.078 C 
BRANCH  17  18
ATOM     18  C   UNL A   1      29.508  27.866  23.501  1.00  0.00    -0.007 C 
ATOM     19  C   UNL A   1      28.171  28.448  23.033  1.00  0.00     0.008 C 
ATOM     20  C   UNL A   1      29.275  26.413  23.933  1.00  0.00     0.008 C 
ENDBRANCH  17  18
ENDBRANCH  16  17
ENDBRANCH   6  16
BRANCH  15  21
ATOM     21  C   UNL A   1      32.285  21.713  23.482  1.00  0.00     0.430 C 
ATOM     22  F   UNL A   1      32.488  20.398  23.235  1.00  0.00    -0.167 F 
ATOM     23  F   UNL A   1      31.685  21.793  24.695  1.00  0.00    -0.167 F 
ATOM     24  F   UNL A   1      31.399  22.167  22.565  1.00  0.00    -0.167 F 
ENDBRANCH  15  21
ENDBRANCH   3   5
ENDBRANCH   2   3
ENDBRANCH   1   2
BRANCH   1  25
ATOM     25  C   UNL A   1      37.528  21.272  24.707  1.00  0.00     0.275 C 
BRANCH  25  26
ATOM     26  O   UNL A   1      37.912  22.011  25.882  1.00  0.00    -0.458 OA
BRANCH  26  27
ATOM     27  C   UNL A   1      39.195  21.855  26.275  1.00  0.00     0.338 C 
ATOM     28  O   UNL A   1      39.932  20.909  26.066  1.00  0.00    -0.246 OA
BRANCH  27  29
ATOM     29  C   UNL A   1      39.654  23.092  26.926  1.00  0.00     0.060 A 
ATOM     30  C   UNL A   1      40.718  23.105  27.817  1.00  0.00     0.016 A 
ATOM     31  C   UNL A   1      39.081  24.287  26.511  1.00  0.00     0.016 A 
ATOM     32  C   UNL A   1      41.186  24.336  28.299  1.00  0.00     0.010 A 
ATOM     33  C   UNL A   1      39.635  25.508  26.875  1.00  0.00     0.010 A 
ATOM     34  C   UNL A   1      40.674  25.556  27.809  1.00  0.00    -0.014 A 
BRANCH  34  35
ATOM     35  C   UNL A   1      41.208  26.873  28.268  1.00  0.00     0.031 A 
ATOM     36  C   UNL A   1      42.657  27.248  28.049  1.00  0.00     0.074 A 
ATOM     37  C   UNL A   1      40.399  27.726  28.932  1.00  0.00     0.049 A 
ATOM     38  N   UNL A   1      43.286  28.351  28.376  1.00  0.00    -0.248 NA
ATOM     39  C   UNL A   1      43.527  26.240  27.423  1.00  0.00     0.031 C 
ATOM     40  C   UNL A   1      39.013  27.456  29.317  1.00  0.00     0.029 A 
ATOM     41  N   UNL A   1      40.626  29.001  29.389  1.00  0.00    -0.354 N 
ATOM     42  C   UNL A   1      44.616  28.153  28.022  1.00  0.00     0.074 A 
ATOM     43  C   UNL A   1      44.722  26.800  27.529  1.00  0.00     0.031 C 
ATOM     44  C   UNL A   1      38.488  28.556  29.879  1.00  0.00     0.029 A 
ATOM     45  C   UNL A   1      39.511  29.596  29.930  1.00  0.00     0.049 A 
ATOM     46  H   UNL A   1      41.501  29.446  29.334  1.00  0.00     0.167 HD
ATOM     47  C   UNL A   1      45.651  29.028  28.056  1.00  0.00     0.037 A 
ATOM     48  C   UNL A   1      39.326  30.845  30.397  1.00  0.00     0.037 A 
ATOM     49  C   UNL A   1      45.539  30.396  28.486  1.00  0.00     0.049 A 
ATOM     50  C   UNL A   1      40.471  31.819  30.370  1.00  0.00     0.074 A 
ATOM     51  C   UNL A   1      46.504  31.389  28.475  1.00  0.00     0.029 A 
ATOM     52  N   UNL A   1      44.383  30.968  28.995  1.00  0.00    -0.354 N 
ATOM     53  N   UNL A   1      41.696  31.642  29.941  1.00  0.00    -0.248 NA
ATOM     54  C   UNL A   1      40.202  33.169  30.885  1.00  0.00     0.031 C 
ATOM     55  C   UNL A   1      45.939  32.554  29.003  1.00  0.00     0.029 A 
ATOM     56  C   UNL A   1      44.613  32.297  29.310  1.00  0.00     0.049 A 
ATOM     57  H   UNL A   1      43.526  30.497  29.115  1.00  0.00     0.167 HD
ATOM     58  C   UNL A   1      42.339  32.860  30.117  1.00  0.00     0.074 A 
ATOM     59  C   UNL A   1      41.360  33.775  30.667  1.00  0.00     0.031 C 
ATOM     60  C   UNL A   1      43.626  33.193  29.851  1.00  0.00     0.037 A 
BRANCH  47  61
ATOM     61  C   UNL A   1      46.990  28.535  27.580  1.00  0.00     0.057 A 
ATOM     62  C   UNL A   1      47.336  28.586  26.223  1.00  0.00     0.134 A 
ATOM     63  C   UNL A   1      47.932  27.990  28.464  1.00  0.00     0.134 A 
ATOM     64  F   UNL A   1      46.481  29.084  25.318  1.00  0.00    -0.206 F 
ATOM     65  C   UNL A   1      48.574  28.124  25.768  1.00  0.00     0.040 A 
ATOM     66  C   UNL A   1      49.182  27.553  28.025  1.00  0.00     0.040 A 
ATOM     67  F   UNL A   1      47.667  27.919  29.779  1.00  0.00    -0.206 F 
ATOM     68  C   UNL A   1      49.505  27.615  26.672  1.00  0.00     0.006 A 
ENDBRANCH  47  61
BRANCH  48  69
ATOM     69  C   UNL A   1      37.988  31.272  30.879  1.00  0.00     0.057 A 
ATOM     70  C   UNL A   1      37.026  31.798  30.011  1.00  0.00     0.134 A 
ATOM     71  C   UNL A   1      37.637  31.143  32.229  1.00  0.00     0.134 A 
ATOM     72  F   UNL A   1      37.302  31.954  28.708  1.00  0.00    -0.206 F 
ATOM     73  C   UNL A   1      35.764  32.183  30.467  1.00  0.00     0.040 A 
ATOM     74  C   UNL A   1      36.371  31.500  32.694  1.00  0.00     0.040 A 
ATOM     75  F   UNL A   1      38.511  30.629  33.106  1.00  0.00    -0.206 F 
ATOM     76  C   UNL A   1      35.430  32.026  31.811  1.00  0.00     0.006 A 
ENDBRANCH  48  69
BRANCH  60  77
ATOM     77  C   UNL A   1      44.035  34.608  30.128  1.00  0.00     0.057 A 
ATOM     78  C   UNL A   1      44.548  34.970  31.380  1.00  0.00     0.134 A 
ATOM     79  C   UNL A   1      43.900  35.615  29.165  1.00  0.00     0.134 A 
ATOM     80  F   UNL A   1      44.695  34.052  32.348  1.00  0.00    -0.206 F 
ATOM     81  C   UNL A   1      44.914  36.286  31.664  1.00  0.00     0.040 A 
ATOM     82  C   UNL A   1      44.285  36.930  29.430  1.00  0.00     0.040 A 
ATOM     83  F   UNL A   1      43.429  35.328  27.943  1.00  0.00    -0.206 F 
ATOM     84  C   UNL A   1      44.788  37.269  30.684  1.00  0.00     0.006 A 
ENDBRANCH  60  77
ENDBRANCH  34  35
ENDBRANCH  27  29
ENDBRANCH  26  27
ENDBRANCH  25  26
ENDBRANCH   1  25
TORSDOF 15
ENDMDL
