MODEL 1
REMARK VINA RESULT:     -11.7      0.000      0.000
REMARK SMILES COc1cc(/C=C2/CCc3c2nc2ccccc2c3C(=O)OCCOC(=O)c2ccc(-c3c4nc(c(-c5c(F)cccc5F)c5ccc([nH]5)c(-c5c(F)cccc5F)c5nc(c(-c6c(F)cccc6F)c6ccc3[nH]6)C=C5)C=C4)cc2)cc(Br)c1O
REMARK SMILES IDX 23 1 22 2 20 3 21 4 19 5 6 6 7 7 8 8 11 9 9 10 10 11 12 12
REMARK SMILES IDX 13 13 18 14 14 15 17 16 15 17 16 18 5 19 3 20 4 21 85 22
REMARK SMILES IDX 83 23 82 24 84 25 2 26 1 27 86 28 24 30 25 31 26 32 27 33
REMARK SMILES IDX 28 34 29 35 81 36 30 37 80 38 31 39 32 40 33 41 74 42 34 43
REMARK SMILES IDX 79 44 73 45 75 46 35 47 78 48 72 49 71 50 36 52 62 53 45 54
REMARK SMILES IDX 61 55 46 56 49 57 60 58 76 59 47 60 48 61 59 63 77 64 50 65
REMARK SMILES IDX 37 66 38 67 43 68 39 69 40 70 42 71 44 72 41 73 63 74 64 75
REMARK SMILES IDX 69 76 65 77 66 78 68 79 70 80 67 81 51 82 52 83 57 84 53 85
REMARK SMILES IDX 54 86 56 87 58 88 55 89
REMARK H PARENT 86 29 75 51 49 62
REMARK Flexibility Score: inf
ROOT
ATOM      1  C   UNL A   1      32.225  29.286  23.693  1.00  0.00     0.275 C 
ENDROOT
BRANCH   1   2
ATOM      2  O   UNL A   1      32.142  27.901  23.316  1.00  0.00    -0.458 OA
BRANCH   2   3
ATOM      3  C   UNL A   1      31.018  27.451  22.695  1.00  0.00     0.339 C 
ATOM      4  O   UNL A   1      30.264  28.084  22.000  1.00  0.00    -0.246 OA
BRANCH   3   5
ATOM      5  C   UNL A   1      30.945  25.992  22.979  1.00  0.00     0.074 A 
ATOM      6  C   UNL A   1      32.289  24.446  26.687  1.00  0.00     0.014 C 
ATOM      7  C   UNL A   1      31.149  24.798  26.059  1.00  0.00    -0.021 C 
ATOM      8  C   UNL A   1      30.317  26.011  26.432  1.00  0.00     0.042 C 
ATOM      9  C   UNL A   1      30.750  24.409  24.678  1.00  0.00     0.071 A 
ATOM     10  C   UNL A   1      29.512  26.329  25.170  1.00  0.00     0.043 C 
ATOM     11  C   UNL A   1      30.294  25.584  24.137  1.00  0.00    -0.006 A 
ATOM     12  N   UNL A   1      31.360  23.440  23.990  1.00  0.00    -0.248 NA
ATOM     13  C   UNL A   1      31.829  23.755  22.782  1.00  0.00     0.072 A 
ATOM     14  C   UNL A   1      31.751  25.064  22.253  1.00  0.00     0.015 A 
ATOM     15  C   UNL A   1      32.534  22.772  22.108  1.00  0.00     0.029 A 
ATOM     16  C   UNL A   1      32.532  25.348  21.102  1.00  0.00     0.011 A 
ATOM     17  C   UNL A   1      33.283  23.063  20.971  1.00  0.00     0.002 A 
ATOM     18  C   UNL A   1      33.310  24.362  20.488  1.00  0.00     0.001 A 
BRANCH   6  19
ATOM     19  C   UNL A   1      33.149  23.344  26.238  1.00  0.00    -0.020 A 
ATOM     20  C   UNL A   1      33.721  20.974  26.085  1.00  0.00     0.162 A 
ATOM     21  C   UNL A   1      32.774  21.992  26.304  1.00  0.00     0.058 A 
ATOM     22  C   UNL A   1      35.036  21.334  25.756  1.00  0.00     0.172 A 
ATOM     23  C   UNL A   1      35.395  22.683  25.661  1.00  0.00     0.064 A 
ATOM     24  C   UNL A   1      34.455  23.682  25.886  1.00  0.00     0.028 A 
ATOM     25  Br  UNL A   1      37.163  23.223  25.231  1.00  0.00    -0.047 Br
BRANCH  20  26
ATOM     26  O   UNL A   1      33.226  19.702  26.225  1.00  0.00    -0.493 OA
ATOM     27  C   UNL A   1      32.886  18.975  25.048  1.00  0.00     0.278 C 
ENDBRANCH  20  26
BRANCH  22  28
ATOM     28  O   UNL A   1      36.000  20.398  25.494  1.00  0.00    -0.503 OA
ATOM     29  H   UNL A   1      36.855  20.489  25.866  1.00  0.00     0.293 HD
ENDBRANCH  22  28
ENDBRANCH   6  19
ENDBRANCH   3   5
ENDBRANCH   2   3
ENDBRANCH   1   2
BRANCH   1  30
ATOM     30  C   UNL A   1      31.461  29.457  25.003  1.00  0.00     0.275 C 
BRANCH  30  31
ATOM     31  O   UNL A   1      32.442  29.567  26.048  1.00  0.00    -0.458 OA
BRANCH  31  32
ATOM     32  C   UNL A   1      32.563  30.772  26.648  1.00  0.00     0.338 C 
ATOM     33  O   UNL A   1      31.816  31.729  26.580  1.00  0.00    -0.246 OA
BRANCH  32  34
ATOM     34  C   UNL A   1      33.778  30.714  27.473  1.00  0.00     0.060 A 
ATOM     35  C   UNL A   1      34.313  31.869  28.039  1.00  0.00     0.016 A 
ATOM     36  C   UNL A   1      34.383  29.476  27.686  1.00  0.00     0.016 A 
ATOM     37  C   UNL A   1      35.508  31.784  28.766  1.00  0.00     0.010 A 
ATOM     38  C   UNL A   1      35.522  29.388  28.485  1.00  0.00     0.010 A 
ATOM     39  C   UNL A   1      36.130  30.543  29.002  1.00  0.00    -0.014 A 
BRANCH  39  40
ATOM     40  C   UNL A   1      37.430  30.435  29.738  1.00  0.00     0.031 A 
ATOM     41  C   UNL A   1      38.642  29.825  29.067  1.00  0.00     0.074 A 
ATOM     42  C   UNL A   1      37.530  30.813  31.028  1.00  0.00     0.049 A 
ATOM     43  N   UNL A   1      39.801  29.490  29.582  1.00  0.00    -0.248 NA
ATOM     44  C   UNL A   1      38.505  29.481  27.645  1.00  0.00     0.031 C 
ATOM     45  C   UNL A   1      36.439  31.336  31.850  1.00  0.00     0.029 A 
ATOM     46  N   UNL A   1      38.611  30.814  31.877  1.00  0.00    -0.354 N 
ATOM     47  C   UNL A   1      40.482  28.811  28.576  1.00  0.00     0.074 A 
ATOM     48  C   UNL A   1      39.586  28.743  27.442  1.00  0.00     0.031 C 
ATOM     49  C   UNL A   1      36.919  31.668  33.060  1.00  0.00     0.029 A 
ATOM     50  C   UNL A   1      38.341  31.342  33.116  1.00  0.00     0.049 A 
ATOM     51  H   UNL A   1      39.497  30.469  31.621  1.00  0.00     0.167 HD
ATOM     52  C   UNL A   1      41.745  28.316  28.577  1.00  0.00     0.037 A 
ATOM     53  C   UNL A   1      39.147  31.553  34.174  1.00  0.00     0.037 A 
ATOM     54  C   UNL A   1      42.688  28.513  29.647  1.00  0.00     0.049 A 
ATOM     55  C   UNL A   1      40.598  31.164  34.094  1.00  0.00     0.074 A 
ATOM     56  C   UNL A   1      44.026  28.160  29.699  1.00  0.00     0.029 A 
ATOM     57  N   UNL A   1      42.400  29.161  30.838  1.00  0.00    -0.354 N 
ATOM     58  N   UNL A   1      41.236  30.552  33.125  1.00  0.00    -0.248 NA
ATOM     59  C   UNL A   1      41.442  31.501  35.250  1.00  0.00     0.031 C 
ATOM     60  C   UNL A   1      44.548  28.599  30.920  1.00  0.00     0.029 A 
ATOM     61  C   UNL A   1      43.541  29.242  31.620  1.00  0.00     0.049 A 
ATOM     62  H   UNL A   1      41.516  29.511  31.091  1.00  0.00     0.167 HD
ATOM     63  C   UNL A   1      42.557  30.455  33.543  1.00  0.00     0.074 A 
ATOM     64  C   UNL A   1      42.633  31.079  34.846  1.00  0.00     0.031 C 
ATOM     65  C   UNL A   1      43.610  29.893  32.902  1.00  0.00     0.037 A 
BRANCH  52  66
ATOM     66  C   UNL A   1      42.181  27.533  27.367  1.00  0.00     0.057 A 
ATOM     67  C   UNL A   1      42.089  26.135  27.351  1.00  0.00     0.134 A 
ATOM     68  C   UNL A   1      42.675  28.155  26.213  1.00  0.00     0.134 A 
ATOM     69  F   UNL A   1      41.650  25.466  28.428  1.00  0.00    -0.206 F 
ATOM     70  C   UNL A   1      42.438  25.391  26.221  1.00  0.00     0.040 A 
ATOM     71  C   UNL A   1      42.989  27.427  25.065  1.00  0.00     0.040 A 
ATOM     72  F   UNL A   1      42.792  29.491  26.159  1.00  0.00    -0.206 F 
ATOM     73  C   UNL A   1      42.871  26.040  25.066  1.00  0.00     0.006 A 
ENDBRANCH  52  66
BRANCH  53  74
ATOM     74  C   UNL A   1      38.615  32.235  35.379  1.00  0.00     0.057 A 
ATOM     75  C   UNL A   1      38.119  31.521  36.476  1.00  0.00     0.134 A 
ATOM     76  C   UNL A   1      38.581  33.633  35.448  1.00  0.00     0.134 A 
ATOM     77  F   UNL A   1      38.115  30.181  36.465  1.00  0.00    -0.206 F 
ATOM     78  C   UNL A   1      37.603  32.174  37.596  1.00  0.00     0.040 A 
ATOM     79  C   UNL A   1      38.087  34.300  36.570  1.00  0.00     0.040 A 
ATOM     80  F   UNL A   1      39.057  34.370  34.432  1.00  0.00    -0.206 F 
ATOM     81  C   UNL A   1      37.591  33.568  37.647  1.00  0.00     0.006 A 
ENDBRANCH  53  74
BRANCH  65  82
ATOM     82  C   UNL A   1      44.949  29.970  33.573  1.00  0.00     0.057 A 
ATOM     83  C   UNL A   1      45.811  31.043  33.315  1.00  0.00     0.134 A 
ATOM     84  C   UNL A   1      45.407  28.959  34.426  1.00  0.00     0.134 A 
ATOM     85  F   UNL A   1      45.433  32.040  32.502  1.00  0.00    -0.206 F 
ATOM     86  C   UNL A   1      47.087  31.103  33.877  1.00  0.00     0.040 A 
ATOM     87  C   UNL A   1      46.674  29.019  35.009  1.00  0.00     0.040 A 
ATOM     88  F   UNL A   1      44.623  27.912  34.722  1.00  0.00    -0.206 F 
ATOM     89  C   UNL A   1      47.521  30.090  34.728  1.00  0.00     0.006 A 
ENDBRANCH  65  82
ENDBRANCH  39  40
ENDBRANCH  32  34
ENDBRANCH  31  32
ENDBRANCH  30  31
ENDBRANCH   1  30
TORSDOF 14
ENDMDL
MODEL 2
REMARK VINA RESULT:     -11.6      3.228      6.362
REMARK SMILES COc1cc(/C=C2/CCc3c2nc2ccccc2c3C(=O)OCCOC(=O)c2ccc(-c3c4nc(c(-c5c(F)cccc5F)c5ccc([nH]5)c(-c5c(F)cccc5F)c5nc(c(-c6c(F)cccc6F)c6ccc3[nH]6)C=C5)C=C4)cc2)cc(Br)c1O
REMARK SMILES IDX 23 1 22 2 20 3 21 4 19 5 6 6 7 7 8 8 11 9 9 10 10 11 12 12
REMARK SMILES IDX 13 13 18 14 14 15 17 16 15 17 16 18 5 19 3 20 4 21 85 22
REMARK SMILES IDX 83 23 82 24 84 25 2 26 1 27 86 28 24 30 25 31 26 32 27 33
REMARK SMILES IDX 28 34 29 35 81 36 30 37 80 38 31 39 32 40 33 41 74 42 34 43
REMARK SMILES IDX 79 44 73 45 75 46 35 47 78 48 72 49 71 50 36 52 62 53 45 54
REMARK SMILES IDX 61 55 46 56 49 57 60 58 76 59 47 60 48 61 59 63 77 64 50 65
REMARK SMILES IDX 37 66 38 67 43 68 39 69 40 70 42 71 44 72 41 73 63 74 64 75
REMARK SMILES IDX 69 76 65 77 66 78 68 79 70 80 67 81 51 82 52 83 57 84 53 85
REMARK SMILES IDX 54 86 56 87 58 88 55 89
REMARK H PARENT 86 29 75 51 49 62
REMARK Flexibility Score: inf
ROOT
ATOM      1  C   UNL A   1      35.002  20.270  24.963  1.00  0.00     0.275 C 
ENDROOT
BRANCH   1   2
ATOM      2  O   UNL A   1      34.686  21.191  23.906  1.00  0.00    -0.458 OA
BRANCH   2   3
ATOM      3  C   UNL A   1      33.477  21.816  23.911  1.00  0.00     0.339 C 
ATOM      4  O   UNL A   1      32.392  21.310  23.770  1.00  0.00    -0.246 OA
BRANCH   3   5
ATOM      5  C   UNL A   1      33.753  23.248  24.206  1.00  0.00     0.074 A 
ATOM      6  C   UNL A   1      31.388  25.371  27.008  1.00  0.00     0.014 C 
ATOM      7  C   UNL A   1      32.574  24.735  26.917  1.00  0.00    -0.021 C 
ATOM      8  C   UNL A   1      32.882  23.416  27.602  1.00  0.00     0.042 C 
ATOM      9  C   UNL A   1      33.583  24.906  25.835  1.00  0.00     0.071 A 
ATOM     10  C   UNL A   1      34.041  22.824  26.795  1.00  0.00     0.043 C 
ATOM     11  C   UNL A   1      33.944  23.617  25.532  1.00  0.00    -0.006 A 
ATOM     12  N   UNL A   1      33.546  25.912  24.958  1.00  0.00    -0.248 NA
ATOM     13  C   UNL A   1      33.559  25.592  23.663  1.00  0.00     0.072 A 
ATOM     14  C   UNL A   1      33.550  24.252  23.211  1.00  0.00     0.015 A 
ATOM     15  C   UNL A   1      33.436  26.634  22.759  1.00  0.00     0.029 A 
ATOM     16  C   UNL A   1      33.271  24.031  21.838  1.00  0.00     0.011 A 
ATOM     17  C   UNL A   1      33.177  26.399  21.412  1.00  0.00     0.002 A 
ATOM     18  C   UNL A   1      33.059  25.096  20.957  1.00  0.00     0.001 A 
BRANCH   6  19
ATOM     19  C   UNL A   1      31.063  26.580  26.242  1.00  0.00    -0.020 A 
ATOM     20  C   UNL A   1      30.291  27.717  24.222  1.00  0.00     0.162 A 
ATOM     21  C   UNL A   1      30.364  26.562  25.024  1.00  0.00     0.058 A 
ATOM     22  C   UNL A   1      30.893  28.897  24.680  1.00  0.00     0.172 A 
ATOM     23  C   UNL A   1      31.562  28.916  25.909  1.00  0.00     0.064 A 
ATOM     24  C   UNL A   1      31.635  27.769  26.692  1.00  0.00     0.028 A 
ATOM     25  Br  UNL A   1      32.403  30.484  26.569  1.00  0.00    -0.047 Br
BRANCH  20  26
ATOM     26  O   UNL A   1      29.615  27.542  23.041  1.00  0.00    -0.493 OA
ATOM     27  C   UNL A   1      28.578  28.461  22.713  1.00  0.00     0.278 C 
ENDBRANCH  20  26
BRANCH  22  28
ATOM     28  O   UNL A   1      30.832  30.066  23.971  1.00  0.00    -0.503 OA
ATOM     29  H   UNL A   1      31.617  30.538  23.776  1.00  0.00     0.293 HD
ENDBRANCH  22  28
ENDBRANCH   6  19
ENDBRANCH   3   5
ENDBRANCH   2   3
ENDBRANCH   1   2
BRANCH   1  30
ATOM     30  C   UNL A   1      36.485  19.928  24.852  1.00  0.00     0.275 C 
BRANCH  30  31
ATOM     31  O   UNL A   1      37.210  21.008  25.464  1.00  0.00    -0.458 OA
BRANCH  31  32
ATOM     32  C   UNL A   1      38.516  20.791  25.734  1.00  0.00     0.338 C 
ATOM     33  O   UNL A   1      39.155  19.764  25.603  1.00  0.00    -0.246 OA
BRANCH  32  34
ATOM     34  C   UNL A   1      39.073  22.073  26.189  1.00  0.00     0.060 A 
ATOM     35  C   UNL A   1      38.422  23.273  25.913  1.00  0.00     0.016 A 
ATOM     36  C   UNL A   1      40.266  22.065  26.911  1.00  0.00     0.016 A 
ATOM     37  C   UNL A   1      39.015  24.480  26.306  1.00  0.00     0.010 A 
ATOM     38  C   UNL A   1      40.804  23.264  27.377  1.00  0.00     0.010 A 
ATOM     39  C   UNL A   1      40.214  24.495  27.046  1.00  0.00    -0.014 A 
BRANCH  39  40
ATOM     40  C   UNL A   1      40.888  25.773  27.437  1.00  0.00     0.031 A 
ATOM     41  C   UNL A   1      42.277  26.095  26.930  1.00  0.00     0.074 A 
ATOM     42  C   UNL A   1      40.304  26.629  28.300  1.00  0.00     0.049 A 
ATOM     43  N   UNL A   1      43.092  27.059  27.283  1.00  0.00    -0.248 NA
ATOM     44  C   UNL A   1      42.851  25.164  25.948  1.00  0.00     0.031 C 
ATOM     45  C   UNL A   1      39.009  26.431  28.952  1.00  0.00     0.029 A 
ATOM     46  N   UNL A   1      40.729  27.846  28.777  1.00  0.00    -0.354 N 
ATOM     47  C   UNL A   1      44.299  26.790  26.644  1.00  0.00     0.074 A 
ATOM     48  C   UNL A   1      44.119  25.548  25.923  1.00  0.00     0.031 C 
ATOM     49  C   UNL A   1      38.717  27.515  29.690  1.00  0.00     0.029 A 
ATOM     50  C   UNL A   1      39.821  28.466  29.600  1.00  0.00     0.049 A 
ATOM     51  H   UNL A   1      41.605  28.237  28.550  1.00  0.00     0.167 HD
ATOM     52  C   UNL A   1      45.444  27.518  26.627  1.00  0.00     0.037 A 
ATOM     53  C   UNL A   1      39.864  29.669  30.203  1.00  0.00     0.037 A 
ATOM     54  C   UNL A   1      45.577  28.824  27.219  1.00  0.00     0.049 A 
ATOM     55  C   UNL A   1      41.070  30.550  30.025  1.00  0.00     0.074 A 
ATOM     56  C   UNL A   1      46.650  29.697  27.157  1.00  0.00     0.029 A 
ATOM     57  N   UNL A   1      44.584  29.463  27.944  1.00  0.00    -0.354 N 
ATOM     58  N   UNL A   1      42.190  30.296  29.392  1.00  0.00    -0.248 NA
ATOM     59  C   UNL A   1      41.016  31.885  30.638  1.00  0.00     0.031 C 
ATOM     60  C   UNL A   1      46.303  30.868  27.841  1.00  0.00     0.029 A 
ATOM     61  C   UNL A   1      45.008  30.730  28.312  1.00  0.00     0.049 A 
ATOM     62  H   UNL A   1      43.707  29.074  28.165  1.00  0.00     0.167 HD
ATOM     63  C   UNL A   1      42.961  31.446  29.509  1.00  0.00     0.074 A 
ATOM     64  C   UNL A   1      42.178  32.402  30.262  1.00  0.00     0.031 C 
ATOM     65  C   UNL A   1      44.208  31.683  29.036  1.00  0.00     0.037 A 
BRANCH  52  66
ATOM     66  C   UNL A   1      46.633  26.921  25.923  1.00  0.00     0.057 A 
ATOM     67  C   UNL A   1      46.922  27.264  24.595  1.00  0.00     0.134 A 
ATOM     68  C   UNL A   1      47.503  26.023  26.556  1.00  0.00     0.134 A 
ATOM     69  F   UNL A   1      46.121  28.097  23.914  1.00  0.00    -0.206 F 
ATOM     70  C   UNL A   1      48.049  26.763  23.938  1.00  0.00     0.040 A 
ATOM     71  C   UNL A   1      48.653  25.548  25.925  1.00  0.00     0.040 A 
ATOM     72  F   UNL A   1      47.286  25.650  27.827  1.00  0.00    -0.206 F 
ATOM     73  C   UNL A   1      48.929  25.918  24.611  1.00  0.00     0.006 A 
ENDBRANCH  52  66
BRANCH  53  74
ATOM     74  C   UNL A   1      38.690  30.146  30.974  1.00  0.00     0.057 A 
ATOM     75  C   UNL A   1      38.514  29.831  32.326  1.00  0.00     0.134 A 
ATOM     76  C   UNL A   1      37.702  30.925  30.358  1.00  0.00     0.134 A 
ATOM     77  F   UNL A   1      39.419  29.080  32.969  1.00  0.00    -0.206 F 
ATOM     78  C   UNL A   1      37.396  30.269  33.037  1.00  0.00     0.040 A 
ATOM     79  C   UNL A   1      36.590  31.388  31.061  1.00  0.00     0.040 A 
ATOM     80  F   UNL A   1      37.825  31.272  29.068  1.00  0.00    -0.206 F 
ATOM     81  C   UNL A   1      36.431  31.055  32.405  1.00  0.00     0.006 A 
ENDBRANCH  53  74
BRANCH  65  82
ATOM     82  C   UNL A   1      44.789  33.045  29.271  1.00  0.00     0.057 A 
ATOM     83  C   UNL A   1      44.609  34.066  28.330  1.00  0.00     0.134 A 
ATOM     84  C   UNL A   1      45.572  33.330  30.396  1.00  0.00     0.134 A 
ATOM     85  F   UNL A   1      43.873  33.854  27.228  1.00  0.00    -0.206 F 
ATOM     86  C   UNL A   1      45.194  35.322  28.495  1.00  0.00     0.040 A 
ATOM     87  C   UNL A   1      46.147  34.588  30.581  1.00  0.00     0.040 A 
ATOM     88  F   UNL A   1      45.771  32.397  31.340  1.00  0.00    -0.206 F 
ATOM     89  C   UNL A   1      45.965  35.586  29.625  1.00  0.00     0.006 A 
ENDBRANCH  65  82
ENDBRANCH  39  40
ENDBRANCH  32  34
ENDBRANCH  31  32
ENDBRANCH  30  31
ENDBRANCH   1  30
TORSDOF 14
ENDMDL
MODEL 3
REMARK VINA RESULT:     -11.6      0.738      6.023
REMARK SMILES COc1cc(/C=C2/CCc3c2nc2ccccc2c3C(=O)OCCOC(=O)c2ccc(-c3c4nc(c(-c5c(F)cccc5F)c5ccc([nH]5)c(-c5c(F)cccc5F)c5nc(c(-c6c(F)cccc6F)c6ccc3[nH]6)C=C5)C=C4)cc2)cc(Br)c1O
REMARK SMILES IDX 23 1 22 2 20 3 21 4 19 5 6 6 7 7 8 8 11 9 9 10 10 11 12 12
REMARK SMILES IDX 13 13 18 14 14 15 17 16 15 17 16 18 5 19 3 20 4 21 85 22
REMARK SMILES IDX 83 23 82 24 84 25 2 26 1 27 86 28 24 30 25 31 26 32 27 33
REMARK SMILES IDX 28 34 29 35 81 36 30 37 80 38 31 39 32 40 33 41 74 42 34 43
REMARK SMILES IDX 79 44 73 45 75 46 35 47 78 48 72 49 71 50 36 52 62 53 45 54
REMARK SMILES IDX 61 55 46 56 49 57 60 58 76 59 47 60 48 61 59 63 77 64 50 65
REMARK SMILES IDX 37 66 38 67 43 68 39 69 40 70 42 71 44 72 41 73 63 74 64 75
REMARK SMILES IDX 69 76 65 77 66 78 68 79 70 80 67 81 51 82 52 83 57 84 53 85
REMARK SMILES IDX 54 86 56 87 58 88 55 89
REMARK H PARENT 86 29 75 51 49 62
REMARK Flexibility Score: inf
ROOT
ATOM      1  C   UNL A   1      31.380  29.252  24.283  1.00  0.00     0.275 C 
ENDROOT
BRANCH   1   2
ATOM      2  O   UNL A   1      31.651  27.933  23.778  1.00  0.00    -0.458 OA
BRANCH   2   3
ATOM      3  C   UNL A   1      30.833  27.407  22.827  1.00  0.00     0.339 C 
ATOM      4  O   UNL A   1      30.277  27.997  21.934  1.00  0.00    -0.246 OA
BRANCH   3   5
ATOM      5  C   UNL A   1      30.818  25.937  23.061  1.00  0.00     0.074 A 
ATOM      6  C   UNL A   1      32.171  24.323  26.736  1.00  0.00     0.014 C 
ATOM      7  C   UNL A   1      31.026  24.648  26.101  1.00  0.00    -0.021 C 
ATOM      8  C   UNL A   1      30.137  25.810  26.501  1.00  0.00     0.042 C 
ATOM      9  C   UNL A   1      30.666  24.289  24.701  1.00  0.00     0.071 A 
ATOM     10  C   UNL A   1      29.338  26.137  25.237  1.00  0.00     0.043 C 
ATOM     11  C   UNL A   1      30.167  25.463  24.193  1.00  0.00    -0.006 A 
ATOM     12  N   UNL A   1      31.328  23.372  23.991  1.00  0.00    -0.248 NA
ATOM     13  C   UNL A   1      31.801  23.749  22.802  1.00  0.00     0.072 A 
ATOM     14  C   UNL A   1      31.675  25.071  22.316  1.00  0.00     0.015 A 
ATOM     15  C   UNL A   1      32.558  22.820  22.107  1.00  0.00     0.029 A 
ATOM     16  C   UNL A   1      32.459  25.427  21.189  1.00  0.00     0.011 A 
ATOM     17  C   UNL A   1      33.310  23.183  20.994  1.00  0.00     0.002 A 
ATOM     18  C   UNL A   1      33.289  24.497  20.555  1.00  0.00     0.001 A 
BRANCH   6  19
ATOM     19  C   UNL A   1      33.084  23.275  26.264  1.00  0.00    -0.020 A 
ATOM     20  C   UNL A   1      33.755  20.937  26.030  1.00  0.00     0.162 A 
ATOM     21  C   UNL A   1      32.763  21.907  26.267  1.00  0.00     0.058 A 
ATOM     22  C   UNL A   1      35.061  21.361  25.748  1.00  0.00     0.172 A 
ATOM     23  C   UNL A   1      35.367  22.726  25.716  1.00  0.00     0.064 A 
ATOM     24  C   UNL A   1      34.383  23.678  25.958  1.00  0.00     0.028 A 
ATOM     25  Br  UNL A   1      37.121  23.352  25.350  1.00  0.00    -0.047 Br
BRANCH  20  26
ATOM     26  O   UNL A   1      33.308  19.642  26.108  1.00  0.00    -0.493 OA
ATOM     27  C   UNL A   1      32.909  18.991  24.905  1.00  0.00     0.278 C 
ENDBRANCH  20  26
BRANCH  22  28
ATOM     28  O   UNL A   1      36.068  20.476  25.472  1.00  0.00    -0.503 OA
ATOM     29  H   UNL A   1      36.939  20.650  25.768  1.00  0.00     0.293 HD
ENDBRANCH  22  28
ENDBRANCH   6  19
ENDBRANCH   3   5
ENDBRANCH   2   3
ENDBRANCH   1   2
BRANCH   1  30
ATOM     30  C   UNL A   1      31.843  29.296  25.736  1.00  0.00     0.275 C 
BRANCH  30  31
ATOM     31  O   UNL A   1      33.009  30.136  25.778  1.00  0.00    -0.458 OA
BRANCH  31  32
ATOM     32  C   UNL A   1      33.033  31.101  26.725  1.00  0.00     0.338 C 
ATOM     33  O   UNL A   1      32.206  31.963  26.947  1.00  0.00    -0.246 OA
BRANCH  32  34
ATOM     34  C   UNL A   1      34.261  30.894  27.507  1.00  0.00     0.060 A 
ATOM     35  C   UNL A   1      35.082  31.967  27.845  1.00  0.00     0.016 A 
ATOM     36  C   UNL A   1      34.584  29.600  27.914  1.00  0.00     0.016 A 
ATOM     37  C   UNL A   1      36.276  31.724  28.536  1.00  0.00     0.010 A 
ATOM     38  C   UNL A   1      35.729  29.378  28.679  1.00  0.00     0.010 A 
ATOM     39  C   UNL A   1      36.618  30.427  28.966  1.00  0.00    -0.014 A 
BRANCH  39  40
ATOM     40  C   UNL A   1      37.909  30.138  29.666  1.00  0.00     0.031 A 
ATOM     41  C   UNL A   1      38.109  30.556  31.107  1.00  0.00     0.074 A 
ATOM     42  C   UNL A   1      38.939  29.563  29.014  1.00  0.00     0.049 A 
ATOM     43  N   UNL A   1      39.201  30.549  31.834  1.00  0.00    -0.248 NA
ATOM     44  C   UNL A   1      36.943  31.125  31.796  1.00  0.00     0.031 C 
ATOM     45  C   UNL A   1      38.946  29.179  27.602  1.00  0.00     0.029 A 
ATOM     46  N   UNL A   1      40.188  29.200  29.459  1.00  0.00    -0.354 N 
ATOM     47  C   UNL A   1      38.872  31.201  33.019  1.00  0.00     0.074 A 
ATOM     48  C   UNL A   1      37.496  31.629  32.890  1.00  0.00     0.031 C 
ATOM     49  C   UNL A   1      40.112  28.577  27.315  1.00  0.00     0.029 A 
ATOM     50  C   UNL A   1      40.953  28.570  28.508  1.00  0.00     0.049 A 
ATOM     51  H   UNL A   1      40.504  29.375  30.375  1.00  0.00     0.167 HD
ATOM     52  C   UNL A   1      39.628  31.400  34.128  1.00  0.00     0.037 A 
ATOM     53  C   UNL A   1      42.186  28.035  28.589  1.00  0.00     0.037 A 
ATOM     54  C   UNL A   1      40.943  30.846  34.318  1.00  0.00     0.049 A 
ATOM     55  C   UNL A   1      42.944  28.102  29.886  1.00  0.00     0.074 A 
ATOM     56  C   UNL A   1      41.745  30.884  35.446  1.00  0.00     0.029 A 
ATOM     57  N   UNL A   1      41.631  30.111  33.365  1.00  0.00    -0.354 N 
ATOM     58  N   UNL A   1      42.608  28.692  31.008  1.00  0.00    -0.248 NA
ATOM     59  C   UNL A   1      44.247  27.423  29.932  1.00  0.00     0.031 C 
ATOM     60  C   UNL A   1      42.917  30.168  35.176  1.00  0.00     0.029 A 
ATOM     61  C   UNL A   1      42.835  29.667  33.888  1.00  0.00     0.049 A 
ATOM     62  H   UNL A   1      41.311  29.931  32.452  1.00  0.00     0.167 HD
ATOM     63  C   UNL A   1      43.644  28.435  31.897  1.00  0.00     0.074 A 
ATOM     64  C   UNL A   1      44.613  27.626  31.190  1.00  0.00     0.031 C 
ATOM     65  C   UNL A   1      43.778  28.837  33.184  1.00  0.00     0.037 A 
BRANCH  52  66
ATOM     66  C   UNL A   1      39.032  32.235  35.230  1.00  0.00     0.057 A 
ATOM     67  C   UNL A   1      38.286  31.636  36.255  1.00  0.00     0.134 A 
ATOM     68  C   UNL A   1      39.206  33.624  35.293  1.00  0.00     0.134 A 
ATOM     69  F   UNL A   1      38.055  30.314  36.250  1.00  0.00    -0.206 F 
ATOM     70  C   UNL A   1      37.768  32.383  37.316  1.00  0.00     0.040 A 
ATOM     71  C   UNL A   1      38.728  34.374  36.368  1.00  0.00     0.040 A 
ATOM     72  F   UNL A   1      39.908  34.263  34.345  1.00  0.00    -0.206 F 
ATOM     73  C   UNL A   1      38.006  33.754  37.384  1.00  0.00     0.006 A 
ENDBRANCH  52  66
BRANCH  53  74
ATOM     74  C   UNL A   1      42.754  27.318  27.421  1.00  0.00     0.057 A 
ATOM     75  C   UNL A   1      43.519  27.975  26.450  1.00  0.00     0.134 A 
ATOM     76  C   UNL A   1      42.524  25.948  27.246  1.00  0.00     0.134 A 
ATOM     77  F   UNL A   1      43.763  29.288  26.556  1.00  0.00    -0.206 F 
ATOM     78  C   UNL A   1      44.031  27.294  25.345  1.00  0.00     0.040 A 
ATOM     79  C   UNL A   1      43.048  25.250  26.158  1.00  0.00     0.040 A 
ATOM     80  F   UNL A   1      41.811  25.264  28.153  1.00  0.00    -0.206 F 
ATOM     81  C   UNL A   1      43.800  25.926  25.199  1.00  0.00     0.006 A 
ENDBRANCH  53  74
BRANCH  65  82
ATOM     82  C   UNL A   1      44.990  28.371  33.932  1.00  0.00     0.057 A 
ATOM     83  C   UNL A   1      46.178  29.111  33.888  1.00  0.00     0.134 A 
ATOM     84  C   UNL A   1      45.000  27.169  34.647  1.00  0.00     0.134 A 
ATOM     85  F   UNL A   1      46.235  30.270  33.216  1.00  0.00    -0.206 F 
ATOM     86  C   UNL A   1      47.338  28.665  34.523  1.00  0.00     0.040 A 
ATOM     87  C   UNL A   1      46.149  26.721  35.302  1.00  0.00     0.040 A 
ATOM     88  F   UNL A   1      43.889  26.421  34.737  1.00  0.00    -0.206 F 
ATOM     89  C   UNL A   1      47.325  27.467  35.235  1.00  0.00     0.006 A 
ENDBRANCH  65  82
ENDBRANCH  39  40
ENDBRANCH  32  34
ENDBRANCH  31  32
ENDBRANCH  30  31
ENDBRANCH   1  30
TORSDOF 14
ENDMDL
