MODEL 1
REMARK VINA RESULT:     -12.5      0.000      0.000
REMARK SMILES Cc1ccccc1OCc1nc2cc(C(=O)OCCOC(=O)c3ccc(-c4c5nc(c(-c6c(F)cccc6F)c6ccc([nH]6)c(-c6c(F)cccc6F)c6nc(c(-c7c(F)cccc7F)c7ccc4[nH]7)C=C6)C=C5)cc3)ccc2n1C[C@H](C)O
REMARK SMILES IDX 18 1 17 2 15 3 16 4 14 5 10 6 11 7 80 8 12 9 79 10 13 11
REMARK SMILES IDX 78 12 77 13 9 14 8 15 7 16 1 17 2 18 3 19 4 20 6 21 5 22
REMARK SMILES IDX 81 23 82 24 83 25 84 26 19 28 20 29 21 30 22 31 23 32 24 33
REMARK SMILES IDX 76 34 25 35 75 36 26 37 27 38 28 39 69 40 29 41 74 42 68 43
REMARK SMILES IDX 70 44 30 45 73 46 67 47 66 48 31 50 57 51 40 52 56 53 41 54
REMARK SMILES IDX 44 55 55 56 71 57 42 58 43 59 54 61 72 62 45 63 32 64 33 65
REMARK SMILES IDX 38 66 34 67 35 68 37 69 39 70 36 71 58 72 59 73 64 74 60 75
REMARK SMILES IDX 61 76 63 77 65 78 62 79 46 80 47 81 52 82 48 83 49 84 51 85
REMARK SMILES IDX 53 86 50 87
REMARK H PARENT 84 27 70 49 44 60
REMARK Flexibility Score: inf
ROOT
ATOM      1  C   UNL A   1      33.491  31.757  27.631  1.00  0.00     0.275 C 
ENDROOT
BRANCH   1   2
ATOM      2  O   UNL A   1      33.568  30.742  26.628  1.00  0.00    -0.458 OA
BRANCH   2   3
ATOM      3  C   UNL A   1      32.484  29.954  26.593  1.00  0.00     0.338 C 
ATOM      4  O   UNL A   1      31.342  30.298  26.254  1.00  0.00    -0.246 OA
BRANCH   3   5
ATOM      5  C   UNL A   1      32.828  28.558  26.987  1.00  0.00     0.062 A 
ATOM      6  C   UNL A   1      30.738  25.839  24.233  1.00  0.00     0.148 A 
ATOM      7  N   UNL A   1      30.400  26.204  25.465  1.00  0.00    -0.229 NA
ATOM      8  N   UNL A   1      31.597  26.788  23.738  1.00  0.00    -0.322 N 
ATOM      9  C   UNL A   1      31.429  27.036  25.845  1.00  0.00     0.090 A 
ATOM     10  C   UNL A   1      32.368  27.121  24.819  1.00  0.00     0.068 A 
ATOM     11  C   UNL A   1      31.660  27.780  27.003  1.00  0.00     0.046 A 
ATOM     12  C   UNL A   1      33.679  27.543  24.991  1.00  0.00     0.029 A 
ATOM     13  C   UNL A   1      33.921  28.122  26.226  1.00  0.00     0.018 A 
BRANCH   6  14
ATOM     14  C   UNL A   1      30.780  24.450  23.667  1.00  0.00     0.304 C 
BRANCH  14  15
ATOM     15  O   UNL A   1      32.187  24.187  23.460  1.00  0.00    -0.485 OA
BRANCH  15  16
ATOM     16  C   UNL A   1      32.620  22.939  23.809  1.00  0.00     0.122 A 
ATOM     17  C   UNL A   1      33.999  23.909  25.747  1.00  0.00     0.048 C 
ATOM     18  C   UNL A   1      33.488  22.779  24.905  1.00  0.00    -0.009 A 
ATOM     19  C   UNL A   1      33.852  21.485  25.301  1.00  0.00     0.007 A 
ATOM     20  C   UNL A   1      33.320  20.373  24.655  1.00  0.00     0.001 A 
ATOM     21  C   UNL A   1      32.079  21.824  23.171  1.00  0.00     0.047 A 
ATOM     22  C   UNL A   1      32.424  20.542  23.601  1.00  0.00     0.004 A 
ENDBRANCH  15  16
ENDBRANCH  14  15
ENDBRANCH   6  14
BRANCH   8  23
ATOM     23  C   UNL A   1      31.454  27.613  22.546  1.00  0.00     0.155 C 
BRANCH  23  24
ATOM     24  C   UNL A   1      31.001  29.057  22.794  1.00  0.00     0.131 C 
ATOM     25  C   UNL A   1      29.527  29.136  23.156  1.00  0.00     0.040 C 
BRANCH  24  26
ATOM     26  O   UNL A   1      31.226  29.835  21.618  1.00  0.00    -0.392 OA
ATOM     27  H   UNL A   1      32.091  29.609  21.242  1.00  0.00     0.211 HD
ENDBRANCH  24  26
ENDBRANCH  23  24
ENDBRANCH   8  23
ENDBRANCH   3   5
ENDBRANCH   2   3
ENDBRANCH   1   2
BRANCH   1  28
ATOM     28  C   UNL A   1      34.887  32.075  28.158  1.00  0.00     0.275 C 
BRANCH  28  29
ATOM     29  O   UNL A   1      35.815  30.958  28.329  1.00  0.00    -0.458 OA
BRANCH  29  30
ATOM     30  C   UNL A   1      36.557  30.525  29.371  1.00  0.00     0.338 C 
ATOM     31  O   UNL A   1      36.382  30.989  30.500  1.00  0.00    -0.246 OA
BRANCH  30  32
ATOM     32  C   UNL A   1      37.616  29.512  29.193  1.00  0.00     0.060 A 
ATOM     33  C   UNL A   1      37.859  28.558  30.205  1.00  0.00     0.016 A 
ATOM     34  C   UNL A   1      38.415  29.512  28.062  1.00  0.00     0.016 A 
ATOM     35  C   UNL A   1      38.841  27.581  30.041  1.00  0.00     0.010 A 
ATOM     36  C   UNL A   1      39.270  28.469  27.821  1.00  0.00     0.010 A 
ATOM     37  C   UNL A   1      39.535  27.548  28.832  1.00  0.00    -0.014 A 
BRANCH  37  38
ATOM     38  C   UNL A   1      40.782  26.833  28.625  1.00  0.00     0.031 A 
ATOM     39  C   UNL A   1      40.815  25.398  28.357  1.00  0.00     0.074 A 
ATOM     40  C   UNL A   1      41.890  27.606  28.591  1.00  0.00     0.049 A 
ATOM     41  N   UNL A   1      41.617  24.572  28.932  1.00  0.00    -0.248 NA
ATOM     42  C   UNL A   1      39.942  24.786  27.359  1.00  0.00     0.031 C 
ATOM     43  C   UNL A   1      43.262  27.242  28.298  1.00  0.00     0.029 A 
ATOM     44  N   UNL A   1      41.978  28.946  28.980  1.00  0.00    -0.354 N 
ATOM     45  C   UNL A   1      41.611  23.430  28.160  1.00  0.00     0.074 A 
ATOM     46  C   UNL A   1      40.469  23.558  27.279  1.00  0.00     0.031 C 
ATOM     47  C   UNL A   1      44.064  28.187  28.831  1.00  0.00     0.029 A 
ATOM     48  C   UNL A   1      43.230  29.134  29.564  1.00  0.00     0.049 A 
ATOM     49  H   UNL A   1      41.282  29.633  28.863  1.00  0.00     0.167 HD
ATOM     50  C   UNL A   1      42.692  22.598  28.148  1.00  0.00     0.037 A 
ATOM     51  C   UNL A   1      43.327  29.469  30.886  1.00  0.00     0.037 A 
ATOM     52  C   UNL A   1      43.801  23.197  28.884  1.00  0.00     0.049 A 
ATOM     53  C   UNL A   1      43.812  28.296  31.712  1.00  0.00     0.074 A 
ATOM     54  C   UNL A   1      44.859  23.976  28.438  1.00  0.00     0.029 A 
ATOM     55  N   UNL A   1      43.704  23.424  30.254  1.00  0.00    -0.354 N 
ATOM     56  N   UNL A   1      43.983  27.094  31.234  1.00  0.00    -0.248 NA
ATOM     57  C   UNL A   1      44.109  28.370  33.139  1.00  0.00     0.031 C 
ATOM     58  C   UNL A   1      45.310  24.769  29.523  1.00  0.00     0.029 A 
ATOM     59  C   UNL A   1      44.561  24.446  30.638  1.00  0.00     0.049 A 
ATOM     60  H   UNL A   1      43.112  22.928  30.864  1.00  0.00     0.167 HD
ATOM     61  C   UNL A   1      44.376  26.247  32.231  1.00  0.00     0.074 A 
ATOM     62  C   UNL A   1      44.470  27.101  33.402  1.00  0.00     0.031 C 
ATOM     63  C   UNL A   1      44.585  24.914  32.018  1.00  0.00     0.037 A 
BRANCH  50  64
ATOM     64  C   UNL A   1      42.823  21.477  27.147  1.00  0.00     0.057 A 
ATOM     65  C   UNL A   1      42.083  20.286  27.246  1.00  0.00     0.134 A 
ATOM     66  C   UNL A   1      43.703  21.533  26.050  1.00  0.00     0.134 A 
ATOM     67  F   UNL A   1      41.146  20.115  28.187  1.00  0.00    -0.206 F 
ATOM     68  C   UNL A   1      42.277  19.197  26.385  1.00  0.00     0.040 A 
ATOM     69  C   UNL A   1      43.935  20.440  25.201  1.00  0.00     0.040 A 
ATOM     70  F   UNL A   1      44.368  22.662  25.766  1.00  0.00    -0.206 F 
ATOM     71  C   UNL A   1      43.226  19.259  25.375  1.00  0.00     0.006 A 
ENDBRANCH  50  64
BRANCH  51  72
ATOM     72  C   UNL A   1      42.307  30.481  31.303  1.00  0.00     0.057 A 
ATOM     73  C   UNL A   1      42.452  31.779  30.775  1.00  0.00     0.134 A 
ATOM     74  C   UNL A   1      41.032  30.120  31.752  1.00  0.00     0.134 A 
ATOM     75  F   UNL A   1      43.660  32.216  30.391  1.00  0.00    -0.206 F 
ATOM     76  C   UNL A   1      41.348  32.592  30.503  1.00  0.00     0.040 A 
ATOM     77  C   UNL A   1      39.923  30.944  31.513  1.00  0.00     0.040 A 
ATOM     78  F   UNL A   1      40.811  28.906  32.277  1.00  0.00    -0.206 F 
ATOM     79  C   UNL A   1      40.071  32.149  30.826  1.00  0.00     0.006 A 
ENDBRANCH  51  72
BRANCH  63  80
ATOM     80  C   UNL A   1      44.944  23.936  33.094  1.00  0.00     0.057 A 
ATOM     81  C   UNL A   1      44.087  22.933  33.561  1.00  0.00     0.134 A 
ATOM     82  C   UNL A   1      46.252  23.924  33.623  1.00  0.00     0.134 A 
ATOM     83  F   UNL A   1      42.861  22.768  33.045  1.00  0.00    -0.206 F 
ATOM     84  C   UNL A   1      44.478  22.029  34.554  1.00  0.00     0.040 A 
ATOM     85  C   UNL A   1      46.671  22.990  34.569  1.00  0.00     0.040 A 
ATOM     86  F   UNL A   1      47.177  24.812  33.227  1.00  0.00    -0.206 F 
ATOM     87  C   UNL A   1      45.775  22.053  35.057  1.00  0.00     0.006 A 
ENDBRANCH  63  80
ENDBRANCH  37  38
ENDBRANCH  30  32
ENDBRANCH  29  30
ENDBRANCH  28  29
ENDBRANCH   1  28
TORSDOF 17
ENDMDL
MODEL 2
REMARK VINA RESULT:     -12.4      3.347      9.392
REMARK SMILES Cc1ccccc1OCc1nc2cc(C(=O)OCCOC(=O)c3ccc(-c4c5nc(c(-c6c(F)cccc6F)c6ccc([nH]6)c(-c6c(F)cccc6F)c6nc(c(-c7c(F)cccc7F)c7ccc4[nH]7)C=C6)C=C5)cc3)ccc2n1C[C@H](C)O
REMARK SMILES IDX 18 1 17 2 15 3 16 4 14 5 10 6 11 7 80 8 12 9 79 10 13 11
REMARK SMILES IDX 78 12 77 13 9 14 8 15 7 16 1 17 2 18 3 19 4 20 6 21 5 22
REMARK SMILES IDX 81 23 82 24 83 25 84 26 19 28 20 29 21 30 22 31 23 32 24 33
REMARK SMILES IDX 76 34 25 35 75 36 26 37 27 38 28 39 69 40 29 41 74 42 68 43
REMARK SMILES IDX 70 44 30 45 73 46 67 47 66 48 31 50 57 51 40 52 56 53 41 54
REMARK SMILES IDX 44 55 55 56 71 57 42 58 43 59 54 61 72 62 45 63 32 64 33 65
REMARK SMILES IDX 38 66 34 67 35 68 37 69 39 70 36 71 58 72 59 73 64 74 60 75
REMARK SMILES IDX 61 76 63 77 65 78 62 79 46 80 47 81 52 82 48 83 49 84 51 85
REMARK SMILES IDX 53 86 50 87
REMARK H PARENT 84 27 70 49 44 60
REMARK Flexibility Score: inf
ROOT
ATOM      1  C   UNL A   1      39.016  21.584  25.881  1.00  0.00     0.275 C 
ENDROOT
BRANCH   1   2
ATOM      2  O   UNL A   1      37.762  22.248  26.051  1.00  0.00    -0.458 OA
BRANCH   2   3
ATOM      3  C   UNL A   1      36.864  21.925  25.109  1.00  0.00     0.338 C 
ATOM      4  O   UNL A   1      36.965  22.153  23.895  1.00  0.00    -0.246 OA
BRANCH   3   5
ATOM      5  C   UNL A   1      35.704  21.202  25.705  1.00  0.00     0.062 A 
ATOM      6  C   UNL A   1      32.368  24.052  26.015  1.00  0.00     0.148 A 
ATOM      7  N   UNL A   1      33.220  23.654  26.955  1.00  0.00    -0.229 NA
ATOM      8  N   UNL A   1      32.950  23.808  24.796  1.00  0.00    -0.322 N 
ATOM      9  C   UNL A   1      34.018  22.744  26.299  1.00  0.00     0.090 A 
ATOM     10  C   UNL A   1      33.593  22.613  24.978  1.00  0.00     0.068 A 
ATOM     11  C   UNL A   1      35.125  21.998  26.704  1.00  0.00     0.046 A 
ATOM     12  C   UNL A   1      33.905  21.537  24.159  1.00  0.00     0.029 A 
ATOM     13  C   UNL A   1      34.890  20.711  24.674  1.00  0.00     0.018 A 
BRANCH   6  14
ATOM     14  C   UNL A   1      30.873  24.133  26.107  1.00  0.00     0.304 C 
BRANCH  14  15
ATOM     15  O   UNL A   1      30.614  25.459  26.623  1.00  0.00    -0.485 OA
BRANCH  15  16
ATOM     16  C   UNL A   1      30.487  26.449  25.690  1.00  0.00     0.122 A 
ATOM     17  C   UNL A   1      32.381  27.792  26.789  1.00  0.00     0.048 C 
ATOM     18  C   UNL A   1      31.326  27.578  25.746  1.00  0.00    -0.009 A 
ATOM     19  C   UNL A   1      31.239  28.540  24.731  1.00  0.00     0.007 A 
ATOM     20  C   UNL A   1      30.376  28.357  23.655  1.00  0.00     0.001 A 
ATOM     21  C   UNL A   1      29.633  26.262  24.605  1.00  0.00     0.047 A 
ATOM     22  C   UNL A   1      29.585  27.212  23.585  1.00  0.00     0.004 A 
ENDBRANCH  15  16
ENDBRANCH  14  15
ENDBRANCH   6  14
BRANCH   8  23
ATOM     23  C   UNL A   1      33.255  24.751  23.728  1.00  0.00     0.155 C 
BRANCH  23  24
ATOM     24  C   UNL A   1      32.549  24.486  22.393  1.00  0.00     0.131 C 
ATOM     25  C   UNL A   1      32.300  25.768  21.618  1.00  0.00     0.040 C 
BRANCH  24  26
ATOM     26  O   UNL A   1      31.295  23.847  22.635  1.00  0.00    -0.392 OA
ATOM     27  H   UNL A   1      31.387  22.892  22.493  1.00  0.00     0.211 HD
ENDBRANCH  24  26
ENDBRANCH  23  24
ENDBRANCH   8  23
ENDBRANCH   3   5
ENDBRANCH   2   3
ENDBRANCH   1   2
BRANCH   1  28
ATOM     28  C   UNL A   1      40.034  22.132  26.876  1.00  0.00     0.275 C 
BRANCH  28  29
ATOM     29  O   UNL A   1      39.886  23.525  27.296  1.00  0.00    -0.458 OA
BRANCH  29  30
ATOM     30  C   UNL A   1      40.567  24.655  27.004  1.00  0.00     0.338 C 
ATOM     31  O   UNL A   1      41.575  24.613  26.296  1.00  0.00    -0.246 OA
BRANCH  30  32
ATOM     32  C   UNL A   1      40.149  25.965  27.541  1.00  0.00     0.060 A 
ATOM     33  C   UNL A   1      40.429  27.146  26.821  1.00  0.00     0.016 A 
ATOM     34  C   UNL A   1      39.523  26.059  28.773  1.00  0.00     0.016 A 
ATOM     35  C   UNL A   1      40.020  28.388  27.306  1.00  0.00     0.010 A 
ATOM     36  C   UNL A   1      38.982  27.250  29.182  1.00  0.00     0.010 A 
ATOM     37  C   UNL A   1      39.287  28.419  28.491  1.00  0.00    -0.014 A 
BRANCH  37  38
ATOM     38  C   UNL A   1      39.075  29.613  29.291  1.00  0.00     0.031 A 
ATOM     39  C   UNL A   1      38.070  30.612  28.939  1.00  0.00     0.074 A 
ATOM     40  C   UNL A   1      39.796  29.676  30.433  1.00  0.00     0.049 A 
ATOM     41  N   UNL A   1      38.279  31.882  28.939  1.00  0.00    -0.248 NA
ATOM     42  C   UNL A   1      36.705  30.232  28.590  1.00  0.00     0.031 C 
ATOM     43  C   UNL A   1      39.751  30.655  31.501  1.00  0.00     0.029 A 
ATOM     44  N   UNL A   1      40.876  28.858  30.778  1.00  0.00    -0.354 N 
ATOM     45  C   UNL A   1      37.036  32.475  28.935  1.00  0.00     0.074 A 
ATOM     46  C   UNL A   1      36.101  31.426  28.587  1.00  0.00     0.031 C 
ATOM     47  C   UNL A   1      40.922  30.595  32.167  1.00  0.00     0.029 A 
ATOM     48  C   UNL A   1      41.789  29.640  31.483  1.00  0.00     0.049 A 
ATOM     49  H   UNL A   1      40.975  27.902  30.560  1.00  0.00     0.167 HD
ATOM     50  C   UNL A   1      36.864  33.723  29.460  1.00  0.00     0.037 A 
ATOM     51  C   UNL A   1      43.033  29.878  30.967  1.00  0.00     0.037 A 
ATOM     52  C   UNL A   1      38.086  34.166  30.126  1.00  0.00     0.049 A 
ATOM     53  C   UNL A   1      43.153  31.301  30.464  1.00  0.00     0.074 A 
ATOM     54  C   UNL A   1      38.475  34.061  31.453  1.00  0.00     0.029 A 
ATOM     55  N   UNL A   1      39.251  34.385  29.396  1.00  0.00    -0.354 N 
ATOM     56  N   UNL A   1      42.154  32.139  30.415  1.00  0.00    -0.248 NA
ATOM     57  C   UNL A   1      44.388  31.884  29.949  1.00  0.00     0.031 C 
ATOM     58  C   UNL A   1      39.891  34.088  31.500  1.00  0.00     0.029 A 
ATOM     59  C   UNL A   1      40.366  34.251  30.213  1.00  0.00     0.049 A 
ATOM     60  H   UNL A   1      39.281  34.606  28.438  1.00  0.00     0.167 HD
ATOM     61  C   UNL A   1      42.564  33.322  29.869  1.00  0.00     0.074 A 
ATOM     62  C   UNL A   1      43.981  33.124  29.621  1.00  0.00     0.031 C 
ATOM     63  C   UNL A   1      41.708  34.366  29.658  1.00  0.00     0.037 A 
BRANCH  50  64
ATOM     64  C   UNL A   1      35.492  34.307  29.691  1.00  0.00     0.057 A 
ATOM     65  C   UNL A   1      34.721  34.855  28.652  1.00  0.00     0.134 A 
ATOM     66  C   UNL A   1      34.891  34.361  30.962  1.00  0.00     0.134 A 
ATOM     67  F   UNL A   1      35.121  34.805  27.376  1.00  0.00    -0.206 F 
ATOM     68  C   UNL A   1      33.494  35.497  28.874  1.00  0.00     0.040 A 
ATOM     69  C   UNL A   1      33.682  35.031  31.207  1.00  0.00     0.040 A 
ATOM     70  F   UNL A   1      35.463  33.757  32.014  1.00  0.00    -0.206 F 
ATOM     71  C   UNL A   1      32.983  35.614  30.158  1.00  0.00     0.006 A 
ENDBRANCH  50  64
BRANCH  51  72
ATOM     72  C   UNL A   1      43.638  28.665  30.335  1.00  0.00     0.057 A 
ATOM     73  C   UNL A   1      44.008  27.618  31.202  1.00  0.00     0.134 A 
ATOM     74  C   UNL A   1      43.417  28.327  28.995  1.00  0.00     0.134 A 
ATOM     75  F   UNL A   1      44.303  27.881  32.484  1.00  0.00    -0.206 F 
ATOM     76  C   UNL A   1      43.944  26.278  30.810  1.00  0.00     0.040 A 
ATOM     77  C   UNL A   1      43.384  26.986  28.586  1.00  0.00     0.040 A 
ATOM     78  F   UNL A   1      43.072  29.266  28.102  1.00  0.00    -0.206 F 
ATOM     79  C   UNL A   1      43.578  25.958  29.508  1.00  0.00     0.006 A 
ENDBRANCH  51  72
BRANCH  63  80
ATOM     80  C   UNL A   1      42.097  35.652  28.997  1.00  0.00     0.057 A 
ATOM     81  C   UNL A   1      41.623  36.067  27.747  1.00  0.00     0.134 A 
ATOM     82  C   UNL A   1      42.906  36.580  29.686  1.00  0.00     0.134 A 
ATOM     83  F   UNL A   1      40.751  35.324  27.051  1.00  0.00    -0.206 F 
ATOM     84  C   UNL A   1      41.999  37.289  27.181  1.00  0.00     0.040 A 
ATOM     85  C   UNL A   1      43.239  37.825  29.158  1.00  0.00     0.040 A 
ATOM     86  F   UNL A   1      43.391  36.314  30.909  1.00  0.00    -0.206 F 
ATOM     87  C   UNL A   1      42.806  38.175  27.889  1.00  0.00     0.006 A 
ENDBRANCH  63  80
ENDBRANCH  37  38
ENDBRANCH  30  32
ENDBRANCH  29  30
ENDBRANCH  28  29
ENDBRANCH   1  28
TORSDOF 17
ENDMDL
MODEL 3
REMARK VINA RESULT:     -12.4      3.475      9.638
REMARK SMILES Cc1ccccc1OCc1nc2cc(C(=O)OCCOC(=O)c3ccc(-c4c5nc(c(-c6c(F)cccc6F)c6ccc([nH]6)c(-c6c(F)cccc6F)c6nc(c(-c7c(F)cccc7F)c7ccc4[nH]7)C=C6)C=C5)cc3)ccc2n1C[C@H](C)O
REMARK SMILES IDX 18 1 17 2 15 3 16 4 14 5 10 6 11 7 80 8 12 9 79 10 13 11
REMARK SMILES IDX 78 12 77 13 9 14 8 15 7 16 1 17 2 18 3 19 4 20 6 21 5 22
REMARK SMILES IDX 81 23 82 24 83 25 84 26 19 28 20 29 21 30 22 31 23 32 24 33
REMARK SMILES IDX 76 34 25 35 75 36 26 37 27 38 28 39 69 40 29 41 74 42 68 43
REMARK SMILES IDX 70 44 30 45 73 46 67 47 66 48 31 50 57 51 40 52 56 53 41 54
REMARK SMILES IDX 44 55 55 56 71 57 42 58 43 59 54 61 72 62 45 63 32 64 33 65
REMARK SMILES IDX 38 66 34 67 35 68 37 69 39 70 36 71 58 72 59 73 64 74 60 75
REMARK SMILES IDX 61 76 63 77 65 78 62 79 46 80 47 81 52 82 48 83 49 84 51 85
REMARK SMILES IDX 53 86 50 87
REMARK H PARENT 84 27 70 49 44 60
REMARK Flexibility Score: inf
ROOT
ATOM      1  C   UNL A   1      39.622  21.439  26.126  1.00  0.00     0.275 C 
ENDROOT
BRANCH   1   2
ATOM      2  O   UNL A   1      38.251  21.835  26.212  1.00  0.00    -0.458 OA
BRANCH   2   3
ATOM      3  C   UNL A   1      37.645  21.890  25.017  1.00  0.00     0.338 C 
ATOM      4  O   UNL A   1      37.418  20.929  24.268  1.00  0.00    -0.246 OA
BRANCH   3   5
ATOM      5  C   UNL A   1      37.226  23.285  24.697  1.00  0.00     0.062 A 
ATOM      6  C   UNL A   1      33.067  23.137  23.271  1.00  0.00     0.148 A 
ATOM      7  N   UNL A   1      34.192  23.213  22.566  1.00  0.00    -0.229 NA
ATOM      8  N   UNL A   1      33.385  22.639  24.510  1.00  0.00    -0.322 N 
ATOM      9  C   UNL A   1      35.172  23.257  23.532  1.00  0.00     0.090 A 
ATOM     10  C   UNL A   1      34.587  23.229  24.797  1.00  0.00     0.068 A 
ATOM     11  C   UNL A   1      36.565  23.298  23.459  1.00  0.00     0.046 A 
ATOM     12  C   UNL A   1      35.222  23.636  25.962  1.00  0.00     0.029 A 
ATOM     13  C   UNL A   1      36.584  23.839  25.813  1.00  0.00     0.018 A 
BRANCH   6  14
ATOM     14  C   UNL A   1      31.829  23.970  23.115  1.00  0.00     0.304 C 
BRANCH  14  15
ATOM     15  O   UNL A   1      31.710  24.679  24.370  1.00  0.00    -0.485 OA
BRANCH  15  16
ATOM     16  C   UNL A   1      31.290  25.975  24.288  1.00  0.00     0.122 A 
ATOM     17  C   UNL A   1      33.473  26.799  25.362  1.00  0.00     0.048 C 
ATOM     18  C   UNL A   1      32.120  27.012  24.754  1.00  0.00    -0.009 A 
ATOM     19  C   UNL A   1      31.709  28.341  24.582  1.00  0.00     0.007 A 
ATOM     20  C   UNL A   1      30.525  28.634  23.911  1.00  0.00     0.001 A 
ATOM     21  C   UNL A   1      30.111  26.271  23.606  1.00  0.00     0.047 A 
ATOM     22  C   UNL A   1      29.735  27.600  23.412  1.00  0.00     0.004 A 
ENDBRANCH  15  16
ENDBRANCH  14  15
ENDBRANCH   6  14
BRANCH   8  23
ATOM     23  C   UNL A   1      32.881  21.440  25.165  1.00  0.00     0.155 C 
BRANCH  23  24
ATOM     24  C   UNL A   1      33.506  20.120  24.697  1.00  0.00     0.131 C 
ATOM     25  C   UNL A   1      32.597  18.934  24.968  1.00  0.00     0.040 C 
BRANCH  24  26
ATOM     26  O   UNL A   1      34.744  19.911  25.376  1.00  0.00    -0.392 OA
ATOM     27  H   UNL A   1      35.398  19.556  24.754  1.00  0.00     0.211 HD
ENDBRANCH  24  26
ENDBRANCH  23  24
ENDBRANCH   8  23
ENDBRANCH   3   5
ENDBRANCH   2   3
ENDBRANCH   1   2
BRANCH   1  28
ATOM     28  C   UNL A   1      40.460  22.246  27.112  1.00  0.00     0.275 C 
BRANCH  28  29
ATOM     29  O   UNL A   1      40.106  23.651  27.307  1.00  0.00    -0.458 OA
BRANCH  29  30
ATOM     30  C   UNL A   1      40.682  24.811  26.921  1.00  0.00     0.338 C 
ATOM     31  O   UNL A   1      41.616  24.808  26.117  1.00  0.00    -0.246 OA
BRANCH  30  32
ATOM     32  C   UNL A   1      40.239  26.109  27.467  1.00  0.00     0.060 A 
ATOM     33  C   UNL A   1      40.481  27.298  26.746  1.00  0.00     0.016 A 
ATOM     34  C   UNL A   1      39.628  26.185  28.707  1.00  0.00     0.016 A 
ATOM     35  C   UNL A   1      40.047  28.529  27.239  1.00  0.00     0.010 A 
ATOM     36  C   UNL A   1      39.062  27.361  29.126  1.00  0.00     0.010 A 
ATOM     37  C   UNL A   1      39.329  28.539  28.434  1.00  0.00    -0.014 A 
BRANCH  37  38
ATOM     38  C   UNL A   1      39.098  29.726  29.239  1.00  0.00     0.031 A 
ATOM     39  C   UNL A   1      38.078  30.710  28.891  1.00  0.00     0.074 A 
ATOM     40  C   UNL A   1      39.816  29.794  30.382  1.00  0.00     0.049 A 
ATOM     41  N   UNL A   1      38.267  31.983  28.897  1.00  0.00    -0.248 NA
ATOM     42  C   UNL A   1      36.719  30.311  28.538  1.00  0.00     0.031 C 
ATOM     43  C   UNL A   1      39.755  30.767  31.455  1.00  0.00     0.029 A 
ATOM     44  N   UNL A   1      40.909  28.992  30.724  1.00  0.00    -0.354 N 
ATOM     45  C   UNL A   1      37.015  32.558  28.894  1.00  0.00     0.074 A 
ATOM     46  C   UNL A   1      36.096  31.496  28.541  1.00  0.00     0.031 C 
ATOM     47  C   UNL A   1      40.927  30.722  32.122  1.00  0.00     0.029 A 
ATOM     48  C   UNL A   1      41.809  29.785  31.434  1.00  0.00     0.049 A 
ATOM     49  H   UNL A   1      41.023  28.038  30.502  1.00  0.00     0.167 HD
ATOM     50  C   UNL A   1      36.823  33.800  29.426  1.00  0.00     0.037 A 
ATOM     51  C   UNL A   1      43.049  30.044  30.921  1.00  0.00     0.037 A 
ATOM     52  C   UNL A   1      38.037  34.258  30.094  1.00  0.00     0.049 A 
ATOM     53  C   UNL A   1      43.148  31.471  30.425  1.00  0.00     0.074 A 
ATOM     54  C   UNL A   1      38.426  34.153  31.422  1.00  0.00     0.029 A 
ATOM     55  N   UNL A   1      39.200  34.499  29.367  1.00  0.00    -0.354 N 
ATOM     56  N   UNL A   1      42.136  32.294  30.378  1.00  0.00    -0.248 NA
ATOM     57  C   UNL A   1      44.374  32.075  29.914  1.00  0.00     0.031 C 
ATOM     58  C   UNL A   1      39.842  34.202  31.470  1.00  0.00     0.029 A 
ATOM     59  C   UNL A   1      40.316  34.379  30.184  1.00  0.00     0.049 A 
ATOM     60  H   UNL A   1      39.227  34.725  28.410  1.00  0.00     0.167 HD
ATOM     61  C   UNL A   1      42.529  33.486  29.839  1.00  0.00     0.074 A 
ATOM     62  C   UNL A   1      43.949  33.310  29.591  1.00  0.00     0.031 C 
ATOM     63  C   UNL A   1      41.656  34.517  29.632  1.00  0.00     0.037 A 
BRANCH  50  64
ATOM     64  C   UNL A   1      35.442  34.362  29.658  1.00  0.00     0.057 A 
ATOM     65  C   UNL A   1      34.664  34.904  28.621  1.00  0.00     0.134 A 
ATOM     66  C   UNL A   1      34.838  34.399  30.928  1.00  0.00     0.134 A 
ATOM     67  F   UNL A   1      35.066  34.867  27.345  1.00  0.00    -0.206 F 
ATOM     68  C   UNL A   1      33.427  35.526  28.844  1.00  0.00     0.040 A 
ATOM     69  C   UNL A   1      33.619  35.049  31.175  1.00  0.00     0.040 A 
ATOM     70  F   UNL A   1      35.418  33.798  31.977  1.00  0.00    -0.206 F 
ATOM     71  C   UNL A   1      32.913  35.627  30.129  1.00  0.00     0.006 A 
ENDBRANCH  50  64
BRANCH  51  72
ATOM     72  C   UNL A   1      43.674  28.843  30.283  1.00  0.00     0.057 A 
ATOM     73  C   UNL A   1      44.060  27.798  31.146  1.00  0.00     0.134 A 
ATOM     74  C   UNL A   1      43.459  28.508  28.942  1.00  0.00     0.134 A 
ATOM     75  F   UNL A   1      44.351  28.060  32.429  1.00  0.00    -0.206 F 
ATOM     76  C   UNL A   1      44.018  26.459  30.747  1.00  0.00     0.040 A 
ATOM     77  C   UNL A   1      43.447  27.169  28.526  1.00  0.00     0.040 A 
ATOM     78  F   UNL A   1      43.099  29.445  28.053  1.00  0.00    -0.206 F 
ATOM     79  C   UNL A   1      43.657  26.139  29.444  1.00  0.00     0.006 A 
ENDBRANCH  51  72
BRANCH  63  80
ATOM     80  C   UNL A   1      42.026  35.813  28.977  1.00  0.00     0.057 A 
ATOM     81  C   UNL A   1      42.860  36.775  29.556  1.00  0.00     0.134 A 
ATOM     82  C   UNL A   1      41.614  36.072  27.653  1.00  0.00     0.134 A 
ATOM     83  F   UNL A   1      43.413  36.583  30.762  1.00  0.00    -0.206 F 
ATOM     84  C   UNL A   1      43.194  37.960  28.893  1.00  0.00     0.040 A 
ATOM     85  C   UNL A   1      41.989  37.221  26.960  1.00  0.00     0.040 A 
ATOM     86  F   UNL A   1      40.842  35.207  26.976  1.00  0.00    -0.206 F 
ATOM     87  C   UNL A   1      42.762  38.184  27.589  1.00  0.00     0.006 A 
ENDBRANCH  63  80
ENDBRANCH  37  38
ENDBRANCH  30  32
ENDBRANCH  29  30
ENDBRANCH  28  29
ENDBRANCH   1  28
TORSDOF 17
ENDMDL
