MODEL 1
REMARK VINA RESULT:     -11.7      0.000      0.000
REMARK SMILES O=C(CCN1C(=O)/C(=C/c2cc(Br)cc(Br)c2O)SC1=S)OCCOC(=O)c1ccc(-c2c3nc(c(-c4c(F)cccc4F)c4ccc([nH]4)c(-c4c(F)cccc4F)c4nc(c(-c5c(F)cccc5F)c5ccc2[nH]5)C=C4)C=C3)cc1
REMARK SMILES IDX 23 1 22 2 2 3 1 4 3 5 4 6 5 7 6 8 20 9 7 10 8 11 19 12 21 13
REMARK SMILES IDX 9 14 10 15 11 16 17 17 12 18 15 19 13 20 14 21 16 22 18 23
REMARK SMILES IDX 24 25 25 26 26 27 27 28 28 29 29 30 81 31 30 32 80 33 31 34
REMARK SMILES IDX 32 35 33 36 74 37 34 38 79 39 73 40 75 41 35 42 78 43 72 44
REMARK SMILES IDX 71 45 36 47 62 48 45 49 61 50 46 51 49 52 60 53 76 54 47 55
REMARK SMILES IDX 48 56 59 58 77 59 50 60 37 61 38 62 43 63 39 64 40 65 42 66
REMARK SMILES IDX 44 67 41 68 63 69 64 70 69 71 65 72 66 73 68 74 70 75 67 76
REMARK SMILES IDX 51 77 52 78 57 79 53 80 54 81 56 82 58 83 55 84
REMARK H PARENT 18 24 75 46 49 57
REMARK Flexibility Score: inf
ROOT
ATOM      1  C   UNL A   1      31.802  30.980  26.497  1.00  0.00     0.274 C 
ENDROOT
BRANCH   1   2
ATOM      2  O   UNL A   1      31.041  30.575  25.337  1.00  0.00    -0.462 OA
BRANCH   2   3
ATOM      3  C   UNL A   1      31.196  29.438  24.624  1.00  0.00     0.307 C 
ATOM      4  O   UNL A   1      31.057  29.446  23.403  1.00  0.00    -0.252 OA
BRANCH   3   5
ATOM      5  C   UNL A   1      31.574  28.162  25.326  1.00  0.00     0.144 C 
BRANCH   5   6
ATOM      6  C   UNL A   1      30.581  27.040  25.029  1.00  0.00     0.139 C 
BRANCH   6   7
ATOM      7  N   UNL A   1      31.240  25.766  24.730  1.00  0.00    -0.292 N 
ATOM      8  C   UNL A   1      31.429  24.865  25.766  1.00  0.00     0.266 C 
ATOM      9  C   UNL A   1      31.723  25.393  23.491  1.00  0.00     0.148 C 
ATOM     10  O   UNL A   1      31.056  25.006  26.922  1.00  0.00    -0.268 OA
ATOM     11  C   UNL A   1      32.251  23.720  25.306  1.00  0.00     0.081 C 
ATOM     12  S   UNL A   1      32.538  23.839  23.620  1.00  0.00    -0.054 SA
ATOM     13  S   UNL A   1      31.620  26.214  22.047  1.00  0.00    -0.052 S 
ATOM     14  C   UNL A   1      32.743  22.812  26.161  1.00  0.00     0.033 C 
BRANCH  14  15
ATOM     15  C   UNL A   1      33.660  21.738  25.761  1.00  0.00     0.020 A 
ATOM     16  C   UNL A   1      35.032  22.030  25.719  1.00  0.00     0.027 A 
ATOM     17  C   UNL A   1      33.214  20.470  25.355  1.00  0.00     0.137 A 
ATOM     18  C   UNL A   1      35.937  21.074  25.259  1.00  0.00     0.019 A 
ATOM     19  C   UNL A   1      34.134  19.522  24.891  1.00  0.00     0.061 A 
ATOM     20  Br  UNL A   1      37.780  21.495  25.186  1.00  0.00    -0.051 Br
ATOM     21  C   UNL A   1      35.497  19.822  24.839  1.00  0.00     0.035 A 
ATOM     22  Br  UNL A   1      33.574  17.805  24.304  1.00  0.00    -0.047 Br
BRANCH  17  23
ATOM     23  O   UNL A   1      31.887  20.135  25.393  1.00  0.00    -0.506 OA
ATOM     24  H   UNL A   1      31.309  20.572  25.987  1.00  0.00     0.293 HD
ENDBRANCH  17  23
ENDBRANCH  14  15
ENDBRANCH   6   7
ENDBRANCH   5   6
ENDBRANCH   3   5
ENDBRANCH   2   3
ENDBRANCH   1   2
BRANCH   1  25
ATOM     25  C   UNL A   1      31.557  32.441  26.865  1.00  0.00     0.275 C 
BRANCH  25  26
ATOM     26  O   UNL A   1      32.785  33.177  26.751  1.00  0.00    -0.458 OA
BRANCH  26  27
ATOM     27  C   UNL A   1      33.239  33.713  27.912  1.00  0.00     0.338 C 
ATOM     28  O   UNL A   1      32.667  34.526  28.614  1.00  0.00    -0.246 OA
BRANCH  27  29
ATOM     29  C   UNL A   1      34.489  33.031  28.305  1.00  0.00     0.060 A 
ATOM     30  C   UNL A   1      34.412  31.671  28.631  1.00  0.00     0.016 A 
ATOM     31  C   UNL A   1      35.714  33.704  28.362  1.00  0.00     0.016 A 
ATOM     32  C   UNL A   1      35.550  30.993  29.063  1.00  0.00     0.010 A 
ATOM     33  C   UNL A   1      36.854  33.024  28.797  1.00  0.00     0.010 A 
ATOM     34  C   UNL A   1      36.768  31.675  29.183  1.00  0.00    -0.014 A 
BRANCH  34  35
ATOM     35  C   UNL A   1      37.913  31.026  29.859  1.00  0.00     0.031 A 
ATOM     36  C   UNL A   1      38.186  31.364  31.299  1.00  0.00     0.074 A 
ATOM     37  C   UNL A   1      38.692  30.144  29.210  1.00  0.00     0.049 A 
ATOM     38  N   UNL A   1      39.132  30.928  32.089  1.00  0.00    -0.248 NA
ATOM     39  C   UNL A   1      37.270  32.329  31.928  1.00  0.00     0.031 C 
ATOM     40  C   UNL A   1      38.518  29.722  27.822  1.00  0.00     0.029 A 
ATOM     41  N   UNL A   1      39.794  29.451  29.640  1.00  0.00    -0.354 N 
ATOM     42  C   UNL A   1      38.921  31.556  33.308  1.00  0.00     0.074 A 
ATOM     43  C   UNL A   1      37.782  32.434  33.145  1.00  0.00     0.031 C 
ATOM     44  C   UNL A   1      39.490  28.848  27.509  1.00  0.00     0.029 A 
ATOM     45  C   UNL A   1      40.361  28.663  28.669  1.00  0.00     0.049 A 
ATOM     46  H   UNL A   1      40.146  29.512  30.557  1.00  0.00     0.167 HD
ATOM     47  C   UNL A   1      39.606  31.406  34.466  1.00  0.00     0.037 A 
ATOM     48  C   UNL A   1      41.463  27.890  28.714  1.00  0.00     0.037 A 
ATOM     49  C   UNL A   1      40.742  30.541  34.629  1.00  0.00     0.049 A 
ATOM     50  C   UNL A   1      42.245  27.786  29.996  1.00  0.00     0.074 A 
ATOM     51  C   UNL A   1      41.492  30.306  35.769  1.00  0.00     0.029 A 
ATOM     52  N   UNL A   1      41.296  29.773  33.618  1.00  0.00    -0.354 N 
ATOM     53  N   UNL A   1      42.011  28.351  31.156  1.00  0.00    -0.248 NA
ATOM     54  C   UNL A   1      43.442  26.933  29.976  1.00  0.00     0.031 C 
ATOM     55  C   UNL A   1      42.525  29.423  35.436  1.00  0.00     0.029 A 
ATOM     56  C   UNL A   1      42.394  29.080  34.100  1.00  0.00     0.049 A 
ATOM     57  H   UNL A   1      40.960  29.726  32.694  1.00  0.00     0.167 HD
ATOM     58  C   UNL A   1      43.010  27.899  32.009  1.00  0.00     0.074 A 
ATOM     59  C   UNL A   1      43.851  27.009  31.235  1.00  0.00     0.031 C 
ATOM     60  C   UNL A   1      43.211  28.189  33.317  1.00  0.00     0.037 A 
BRANCH  47  61
ATOM     61  C   UNL A   1      39.145  32.211  35.642  1.00  0.00     0.057 A 
ATOM     62  C   UNL A   1      39.548  33.539  35.827  1.00  0.00     0.134 A 
ATOM     63  C   UNL A   1      38.275  31.659  36.589  1.00  0.00     0.134 A 
ATOM     64  F   UNL A   1      40.396  34.119  34.963  1.00  0.00    -0.206 F 
ATOM     65  C   UNL A   1      39.118  34.284  36.926  1.00  0.00     0.040 A 
ATOM     66  C   UNL A   1      37.820  32.401  37.680  1.00  0.00     0.040 A 
ATOM     67  F   UNL A   1      37.851  30.392  36.469  1.00  0.00    -0.206 F 
ATOM     68  C   UNL A   1      38.246  33.717  37.854  1.00  0.00     0.006 A 
ENDBRANCH  47  61
BRANCH  48  69
ATOM     69  C   UNL A   1      41.897  27.145  27.507  1.00  0.00     0.057 A 
ATOM     70  C   UNL A   1      42.673  27.759  26.517  1.00  0.00     0.134 A 
ATOM     71  C   UNL A   1      41.525  25.810  27.304  1.00  0.00     0.134 A 
ATOM     72  F   UNL A   1      43.039  29.042  26.648  1.00  0.00    -0.206 F 
ATOM     73  C   UNL A   1      43.049  27.078  25.359  1.00  0.00     0.040 A 
ATOM     74  C   UNL A   1      41.911  25.112  26.159  1.00  0.00     0.040 A 
ATOM     75  F   UNL A   1      40.783  25.168  28.217  1.00  0.00    -0.206 F 
ATOM     76  C   UNL A   1      42.670  25.749  25.179  1.00  0.00     0.006 A 
ENDBRANCH  48  69
BRANCH  60  77
ATOM     77  C   UNL A   1      44.360  27.515  34.006  1.00  0.00     0.057 A 
ATOM     78  C   UNL A   1      44.229  26.252  34.595  1.00  0.00     0.134 A 
ATOM     79  C   UNL A   1      45.624  28.118  34.033  1.00  0.00     0.134 A 
ATOM     80  F   UNL A   1      43.042  25.630  34.611  1.00  0.00    -0.206 F 
ATOM     81  C   UNL A   1      45.314  25.617  35.202  1.00  0.00     0.040 A 
ATOM     82  C   UNL A   1      46.721  27.483  34.618  1.00  0.00     0.040 A 
ATOM     83  F   UNL A   1      45.816  29.324  33.479  1.00  0.00    -0.206 F 
ATOM     84  C   UNL A   1      46.566  26.231  35.207  1.00  0.00     0.006 A 
ENDBRANCH  60  77
ENDBRANCH  34  35
ENDBRANCH  27  29
ENDBRANCH  26  27
ENDBRANCH  25  26
ENDBRANCH   1  25
TORSDOF 15
ENDMDL
MODEL 2
REMARK VINA RESULT:     -11.6      0.157      1.597
REMARK SMILES O=C(CCN1C(=O)/C(=C/c2cc(Br)cc(Br)c2O)SC1=S)OCCOC(=O)c1ccc(-c2c3nc(c(-c4c(F)cccc4F)c4ccc([nH]4)c(-c4c(F)cccc4F)c4nc(c(-c5c(F)cccc5F)c5ccc2[nH]5)C=C4)C=C3)cc1
REMARK SMILES IDX 23 1 22 2 2 3 1 4 3 5 4 6 5 7 6 8 20 9 7 10 8 11 19 12 21 13
REMARK SMILES IDX 9 14 10 15 11 16 17 17 12 18 15 19 13 20 14 21 16 22 18 23
REMARK SMILES IDX 24 25 25 26 26 27 27 28 28 29 29 30 81 31 30 32 80 33 31 34
REMARK SMILES IDX 32 35 33 36 74 37 34 38 79 39 73 40 75 41 35 42 78 43 72 44
REMARK SMILES IDX 71 45 36 47 62 48 45 49 61 50 46 51 49 52 60 53 76 54 47 55
REMARK SMILES IDX 48 56 59 58 77 59 50 60 37 61 38 62 43 63 39 64 40 65 42 66
REMARK SMILES IDX 44 67 41 68 63 69 64 70 69 71 65 72 66 73 68 74 70 75 67 76
REMARK SMILES IDX 51 77 52 78 57 79 53 80 54 81 56 82 58 83 55 84
REMARK H PARENT 18 24 75 46 49 57
REMARK Flexibility Score: inf
ROOT
ATOM      1  C   UNL A   1      31.676  30.825  26.699  1.00  0.00     0.274 C 
ENDROOT
BRANCH   1   2
ATOM      2  O   UNL A   1      31.582  30.507  25.292  1.00  0.00    -0.462 OA
BRANCH   2   3
ATOM      3  C   UNL A   1      31.202  29.327  24.753  1.00  0.00     0.307 C 
ATOM      4  O   UNL A   1      30.535  29.301  23.721  1.00  0.00    -0.252 OA
BRANCH   3   5
ATOM      5  C   UNL A   1      31.627  28.038  25.403  1.00  0.00     0.144 C 
BRANCH   5   6
ATOM      6  C   UNL A   1      30.639  26.909  25.114  1.00  0.00     0.139 C 
BRANCH   6   7
ATOM      7  N   UNL A   1      31.305  25.644  24.793  1.00  0.00    -0.292 N 
ATOM      8  C   UNL A   1      31.483  24.719  25.809  1.00  0.00     0.266 C 
ATOM      9  C   UNL A   1      31.804  25.302  23.551  1.00  0.00     0.148 C 
ATOM     10  O   UNL A   1      31.096  24.831  26.963  1.00  0.00    -0.268 OA
ATOM     11  C   UNL A   1      32.314  23.586  25.332  1.00  0.00     0.081 C 
ATOM     12  S   UNL A   1      32.621  23.747  23.652  1.00  0.00    -0.054 SA
ATOM     13  S   UNL A   1      31.717  26.157  22.126  1.00  0.00    -0.052 S 
ATOM     14  C   UNL A   1      32.797  22.659  26.170  1.00  0.00     0.033 C 
BRANCH  14  15
ATOM     15  C   UNL A   1      33.722  21.598  25.755  1.00  0.00     0.020 A 
ATOM     16  C   UNL A   1      35.095  21.884  25.762  1.00  0.00     0.027 A 
ATOM     17  C   UNL A   1      33.283  20.348  25.289  1.00  0.00     0.137 A 
ATOM     18  C   UNL A   1      36.010  20.943  25.293  1.00  0.00     0.019 A 
ATOM     19  C   UNL A   1      34.213  19.414  24.816  1.00  0.00     0.061 A 
ATOM     20  Br  UNL A   1      37.855  21.358  25.287  1.00  0.00    -0.051 Br
ATOM     21  C   UNL A   1      35.577  19.710  24.813  1.00  0.00     0.035 A 
ATOM     22  Br  UNL A   1      33.664  17.723  24.149  1.00  0.00    -0.047 Br
BRANCH  17  23
ATOM     23  O   UNL A   1      31.954  20.017  25.277  1.00  0.00    -0.506 OA
ATOM     24  H   UNL A   1      31.303  20.691  25.243  1.00  0.00     0.293 HD
ENDBRANCH  17  23
ENDBRANCH  14  15
ENDBRANCH   6   7
ENDBRANCH   5   6
ENDBRANCH   3   5
ENDBRANCH   2   3
ENDBRANCH   1   2
BRANCH   1  25
ATOM     25  C   UNL A   1      31.507  32.319  26.963  1.00  0.00     0.275 C 
BRANCH  25  26
ATOM     26  O   UNL A   1      32.756  32.991  26.738  1.00  0.00    -0.458 OA
BRANCH  26  27
ATOM     27  C   UNL A   1      33.269  33.621  27.825  1.00  0.00     0.338 C 
ATOM     28  O   UNL A   1      32.740  34.504  28.474  1.00  0.00    -0.246 OA
BRANCH  27  29
ATOM     29  C   UNL A   1      34.525  32.954  28.225  1.00  0.00     0.060 A 
ATOM     30  C   UNL A   1      34.472  31.585  28.512  1.00  0.00     0.016 A 
ATOM     31  C   UNL A   1      35.734  33.651  28.324  1.00  0.00     0.016 A 
ATOM     32  C   UNL A   1      35.615  30.919  28.949  1.00  0.00     0.010 A 
ATOM     33  C   UNL A   1      36.880  32.983  28.763  1.00  0.00     0.010 A 
ATOM     34  C   UNL A   1      36.815  31.623  29.111  1.00  0.00    -0.014 A 
BRANCH  34  35
ATOM     35  C   UNL A   1      37.960  30.980  29.792  1.00  0.00     0.031 A 
ATOM     36  C   UNL A   1      38.226  31.321  31.232  1.00  0.00     0.074 A 
ATOM     37  C   UNL A   1      38.746  30.101  29.147  1.00  0.00     0.049 A 
ATOM     38  N   UNL A   1      39.172  30.890  32.027  1.00  0.00    -0.248 NA
ATOM     39  C   UNL A   1      37.304  32.283  31.857  1.00  0.00     0.031 C 
ATOM     40  C   UNL A   1      38.579  29.676  27.759  1.00  0.00     0.029 A 
ATOM     41  N   UNL A   1      39.850  29.413  29.581  1.00  0.00    -0.354 N 
ATOM     42  C   UNL A   1      38.953  31.519  33.244  1.00  0.00     0.074 A 
ATOM     43  C   UNL A   1      37.811  32.391  33.076  1.00  0.00     0.031 C 
ATOM     44  C   UNL A   1      39.556  28.806  27.450  1.00  0.00     0.029 A 
ATOM     45  C   UNL A   1      40.423  28.627  28.614  1.00  0.00     0.049 A 
ATOM     46  H   UNL A   1      40.198  29.477  30.500  1.00  0.00     0.167 HD
ATOM     47  C   UNL A   1      39.635  31.373  34.405  1.00  0.00     0.037 A 
ATOM     48  C   UNL A   1      41.528  27.859  28.664  1.00  0.00     0.037 A 
ATOM     49  C   UNL A   1      40.774  30.513  34.574  1.00  0.00     0.049 A 
ATOM     50  C   UNL A   1      42.306  27.760  29.949  1.00  0.00     0.074 A 
ATOM     51  C   UNL A   1      41.521  30.282  35.716  1.00  0.00     0.029 A 
ATOM     52  N   UNL A   1      41.335  29.746  33.565  1.00  0.00    -0.354 N 
ATOM     53  N   UNL A   1      42.066  28.325  31.107  1.00  0.00    -0.248 NA
ATOM     54  C   UNL A   1      43.508  26.912  29.934  1.00  0.00     0.031 C 
ATOM     55  C   UNL A   1      42.559  29.404  35.388  1.00  0.00     0.029 A 
ATOM     56  C   UNL A   1      42.434  29.058  34.052  1.00  0.00     0.049 A 
ATOM     57  H   UNL A   1      41.003  29.697  32.640  1.00  0.00     0.167 HD
ATOM     58  C   UNL A   1      43.063  27.878  31.964  1.00  0.00     0.074 A 
ATOM     59  C   UNL A   1      43.911  26.991  31.194  1.00  0.00     0.031 C 
ATOM     60  C   UNL A   1      43.258  28.171  33.273  1.00  0.00     0.037 A 
BRANCH  47  61
ATOM     61  C   UNL A   1      39.166  32.177  35.578  1.00  0.00     0.057 A 
ATOM     62  C   UNL A   1      38.273  31.650  36.520  1.00  0.00     0.134 A 
ATOM     63  C   UNL A   1      39.623  33.485  35.778  1.00  0.00     0.134 A 
ATOM     64  F   UNL A   1      37.785  30.409  36.374  1.00  0.00    -0.206 F 
ATOM     65  C   UNL A   1      37.837  32.403  37.610  1.00  0.00     0.040 A 
ATOM     66  C   UNL A   1      39.210  34.240  36.876  1.00  0.00     0.040 A 
ATOM     67  F   UNL A   1      40.479  34.047  34.912  1.00  0.00    -0.206 F 
ATOM     68  C   UNL A   1      38.310  33.702  37.794  1.00  0.00     0.006 A 
ENDBRANCH  47  61
BRANCH  48  69
ATOM     69  C   UNL A   1      41.971  27.114  27.459  1.00  0.00     0.057 A 
ATOM     70  C   UNL A   1      41.564  25.795  27.233  1.00  0.00     0.134 A 
ATOM     71  C   UNL A   1      42.833  27.696  26.522  1.00  0.00     0.134 A 
ATOM     72  F   UNL A   1      40.757  25.179  28.110  1.00  0.00    -0.206 F 
ATOM     73  C   UNL A   1      42.010  25.073  26.126  1.00  0.00     0.040 A 
ATOM     74  C   UNL A   1      43.272  26.992  25.399  1.00  0.00     0.040 A 
ATOM     75  F   UNL A   1      43.258  28.957  26.683  1.00  0.00    -0.206 F 
ATOM     76  C   UNL A   1      42.865  25.673  25.203  1.00  0.00     0.006 A 
ENDBRANCH  48  69
BRANCH  60  77
ATOM     77  C   UNL A   1      44.408  27.503  33.966  1.00  0.00     0.057 A 
ATOM     78  C   UNL A   1      45.669  28.105  34.050  1.00  0.00     0.134 A 
ATOM     79  C   UNL A   1      44.235  26.267  34.600  1.00  0.00     0.134 A 
ATOM     80  F   UNL A   1      45.900  29.283  33.452  1.00  0.00    -0.206 F 
ATOM     81  C   UNL A   1      46.724  27.492  34.728  1.00  0.00     0.040 A 
ATOM     82  C   UNL A   1      45.276  25.654  35.300  1.00  0.00     0.040 A 
ATOM     83  F   UNL A   1      43.048  25.642  34.564  1.00  0.00    -0.206 F 
ATOM     84  C   UNL A   1      46.525  26.266  35.362  1.00  0.00     0.006 A 
ENDBRANCH  60  77
ENDBRANCH  34  35
ENDBRANCH  27  29
ENDBRANCH  26  27
ENDBRANCH  25  26
ENDBRANCH   1  25
TORSDOF 15
ENDMDL
MODEL 3
REMARK VINA RESULT:     -11.6      3.655      8.354
REMARK SMILES O=C(CCN1C(=O)/C(=C/c2cc(Br)cc(Br)c2O)SC1=S)OCCOC(=O)c1ccc(-c2c3nc(c(-c4c(F)cccc4F)c4ccc([nH]4)c(-c4c(F)cccc4F)c4nc(c(-c5c(F)cccc5F)c5ccc2[nH]5)C=C4)C=C3)cc1
REMARK SMILES IDX 23 1 22 2 2 3 1 4 3 5 4 6 5 7 6 8 20 9 7 10 8 11 19 12 21 13
REMARK SMILES IDX 9 14 10 15 11 16 17 17 12 18 15 19 13 20 14 21 16 22 18 23
REMARK SMILES IDX 24 25 25 26 26 27 27 28 28 29 29 30 81 31 30 32 80 33 31 34
REMARK SMILES IDX 32 35 33 36 74 37 34 38 79 39 73 40 75 41 35 42 78 43 72 44
REMARK SMILES IDX 71 45 36 47 62 48 45 49 61 50 46 51 49 52 60 53 76 54 47 55
REMARK SMILES IDX 48 56 59 58 77 59 50 60 37 61 38 62 43 63 39 64 40 65 42 66
REMARK SMILES IDX 44 67 41 68 63 69 64 70 69 71 65 72 66 73 68 74 70 75 67 76
REMARK SMILES IDX 51 77 52 78 57 79 53 80 54 81 56 82 58 83 55 84
REMARK H PARENT 18 24 75 46 49 57
REMARK Flexibility Score: inf
ROOT
ATOM      1  C   UNL A   1      44.015  21.609  25.774  1.00  0.00     0.274 C 
ENDROOT
BRANCH   1   2
ATOM      2  O   UNL A   1      42.644  21.200  25.974  1.00  0.00    -0.462 OA
BRANCH   2   3
ATOM      3  C   UNL A   1      41.912  21.345  27.101  1.00  0.00     0.307 C 
ATOM      4  O   UNL A   1      42.457  21.643  28.162  1.00  0.00    -0.252 OA
BRANCH   3   5
ATOM      5  C   UNL A   1      40.419  21.173  27.049  1.00  0.00     0.144 C 
BRANCH   5   6
ATOM      6  C   UNL A   1      39.861  21.503  25.666  1.00  0.00     0.139 C 
BRANCH   6   7
ATOM      7  N   UNL A   1      38.485  22.003  25.717  1.00  0.00    -0.292 N 
ATOM      8  C   UNL A   1      37.471  21.184  25.244  1.00  0.00     0.266 C 
ATOM      9  C   UNL A   1      38.108  23.249  26.176  1.00  0.00     0.148 C 
ATOM     10  O   UNL A   1      37.603  20.045  24.818  1.00  0.00    -0.268 OA
ATOM     11  C   UNL A   1      36.184  21.920  25.225  1.00  0.00     0.081 C 
ATOM     12  S   UNL A   1      36.377  23.465  25.945  1.00  0.00    -0.054 SA
ATOM     13  S   UNL A   1      39.060  24.441  26.844  1.00  0.00    -0.052 S 
ATOM     14  C   UNL A   1      35.091  21.423  24.628  1.00  0.00     0.033 C 
BRANCH  14  15
ATOM     15  C   UNL A   1      33.838  22.173  24.482  1.00  0.00     0.020 A 
ATOM     16  C   UNL A   1      33.734  23.074  23.411  1.00  0.00     0.027 A 
ATOM     17  C   UNL A   1      32.783  22.076  25.404  1.00  0.00     0.137 A 
ATOM     18  C   UNL A   1      32.602  23.876  23.277  1.00  0.00     0.019 A 
ATOM     19  C   UNL A   1      31.654  22.892  25.260  1.00  0.00     0.061 A 
ATOM     20  Br  UNL A   1      32.492  25.101  21.841  1.00  0.00    -0.051 Br
ATOM     21  C   UNL A   1      31.562  23.796  24.199  1.00  0.00     0.035 A 
ATOM     22  Br  UNL A   1      30.216  22.817  26.497  1.00  0.00    -0.047 Br
BRANCH  17  23
ATOM     23  O   UNL A   1      32.833  21.201  26.456  1.00  0.00    -0.506 OA
ATOM     24  H   UNL A   1      32.106  21.131  27.042  1.00  0.00     0.293 HD
ENDBRANCH  17  23
ENDBRANCH  14  15
ENDBRANCH   6   7
ENDBRANCH   5   6
ENDBRANCH   3   5
ENDBRANCH   2   3
ENDBRANCH   1   2
BRANCH   1  25
ATOM     25  C   UNL A   1      44.203  22.373  24.466  1.00  0.00     0.275 C 
BRANCH  25  26
ATOM     26  O   UNL A   1      43.580  23.663  24.568  1.00  0.00    -0.458 OA
BRANCH  26  27
ATOM     27  C   UNL A   1      44.376  24.643  25.065  1.00  0.00     0.338 C 
ATOM     28  O   UNL A   1      45.497  24.931  24.693  1.00  0.00    -0.246 OA
BRANCH  27  29
ATOM     29  C   UNL A   1      43.609  25.442  26.042  1.00  0.00     0.060 A 
ATOM     30  C   UNL A   1      43.841  26.823  26.077  1.00  0.00     0.016 A 
ATOM     31  C   UNL A   1      42.683  24.859  26.913  1.00  0.00     0.016 A 
ATOM     32  C   UNL A   1      43.187  27.616  27.018  1.00  0.00     0.010 A 
ATOM     33  C   UNL A   1      42.029  25.654  27.857  1.00  0.00     0.010 A 
ATOM     34  C   UNL A   1      42.306  27.030  27.935  1.00  0.00    -0.014 A 
BRANCH  34  35
ATOM     35  C   UNL A   1      41.795  27.823  29.075  1.00  0.00     0.031 A 
ATOM     36  C   UNL A   1      42.500  27.719  30.399  1.00  0.00     0.074 A 
ATOM     37  C   UNL A   1      40.728  28.628  28.937  1.00  0.00     0.049 A 
ATOM     38  N   UNL A   1      42.228  28.311  31.533  1.00  0.00    -0.248 NA
ATOM     39  C   UNL A   1      43.667  26.823  30.449  1.00  0.00     0.031 C 
ATOM     40  C   UNL A   1      39.971  28.826  27.702  1.00  0.00     0.029 A 
ATOM     41  N   UNL A   1      40.093  29.425  29.855  1.00  0.00    -0.354 N 
ATOM     42  C   UNL A   1      43.192  27.866  32.428  1.00  0.00     0.074 A 
ATOM     43  C   UNL A   1      44.033  26.926  31.718  1.00  0.00     0.031 C 
ATOM     44  C   UNL A   1      38.964  29.683  27.943  1.00  0.00     0.029 A 
ATOM     45  C   UNL A   1      38.997  30.079  29.350  1.00  0.00     0.049 A 
ATOM     46  H   UNL A   1      40.395  29.518  30.788  1.00  0.00     0.167 HD
ATOM     47  C   UNL A   1      43.371  28.220  33.722  1.00  0.00     0.037 A 
ATOM     48  C   UNL A   1      38.118  30.896  29.962  1.00  0.00     0.037 A 
ATOM     49  C   UNL A   1      42.533  29.147  34.432  1.00  0.00     0.049 A 
ATOM     50  C   UNL A   1      38.302  31.227  31.419  1.00  0.00     0.074 A 
ATOM     51  C   UNL A   1      42.645  29.584  35.740  1.00  0.00     0.029 A 
ATOM     52  N   UNL A   1      41.423  29.775  33.892  1.00  0.00    -0.354 N 
ATOM     53  N   UNL A   1      39.242  30.835  32.244  1.00  0.00    -0.248 NA
ATOM     54  C   UNL A   1      37.303  32.117  32.028  1.00  0.00     0.031 C 
ATOM     55  C   UNL A   1      41.577  30.449  36.003  1.00  0.00     0.029 A 
ATOM     56  C   UNL A   1      40.825  30.580  34.847  1.00  0.00     0.049 A 
ATOM     57  H   UNL A   1      41.106  29.667  32.966  1.00  0.00     0.167 HD
ATOM     58  C   UNL A   1      38.967  31.454  33.457  1.00  0.00     0.074 A 
ATOM     59  C   UNL A   1      37.774  32.251  33.260  1.00  0.00     0.031 C 
ATOM     60  C   UNL A   1      39.644  31.375  34.628  1.00  0.00     0.037 A 
BRANCH  47  61
ATOM     61  C   UNL A   1      44.514  27.584  34.453  1.00  0.00     0.057 A 
ATOM     62  C   UNL A   1      45.774  28.191  34.515  1.00  0.00     0.134 A 
ATOM     63  C   UNL A   1      44.348  26.361  35.114  1.00  0.00     0.134 A 
ATOM     64  F   UNL A   1      46.000  29.354  33.885  1.00  0.00    -0.206 F 
ATOM     65  C   UNL A   1      46.837  27.594  35.194  1.00  0.00     0.040 A 
ATOM     66  C   UNL A   1      45.398  25.766  35.815  1.00  0.00     0.040 A 
ATOM     67  F   UNL A   1      43.166  25.729  35.093  1.00  0.00    -0.206 F 
ATOM     68  C   UNL A   1      46.649  26.379  35.852  1.00  0.00     0.006 A 
ENDBRANCH  47  61
BRANCH  48  69
ATOM     69  C   UNL A   1      36.981  31.467  29.200  1.00  0.00     0.057 A 
ATOM     70  C   UNL A   1      37.008  32.787  28.738  1.00  0.00     0.134 A 
ATOM     71  C   UNL A   1      35.829  30.714  28.940  1.00  0.00     0.134 A 
ATOM     72  F   UNL A   1      38.076  33.563  28.978  1.00  0.00    -0.206 F 
ATOM     73  C   UNL A   1      35.924  33.345  28.059  1.00  0.00     0.040 A 
ATOM     74  C   UNL A   1      34.746  31.253  28.245  1.00  0.00     0.040 A 
ATOM     75  F   UNL A   1      35.743  29.442  29.357  1.00  0.00    -0.206 F 
ATOM     76  C   UNL A   1      34.790  32.576  27.808  1.00  0.00     0.006 A 
ENDBRANCH  48  69
BRANCH  60  77
ATOM     77  C   UNL A   1      39.136  32.194  35.777  1.00  0.00     0.057 A 
ATOM     78  C   UNL A   1      38.276  31.656  36.742  1.00  0.00     0.134 A 
ATOM     79  C   UNL A   1      39.552  33.520  35.944  1.00  0.00     0.134 A 
ATOM     80  F   UNL A   1      37.833  30.395  36.630  1.00  0.00    -0.206 F 
ATOM     81  C   UNL A   1      37.836  32.415  37.828  1.00  0.00     0.040 A 
ATOM     82  C   UNL A   1      39.136  34.282  37.037  1.00  0.00     0.040 A 
ATOM     83  F   UNL A   1      40.382  34.091  35.057  1.00  0.00    -0.206 F 
ATOM     84  C   UNL A   1      38.274  33.731  37.980  1.00  0.00     0.006 A 
ENDBRANCH  60  77
ENDBRANCH  34  35
ENDBRANCH  27  29
ENDBRANCH  26  27
ENDBRANCH  25  26
ENDBRANCH   1  25
TORSDOF 15
ENDMDL
